# generated using pymatgen
data_Zr(TlSe)4
_symmetry_space_group_name_H-M   'P 1'
_cell_length_a   9.45178562
_cell_length_b   9.45371804
_cell_length_c   16.28221954
_cell_angle_alpha   104.13750126
_cell_angle_beta   105.02475124
_cell_angle_gamma   90.12490650
_symmetry_Int_Tables_number   1
_chemical_formula_structural   Zr(TlSe)4
_chemical_formula_sum   'Zr5 Tl20 Se20'
_cell_volume   1359.25787044
_cell_formula_units_Z   5
loop_
 _symmetry_equiv_pos_site_id
 _symmetry_equiv_pos_as_xyz
  1  'x, y, z'
loop_
 _atom_site_type_symbol
 _atom_site_label
 _atom_site_symmetry_multiplicity
 _atom_site_fract_x
 _atom_site_fract_y
 _atom_site_fract_z
 _atom_site_occupancy
  Zr  Zr0  1  0.98327925  0.31416197  0.40062974  1
  Zr  Zr1  1  0.01672075  0.68583803  0.59937026  1
  Zr  Zr2  1  0.82224485  0.69393961  0.80065063  1
  Zr  Zr3  1  0.17775515  0.30606039  0.19934937  1
  Zr  Zr4  1  0.00000000  0.50000000  0.00000000  1
  Tl  Tl5  1  0.95201453  0.91737289  0.19939896  1
  Tl  Tl6  1  0.04798547  0.08262711  0.80060104  1
  Tl  Tl7  1  0.78289421  0.28040241  0.59989544  1
  Tl  Tl8  1  0.21710579  0.71959759  0.40010456  1
  Tl  Tl9  1  0.77814421  0.91208498  0.40413781  1
  Tl  Tl10  1  0.22185579  0.08791502  0.59586219  1
  Tl  Tl11  1  0.77644809  0.54845326  0.20453931  1
  Tl  Tl12  1  0.22355191  0.45154674  0.79546069  1
  Tl  Tl13  1  0.62131517  0.90679950  0.61085202  1
  Tl  Tl14  1  0.37868483  0.09320050  0.38914798  1
  Tl  Tl15  1  0.60905511  0.29864484  0.80885857  1
  Tl  Tl16  1  0.39094489  0.70135516  0.19114143  1
  Tl  Tl17  1  0.58720529  0.53501604  0.40102287  1
  Tl  Tl18  1  0.41279471  0.46498396  0.59897713  1
  Tl  Tl19  1  0.41811228  0.90222453  0.79973744  1
  Tl  Tl20  1  0.58188772  0.09777547  0.20026256  1
  Tl  Tl21  1  0.39346318  0.28069896  0.00090852  1
  Tl  Tl22  1  0.60653682  0.71930104  -0.00090852  1
  Tl  Tl23  1  0.22634445  0.89827426  0.99174261  1
  Tl  Tl24  1  0.77365555  0.10172574  0.00825739  1
  Se  Se25  1  0.93763851  0.95612097  0.59774189  1
  Se  Se26  1  0.06236149  0.04387903  0.40225811  1
  Se  Se27  1  0.92976133  0.60510047  0.42030802  1
  Se  Se28  1  0.07023867  0.39489953  0.57969198  1
  Se  Se29  1  0.92679553  0.77129975  0.98075345  1
  Se  Se30  1  0.07320447  0.22870025  0.01924655  1
  Se  Se31  1  0.90956233  0.41712923  0.82024772  1
  Se  Se32  1  0.09043767  0.58287077  0.17975228  1
  Se  Se33  1  0.75685719  0.96866603  0.80661081  1
  Se  Se34  1  0.24314281  0.03133397  0.19338919  1
  Se  Se35  1  0.74359677  0.61529958  0.62090780  1
  Se  Se36  1  0.25640323  0.38470042  0.37909220  1
  Se  Se37  1  0.55085881  0.61987238  0.80240766  1
  Se  Se38  1  0.44914119  0.38012762  0.19759234  1
  Se  Se39  1  0.29066038  0.75776058  0.60350577  1
  Se  Se40  1  0.70933962  0.24223942  0.39649423  1
  Se  Se41  1  0.27605254  0.57193722  0.99595684  1
  Se  Se42  1  0.72394746  0.42806278  0.00404316  1
  Se  Se43  1  0.09632162  0.74061963  0.77780003  1
  Se  Se44  1  0.90367838  0.25938037  0.22219997  1
