# generated using pymatgen
data_Ge2SeS
_symmetry_space_group_name_H-M   'P 1'
_cell_length_a   3.69988872
_cell_length_b   4.59941189
_cell_length_c   10.96479810
_cell_angle_alpha   90.00000000
_cell_angle_beta   90.00000000
_cell_angle_gamma   90.00000000
_symmetry_Int_Tables_number   1
_chemical_formula_structural   Ge2SeS
_chemical_formula_sum   'Ge4 Se2 S2'
_cell_volume   186.59139215
_cell_formula_units_Z   2
loop_
 _symmetry_equiv_pos_site_id
 _symmetry_equiv_pos_as_xyz
  1  'x, y, z'
loop_
 _atom_site_type_symbol
 _atom_site_label
 _atom_site_symmetry_multiplicity
 _atom_site_fract_x
 _atom_site_fract_y
 _atom_site_fract_z
 _atom_site_occupancy
  Ge  Ge0  1  0.00000000  0.13886265  0.63078539  1
  Ge  Ge1  1  0.00000000  0.86113735  0.13078539  1
  Ge  Ge2  1  0.50000000  0.39604240  0.37507516  1
  Ge  Ge3  1  0.50000000  0.60395760  0.87507516  1
  Se  Se4  1  0.50000000  0.23660402  0.14924473  1
  Se  Se5  1  0.50000000  0.76339598  0.64924473  1
  S  S6  1  0.00000000  0.26285381  0.84489372  1
  S  S7  1  0.00000000  0.73714619  0.34489372  1
