# generated using pymatgen
data_RbPSe6
_symmetry_space_group_name_H-M   'P 1'
_cell_length_a   6.97393333
_cell_length_b   11.64254045
_cell_length_c   12.05802982
_cell_angle_alpha   90.00000000
_cell_angle_beta   90.00000000
_cell_angle_gamma   90.00000000
_symmetry_Int_Tables_number   1
_chemical_formula_structural   RbPSe6
_chemical_formula_sum   'Rb4 P4 Se24'
_cell_volume   979.04330135
_cell_formula_units_Z   4
loop_
 _symmetry_equiv_pos_site_id
 _symmetry_equiv_pos_as_xyz
  1  'x, y, z'
loop_
 _atom_site_type_symbol
 _atom_site_label
 _atom_site_symmetry_multiplicity
 _atom_site_fract_x
 _atom_site_fract_y
 _atom_site_fract_z
 _atom_site_occupancy
  Rb  Rb0  1  0.68499656  0.62947836  0.37040909  1
  Rb  Rb1  1  0.31500344  0.12947836  0.62959091  1
  Rb  Rb2  1  0.31500344  0.62947836  0.87040909  1
  Rb  Rb3  1  0.68499656  0.12947836  0.12959091  1
  P  P4  1  0.28211322  0.81560397  0.16771240  1
  P  P5  1  0.28211322  0.31560397  0.33228760  1
  P  P6  1  0.71788678  0.81560397  0.66771240  1
  P  P7  1  0.71788678  0.31560397  0.83228760  1
  Se  Se8  1  0.07732589  0.18006093  0.35977137  1
  Se  Se9  1  0.07732589  0.68006093  0.14022863  1
  Se  Se10  1  0.92267411  0.18006093  0.85977137  1
  Se  Se11  1  0.92267411  0.68006093  0.64022863  1
  Se  Se12  1  0.18103312  0.98670351  0.08841844  1
  Se  Se13  1  0.81896688  0.48670351  0.91158156  1
  Se  Se14  1  0.81896688  0.98670351  0.58841844  1
  Se  Se15  1  0.18103312  0.48670351  0.41158156  1
  Se  Se16  1  0.23979149  0.93923678  0.90230073  1
  Se  Se17  1  0.76020851  0.43923678  0.09769927  1
  Se  Se18  1  0.76020851  0.93923678  0.40230073  1
  Se  Se19  1  0.23979149  0.43923678  0.59769927  1
  Se  Se20  1  0.55640706  0.01470636  0.87083183  1
  Se  Se21  1  0.44359294  0.51470636  0.12916817  1
  Se  Se22  1  0.44359294  0.01470636  0.37083183  1
  Se  Se23  1  0.55640706  0.51470636  0.62916817  1
  Se  Se24  1  0.75121283  0.84880003  0.85182468  1
  Se  Se25  1  0.24878717  0.34880003  0.14817532  1
  Se  Se26  1  0.24878717  0.84880003  0.35182468  1
  Se  Se27  1  0.75121283  0.34880003  0.64817532  1
  Se  Se28  1  0.57742494  0.78732106  0.12454308  1
  Se  Se29  1  0.42257506  0.28732106  0.87545692  1
  Se  Se30  1  0.42257506  0.78732106  0.62454308  1
  Se  Se31  1  0.57742494  0.28732106  0.37545692  1
