# generated using pymatgen
data_Na2Si2O5
_symmetry_space_group_name_H-M   'P 1'
_cell_length_a   4.87434123
_cell_length_b   6.38774965
_cell_length_c   15.42711994
_cell_angle_alpha   90.00000000
_cell_angle_beta   90.00000000
_cell_angle_gamma   90.00000000
_symmetry_Int_Tables_number   1
_chemical_formula_structural   Na2Si2O5
_chemical_formula_sum   'Na8 Si8 O20'
_cell_volume   480.33990927
_cell_formula_units_Z   4
loop_
 _symmetry_equiv_pos_site_id
 _symmetry_equiv_pos_as_xyz
  1  'x, y, z'
loop_
 _atom_site_type_symbol
 _atom_site_label
 _atom_site_symmetry_multiplicity
 _atom_site_fract_x
 _atom_site_fract_y
 _atom_site_fract_z
 _atom_site_occupancy
  Na  Na0  1  0.73965299  0.59762401  0.44095321  1
  Na  Na1  1  0.73965299  0.40237599  0.05904679  1
  Na  Na2  1  0.76034701  0.09762401  0.55904679  1
  Na  Na3  1  0.76034701  0.90237599  0.94095321  1
  Na  Na4  1  0.26034701  0.40237599  0.55904679  1
  Na  Na5  1  0.26034701  0.59762401  0.94095321  1
  Na  Na6  1  0.23965299  0.90237599  0.44095321  1
  Na  Na7  1  0.23965299  0.09762401  0.05904679  1
  Si  Si8  1  0.79628115  0.60375897  0.65619651  1
  Si  Si9  1  0.79628115  0.39624103  0.84380349  1
  Si  Si10  1  0.70371885  0.10375897  0.34380349  1
  Si  Si11  1  0.70371885  0.89624103  0.15619651  1
  Si  Si12  1  0.20371885  0.39624103  0.34380349  1
  Si  Si13  1  0.20371885  0.60375897  0.15619651  1
  Si  Si14  1  0.29628115  0.89624103  0.65619651  1
  Si  Si15  1  0.29628115  0.10375897  0.84380349  1
  O  O16  1  0.23747950  0.95019897  0.92257069  1
  O  O17  1  0.23747950  0.04980103  0.57742931  1
  O  O18  1  0.26252050  0.45019897  0.07742931  1
  O  O19  1  0.26252050  0.54980103  0.42257069  1
  O  O20  1  0.76252050  0.04980103  0.07742931  1
  O  O21  1  0.76252050  0.95019897  0.42257069  1
  O  O22  1  0.73747950  0.54980103  0.92257069  1
  O  O23  1  0.73747950  0.45019897  0.57742931  1
  O  O24  1  0.62019434  0.17691195  0.84882128  1
  O  O25  1  0.62019434  0.82308805  0.65117872  1
  O  O26  1  0.87980566  0.67691195  0.15117872  1
  O  O27  1  0.87980566  0.32308805  0.34882128  1
  O  O28  1  0.37980566  0.82308805  0.15117872  1
  O  O29  1  0.37980566  0.17691195  0.34882128  1
  O  O30  1  0.12019434  0.32308805  0.84882128  1
  O  O31  1  0.12019434  0.67691195  0.65117872  1
  O  O32  1  0.73722487  0.50000000  0.75000000  1
  O  O33  1  0.76277513  -0.00000000  0.25000000  1
  O  O34  1  0.26277513  0.50000000  0.25000000  1
  O  O35  1  0.23722487  -0.00000000  0.75000000  1
