# generated using pymatgen
data_V2OF5
_symmetry_space_group_name_H-M   'P 1'
_cell_length_a   5.09009653
_cell_length_b   13.24954905
_cell_length_c   5.09071695
_cell_angle_alpha   89.98837999
_cell_angle_beta   59.98833952
_cell_angle_gamma   89.99324799
_symmetry_Int_Tables_number   1
_chemical_formula_structural   V2OF5
_chemical_formula_sum   'V6 O3 F15'
_cell_volume   297.29366030
_cell_formula_units_Z   3
loop_
 _symmetry_equiv_pos_site_id
 _symmetry_equiv_pos_as_xyz
  1  'x, y, z'
loop_
 _atom_site_type_symbol
 _atom_site_label
 _atom_site_symmetry_multiplicity
 _atom_site_fract_x
 _atom_site_fract_y
 _atom_site_fract_z
 _atom_site_occupancy
  V  V0  1  0.30603455  0.82714145  0.35409340  1
  V  V1  1  0.68233814  0.66902661  0.65740860  1
  V  V2  1  0.68751004  0.16052098  0.67307895  1
  V  V3  1  0.00637555  0.49377922  0.97275767  1
  V  V4  1  0.99062816  0.00236072  0.99351471  1
  V  V5  1  0.32690919  0.33571141  0.34906457  1
  O  O6  1  0.01659183  0.74880289  0.56895727  1
  O  O7  1  0.08126880  0.41555375  0.68311739  1
  O  O8  1  0.90222639  0.08226169  0.74784644  1
  F  F9  1  0.00663107  0.24950428  0.38496264  1
  F  F10  1  0.27500330  0.91612796  0.67341488  1
  F  F11  1  0.71773843  0.58281712  0.94240645  1
  F  F12  1  0.61645413  0.74979404  0.38174655  1
  F  F13  1  0.40521423  0.75451503  0.98177448  1
  F  F14  1  0.27993432  0.42109031  0.07155723  1
  F  F15  1  0.71579628  0.08332760  0.33467884  1
  F  F16  1  0.66889210  0.41624959  0.28251981  1
  F  F17  1  0.31538995  0.08767254  0.94580936  1
  F  F18  1  0.06629733  0.92226616  0.27761638  1
  F  F19  1  0.92930400  0.57881969  0.33276526  1
  F  F20  1  0.61078501  0.25555682  -0.01039367  1
  F  F21  1  0.40471255  0.24572661  0.59640537  1
  F  F22  1  0.66535185  0.91242048  0.07177604  1
  F  F23  1  0.32261279  0.58895505  0.73312039  1
