# generated using pymatgen
data_Dy2ZnS4
_symmetry_space_group_name_H-M   'P 1'
_cell_length_a   6.29953435
_cell_length_b   7.87213415
_cell_length_c   13.48453345
_cell_angle_alpha   90.00000000
_cell_angle_beta   90.00000000
_cell_angle_gamma   90.00000000
_symmetry_Int_Tables_number   1
_chemical_formula_structural   Dy2ZnS4
_chemical_formula_sum   'Dy8 Zn4 S16'
_cell_volume   668.70852479
_cell_formula_units_Z   4
loop_
 _symmetry_equiv_pos_site_id
 _symmetry_equiv_pos_as_xyz
  1  'x, y, z'
loop_
 _atom_site_type_symbol
 _atom_site_label
 _atom_site_symmetry_multiplicity
 _atom_site_fract_x
 _atom_site_fract_y
 _atom_site_fract_z
 _atom_site_occupancy
  Dy  Dy0  1  0.00000000  0.50000000  -0.00000000  1
  Dy  Dy1  1  0.50000000  0.00000000  0.50000000  1
  Dy  Dy2  1  0.00000000  0.00000000  -0.00000000  1
  Dy  Dy3  1  0.50000000  0.50000000  0.50000000  1
  Dy  Dy4  1  0.99415954  0.75000000  0.26635313  1
  Dy  Dy5  1  0.50584046  0.75000000  0.76635313  1
  Dy  Dy6  1  0.00584046  0.25000000  0.73364687  1
  Dy  Dy7  1  0.49415954  0.25000000  0.23364687  1
  Zn  Zn8  1  0.41059269  0.75000000  0.09203356  1
  Zn  Zn9  1  0.08940731  0.75000000  0.59203356  1
  Zn  Zn10  1  0.58940731  0.25000000  0.90796644  1
  Zn  Zn11  1  0.91059269  0.25000000  0.40796644  1
  S  S12  1  0.77314363  0.75000000  0.09015641  1
  S  S13  1  0.72685637  0.75000000  0.59015641  1
  S  S14  1  0.22685637  0.25000000  0.90984359  1
  S  S15  1  0.27314363  0.25000000  0.40984359  1
  S  S16  1  0.24189745  0.75000000  0.43095807  1
  S  S17  1  0.25810255  0.75000000  0.93095807  1
  S  S18  1  0.75810255  0.25000000  0.56904193  1
  S  S19  1  0.74189745  0.25000000  0.06904193  1
  S  S20  1  0.74495903  0.48489332  0.33175859  1
  S  S21  1  0.75504097  0.01510668  0.83175859  1
  S  S22  1  0.25504097  0.98489332  0.66824141  1
  S  S23  1  0.24495903  0.51510668  0.16824141  1
  S  S24  1  0.25504097  0.51510668  0.66824141  1
  S  S25  1  0.24495903  0.98489332  0.16824141  1
  S  S26  1  0.74495903  0.01510668  0.33175859  1
  S  S27  1  0.75504097  0.48489332  0.83175859  1
