# generated using pymatgen
data_NaGdF4
_symmetry_space_group_name_H-M   'P 1'
_cell_length_a   5.99641563
_cell_length_b   6.97480421
_cell_length_c   6.98382320
_cell_angle_alpha   62.08648584
_cell_angle_beta   64.62011558
_cell_angle_gamma   64.60683932
_symmetry_Int_Tables_number   1
_chemical_formula_structural   NaGdF4
_chemical_formula_sum   'Na3 Gd3 F12'
_cell_volume   223.46921401
_cell_formula_units_Z   3
loop_
 _symmetry_equiv_pos_site_id
 _symmetry_equiv_pos_as_xyz
  1  'x, y, z'
loop_
 _atom_site_type_symbol
 _atom_site_label
 _atom_site_symmetry_multiplicity
 _atom_site_fract_x
 _atom_site_fract_y
 _atom_site_fract_z
 _atom_site_occupancy
  Na  Na0  1  0.66645981  0.48617468  0.16458490  1
  Na  Na1  1  0.66503428  0.00994435  0.67403869  1
  Na  Na2  1  0.33068415  0.43074375  0.90438093  1
  Gd  Gd3  1  0.00303267  0.00260302  0.99440381  1
  Gd  Gd4  1  0.99734335  0.50217304  0.50060065  1
  Gd  Gd5  1  0.33575232  0.92457853  0.40550474  1
  F  F6  1  0.36418447  0.54578831  0.49855288  1
  F  F7  1  0.36654823  0.01097281  0.02891075  1
  F  F8  1  0.59170855  0.71145217  0.65460976  1
  F  F9  1  0.59505920  0.16863011  0.19450836  1
  F  F10  1  0.04772574  0.82319540  0.76708195  1
  F  F11  1  0.03698759  0.28182168  0.31353623  1
  F  F12  1  0.25607186  0.62853168  0.12666772  1
  F  F13  1  0.27646979  0.13377342  0.62077283  1
  F  F14  1  0.98134782  0.38454166  0.87897414  1
  F  F15  1  0.97683101  0.89009021  0.38013320  1
  F  F16  1  0.75470012  0.73852304  0.22867826  1
  F  F17  1  0.75405805  0.24746214  0.74306021  1
