# generated using pymatgen
data_CdB4O7
_symmetry_space_group_name_H-M   'P 1'
_cell_length_a   8.25598499
_cell_length_b   8.70959098
_cell_length_c   14.22816341
_cell_angle_alpha   90.00000000
_cell_angle_beta   90.00000000
_cell_angle_gamma   90.00000000
_symmetry_Int_Tables_number   1
_chemical_formula_structural   CdB4O7
_chemical_formula_sum   'Cd8 B32 O56'
_cell_volume   1023.09390935
_cell_formula_units_Z   8
loop_
 _symmetry_equiv_pos_site_id
 _symmetry_equiv_pos_as_xyz
  1  'x, y, z'
loop_
 _atom_site_type_symbol
 _atom_site_label
 _atom_site_symmetry_multiplicity
 _atom_site_fract_x
 _atom_site_fract_y
 _atom_site_fract_z
 _atom_site_occupancy
  Cd  Cd0  1  0.62237625  0.11077835  0.38760636  1
  Cd  Cd1  1  0.12237625  0.38922165  0.61239364  1
  Cd  Cd2  1  0.37762375  0.61077835  0.11239364  1
  Cd  Cd3  1  0.87762375  0.88922165  0.88760636  1
  Cd  Cd4  1  0.37762375  0.88922165  0.61239364  1
  Cd  Cd5  1  0.87762375  0.61077835  0.38760636  1
  Cd  Cd6  1  0.62237625  0.38922165  0.88760636  1
  Cd  Cd7  1  0.12237625  0.11077835  0.11239364  1
  B  B8  1  0.21002807  0.13969919  0.45497475  1
  B  B9  1  0.71002807  0.36030081  0.54502525  1
  B  B10  1  0.78997193  0.63969919  0.04502525  1
  B  B11  1  0.28997193  0.86030081  0.95497475  1
  B  B12  1  0.78997193  0.86030081  0.54502525  1
  B  B13  1  0.28997193  0.63969919  0.45497475  1
  B  B14  1  0.21002807  0.36030081  0.95497475  1
  B  B15  1  0.71002807  0.13969919  0.04502525  1
  B  B16  1  0.00854326  0.05868233  0.34018119  1
  B  B17  1  0.50854326  0.44131767  0.65981881  1
  B  B18  1  0.99145674  0.55868233  0.15981881  1
  B  B19  1  0.49145674  0.94131767  0.84018119  1
  B  B20  1  0.99145674  0.94131767  0.65981881  1
  B  B21  1  0.49145674  0.55868233  0.34018119  1
  B  B22  1  0.00854326  0.44131767  0.84018119  1
  B  B23  1  0.50854326  0.05868233  0.15981881  1
  B  B24  1  0.01925311  0.32377513  0.26552969  1
  B  B25  1  0.51925311  0.17622487  0.73447031  1
  B  B26  1  0.98074689  0.82377513  0.23447031  1
  B  B27  1  0.48074689  0.67622487  0.76552969  1
  B  B28  1  0.98074689  0.67622487  0.73447031  1
  B  B29  1  0.48074689  0.82377513  0.26552969  1
  B  B30  1  0.01925311  0.17622487  0.76552969  1
  B  B31  1  0.51925311  0.32377513  0.23447031  1
  B  B32  1  0.95007468  0.28111971  0.43512877  1
  B  B33  1  0.45007468  0.21888029  0.56487123  1
  B  B34  1  0.04992532  0.78111971  0.06487123  1
  B  B35  1  0.54992532  0.71888029  0.93512877  1
  B  B36  1  0.04992532  0.71888029  0.56487123  1
  B  B37  1  0.54992532  0.78111971  0.43512877  1
  B  B38  1  0.95007468  0.21888029  0.93512877  1
  B  B39  1  0.45007468  0.28111971  0.06487123  1
  O  O40  1  0.16486153  0.04154908  0.38663856  1
  O  O41  1  0.66486153  0.45845092  0.61336144  1
  O  O42  1  0.83513847  0.54154908  0.11336144  1
  O  O43  1  0.33513847  0.95845092  0.88663856  1
  O  O44  1  0.83513847  0.95845092  0.61336144  1
  O  O45  1  0.33513847  0.54154908  0.38663856  1
  O  O46  1  0.16486153  0.45845092  0.88663856  1
  O  O47  1  0.66486153  0.04154908  0.11336144  1
  O  O48  1  0.10847071  0.25774702  0.48151035  1
  O  O49  1  0.60847071  0.24225298  0.51848965  1
  O  O50  1  0.89152929  0.75774702  0.01848965  1
  O  O51  1  0.39152929  0.74225298  0.98151035  1
  O  O52  1  0.89152929  0.74225298  0.51848965  1
  O  O53  1  0.39152929  0.75774702  0.48151035  1
  O  O54  1  0.10847071  0.24225298  0.98151035  1
  O  O55  1  0.60847071  0.25774702  0.01848965  1
  O  O56  1  0.03433965  0.16664110  0.25648735  1
  O  O57  1  0.53433965  0.33335890  0.74351265  1
  O  O58  1  0.96566035  0.66664110  0.24351265  1
  O  O59  1  0.46566035  0.83335890  0.75648735  1
  O  O60  1  0.96566035  0.83335890  0.74351265  1
  O  O61  1  0.46566035  0.66664110  0.25648735  1
  O  O62  1  0.03433965  0.33335890  0.75648735  1
  O  O63  1  0.53433965  0.16664110  0.24351265  1
  O  O64  1  0.97263411  0.38229132  0.35077452  1
  O  O65  1  0.47263411  0.11770868  0.64922548  1
  O  O66  1  0.02736589  0.88229132  0.14922548  1
  O  O67  1  0.52736589  0.61770868  0.85077452  1
  O  O68  1  0.02736589  0.61770868  0.64922548  1
  O  O69  1  0.52736589  0.88229132  0.35077452  1
  O  O70  1  0.97263411  0.11770868  0.85077452  1
  O  O71  1  0.47263411  0.38229132  0.14922548  1
  O  O72  1  0.85743594  0.37384225  0.50118085  1
  O  O73  1  0.35743594  0.12615775  0.49881915  1
  O  O74  1  0.14256406  0.87384225  -0.00118085  1
  O  O75  1  0.64256406  0.62615775  0.00118085  1
  O  O76  1  0.14256406  0.62615775  0.49881915  1
  O  O77  1  0.64256406  0.87384225  0.50118085  1
  O  O78  1  0.85743594  0.12615775  0.00118085  1
  O  O79  1  0.35743594  0.37384225  -0.00118085  1
  O  O80  1  0.88912027  0.13432499  0.40285737  1
  O  O81  1  0.38912027  0.36567501  0.59714263  1
  O  O82  1  0.11087973  0.63432499  0.09714263  1
  O  O83  1  0.61087973  0.86567501  0.90285737  1
  O  O84  1  0.11087973  0.86567501  0.59714263  1
  O  O85  1  0.61087973  0.63432499  0.40285737  1
  O  O86  1  0.88912027  0.36567501  0.90285737  1
  O  O87  1  0.38912027  0.13432499  0.09714263  1
  O  O88  1  0.55324273  0.41122561  0.31070782  1
  O  O89  1  0.05324273  0.08877439  0.68929218  1
  O  O90  1  0.44675727  0.91122561  0.18929218  1
  O  O91  1  0.94675727  0.58877439  0.81070782  1
  O  O92  1  0.44675727  0.58877439  0.68929218  1
  O  O93  1  0.94675727  0.91122561  0.31070782  1
  O  O94  1  0.55324273  0.08877439  0.81070782  1
  O  O95  1  0.05324273  0.41122561  0.18929218  1
