# generated using pymatgen
data_Cs3ScO3
_symmetry_space_group_name_H-M   'P 1'
_cell_length_a   14.22683928
_cell_length_b   7.29287656
_cell_length_c   7.82391698
_cell_angle_alpha   63.63385922
_cell_angle_beta   90.00000000
_cell_angle_gamma   90.00000000
_symmetry_Int_Tables_number   1
_chemical_formula_structural   Cs3ScO3
_chemical_formula_sum   'Cs12 Sc4 O12'
_cell_volume   727.32263693
_cell_formula_units_Z   4
loop_
 _symmetry_equiv_pos_site_id
 _symmetry_equiv_pos_as_xyz
  1  'x, y, z'
loop_
 _atom_site_type_symbol
 _atom_site_label
 _atom_site_symmetry_multiplicity
 _atom_site_fract_x
 _atom_site_fract_y
 _atom_site_fract_z
 _atom_site_occupancy
  Cs  Cs0  1  0.95958154  0.49058785  0.27301987  1
  Cs  Cs1  1  0.68435900  0.41719143  0.47843022  1
  Cs  Cs2  1  0.20314779  0.64747202  0.05653550  1
  Cs  Cs3  1  0.54041846  0.99058785  0.27301987  1
  Cs  Cs4  1  0.81564100  0.91719143  0.47843022  1
  Cs  Cs5  1  0.29685221  0.14747202  0.05653550  1
  Cs  Cs6  1  0.79685221  0.35252798  0.94346450  1
  Cs  Cs7  1  0.31564100  0.58280857  0.52156978  1
  Cs  Cs8  1  0.04041846  0.50941215  0.72698013  1
  Cs  Cs9  1  0.70314779  0.85252798  0.94346450  1
  Cs  Cs10  1  0.18435900  0.08280857  0.52156978  1
  Cs  Cs11  1  0.45958154  0.00941215  0.72698013  1
  Sc  Sc12  1  0.44128293  0.51213061  0.15091744  1
  Sc  Sc13  1  0.05871707  0.01213061  0.15091744  1
  Sc  Sc14  1  0.55871707  0.48786939  0.84908256  1
  Sc  Sc15  1  0.94128293  0.98786939  0.84908256  1
  O  O16  1  0.58145770  0.47050445  0.11485302  1
  O  O17  1  0.87167929  0.21914228  0.65331033  1
  O  O18  1  0.91854230  0.97050445  0.11485302  1
  O  O19  1  0.62832071  0.71914228  0.65331033  1
  O  O20  1  0.59561814  0.23313070  0.84149946  1
  O  O21  1  0.90438186  0.73313070  0.84149946  1
  O  O22  1  0.40438186  0.76686930  0.15850054  1
  O  O23  1  0.09561814  0.26686930  0.15850054  1
  O  O24  1  0.12832071  0.78085772  0.34668967  1
  O  O25  1  0.41854230  0.52949555  0.88514698  1
  O  O26  1  0.37167929  0.28085772  0.34668967  1
  O  O27  1  0.08145770  0.02949555  0.88514698  1
