# generated using pymatgen
data_K3Ta2Cu3Se8
_symmetry_space_group_name_H-M   'P 1'
_cell_length_a   5.70841770
_cell_length_b   12.57567119
_cell_length_c   13.94138290
_cell_angle_alpha   68.74007666
_cell_angle_beta   78.18635205
_cell_angle_gamma   76.88168079
_symmetry_Int_Tables_number   1
_chemical_formula_structural   K3Ta2Cu3Se8
_chemical_formula_sum   'K6 Ta4 Cu6 Se16'
_cell_volume   900.05974760
_cell_formula_units_Z   2
loop_
 _symmetry_equiv_pos_site_id
 _symmetry_equiv_pos_as_xyz
  1  'x, y, z'
loop_
 _atom_site_type_symbol
 _atom_site_label
 _atom_site_symmetry_multiplicity
 _atom_site_fract_x
 _atom_site_fract_y
 _atom_site_fract_z
 _atom_site_occupancy
  K  K0  1  0.73285420  0.70996902  0.90469360  1
  K  K1  1  0.34751682  0.79003098  0.59530640  1
  K  K2  1  0.26714580  0.29003098  0.09530640  1
  K  K3  1  0.65248318  0.20996902  0.40469360  1
  K  K4  1  -0.00000000  0.50000000  0.50000000  1
  K  K5  1  -0.00000000  0.00000000  -0.00000000  1
  Ta  Ta6  1  0.15773162  0.47042253  0.77844000  1
  Ta  Ta7  1  0.40659416  0.02957747  0.72156000  1
  Ta  Ta8  1  0.84226838  0.52957747  0.22156000  1
  Ta  Ta9  1  0.59340584  0.97042253  0.27844000  1
  Cu  Cu10  1  0.27552484  0.25000000  0.75000000  1
  Cu  Cu11  1  0.72447516  0.75000000  0.25000000  1
  Cu  Cu12  1  0.90415385  0.03442165  0.72054757  1
  Cu  Cu13  1  0.65912307  0.46557835  0.77945243  1
  Cu  Cu14  1  0.09584615  0.96557835  0.27945243  1
  Cu  Cu15  1  0.34087693  0.53442165  0.22054757  1
  Se  Se16  1  0.95004625  0.30677984  0.87548248  1
  Se  Se17  1  0.13230857  0.19322016  0.62451752  1
  Se  Se18  1  0.04995375  0.69322016  0.12451752  1
  Se  Se19  1  0.86769143  0.80677984  0.37548248  1
  Se  Se20  1  0.48769953  0.41440567  0.65641732  1
  Se  Se21  1  0.55852252  0.08559433  0.84358268  1
  Se  Se22  1  0.51230047  0.58559433  0.34358268  1
  Se  Se23  1  0.44147748  0.91440567  0.15641732  1
  Se  Se24  1  0.87486981  0.62921691  0.68408483  1
  Se  Se25  1  0.18817155  0.87078309  0.81591517  1
  Se  Se26  1  0.12513019  0.37078309  0.31591517  1
  Se  Se27  1  0.81182845  0.12921691  0.18408483  1
  Se  Se28  1  0.74105786  0.96892167  0.60749782  1
  Se  Se29  1  0.31747834  0.53107833  0.89250218  1
  Se  Se30  1  0.25894214  0.03107833  0.39250218  1
  Se  Se31  1  0.68252166  0.46892167  0.10749782  1
