# generated using pymatgen
data_Sr2Nb2O7
_symmetry_space_group_name_H-M   'P 1'
_cell_length_a   5.80171801
_cell_length_b   7.97565209
_cell_length_c   27.35209340
_cell_angle_alpha   90.00000000
_cell_angle_beta   90.00000000
_cell_angle_gamma   90.00000000
_symmetry_Int_Tables_number   1
_chemical_formula_structural   Sr2Nb2O7
_chemical_formula_sum   'Sr16 Nb16 O56'
_cell_volume   1265.64931439
_cell_formula_units_Z   8
loop_
 _symmetry_equiv_pos_site_id
 _symmetry_equiv_pos_as_xyz
  1  'x, y, z'
loop_
 _atom_site_type_symbol
 _atom_site_label
 _atom_site_symmetry_multiplicity
 _atom_site_fract_x
 _atom_site_fract_y
 _atom_site_fract_z
 _atom_site_occupancy
  O  O0  1  0.42615701  0.38756080  0.96594183  1
  O  O1  1  0.92615715  0.61243858  0.03405839  1
  O  O2  1  0.42615701  0.11243827  0.46594153  1
  O  O3  1  0.92615715  0.88756111  0.53405832  1
  O  O4  1  0.94918450  0.35480074  0.94650251  1
  O  O5  1  0.44918608  0.64519989  0.05349734  1
  O  O6  1  0.94918450  0.14519958  0.44650258  1
  O  O7  1  0.44918608  0.85479980  0.55349727  1
  O  O8  1  0.29484691  0.12512135  0.90041497  1
  O  O9  1  0.79484706  0.87487803  0.09958525  1
  O  O10  1  0.29484691  0.37487771  0.40041468  1
  O  O11  1  0.79484706  0.62512167  0.59958517  1
  O  O12  1  0.55338803  0.41070090  0.86142120  1
  O  O13  1  0.05338789  0.58929848  0.13857865  1
  O  O14  1  0.55338803  0.08929816  0.36142127  1
  O  O15  1  0.05338789  0.91070122  0.63857894  1
  O  O16  1  0.05856253  0.36115480  0.84196605  1
  O  O17  1  0.55856267  0.63884458  0.15803380  1
  O  O18  1  0.05856253  0.13884551  0.34196612  1
  O  O19  1  0.55856267  0.86115512  0.65803409  1
  O  O20  1  0.72849012  0.12518439  0.80177570  1
  O  O21  1  0.32222254  0.12514851  0.70371842  1
  O  O22  1  0.72849012  0.37481592  0.30177578  1
  O  O23  1  0.22848998  0.62518346  0.69822444  1
  O  O24  1  0.50489294  0.39935482  0.75830769  1
  O  O25  1  0.00489452  0.60064581  0.24169216  1
  O  O26  1  0.50489294  0.10064549  0.25830777  1
  O  O27  1  0.00489452  0.89935514  0.74169245  1
  O  O28  1  0.00519529  0.35077682  0.74223224  1
  O  O29  1  0.50519543  0.64922256  0.25776761  1
  O  O30  1  0.00519529  0.14922224  0.24223231  1
  O  O31  1  0.50519543  0.85077714  0.75776754  1
  O  O32  1  0.43718855  0.86089764  0.96236339  1
  O  O33  1  0.93718869  0.13910174  0.03763683  1
  O  O34  1  0.43718855  0.63910206  0.46236346  1
  O  O35  1  0.93718869  0.36089732  0.53763675  1
  O  O36  1  0.96146594  0.89201055  0.95065740  1
  O  O37  1  0.46146752  0.10798884  0.04934245  1
  O  O38  1  0.96146594  0.60798915  0.45065748  1
  O  O39  1  0.46146752  0.39201148  0.54934274  1
  O  O40  1  0.20384396  0.62441944  0.90134341  1
  O  O41  1  0.70384410  0.37558119  0.09865644  1
  O  O42  1  0.20384396  0.87558151  0.40134348  1
  O  O43  1  0.70384410  0.12441912  0.59865673  1
  O  O44  1  0.54901423  0.83989466  0.86008127  1
  O  O45  1  0.04901409  0.16010597  0.13991895  1
  O  O46  1  0.54901423  0.66010629  0.36008098  1
  O  O47  1  0.04901409  0.33989434  0.63991887  1
  O  O48  1  0.05645428  0.88938735  0.84232176  1
  O  O49  1  0.55645442  0.11061203  0.15767846  1
  O  O50  1  0.05645428  0.61061234  0.34232147  1
  O  O51  1  0.55645442  0.38938704  0.65767838  1
  O  O52  1  0.82222268  0.62514882  0.79628136  1
  O  O53  1  0.32222254  0.37485181  0.20371849  1
  O  O54  1  0.82222268  0.87485087  0.29628143  1
  O  O55  1  0.22848998  0.87481624  0.19822415  1
  Sr  Sr56  1  0.66926101  0.12524826  0.96258200  1
  Sr  Sr57  1  0.16926086  0.87475113  0.03741822  1
  Sr  Sr58  1  0.66926101  0.37475081  0.46258207  1
  Sr  Sr59  1  0.16926086  0.62524857  0.53741814  1
  Sr  Sr60  1  0.25564530  0.12502335  0.79844025  1
  Sr  Sr61  1  0.75564544  0.87497603  0.20155960  1
  Sr  Sr62  1  0.25564530  0.37497571  0.29844032  1
  Sr  Sr63  1  0.75564544  0.62502367  0.70155953  1
  Sr  Sr64  1  0.75709380  0.12462106  0.69518661  1
  Sr  Sr65  1  0.25709366  0.87537958  0.30481324  1
  Sr  Sr66  1  0.75709380  0.37537926  0.19518669  1
  Sr  Sr67  1  0.25709366  0.62462137  0.80481353  1
  Sr  Sr68  1  0.21241996  0.12142947  0.54893775  1
  Sr  Sr69  1  0.71242010  0.87857117  0.45106247  1
  Sr  Sr70  1  0.21241996  0.37857085  0.04893746  1
  Sr  Sr71  1  0.71242010  0.62142978  0.95106239  1
  Nb  Nb72  1  0.21882834  0.37144009  0.91191184  1
  Nb  Nb73  1  0.71882848  0.62855929  0.08808837  1
  Nb  Nb74  1  0.21882834  0.12856023  0.41191192  1
  Nb  Nb75  1  0.71882848  0.87144041  0.58808830  1
  Nb  Nb76  1  0.75160840  0.37831730  0.80872127  1
  Nb  Nb77  1  0.25160825  0.62168333  0.19127858  1
  Nb  Nb78  1  0.75160840  0.12168301  0.30872134  1
  Nb  Nb79  1  0.25160825  0.87831637  0.69127851  1
  Nb  Nb80  1  0.25019001  0.37207096  0.69212784  1
  Nb  Nb81  1  0.75019015  0.62792842  0.30787237  1
  Nb  Nb82  1  0.25019001  0.12792936  0.19212755  1
  Nb  Nb83  1  0.75019015  0.87207128  0.80787230  1
  Nb  Nb84  1  0.72044609  0.37638803  0.58919661  1
  Nb  Nb85  1  0.22044595  0.62361260  0.41080324  1
  Nb  Nb86  1  0.72044609  0.12361229  0.08919669  1
  Nb  Nb87  1  0.22044595  0.87638710  0.91080316  1
