# generated using pymatgen
data_Cs3FeO3
_symmetry_space_group_name_H-M   'P 1'
_cell_length_a   7.30177727
_cell_length_b   7.75493456
_cell_length_c   12.12569829
_cell_angle_alpha   90.00096914
_cell_angle_beta   89.99925111
_cell_angle_gamma   104.74367437
_symmetry_Int_Tables_number   1
_chemical_formula_structural   Cs3FeO3
_chemical_formula_sum   'Cs12 Fe4 O12'
_cell_volume   664.00783377
_cell_formula_units_Z   4
loop_
 _symmetry_equiv_pos_site_id
 _symmetry_equiv_pos_as_xyz
  1  'x, y, z'
loop_
 _atom_site_type_symbol
 _atom_site_label
 _atom_site_symmetry_multiplicity
 _atom_site_fract_x
 _atom_site_fract_y
 _atom_site_fract_z
 _atom_site_occupancy
  Cs  Cs0  1  0.45442725  0.49778781  0.70511305  1
  Cs  Cs1  1  0.54557823  0.00220928  0.20510344  1
  Cs  Cs2  1  0.54557341  0.50221161  0.29488728  1
  Cs  Cs3  1  0.45442608  0.99778938  0.79489542  1
  Cs  Cs4  1  0.66493610  0.36737167  0.99080040  1
  Cs  Cs5  1  0.33505901  0.13262706  0.49079449  1
  Cs  Cs6  1  0.33506729  0.63263071  0.00920389  1
  Cs  Cs7  1  0.66493771  0.86737394  0.50920180  1
  Cs  Cs8  1  0.97816682  0.08717109  0.74409263  1
  Cs  Cs9  1  0.02182701  0.41283205  0.24407540  1
  Cs  Cs10  1  0.02183462  0.91283168  0.25590910  1
  Cs  Cs11  1  0.97817561  0.58716791  0.75592668  1
  Fe  Fe12  1  0.84401199  0.34991435  0.50859454  1
  Fe  Fe13  1  0.15598958  0.15008421  0.00859707  1
  Fe  Fe14  1  0.15598523  0.65008680  0.49140348  1
  Fe  Fe15  1  0.84401482  0.84991470  0.99140371  1
  O  O16  1  0.88152129  0.10234727  0.03228548  1
  O  O17  1  0.11847713  0.39765716  0.53228605  1
  O  O18  1  0.11848186  0.89765195  0.96771262  1
  O  O19  1  0.88151839  0.60234372  0.46771002  1
  O  O20  1  0.70418470  0.26948298  0.63506928  1
  O  O21  1  0.29581897  0.23051018  0.13506949  1
  O  O22  1  0.29581304  0.73051623  0.36492878  1
  O  O23  1  0.70417957  0.76948101  0.86493437  1
  O  O24  1  0.25241531  0.29667349  0.88931968  1
  O  O25  1  0.74758600  0.20333128  0.38930887  1
  O  O26  1  0.74758770  0.70333081  0.11068371  1
  O  O27  1  0.25240529  0.79667068  0.61068925  1
