# generated using pymatgen
data_PrTmS3
_symmetry_space_group_name_H-M   'P 1'
_cell_length_a   3.95716548
_cell_length_b   11.01907461
_cell_length_c   21.48260067
_cell_angle_alpha   78.57751572
_cell_angle_beta   90.00000000
_cell_angle_gamma   90.00000000
_symmetry_Int_Tables_number   1
_chemical_formula_structural   PrTmS3
_chemical_formula_sum   'Pr8 Tm8 S24'
_cell_volume   918.18041371
_cell_formula_units_Z   8
loop_
 _symmetry_equiv_pos_site_id
 _symmetry_equiv_pos_as_xyz
  1  'x, y, z'
loop_
 _atom_site_type_symbol
 _atom_site_label
 _atom_site_symmetry_multiplicity
 _atom_site_fract_x
 _atom_site_fract_y
 _atom_site_fract_z
 _atom_site_occupancy
  Pr  Pr0  1  0.25000000  0.30278378  0.76563527  1
  Pr  Pr1  1  0.75000000  0.69721622  0.23436473  1
  Pr  Pr2  1  0.25000000  0.90903475  0.86401851  1
  Pr  Pr3  1  0.75000000  0.09096525  0.13598149  1
  Pr  Pr4  1  0.25000000  0.69133699  0.73327815  1
  Pr  Pr5  1  0.75000000  0.30866301  0.26672185  1
  Pr  Pr6  1  0.25000000  0.79856693  0.53655006  1
  Pr  Pr7  1  0.75000000  0.20143307  0.46344994  1
  Tm  Tm8  1  0.25000000  0.55311133  0.41664530  1
  Tm  Tm9  1  0.75000000  0.44688867  0.58335470  1
  Tm  Tm10  1  0.25000000  0.97059694  0.35091397  1
  Tm  Tm11  1  0.75000000  0.02940306  0.64908603  1
  Tm  Tm12  1  0.25000000  0.81937151  0.04624955  1
  Tm  Tm13  1  0.75000000  0.18062849  0.95375045  1
  Tm  Tm14  1  0.25000000  0.47813485  0.08717144  1
  Tm  Tm15  1  0.75000000  0.52186515  0.91282856  1
  S  S16  1  0.25000000  0.08594893  0.03585537  1
  S  S17  1  0.75000000  0.91405107  0.96414463  1
  S  S18  1  0.25000000  0.20411799  0.36511686  1
  S  S19  1  0.75000000  0.79588201  0.63488314  1
  S  S20  1  0.25000000  0.74614794  0.32485980  1
  S  S21  1  0.75000000  0.25385206  0.67514020  1
  S  S22  1  0.25000000  0.63501184  0.96428093  1
  S  S23  1  0.75000000  0.36498816  0.03571907  1
  S  S24  1  0.25000000  0.50642764  0.21964405  1
  S  S25  1  0.75000000  0.49357236  0.78035595  1
  S  S26  1  0.25000000  0.25332281  0.17278765  1
  S  S27  1  0.75000000  0.74667719  0.82721235  1
  S  S28  1  0.25000000  0.87455148  0.16269542  1
  S  S29  1  0.75000000  0.12544852  0.83730458  1
  S  S30  1  0.25000000  0.35744775  0.51393421  1
  S  S31  1  0.75000000  0.64255225  0.48606579  1
  S  S32  1  0.25000000  0.05796578  0.55611164  1
  S  S33  1  0.75000000  0.94203422  0.44388836  1
  S  S34  1  0.25000000  0.96363043  0.72898368  1
  S  S35  1  0.75000000  0.03636957  0.27101632  1
  S  S36  1  0.25000000  0.54530808  0.63420023  1
  S  S37  1  0.75000000  0.45469192  0.36579977  1
  S  S38  1  0.25000000  0.34199152  0.90161023  1
  S  S39  1  0.75000000  0.65800848  0.09838977  1
