# generated using pymatgen
data_Ga2Se2O7
_symmetry_space_group_name_H-M   'P 1'
_cell_length_a   6.60406799
_cell_length_b   12.67628785
_cell_length_c   13.35287637
_cell_angle_alpha   90.00000000
_cell_angle_beta   90.00000000
_cell_angle_gamma   90.00000000
_symmetry_Int_Tables_number   1
_chemical_formula_structural   Ga2Se2O7
_chemical_formula_sum   'Ga16 Se16 O56'
_cell_volume   1117.83693758
_cell_formula_units_Z   8
loop_
 _symmetry_equiv_pos_site_id
 _symmetry_equiv_pos_as_xyz
  1  'x, y, z'
loop_
 _atom_site_type_symbol
 _atom_site_label
 _atom_site_symmetry_multiplicity
 _atom_site_fract_x
 _atom_site_fract_y
 _atom_site_fract_z
 _atom_site_occupancy
  Ga  Ga0  1  0.47640079  0.37849197  0.47253910  1
  Ga  Ga1  1  0.02359921  0.12150803  0.47253910  1
  Ga  Ga2  1  0.97640079  0.62150803  0.02746090  1
  Ga  Ga3  1  0.52359921  0.87849197  0.02746090  1
  Ga  Ga4  1  0.52359921  0.62150803  0.52746090  1
  Ga  Ga5  1  0.97640079  0.87849197  0.52746090  1
  Ga  Ga6  1  0.02359921  0.37849197  0.97253910  1
  Ga  Ga7  1  0.47640079  0.12150803  0.97253910  1
  Ga  Ga8  1  0.25000000  0.25000000  0.29562747  1
  Ga  Ga9  1  0.75000000  0.75000000  0.20437253  1
  Ga  Ga10  1  0.75000000  0.75000000  0.70437253  1
  Ga  Ga11  1  0.25000000  0.25000000  0.79562747  1
  Ga  Ga12  1  0.75000000  0.25000000  0.33125609  1
  Ga  Ga13  1  0.25000000  0.75000000  0.16874391  1
  Ga  Ga14  1  0.25000000  0.75000000  0.66874391  1
  Ga  Ga15  1  0.75000000  0.25000000  0.83125609  1
  Se  Se16  1  0.51791030  0.13354835  0.53561674  1
  Se  Se17  1  0.98208970  0.36645165  0.53561674  1
  Se  Se18  1  0.01791030  0.86645165  0.96438326  1
  Se  Se19  1  0.48208970  0.63354835  0.96438326  1
  Se  Se20  1  0.48208970  0.86645165  0.46438326  1
  Se  Se21  1  0.01791030  0.63354835  0.46438326  1
  Se  Se22  1  0.98208970  0.13354835  0.03561674  1
  Se  Se23  1  0.51791030  0.36645165  0.03561674  1
  Se  Se24  1  0.50724757  0.44810305  0.71862357  1
  Se  Se25  1  0.99275243  0.05189695  0.71862357  1
  Se  Se26  1  0.00724757  0.55189695  0.78137643  1
  Se  Se27  1  0.49275243  0.94810305  0.78137643  1
  Se  Se28  1  0.49275243  0.55189695  0.28137643  1
  Se  Se29  1  0.00724757  0.94810305  0.28137643  1
  Se  Se30  1  0.99275243  0.44810305  0.21862357  1
  Se  Se31  1  0.50724757  0.05189695  0.21862357  1
  O  O32  1  0.51238090  0.47535226  0.58952516  1
  O  O33  1  0.98761910  0.02464774  0.58952516  1
  O  O34  1  0.01238090  0.52464774  0.91047484  1
  O  O35  1  0.48761910  0.97535226  0.91047484  1
  O  O36  1  0.48761910  0.52464774  0.41047484  1
  O  O37  1  0.01238090  0.97535226  0.41047484  1
  O  O38  1  0.98761910  0.47535226  0.08952516  1
  O  O39  1  0.51238090  0.02464774  0.08952516  1
  O  O40  1  0.48694974  0.26206423  0.56412772  1
  O  O41  1  0.01305026  0.23793577  0.56412772  1
  O  O42  1  0.98694974  0.73793577  0.93587228  1
  O  O43  1  0.51305026  0.76206423  0.93587228  1
  O  O44  1  0.51305026  0.73793577  0.43587228  1
  O  O45  1  0.98694974  0.76206423  0.43587228  1
  O  O46  1  0.01305026  0.26206423  0.06412772  1
  O  O47  1  0.48694974  0.23793577  0.06412772  1
  O  O48  1  0.48432853  0.29661858  0.35229364  1
  O  O49  1  0.01567147  0.20338142  0.35229364  1
  O  O50  1  0.98432853  0.70338142  0.14770636  1
  O  O51  1  0.51567147  0.79661858  0.14770636  1
  O  O52  1  0.51567147  0.70338142  0.64770636  1
  O  O53  1  0.98432853  0.79661858  0.64770636  1
  O  O54  1  0.01567147  0.29661858  0.85229364  1
  O  O55  1  0.48432853  0.20338142  0.85229364  1
  O  O56  1  0.71190500  0.13447893  0.44664077  1
  O  O57  1  0.78809500  0.36552107  0.44664077  1
  O  O58  1  0.21190500  0.86552107  0.05335923  1
  O  O59  1  0.28809500  0.63447893  0.05335923  1
  O  O60  1  0.28809500  0.86552107  0.55335923  1
  O  O61  1  0.21190500  0.63447893  0.55335923  1
  O  O62  1  0.78809500  0.13447893  0.94664077  1
  O  O63  1  0.71190500  0.36552107  0.94664077  1
  O  O64  1  0.29394037  0.37201522  0.71889814  1
  O  O65  1  0.20605963  0.12798478  0.71889814  1
  O  O66  1  0.79394037  0.62798478  0.78110186  1
  O  O67  1  0.70605963  0.87201522  0.78110186  1
  O  O68  1  0.70605963  0.62798478  0.28110186  1
  O  O69  1  0.79394037  0.87201522  0.28110186  1
  O  O70  1  0.20605963  0.37201522  0.21889814  1
  O  O71  1  0.29394037  0.12798478  0.21889814  1
  O  O72  1  0.32065125  0.10868131  0.45515263  1
  O  O73  1  0.17934875  0.39131869  0.45515263  1
  O  O74  1  0.82065125  0.89131869  0.04484737  1
  O  O75  1  0.67934875  0.60868131  0.04484737  1
  O  O76  1  0.67934875  0.89131869  0.54484737  1
  O  O77  1  0.82065125  0.60868131  0.54484737  1
  O  O78  1  0.17934875  0.10868131  0.95515263  1
  O  O79  1  0.32065125  0.39131869  0.95515263  1
  O  O80  1  0.69874437  0.36089622  0.72970421  1
  O  O81  1  0.80125563  0.13910378  0.72970421  1
  O  O82  1  0.19874437  0.63910378  0.77029579  1
  O  O83  1  0.30125563  0.86089622  0.77029579  1
  O  O84  1  0.30125563  0.63910378  0.27029579  1
  O  O85  1  0.19874437  0.86089622  0.27029579  1
  O  O86  1  0.80125563  0.36089622  0.22970421  1
  O  O87  1  0.69874437  0.13910378  0.22970421  1
