# generated using pymatgen
data_Fe2O3
_symmetry_space_group_name_H-M   'P 1'
_cell_length_a   8.23347377
_cell_length_b   8.23347377
_cell_length_c   9.49221284
_cell_angle_alpha   54.80432635
_cell_angle_beta   54.80432635
_cell_angle_gamma   70.17763754
_symmetry_Int_Tables_number   1
_chemical_formula_structural   Fe2O3
_chemical_formula_sum   'Fe16 O24'
_cell_volume   429.68964888
_cell_formula_units_Z   8
loop_
 _symmetry_equiv_pos_site_id
 _symmetry_equiv_pos_as_xyz
  1  'x, y, z'
loop_
 _atom_site_type_symbol
 _atom_site_label
 _atom_site_symmetry_multiplicity
 _atom_site_fract_x
 _atom_site_fract_y
 _atom_site_fract_z
 _atom_site_occupancy
  Fe  Fe0  1  0.53647300  0.46352700  0.00000000  1
  Fe  Fe1  1  0.24978800  0.24655000  0.54018100  1
  Fe  Fe2  1  0.46462100  0.53537900  0.50000000  1
  Fe  Fe3  1  0.78269500  0.27931800  0.72246700  1
  Fe  Fe4  1  0.04231300  0.95768700  0.00000000  1
  Fe  Fe5  1  0.21249500  0.71193600  0.78577400  1
  Fe  Fe6  1  0.28806400  0.78750500  0.21422600  1
  Fe  Fe7  1  0.72068200  0.21730500  0.27753300  1
  Fe  Fe8  1  0.96477700  0.03522300  0.50000000  1
  Fe  Fe9  1  0.75345000  0.75021200  0.45981900  1
  Fe  Fe10  1  0.24833900  0.24444600  0.04382200  1
  Fe  Fe11  1  0.75555400  0.75166100  0.95617800  1
  Fe  Fe12  1  0.50332400  0.99659200  0.25382100  1
  Fe  Fe13  1  0.00340800  0.49667600  0.74617900  1
  Fe  Fe14  1  0.50066000  0.99487300  0.75302700  1
  Fe  Fe15  1  0.00512700  0.49934000  0.24697300  1
  O  O16  1  0.76113500  0.54143000  0.71562700  1
  O  O17  1  0.99471900  0.22285500  0.80225500  1
  O  O18  1  0.95719100  0.27052700  0.24811700  1
  O  O19  1  0.27208100  0.49680600  0.02849200  1
  O  O20  1  0.22095500  0.53805000  0.48591000  1
  O  O21  1  0.46195000  0.77904500  0.51409000  1
  O  O22  1  0.27667400  0.95271600  0.74729800  1
  O  O23  1  0.50256800  0.26862800  0.52619500  1
  O  O24  1  0.77481700  0.45504400  0.02759600  1
  O  O25  1  0.77714500  0.00528100  0.19774500  1
  O  O26  1  0.26365300  0.04022300  0.98548800  1
  O  O27  1  0.95977700  0.73634700  0.01451200  1
  O  O28  1  0.73137200  0.49743200  0.47380500  1
  O  O29  1  0.04786600  0.25878500  0.48367100  1
  O  O30  1  0.00637900  0.76974600  0.70614900  1
  O  O31  1  0.72947300  0.04280900  0.75188300  1
  O  O32  1  0.50319400  0.72791900  0.97150800  1
  O  O33  1  0.23025400  0.99362100  0.29385100  1
  O  O34  1  0.74121500  0.95213400  0.51632900  1
  O  O35  1  0.54467400  0.75737000  0.21493400  1
  O  O36  1  0.54495600  0.22518300  0.97240400  1
  O  O37  1  0.45857000  0.23886500  0.28437300  1
  O  O38  1  0.24263000  0.45532600  0.78506600  1
  O  O39  1  0.04728400  0.72332600  0.25270200  1
