# generated using pymatgen
data_MgFe10O9F11
_symmetry_space_group_name_H-M   'P 1'
_cell_length_a   4.95903638
_cell_length_b   4.89344436
_cell_length_c   15.32747896
_cell_angle_alpha   88.63045512
_cell_angle_beta   89.84367240
_cell_angle_gamma   96.65924520
_symmetry_Int_Tables_number   1
_chemical_formula_structural   MgFe10O9F11
_chemical_formula_sum   'Mg1 Fe10 O9 F11'
_cell_volume   369.32779140
_cell_formula_units_Z   1
loop_
 _symmetry_equiv_pos_site_id
 _symmetry_equiv_pos_as_xyz
  1  'x, y, z'
loop_
 _atom_site_type_symbol
 _atom_site_label
 _atom_site_symmetry_multiplicity
 _atom_site_fract_x
 _atom_site_fract_y
 _atom_site_fract_z
 _atom_site_occupancy
  Mg  Mg0  1  0.52843061  0.03982791  0.71049907  1
  Fe  Fe1  1  0.00331306  0.99785133  0.00184133  1
  Fe  Fe2  1  0.00645333  0.98836206  0.20092227  1
  Fe  Fe3  1  -0.00027321  0.96705866  0.40095784  1
  Fe  Fe4  1  0.02478436  0.98894933  0.59557750  1
  Fe  Fe5  1  0.03975548  0.03647452  0.81675479  1
  Fe  Fe6  1  0.50640592  0.49515379  0.10187395  1
  Fe  Fe7  1  0.49463767  0.45060116  0.48980935  1
  Fe  Fe8  1  0.50434368  0.48235334  0.29730364  1
  Fe  Fe9  1  0.25498070  0.49707784  0.68949338  1
  Fe  Fe10  1  0.50167554  0.49888332  0.90793737  1
  O  O11  1  0.16216075  0.84822255  0.71106847  1
  O  O12  1  0.31354031  0.28886562  0.00502871  1
  O  O13  1  0.30819753  0.28517745  0.20125677  1
  O  O14  1  0.30820760  0.26038730  0.39576084  1
  O  O15  1  0.36515107  0.26467586  0.59508368  1
  O  O16  1  0.37239232  0.30550430  0.80451405  1
  O  O17  1  0.69825932  0.70739990  0.00311727  1
  O  O18  1  0.70334761  0.69023198  0.20138060  1
  O  O19  1  0.69374418  0.67889442  0.40050730  1
  F  F20  1  0.18757561  0.79950585  0.10371641  1
  F  F21  1  0.18474397  0.78464490  0.30040962  1
  F  F22  1  0.18229665  0.74865982  0.49452828  1
  F  F23  1  0.19509694  0.78027248  0.91283251  1
  F  F24  1  0.65150384  0.77737433  0.61314913  1
  F  F25  1  0.66857498  0.80351388  0.81120799  1
  F  F26  1  0.82329894  0.18627074  0.10368509  1
  F  F27  1  0.82513840  0.18922683  0.49069486  1
  F  F28  1  0.82241322  0.17003478  0.30036699  1
  F  F29  1  0.82977851  0.23977325  0.91264475  1
  F  F30  1  0.86785112  0.26265649  0.70107618  1
