# generated using pymatgen
data_Na2Ge2Se5
_symmetry_space_group_name_H-M   'P 1'
_cell_length_a   9.50087150
_cell_length_b   9.50087139
_cell_length_c   11.07984875
_cell_angle_alpha   90.00000000
_cell_angle_beta   90.00000000
_cell_angle_gamma   89.12442773
_symmetry_Int_Tables_number   1
_chemical_formula_structural   Na2Ge2Se5
_chemical_formula_sum   'Na8 Ge8 Se20'
_cell_volume   1000.02303436
_cell_formula_units_Z   4
loop_
 _symmetry_equiv_pos_site_id
 _symmetry_equiv_pos_as_xyz
  1  'x, y, z'
loop_
 _atom_site_type_symbol
 _atom_site_label
 _atom_site_symmetry_multiplicity
 _atom_site_fract_x
 _atom_site_fract_y
 _atom_site_fract_z
 _atom_site_occupancy
  Na  Na0  1  0.42262029  0.07458121  0.75000000  1
  Na  Na1  1  0.57737971  0.92541879  0.25000000  1
  Na  Na2  1  0.07458121  0.42262029  0.75000000  1
  Na  Na3  1  0.92541879  0.57737971  0.25000000  1
  Na  Na4  1  0.14436186  0.85563814  0.50000000  1
  Na  Na5  1  0.85563814  0.14436186  0.00000000  1
  Na  Na6  1  0.85563814  0.14436186  0.50000000  1
  Na  Na7  1  0.14436186  0.85563814  0.00000000  1
  Ge  Ge8  1  0.68570318  0.40519218  0.75000000  1
  Ge  Ge9  1  0.31429682  0.59480782  0.25000000  1
  Ge  Ge10  1  0.40519218  0.68570318  0.75000000  1
  Ge  Ge11  1  0.59480782  0.31429682  0.25000000  1
  Ge  Ge12  1  0.74379379  0.74379379  0.92072808  1
  Ge  Ge13  1  0.25620621  0.25620621  0.42072808  1
  Ge  Ge14  1  0.74379379  0.74379379  0.57927192  1
  Ge  Ge15  1  0.25620621  0.25620621  0.07927192  1
  Se  Se16  1  0.83228076  0.26809112  0.25000000  1
  Se  Se17  1  0.16771924  0.73190888  0.75000000  1
  Se  Se18  1  0.26809112  0.83228076  0.25000000  1
  Se  Se19  1  0.73190888  0.16771924  0.75000000  1
  Se  Se20  1  0.84408973  0.84408973  0.08783090  1
  Se  Se21  1  0.15591027  0.15591027  0.58783090  1
  Se  Se22  1  0.84408973  0.84408973  0.41216910  1
  Se  Se23  1  0.15591027  0.15591027  0.91216910  1
  Se  Se24  1  0.84860922  0.84860922  0.75000000  1
  Se  Se25  1  0.15139078  0.15139078  0.25000000  1
  Se  Se26  1  0.20320991  0.50233110  0.07426744  1
  Se  Se27  1  0.79678909  0.49766890  0.57426744  1
  Se  Se28  1  0.50233110  0.20320991  0.42573256  1
  Se  Se29  1  0.49766890  0.79678909  0.92573256  1
  Se  Se30  1  0.79678909  0.49766890  0.92573256  1
  Se  Se31  1  0.20320991  0.50233110  0.42573256  1
  Se  Se32  1  0.49766890  0.79678909  0.57426744  1
  Se  Se33  1  0.50233110  0.20320991  0.07426744  1
  Se  Se34  1  0.43967070  0.43967070  0.75000000  1
  Se  Se35  1  0.56032930  0.56032930  0.25000000  1
