# generated using pymatgen
data_K2MgMnH4(I2O7)2
_symmetry_space_group_name_H-M   'P 1'
_cell_length_a   8.13987004
_cell_length_b   7.95902220
_cell_length_c   8.90086548
_cell_angle_alpha   94.10087544
_cell_angle_beta   58.39701943
_cell_angle_gamma   119.67184903
_symmetry_Int_Tables_number   1
_chemical_formula_structural   K2MgMnH4(I2O7)2
_chemical_formula_sum   'K2 Mg1 Mn1 H4 I4 O14'
_cell_volume   412.74504014
_cell_formula_units_Z   1
loop_
 _symmetry_equiv_pos_site_id
 _symmetry_equiv_pos_as_xyz
  1  'x, y, z'
loop_
 _atom_site_type_symbol
 _atom_site_label
 _atom_site_symmetry_multiplicity
 _atom_site_fract_x
 _atom_site_fract_y
 _atom_site_fract_z
 _atom_site_occupancy
  K  K0  1  0.68403176  0.02560306  0.93649157  1
  K  K1  1  0.18506153  0.04378374  0.93853597  1
  Mg  Mg2  1  0.94367065  0.73555488  0.32464309  1
  Mn  Mn3  1  0.07958604  0.51589413  0.50632290  1
  H  H4  1  0.33665051  0.38096557  0.54499264  1
  H  H5  1  0.47788114  0.61787486  0.45847695  1
  H  H6  1  0.54529764  0.32105070  0.54284759  1
  H  H7  1  0.70349648  0.51358397  0.64987869  1
  I  I8  1  0.67312814  0.51593511  0.98159587  1
  I  I9  1  0.14413699  0.50885157  0.02927888  1
  I  I10  1  0.66957511  0.02307627  0.50672865  1
  I  I11  1  0.30912554  0.05842671  0.39413814  1
  O  O12  1  0.81759810  0.52722748  0.52237130  1
  O  O13  1  0.91510065  0.18294518  0.52291191  1
  O  O14  1  0.33740527  0.84535476  0.44387372  1
  O  O15  1  0.73097512  0.83101080  0.40714058  1
  O  O16  1  0.38027566  0.22159140  0.59877472  1
  O  O17  1  0.83717004  0.78555796  0.90471896  1
  O  O18  1  0.94029120  0.23923077  0.11169516  1
  O  O19  1  0.87367417  0.44417131  0.82053161  1
  O  O20  1  0.22575860  0.57486423  0.19117525  1
  O  O21  1  0.34001881  0.48833540  0.48494106  1
  O  O22  1  0.45892405  0.88716022  0.74620007  1
  O  O23  1  0.25582556  0.97361339  0.20063635  1
  O  O24  1  0.49666597  0.44583505  0.89014159  1
  O  O25  1  0.94561528  0.60083649  0.12220677  1
