# generated using pymatgen
data_Ta3Tl2Cl9
_symmetry_space_group_name_H-M   'P 1'
_cell_length_a   9.79162501
_cell_length_b   9.79162501
_cell_length_c   9.56080143
_cell_angle_alpha   76.72947737
_cell_angle_beta   76.72947737
_cell_angle_gamma   116.29231004
_symmetry_Int_Tables_number   1
_chemical_formula_structural   Ta3Tl2Cl9
_chemical_formula_sum   'Ta6 Tl4 Cl18'
_cell_volume   740.00929053
_cell_formula_units_Z   2
loop_
 _symmetry_equiv_pos_site_id
 _symmetry_equiv_pos_as_xyz
  1  'x, y, z'
loop_
 _atom_site_type_symbol
 _atom_site_label
 _atom_site_symmetry_multiplicity
 _atom_site_fract_x
 _atom_site_fract_y
 _atom_site_fract_z
 _atom_site_occupancy
  Ta  Ta0  1  0.61271511  0.61271511  0.13058761  1
  Ta  Ta1  1  0.38728489  0.38728489  0.86941239  1
  Ta  Ta2  1  0.45379101  0.28090792  0.14003305  1
  Ta  Ta3  1  0.54620899  0.71909208  0.85996695  1
  Ta  Ta4  1  0.71909208  0.54620899  0.85996695  1
  Ta  Ta5  1  0.28090792  0.45379101  0.14003305  1
  Tl  Tl6  1  0.73020677  0.04933614  0.32659474  1
  Tl  Tl7  1  0.26979323  0.95066386  0.67340526  1
  Tl  Tl8  1  0.95066386  0.26979323  0.67340526  1
  Tl  Tl9  1  0.04933614  0.73020677  0.32659474  1
  Cl  Cl10  1  0.70753250  0.29246750  -0.00000000  1
  Cl  Cl11  1  0.29246750  0.70753250  -0.00000000  1
  Cl  Cl12  1  0.39288276  0.99800494  0.32236471  1
  Cl  Cl13  1  0.60711724  0.00199506  0.67763529  1
  Cl  Cl14  1  0.00199506  0.60711724  0.67763529  1
  Cl  Cl15  1  0.99800494  0.39288276  0.32236471  1
  Cl  Cl16  1  0.31149476  0.10269172  0.01128852  1
  Cl  Cl17  1  0.68850524  0.89730828  0.98871148  1
  Cl  Cl18  1  0.89730828  0.68850524  0.98871148  1
  Cl  Cl19  1  0.10269172  0.31149476  0.01128852  1
  Cl  Cl20  1  0.75595046  0.75595046  0.29419864  1
  Cl  Cl21  1  0.24404954  0.24404954  0.70580136  1
  Cl  Cl22  1  0.82012820  0.82012820  0.66564443  1
  Cl  Cl23  1  0.17987180  0.17987180  0.33435557  1
  Cl  Cl24  1  0.58012429  0.37158258  0.32161616  1
  Cl  Cl25  1  0.41987571  0.62841742  0.67838384  1
  Cl  Cl26  1  0.62841742  0.41987571  0.67838384  1
  Cl  Cl27  1  0.37158258  0.58012429  0.32161616  1
