# generated using pymatgen
data_CsSm(MoO4)2
_symmetry_space_group_name_H-M   'P 1'
_cell_length_a   5.08836433
_cell_length_b   8.14267111
_cell_length_c   9.58360648
_cell_angle_alpha   90.00000000
_cell_angle_beta   90.00000000
_cell_angle_gamma   90.00000000
_symmetry_Int_Tables_number   1
_chemical_formula_structural   CsSm(MoO4)2
_chemical_formula_sum   'Cs2 Sm2 Mo4 O16'
_cell_volume   397.07639068
_cell_formula_units_Z   2
loop_
 _symmetry_equiv_pos_site_id
 _symmetry_equiv_pos_as_xyz
  1  'x, y, z'
loop_
 _atom_site_type_symbol
 _atom_site_label
 _atom_site_symmetry_multiplicity
 _atom_site_fract_x
 _atom_site_fract_y
 _atom_site_fract_z
 _atom_site_occupancy
  Cs  Cs0  1  0.00000000  0.25000000  0.50000000  1
  Cs  Cs1  1  0.00000000  0.75000000  0.50000000  1
  Sm  Sm2  1  0.00000000  0.25000000  -0.00000000  1
  Sm  Sm3  1  0.00000000  0.75000000  0.00000000  1
  Mo  Mo4  1  0.52083805  0.00000000  0.19766941  1
  Mo  Mo5  1  0.47916195  -0.00000000  0.80233059  1
  Mo  Mo6  1  0.47916195  0.50000000  0.19766941  1
  Mo  Mo7  1  0.52083805  0.50000000  0.80233059  1
  O  O8  1  0.25507187  0.00000000  0.06752140  1
  O  O9  1  0.74492813  -0.00000000  0.93247860  1
  O  O10  1  0.74492813  0.50000000  0.06752140  1
  O  O11  1  0.25507187  0.50000000  0.93247860  1
  O  O12  1  0.26520633  0.32779781  0.18996243  1
  O  O13  1  0.73479367  0.67220219  0.81003757  1
  O  O14  1  0.73479367  0.32779781  0.81003757  1
  O  O15  1  0.73479367  0.17220219  0.18996243  1
  O  O16  1  0.26520633  0.67220219  0.18996243  1
  O  O17  1  0.26520633  0.82779781  0.81003757  1
  O  O18  1  0.26520633  0.17220219  0.81003757  1
  O  O19  1  0.73479367  0.82779781  0.18996243  1
  O  O20  1  0.38011645  -0.00000000  0.36042572  1
  O  O21  1  0.61988355  -0.00000000  0.63957428  1
  O  O22  1  0.61988355  0.50000000  0.36042572  1
  O  O23  1  0.38011645  0.50000000  0.63957428  1
