# generated using pymatgen
data_Cs2PtCl4
_symmetry_space_group_name_H-M   'P 1'
_cell_length_a   7.44671597
_cell_length_b   7.44671580
_cell_length_c   9.47830816
_cell_angle_alpha   90.00000000
_cell_angle_beta   90.00000000
_cell_angle_gamma   89.98841346
_symmetry_Int_Tables_number   1
_chemical_formula_structural   Cs2PtCl4
_chemical_formula_sum   'Cs4 Pt2 Cl8'
_cell_volume   525.60608470
_cell_formula_units_Z   2
loop_
 _symmetry_equiv_pos_site_id
 _symmetry_equiv_pos_as_xyz
  1  'x, y, z'
loop_
 _atom_site_type_symbol
 _atom_site_label
 _atom_site_symmetry_multiplicity
 _atom_site_fract_x
 _atom_site_fract_y
 _atom_site_fract_z
 _atom_site_occupancy
  Cs  Cs0  1  0.50005740  0.99997765  0.75000000  1
  Cs  Cs1  1  0.00002235  0.49994260  0.25000000  1
  Cs  Cs2  1  0.49994260  0.00002235  0.25000000  1
  Cs  Cs3  1  0.99997765  0.50005740  0.75000000  1
  Pt  Pt4  1  0.00000000  -0.00000000  0.50000000  1
  Pt  Pt5  1  0.00000000  -0.00000000  0.00000000  1
  Cl  Cl6  1  0.77996887  0.77996887  0.49998565  1
  Cl  Cl7  1  0.77996887  0.77996887  0.00001435  1
  Cl  Cl8  1  0.22007154  0.77992846  0.00000000  1
  Cl  Cl9  1  0.77992846  0.22007154  0.50000000  1
  Cl  Cl10  1  0.77992846  0.22007154  -0.00000000  1
  Cl  Cl11  1  0.22003113  0.22003113  0.50001435  1
  Cl  Cl12  1  0.22003113  0.22003113  0.99998565  1
  Cl  Cl13  1  0.22007154  0.77992846  0.50000000  1
