# generated using pymatgen
data_Cs4K3U3Si4O20F
_symmetry_space_group_name_H-M   'P 1'
_cell_length_a   11.83984190
_cell_length_b   11.83984190
_cell_length_c   14.20683919
_cell_angle_alpha   90.00000000
_cell_angle_beta   90.00000000
_cell_angle_gamma   141.48009159
_symmetry_Int_Tables_number   1
_chemical_formula_structural   Cs4K3U3Si4O20F
_chemical_formula_sum   'Cs8 K6 U6 Si8 O40 F2'
_cell_volume   1240.30496462
_cell_formula_units_Z   2
loop_
 _symmetry_equiv_pos_site_id
 _symmetry_equiv_pos_as_xyz
  1  'x, y, z'
loop_
 _atom_site_type_symbol
 _atom_site_label
 _atom_site_symmetry_multiplicity
 _atom_site_fract_x
 _atom_site_fract_y
 _atom_site_fract_z
 _atom_site_occupancy
  Cs  Cs0  1  0.70743529  0.78477642  0.66824262  1
  Cs  Cs1  1  0.21522358  0.29256471  0.66824262  1
  Cs  Cs2  1  0.29256471  0.21522358  0.16824262  1
  Cs  Cs3  1  0.78477642  0.70743529  0.16824262  1
  Cs  Cs4  1  0.53196461  0.95725476  0.78264434  1
  Cs  Cs5  1  0.04274524  0.46803539  0.78264434  1
  Cs  Cs6  1  0.46803539  0.04274524  0.28264434  1
  Cs  Cs7  1  0.95725476  0.53196461  0.28264434  1
  K  K8  1  0.38088209  0.61911791  0.23081367  1
  K  K9  1  0.61911791  0.38088209  0.73081367  1
  K  K10  1  0.83222985  0.16777015  0.52067906  1
  K  K11  1  0.16777015  0.83222985  0.02067906  1
  K  K12  1  0.08536456  0.91463444  0.43737686  1
  K  K13  1  0.91463544  0.08536456  0.93737686  1
  U  U14  1  0.12532595  0.87467405  0.72021420  1
  U  U15  1  0.87467405  0.12532595  0.22021420  1
  U  U16  1  0.32517122  0.67482878  0.49455553  1
  U  U17  1  0.67482878  0.32517122  0.99455553  1
  U  U18  1  0.42602718  0.57397282  0.94764357  1
  U  U19  1  0.57397282  0.42602718  0.44764357  1
  Si  Si20  1  0.50236135  0.89862580  0.05428406  1
  Si  Si21  1  0.10137420  0.49763865  0.05428406  1
  Si  Si22  1  0.49763865  0.10137420  0.55428406  1
  Si  Si23  1  0.89862580  0.50236135  0.55428406  1
  Si  Si24  1  0.74387112  0.85329656  0.40772118  1
  Si  Si25  1  0.14670344  0.25612888  0.40772118  1
  Si  Si26  1  0.25612888  0.14670344  0.90772118  1
  Si  Si27  1  0.85329656  0.74387112  0.90772118  1
  O  O28  1  0.47063459  0.95265789  0.51578320  1
  O  O29  1  0.04734211  0.52936541  0.51578320  1
  O  O30  1  0.52936541  0.04734211  0.01578320  1
  O  O31  1  0.95265789  0.47063459  0.01578320  1
  O  O32  1  0.38414540  0.03264536  0.65048784  1
  O  O33  1  0.96735464  0.61585460  0.65048784  1
  O  O34  1  0.61585460  0.96735464  0.15048784  1
  O  O35  1  0.03264536  0.38414540  0.15048784  1
  O  O36  1  0.54818252  0.84135926  0.97365284  1
  O  O37  1  0.15864074  0.45181748  0.97365284  1
  O  O38  1  0.45181748  0.15864074  0.47365284  1
  O  O39  1  0.84135926  0.54818252  0.47365284  1
  O  O40  1  0.71495909  0.28504091  0.58396367  1
  O  O41  1  0.28504091  0.71495909  0.08396367  1
  O  O42  1  0.70379682  0.72589847  0.92168631  1
  O  O43  1  0.27410153  0.29620318  0.92168631  1
  O  O44  1  0.29620318  0.27410153  0.42168631  1
  O  O45  1  0.72589847  0.70379682  0.42168631  1
  O  O46  1  0.94910800  0.05089200  0.44625553  1
  O  O47  1  0.05089200  0.94910800  0.94625553  1
  O  O48  1  0.26932387  0.12661313  0.79647551  1
  O  O49  1  0.87338687  0.73067613  0.79647551  1
  O  O50  1  0.73067613  0.87338687  0.29647551  1
  O  O51  1  0.12661313  0.26932387  0.29647551  1
  O  O52  1  0.59823368  0.80785938  0.47144495  1
  O  O53  1  0.19214062  0.40176632  0.47144495  1
  O  O54  1  0.40176632  0.19214062  0.97144495  1
  O  O55  1  0.80785938  0.59823368  0.97144495  1
  O  O56  1  0.18030212  0.81969788  0.81865496  1
  O  O57  1  0.81969788  0.18030212  0.31865496  1
  O  O58  1  0.06847223  0.93152777  0.62476087  1
  O  O59  1  0.93152777  0.06847223  0.12476087  1
  O  O60  1  0.30488053  0.69511947  0.36813270  1
  O  O61  1  0.69511947  0.30488053  0.86813270  1
  O  O62  1  0.34398416  0.65601584  0.62158899  1
  O  O63  1  0.65601584  0.34398416  0.12158899  1
  O  O64  1  0.40522297  0.59477703  0.82103864  1
  O  O65  1  0.59477703  0.40522297  0.32103864  1
  O  O66  1  0.44610947  0.55389053  0.07459901  1
  O  O67  1  0.55389053  0.44610947  0.57459901  1
  F  F68  1  0.87501701  0.12498299  0.72769501  1
  F  F69  1  0.12498299  0.87501701  0.22769501  1
