# generated using pymatgen
data_LiMnF3
_symmetry_space_group_name_H-M   'P 1'
_cell_length_a   5.93759739
_cell_length_b   5.93759739
_cell_length_c   11.67697000
_cell_angle_alpha   90.00000000
_cell_angle_beta   90.00000000
_cell_angle_gamma   119.99999319
_symmetry_Int_Tables_number   1
_chemical_formula_structural   LiMnF3
_chemical_formula_sum   'Li6 Mn6 F18'
_cell_volume   356.51870307
_cell_formula_units_Z   6
loop_
 _symmetry_equiv_pos_site_id
 _symmetry_equiv_pos_as_xyz
  1  'x, y, z'
loop_
 _atom_site_type_symbol
 _atom_site_label
 _atom_site_symmetry_multiplicity
 _atom_site_fract_x
 _atom_site_fract_y
 _atom_site_fract_z
 _atom_site_occupancy
  Li  Li0  1  0.00041100  0.32570500  0.25328600  1
  Li  Li1  1  0.32529400  0.99958900  0.25328600  1
  Li  Li2  1  0.32868700  0.33037200  0.75508000  1
  Li  Li3  1  0.00168400  0.67131300  0.75508000  1
  Li  Li4  1  0.67429500  0.67470600  0.25328600  1
  Li  Li5  1  0.66962800  0.99831600  0.75508000  1
  Mn  Mn6  1  0.66666700  0.33333300  0.97212500  1
  Mn  Mn7  1  0.66666700  0.33333300  0.47083700  1
  Mn  Mn8  1  0.00000000  0.00000000  0.50594300  1
  Mn  Mn9  1  0.33333300  0.66666700  0.03690000  1
  Mn  Mn10  1  0.33333300  0.66666700  0.53781100  1
  Mn  Mn11  1  0.00000000  0.00000000  0.00020000  1
  F  F12  1  0.69012800  0.04722100  0.58227200  1
  F  F13  1  0.64449200  0.95923700  0.92695100  1
  F  F14  1  0.95769000  0.31014400  0.08047600  1
  F  F15  1  0.04336300  0.35617700  0.42805400  1
  F  F16  1  0.35245400  0.04231000  0.08047600  1
  F  F17  1  0.31281300  0.95663700  0.42805400  1
  F  F18  1  0.66666700  0.33333300  0.28791800  1
  F  F19  1  0.66666700  0.33333300  0.78879800  1
  F  F20  1  0.00000000  0.00000000  0.75766600  1
  F  F21  1  0.00000000  0.00000000  0.25520400  1
  F  F22  1  0.95277900  0.64290700  0.58227200  1
  F  F23  1  0.35709300  0.30987200  0.58227200  1
  F  F24  1  0.04076300  0.68525500  0.92695100  1
  F  F25  1  0.31474500  0.35550800  0.92695100  1
  F  F26  1  0.68985600  0.64754600  0.08047600  1
  F  F27  1  0.64382300  0.68718700  0.42805400  1
  F  F28  1  0.33333300  0.66666700  0.21978500  1
  F  F29  1  0.33333300  0.66666700  0.72084900  1
