# generated using pymatgen
data_Tb6Ge3Se14
_symmetry_space_group_name_H-M   'P 1'
_cell_length_a   10.24867691
_cell_length_b   10.24872393
_cell_length_c   6.23936339
_cell_angle_alpha   90.00120408
_cell_angle_beta   90.00019964
_cell_angle_gamma   119.99991239
_symmetry_Int_Tables_number   1
_chemical_formula_structural   Tb6Ge3Se14
_chemical_formula_sum   'Tb6 Ge3 Se14'
_cell_volume   567.55622589
_cell_formula_units_Z   1
loop_
 _symmetry_equiv_pos_site_id
 _symmetry_equiv_pos_as_xyz
  1  'x, y, z'
loop_
 _atom_site_type_symbol
 _atom_site_label
 _atom_site_symmetry_multiplicity
 _atom_site_fract_x
 _atom_site_fract_y
 _atom_site_fract_z
 _atom_site_occupancy
  Tb  Tb0  1  0.30736555  0.11542387  0.74394077  1
  Tb  Tb1  1  0.80800717  0.69257723  0.74393242  1
  Tb  Tb2  1  0.88456904  0.19197189  0.74395883  1
  Tb  Tb3  1  0.02869746  0.55170007  0.23325335  1
  Tb  Tb4  1  0.52304621  0.97132070  0.23323212  1
  Tb  Tb5  1  0.44828722  0.47696049  0.23323441  1
  Ge  Ge6  1  -0.00001585  0.00000436  0.16486738  1
  Ge  Ge7  1  0.33334416  0.66666216  0.65520304  1
  Ge  Ge8  1  0.66665577  0.33332731  0.53377264  1
  Se  Se9  1  0.00005366  -0.00000751  0.54138807  1
  Se  Se10  1  0.33334305  0.66667933  0.03277441  1
  Se  Se11  1  0.14652891  0.23980398  0.00167327  1
  Se  Se12  1  0.09326504  0.85347894  0.00165977  1
  Se  Se13  1  0.76017954  0.90676755  0.00162350  1
  Se  Se14  1  0.18703095  0.42678957  0.49409008  1
  Se  Se15  1  0.23974219  0.81294895  0.49402301  1
  Se  Se16  1  0.57320879  0.76023076  0.49404762  1
  Se  Se17  1  0.41069085  0.18331838  0.30515035  1
  Se  Se18  1  0.77265292  0.58934039  0.30506525  1
  Se  Se19  1  0.81670470  0.22738383  0.30514650  1
  Se  Se20  1  0.92774525  0.48863574  0.80003616  1
  Se  Se21  1  0.56086931  0.07225057  0.79998329  1
  Se  Se22  1  0.51135909  0.43909744  0.80000278  1
