# generated using pymatgen
data_Rb4Ge(PSe3)4
_symmetry_space_group_name_H-M   'P 1'
_cell_length_a   7.54793332
_cell_length_b   14.60121898
_cell_length_c   24.78142984
_cell_angle_alpha   90.00000000
_cell_angle_beta   90.00000000
_cell_angle_gamma   90.00000000
_symmetry_Int_Tables_number   1
_chemical_formula_structural   Rb4Ge(PSe3)4
_chemical_formula_sum   'Rb16 Ge4 P16 Se48'
_cell_volume   2731.13727657
_cell_formula_units_Z   4
loop_
 _symmetry_equiv_pos_site_id
 _symmetry_equiv_pos_as_xyz
  1  'x, y, z'
loop_
 _atom_site_type_symbol
 _atom_site_label
 _atom_site_symmetry_multiplicity
 _atom_site_fract_x
 _atom_site_fract_y
 _atom_site_fract_z
 _atom_site_occupancy
  Rb  Rb0  1  0.28965053  0.47011143  0.56145905  1
  Rb  Rb1  1  0.71034947  0.52988857  0.06145905  1
  Rb  Rb2  1  0.28965053  0.02988857  0.06145905  1
  Rb  Rb3  1  0.71034947  0.97011143  0.56145905  1
  Rb  Rb4  1  0.19265046  0.12372663  0.66175764  1
  Rb  Rb5  1  0.80734954  0.87627337  0.16175764  1
  Rb  Rb6  1  0.19265046  0.37627337  0.16175764  1
  Rb  Rb7  1  0.80734954  0.62372663  0.66175764  1
  Rb  Rb8  1  0.18781376  0.82387069  0.78689713  1
  Rb  Rb9  1  0.81218624  0.17612931  0.28689713  1
  Rb  Rb10  1  0.18781376  0.67612931  0.28689713  1
  Rb  Rb11  1  0.81218624  0.32387069  0.78689713  1
  Rb  Rb12  1  0.19487894  0.66557007  0.93571341  1
  Rb  Rb13  1  0.80512106  0.33442993  0.43571341  1
  Rb  Rb14  1  0.19487894  0.83442993  0.43571341  1
  Rb  Rb15  1  0.80512106  0.16557007  0.93571341  1
  Ge  Ge16  1  0.34296396  0.41992128  0.86773929  1
  Ge  Ge17  1  0.65703604  0.58007872  0.36773929  1
  Ge  Ge18  1  0.34296396  0.08007872  0.36773929  1
  Ge  Ge19  1  0.65703604  0.91992128  0.86773929  1
  P  P20  1  0.30247928  0.40486009  0.72052648  1
  P  P21  1  0.69752072  0.59513991  0.22052648  1
  P  P22  1  0.30247928  0.09513991  0.22052648  1
  P  P23  1  0.69752072  0.90486009  0.72052648  1
  P  P24  1  0.75100125  0.04868602  0.75588410  1
  P  P25  1  0.24899875  0.95131398  0.25588410  1
  P  P26  1  0.75100125  0.45131398  0.25588410  1
  P  P27  1  0.24899875  0.54868602  0.75588410  1
  P  P28  1  0.14607456  0.39211953  0.99976078  1
  P  P29  1  0.85392544  0.60788047  0.49976078  1
  P  P30  1  0.14607456  0.10788047  0.49976078  1
  P  P31  1  0.85392544  0.89211953  0.99976078  1
  P  P32  1  0.37095173  0.28937935  0.98382791  1
  P  P33  1  0.62904827  0.71062065  0.48382791  1
  P  P34  1  0.37095173  0.21062065  0.48382791  1
  P  P35  1  0.62904827  0.78937935  0.98382791  1
  Se  Se36  1  0.55571517  0.40513653  0.68072791  1
  Se  Se37  1  0.44428483  0.59486347  0.18072791  1
  Se  Se38  1  0.55571517  0.09486347  0.18072791  1
  Se  Se39  1  0.44428483  0.90513653  0.68072791  1
  Se  Se40  1  0.07221400  0.36748248  0.67345827  1
  Se  Se41  1  0.92778600  0.63251752  0.17345827  1
  Se  Se42  1  0.07221400  0.13251752  0.17345827  1
  Se  Se43  1  0.92778600  0.86748248  0.67345827  1
  Se  Se44  1  0.30455074  0.30854427  0.79708691  1
  Se  Se45  1  0.69544926  0.69145573  0.29708691  1
  Se  Se46  1  0.30455074  0.19145573  0.29708691  1
  Se  Se47  1  0.69544926  0.80854427  0.79708691  1
  Se  Se48  1  0.68416048  0.14754296  0.69500929  1
  Se  Se49  1  0.31583952  0.85245704  0.19500929  1
  Se  Se50  1  0.68416048  0.35245704  0.19500929  1
  Se  Se51  1  0.31583952  0.64754296  0.69500929  1
  Se  Se52  1  0.01036853  0.05932098  0.79322089  1
  Se  Se53  1  0.98963147  0.94067902  0.29322089  1
  Se  Se54  1  0.01036853  0.44067902  0.29322089  1
  Se  Se55  1  0.98963147  0.55932098  0.79322089  1
  Se  Se56  1  0.54026929  0.05460954  0.82434920  1
  Se  Se57  1  0.45973071  0.94539046  0.32434920  1
  Se  Se58  1  0.54026929  0.44539046  0.32434920  1
  Se  Se59  1  0.45973071  0.55460954  0.82434920  1
  Se  Se60  1  0.05914546  0.43314672  0.91243939  1
  Se  Se61  1  0.94085454  0.56685328  0.41243939  1
  Se  Se62  1  0.05914546  0.06685328  0.41243939  1
  Se  Se63  1  0.94085454  0.93314672  0.91243939  1
  Se  Se64  1  0.23790962  0.98761386  0.54245499  1
  Se  Se65  1  0.76209038  0.01238614  0.04245499  1
  Se  Se66  1  0.23790962  0.51238614  0.04245499  1
  Se  Se67  1  0.76209038  0.48761386  0.54245499  1
  Se  Se68  1  0.07179490  0.68223577  0.53585988  1
  Se  Se69  1  0.92820510  0.31776423  0.03585988  1
  Se  Se70  1  0.07179490  0.81776423  0.03585988  1
  Se  Se71  1  0.92820510  0.18223577  0.53585988  1
  Se  Se72  1  0.56413903  0.38509252  0.93443556  1
  Se  Se73  1  0.43586097  0.61490748  0.43443556  1
  Se  Se74  1  0.56413903  0.11490748  0.43443556  1
  Se  Se75  1  0.43586097  0.88509252  0.93443556  1
  Se  Se76  1  0.48770685  0.24484248  0.56014836  1
  Se  Se77  1  0.51229315  0.75515752  0.06014836  1
  Se  Se78  1  0.48770685  0.25515752  0.06014836  1
  Se  Se79  1  0.51229315  0.74484248  0.56014836  1
  Se  Se80  1  0.28510263  0.17993203  0.93115357  1
  Se  Se81  1  0.71489737  0.82006797  0.43115357  1
  Se  Se82  1  0.28510263  0.32006797  0.43115357  1
  Se  Se83  1  0.71489737  0.67993203  0.93115357  1
