# generated using pymatgen
data_NaCr(SiO3)2
_symmetry_space_group_name_H-M   'P 1'
_cell_length_a   6.47441749
_cell_length_b   6.47441774
_cell_length_c   5.28228033
_cell_angle_alpha   76.89900254
_cell_angle_beta   76.89900679
_cell_angle_gamma   84.49134157
_symmetry_Int_Tables_number   1
_chemical_formula_structural   NaCr(SiO3)2
_chemical_formula_sum   'Na2 Cr2 Si4 O12'
_cell_volume   209.81422260
_cell_formula_units_Z   2
loop_
 _symmetry_equiv_pos_site_id
 _symmetry_equiv_pos_as_xyz
  1  'x, y, z'
loop_
 _atom_site_type_symbol
 _atom_site_label
 _atom_site_symmetry_multiplicity
 _atom_site_fract_x
 _atom_site_fract_y
 _atom_site_fract_z
 _atom_site_occupancy
  Na  Na0  1  0.29787280  0.70212720  0.24999995  1
  Na  Na1  1  0.70212720  0.29787280  0.75000005  1
  Cr  Cr2  1  0.90800671  0.09199337  0.24999995  1
  Cr  Cr3  1  0.09199329  0.90800663  0.75000005  1
  Si  Si4  1  0.38485472  0.20165806  0.26333369  1
  Si  Si5  1  0.20165801  0.38485467  0.76333372  1
  Si  Si6  1  0.79834199  0.61514533  0.23666628  1
  Si  Si7  1  0.61514528  0.79834194  0.73666631  1
  O  O8  1  0.36232466  0.34516139  0.48697208  1
  O  O9  1  0.65483866  0.63767529  0.01302787  1
  O  O10  1  0.63767534  0.65483861  0.51302792  1
  O  O11  1  0.34516134  0.36232471  0.98697213  1
  O  O12  1  0.62035238  0.10128163  0.19432430  1
  O  O13  1  0.89871846  0.37964773  0.30567577  1
  O  O14  1  0.37964762  0.89871837  0.80567570  1
  O  O15  1  0.10128154  0.62035227  0.69432423  1
  O  O16  1  0.03408503  0.19402775  0.86207761  1
  O  O17  1  0.80597216  0.96591493  0.63792251  1
  O  O18  1  0.96591497  0.80597225  0.13792239  1
  O  O19  1  0.19402784  0.03408507  0.36207749  1
