# generated using pymatgen
data_Ho4C7
_symmetry_space_group_name_H-M   'P 1'
_cell_length_a   3.67279111
_cell_length_b   12.49005463
_cell_length_c   13.62742617
_cell_angle_alpha   90.00000000
_cell_angle_beta   96.72834402
_cell_angle_gamma   90.00000000
_symmetry_Int_Tables_number   1
_chemical_formula_structural   Ho4C7
_chemical_formula_sum   'Ho16 C28'
_cell_volume   620.83041932
_cell_formula_units_Z   4
loop_
 _symmetry_equiv_pos_site_id
 _symmetry_equiv_pos_as_xyz
  1  'x, y, z'
loop_
 _atom_site_type_symbol
 _atom_site_label
 _atom_site_symmetry_multiplicity
 _atom_site_fract_x
 _atom_site_fract_y
 _atom_site_fract_z
 _atom_site_occupancy
  Ho  Ho0  1  0.19337972  0.01532761  0.89274900  1
  Ho  Ho1  1  0.30662028  0.51532761  0.60725100  1
  Ho  Ho2  1  0.80662028  0.98467239  0.10725100  1
  Ho  Ho3  1  0.69337972  0.48467239  0.39274900  1
  Ho  Ho4  1  0.74116562  0.03956025  0.61828535  1
  Ho  Ho5  1  0.75883438  0.53956025  0.88171465  1
  Ho  Ho6  1  0.25883438  0.96043975  0.38171465  1
  Ho  Ho7  1  0.24116562  0.46043975  0.11828535  1
  Ho  Ho8  1  0.65704019  0.80495410  0.78975570  1
  Ho  Ho9  1  0.84295981  0.30495410  0.71024430  1
  Ho  Ho10  1  0.34295981  0.19504590  0.21024430  1
  Ho  Ho11  1  0.15704019  0.69504590  0.28975570  1
  Ho  Ho12  1  0.27113956  0.76306743  0.00703066  1
  Ho  Ho13  1  0.22886044  0.26306743  0.49296934  1
  Ho  Ho14  1  0.72886044  0.23693257  0.99296934  1
  Ho  Ho15  1  0.77113956  0.73693257  0.50703066  1
  C  C16  1  0.25782706  0.11663280  0.05015262  1
  C  C17  1  0.24217294  0.61663280  0.44984738  1
  C  C18  1  0.74217294  0.88336720  0.94984738  1
  C  C19  1  0.75782706  0.38336720  0.55015262  1
  C  C20  1  0.84135621  0.64086141  0.67455562  1
  C  C21  1  0.65864379  0.14086141  0.82544438  1
  C  C22  1  0.15864379  0.35913859  0.32544438  1
  C  C23  1  0.34135621  0.85913859  0.17455562  1
  C  C24  1  0.30261175  0.89007629  0.54747640  1
  C  C25  1  0.19738825  0.39007629  0.95252360  1
  C  C26  1  0.69738825  0.10992371  0.45252360  1
  C  C27  1  0.80261175  0.60992371  0.04747640  1
  C  C28  1  0.13896423  0.91693764  0.72918074  1
  C  C29  1  0.36103577  0.41693764  0.77081926  1
  C  C30  1  0.86103577  0.08306236  0.27081926  1
  C  C31  1  0.63896423  0.58306236  0.22918074  1
  C  C32  1  0.22458880  0.67127816  0.84803181  1
  C  C33  1  0.27541120  0.17127816  0.65196819  1
  C  C34  1  0.77541120  0.32872184  0.15196819  1
  C  C35  1  0.72458880  0.82872184  0.34803181  1
  C  C36  1  0.22466577  0.89579411  0.63939839  1
  C  C37  1  0.27533423  0.39579411  0.86060161  1
  C  C38  1  0.77533423  0.10420589  0.36060161  1
  C  C39  1  0.72466577  0.60420589  0.13939839  1
  C  C40  1  0.06051412  0.65170497  0.75647134  1
  C  C41  1  0.43948588  0.15170497  0.74352866  1
  C  C42  1  0.93948588  0.34829503  0.24352866  1
  C  C43  1  0.56051412  0.84829503  0.25647134  1
