# generated using pymatgen
data_TaZn2N3
_symmetry_space_group_name_H-M   'P 1'
_cell_length_a   5.68387184
_cell_length_b   5.74103447
_cell_length_c   5.39301875
_cell_angle_alpha   90.00000000
_cell_angle_beta   90.00000000
_cell_angle_gamma   120.33324135
_symmetry_Int_Tables_number   1
_chemical_formula_structural   TaZn2N3
_chemical_formula_sum   'Ta2 Zn4 N6'
_cell_volume   151.88987812
_cell_formula_units_Z   2
loop_
 _symmetry_equiv_pos_site_id
 _symmetry_equiv_pos_as_xyz
  1  'x, y, z'
loop_
 _atom_site_type_symbol
 _atom_site_label
 _atom_site_symmetry_multiplicity
 _atom_site_fract_x
 _atom_site_fract_y
 _atom_site_fract_z
 _atom_site_occupancy
  Ta  Ta0  1  0.00000000  0.66978296  0.48771560  1
  Ta  Ta1  1  -0.00000000  0.33021704  0.98771560  1
  Zn  Zn2  1  0.34379573  0.33347552  0.49756347  1
  Zn  Zn3  1  0.65620427  0.98967879  0.49756347  1
  Zn  Zn4  1  0.65620427  0.66652448  0.99756347  1
  Zn  Zn5  1  0.34379573  0.01032121  0.99756347  1
  N  N6  1  0.31932905  0.32969183  0.87460117  1
  N  N7  1  0.68067095  0.01036378  0.87460117  1
  N  N8  1  0.68067095  0.67030817  0.37460117  1
  N  N9  1  0.31932905  0.98963622  0.37460117  1
  N  N10  1  -0.00000000  0.65427040  0.85595713  1
  N  N11  1  0.00000000  0.34572960  0.35595713  1
