# generated using pymatgen
data_Sm2ZrSe5
_symmetry_space_group_name_H-M   'P 1'
_cell_length_a   7.69379404
_cell_length_b   8.21263143
_cell_length_c   12.23235526
_cell_angle_alpha   90.00000000
_cell_angle_beta   90.00000000
_cell_angle_gamma   90.00000000
_symmetry_Int_Tables_number   1
_chemical_formula_structural   Sm2ZrSe5
_chemical_formula_sum   'Sm8 Zr4 Se20'
_cell_volume   772.91720493
_cell_formula_units_Z   4
loop_
 _symmetry_equiv_pos_site_id
 _symmetry_equiv_pos_as_xyz
  1  'x, y, z'
loop_
 _atom_site_type_symbol
 _atom_site_label
 _atom_site_symmetry_multiplicity
 _atom_site_fract_x
 _atom_site_fract_y
 _atom_site_fract_z
 _atom_site_occupancy
  Sm  Sm0  1  0.97548553  0.00329001  0.17890814  1
  Sm  Sm1  1  0.52451447  0.49670999  0.67890814  1
  Sm  Sm2  1  0.02451447  0.50329001  0.82109186  1
  Sm  Sm3  1  0.47548553  0.99670999  0.32109186  1
  Sm  Sm4  1  0.02451447  0.99670999  0.82109186  1
  Sm  Sm5  1  0.47548553  0.50329001  0.32109186  1
  Sm  Sm6  1  0.97548553  0.49670999  0.17890814  1
  Sm  Sm7  1  0.52451447  0.00329001  0.67890814  1
  Zr  Zr8  1  0.42115046  0.75000000  0.00623241  1
  Zr  Zr9  1  0.07884954  0.75000000  0.50623241  1
  Zr  Zr10  1  0.57884954  0.25000000  0.99376759  1
  Zr  Zr11  1  0.92115046  0.25000000  0.49376759  1
  Se  Se12  1  0.83897848  0.96255988  0.40832296  1
  Se  Se13  1  0.66102152  0.53744012  0.90832296  1
  Se  Se14  1  0.16102152  0.46255988  0.59167704  1
  Se  Se15  1  0.33897848  0.03744012  0.09167704  1
  Se  Se16  1  0.16102152  0.03744012  0.59167704  1
  Se  Se17  1  0.33897848  0.46255988  0.09167704  1
  Se  Se18  1  0.83897848  0.53744012  0.40832296  1
  Se  Se19  1  0.66102152  0.96255988  0.90832296  1
  Se  Se20  1  0.66633879  0.75000000  0.18043420  1
  Se  Se21  1  0.83366121  0.75000000  0.68043420  1
  Se  Se22  1  0.33366121  0.25000000  0.81956580  1
  Se  Se23  1  0.16633879  0.25000000  0.31956580  1
  Se  Se24  1  0.44778331  0.75000000  0.50393381  1
  Se  Se25  1  0.05221669  0.75000000  0.00393381  1
  Se  Se26  1  0.55221669  0.25000000  0.49606619  1
  Se  Se27  1  0.94778331  0.25000000  0.99606619  1
  Se  Se28  1  0.18807141  0.75000000  0.29278223  1
  Se  Se29  1  0.31192859  0.75000000  0.79278223  1
  Se  Se30  1  0.81192859  0.25000000  0.70721777  1
  Se  Se31  1  0.68807141  0.25000000  0.20721777  1
