# generated using pymatgen
data_MnSeO3
_symmetry_space_group_name_H-M   'P 1'
_cell_length_a   8.30745548
_cell_length_b   8.02258354
_cell_length_c   10.49618852
_cell_angle_alpha   54.80173752
_cell_angle_beta   90.00000000
_cell_angle_gamma   90.00000000
_symmetry_Int_Tables_number   1
_chemical_formula_structural   MnSeO3
_chemical_formula_sum   'Mn8 Se8 O24'
_cell_volume   571.63953487
_cell_formula_units_Z   8
loop_
 _symmetry_equiv_pos_site_id
 _symmetry_equiv_pos_as_xyz
  1  'x, y, z'
loop_
 _atom_site_type_symbol
 _atom_site_label
 _atom_site_symmetry_multiplicity
 _atom_site_fract_x
 _atom_site_fract_y
 _atom_site_fract_z
 _atom_site_occupancy
  Mn  Mn0  1  0.11945743  0.30271145  0.62353017  1
  Mn  Mn1  1  0.61945743  0.69728855  0.87646983  1
  Mn  Mn2  1  0.88054257  0.69728855  0.37646983  1
  Mn  Mn3  1  0.38054257  0.30271145  0.12353017  1
  Mn  Mn4  1  0.20280661  0.02820411  0.48404173  1
  Mn  Mn5  1  0.70280661  0.97179589  0.01595827  1
  Mn  Mn6  1  0.79719339  0.97179589  0.51595827  1
  Mn  Mn7  1  0.29719339  0.02820411  0.98404173  1
  Se  Se8  1  0.37107583  0.56949438  0.70837430  1
  Se  Se9  1  0.87107583  0.43050562  0.79162570  1
  Se  Se10  1  0.62892417  0.43050562  0.29162570  1
  Se  Se11  1  0.12892417  0.56949438  0.20837430  1
  Se  Se12  1  0.49561800  0.85841031  0.33256720  1
  Se  Se13  1  0.99561800  0.14158969  0.16743280  1
  Se  Se14  1  0.50438200  0.14158969  0.66743280  1
  Se  Se15  1  0.00438200  0.85841031  0.83256720  1
  O  O16  1  0.51227873  0.02902740  0.13066172  1
  O  O17  1  0.01227873  0.97097260  0.36933828  1
  O  O18  1  0.48772127  0.97097260  0.86933828  1
  O  O19  1  0.98772127  0.02902740  0.63066172  1
  O  O20  1  0.68531628  0.85191919  0.39940676  1
  O  O21  1  0.18531628  0.14808081  0.10059324  1
  O  O22  1  0.31468372  0.14808081  0.60059324  1
  O  O23  1  0.81468372  0.85191919  0.89940676  1
  O  O24  1  0.41733489  0.52651217  0.88508482  1
  O  O25  1  0.91733489  0.47348783  0.61491518  1
  O  O26  1  0.58266511  0.47348783  0.11491518  1
  O  O27  1  0.08266511  0.52651217  0.38508482  1
  O  O28  1  0.40869469  0.02995623  0.35870677  1
  O  O29  1  0.90869469  0.97004377  0.14129323  1
  O  O30  1  0.59130531  0.97004377  0.64129323  1
  O  O31  1  0.09130531  0.02995623  0.85870677  1
  O  O32  1  0.29100767  0.33855707  0.76445635  1
  O  O33  1  0.79100767  0.66144293  0.73554365  1
  O  O34  1  0.70899233  0.66144293  0.23554365  1
  O  O35  1  0.20899233  0.33855707  0.26445635  1
  O  O36  1  0.20461087  0.71469838  0.65622363  1
  O  O37  1  0.70461087  0.28530162  0.84377637  1
  O  O38  1  0.79538913  0.28530162  0.34377637  1
  O  O39  1  0.29538913  0.71469838  0.15622363  1
