# generated using pymatgen
data_Tl2CoI4
_symmetry_space_group_name_H-M   'P 1'
_cell_length_a   8.01333447
_cell_length_b   7.75770419
_cell_length_c   9.58047811
_cell_angle_alpha   71.60462203
_cell_angle_beta   90.00000000
_cell_angle_gamma   90.00000000
_symmetry_Int_Tables_number   1
_chemical_formula_structural   Tl2CoI4
_chemical_formula_sum   'Tl4 Co2 I8'
_cell_volume   565.13836228
_cell_formula_units_Z   2
loop_
 _symmetry_equiv_pos_site_id
 _symmetry_equiv_pos_as_xyz
  1  'x, y, z'
loop_
 _atom_site_type_symbol
 _atom_site_label
 _atom_site_symmetry_multiplicity
 _atom_site_fract_x
 _atom_site_fract_y
 _atom_site_fract_z
 _atom_site_occupancy
  Tl  Tl0  1  0.75000000  0.77643081  0.55245761  1
  Tl  Tl1  1  0.25000000  0.22356919  0.44754239  1
  Tl  Tl2  1  0.75000000  0.74146425  0.06936037  1
  Tl  Tl3  1  0.25000000  0.25853575  0.93063963  1
  Co  Co4  1  0.75000000  0.21685508  0.70473708  1
  Co  Co5  1  0.25000000  0.78314492  0.29526292  1
  I  I6  1  0.75000000  0.39797090  0.42757650  1
  I  I7  1  0.25000000  0.60202910  0.57242350  1
  I  I8  1  -0.00190322  0.00198170  0.23303788  1
  I  I9  1  0.00190322  -0.00198170  0.76696212  1
  I  I10  1  0.49809678  -0.00198170  0.76696212  1
  I  I11  1  0.50190322  0.00198170  0.23303788  1
  I  I12  1  0.75000000  0.41775705  0.87409322  1
  I  I13  1  0.25000000  0.58224295  0.12590678  1
