# generated using pymatgen
data_Mg2GeS4
_symmetry_space_group_name_H-M   'P 1'
_cell_length_a   6.02360911
_cell_length_b   7.45853306
_cell_length_c   12.82545248
_cell_angle_alpha   90.00000000
_cell_angle_beta   90.00000000
_cell_angle_gamma   90.00000000
_symmetry_Int_Tables_number   1
_chemical_formula_structural   Mg2GeS4
_chemical_formula_sum   'Mg8 Ge4 S16'
_cell_volume   576.21279329
_cell_formula_units_Z   4
loop_
 _symmetry_equiv_pos_site_id
 _symmetry_equiv_pos_as_xyz
  1  'x, y, z'
loop_
 _atom_site_type_symbol
 _atom_site_label
 _atom_site_symmetry_multiplicity
 _atom_site_fract_x
 _atom_site_fract_y
 _atom_site_fract_z
 _atom_site_occupancy
  Mg  Mg0  1  0.00000000  0.00000000  0.00000000  1
  Mg  Mg1  1  0.50000000  0.00000000  0.50000000  1
  Mg  Mg2  1  0.00000000  0.50000000  0.00000000  1
  Mg  Mg3  1  0.50000000  0.50000000  0.50000000  1
  Mg  Mg4  1  0.49629271  0.75000000  0.23038280  1
  Mg  Mg5  1  0.99629271  0.25000000  0.26961720  1
  Mg  Mg6  1  0.50370729  0.25000000  0.76961720  1
  Mg  Mg7  1  0.00370729  0.75000000  0.73038280  1
  Ge  Ge8  1  0.91321918  0.75000000  0.41051650  1
  Ge  Ge9  1  0.58678082  0.75000000  0.91051650  1
  Ge  Ge10  1  0.08678082  0.25000000  0.58948350  1
  Ge  Ge11  1  0.41321918  0.25000000  0.08948350  1
  S  S12  1  0.25613024  0.25000000  0.93172395  1
  S  S13  1  0.74386976  0.75000000  0.06827605  1
  S  S14  1  0.24386976  0.25000000  0.43172395  1
  S  S15  1  0.25043853  0.48226193  0.66715836  1
  S  S16  1  0.74956147  0.98226193  0.33284164  1
  S  S17  1  0.24956147  0.01773807  0.16715836  1
  S  S18  1  0.74956147  0.51773807  0.33284164  1
  S  S19  1  0.75043853  0.51773807  0.83284164  1
  S  S20  1  0.25043853  0.01773807  0.66715836  1
  S  S21  1  0.75043853  0.98226193  0.83284164  1
  S  S22  1  0.22373168  0.75000000  0.90714723  1
  S  S23  1  0.24956147  0.48226193  0.16715836  1
  S  S24  1  0.27626832  0.75000000  0.40714723  1
  S  S25  1  0.77626832  0.25000000  0.09285277  1
  S  S26  1  0.72373168  0.25000000  0.59285277  1
  S  S27  1  0.75613024  0.75000000  0.56827605  1
