# generated using pymatgen
data_Bi2O3
_symmetry_space_group_name_H-M   'P 1'
_cell_length_a   9.61360608
_cell_length_b   9.61360608
_cell_length_c   9.61360608
_cell_angle_alpha   109.47122063
_cell_angle_beta   109.47122063
_cell_angle_gamma   109.47122063
_symmetry_Int_Tables_number   1
_chemical_formula_structural   Bi2O3
_chemical_formula_sum   'Bi16 O24'
_cell_volume   683.97003916
_cell_formula_units_Z   8
loop_
 _symmetry_equiv_pos_site_id
 _symmetry_equiv_pos_as_xyz
  1  'x, y, z'
loop_
 _atom_site_type_symbol
 _atom_site_label
 _atom_site_symmetry_multiplicity
 _atom_site_fract_x
 _atom_site_fract_y
 _atom_site_fract_z
 _atom_site_occupancy
  Bi  Bi0  1  0.50000000  -0.00000000  0.50000000  1
  Bi  Bi1  1  0.50000000  0.50000000  -0.00000000  1
  Bi  Bi2  1  0.00000000  0.50000000  0.50000000  1
  Bi  Bi3  1  0.00000000  -0.00000000  -0.00000000  1
  Bi  Bi4  1  0.77674071  0.25000000  0.02674071  1
  Bi  Bi5  1  0.72325929  0.75000000  0.47325929  1
  Bi  Bi6  1  0.25000000  0.02674071  0.77674071  1
  Bi  Bi7  1  0.75000000  0.47325929  0.72325929  1
  Bi  Bi8  1  0.02674071  0.77674071  0.25000000  1
  Bi  Bi9  1  0.47325929  0.72325929  0.75000000  1
  Bi  Bi10  1  0.22325929  0.75000000  0.97325929  1
  Bi  Bi11  1  0.27674071  0.25000000  0.52674071  1
  Bi  Bi12  1  0.75000000  0.97325929  0.22325929  1
  Bi  Bi13  1  0.25000000  0.52674071  0.27674071  1
  Bi  Bi14  1  0.97325929  0.22325929  0.75000000  1
  Bi  Bi15  1  0.52674071  0.27674071  0.25000000  1
  O  O16  1  0.03279906  0.05142393  0.27466457  1
  O  O17  1  0.22324064  0.44857607  0.48137513  1
  O  O18  1  0.46720094  0.74186651  0.01862487  1
  O  O19  1  0.27675936  0.75813349  0.22533543  1
  O  O20  1  0.05142393  0.27466457  0.03279906  1
  O  O21  1  0.44857607  0.48137513  0.22324064  1
  O  O22  1  0.74186651  0.01862487  0.46720094  1
  O  O23  1  0.75813349  0.22533543  0.27675936  1
  O  O24  1  0.27466457  0.03279906  0.05142393  1
  O  O25  1  0.48137513  0.22324064  0.44857607  1
  O  O26  1  0.01862487  0.46720094  0.74186651  1
  O  O27  1  0.22533543  0.27675936  0.75813349  1
  O  O28  1  0.96720094  0.94857607  0.72533543  1
  O  O29  1  0.77675936  0.55142393  0.51862487  1
  O  O30  1  0.53279906  0.25813349  0.98137513  1
  O  O31  1  0.72324064  0.24186651  0.77466457  1
  O  O32  1  0.94857607  0.72533543  0.96720094  1
  O  O33  1  0.55142393  0.51862487  0.77675936  1
  O  O34  1  0.25813349  0.98137513  0.53279906  1
  O  O35  1  0.24186651  0.77466457  0.72324064  1
  O  O36  1  0.72533543  0.96720094  0.94857607  1
  O  O37  1  0.51862487  0.77675936  0.55142393  1
  O  O38  1  0.98137513  0.53279906  0.25813349  1
  O  O39  1  0.77466457  0.72324064  0.24186651  1
