# generated using pymatgen
data_Rb5GaO4
_symmetry_space_group_name_H-M   'P 1'
_cell_length_a   6.94585495
_cell_length_b   11.78795240
_cell_length_c   21.37134880
_cell_angle_alpha   90.00000000
_cell_angle_beta   90.00000000
_cell_angle_gamma   90.00000000
_symmetry_Int_Tables_number   1
_chemical_formula_structural   Rb5GaO4
_chemical_formula_sum   'Rb40 Ga8 O32'
_cell_volume   1749.83063512
_cell_formula_units_Z   8
loop_
 _symmetry_equiv_pos_site_id
 _symmetry_equiv_pos_as_xyz
  1  'x, y, z'
loop_
 _atom_site_type_symbol
 _atom_site_label
 _atom_site_symmetry_multiplicity
 _atom_site_fract_x
 _atom_site_fract_y
 _atom_site_fract_z
 _atom_site_occupancy
  Rb  Rb0  1  0.57238580  0.29605887  0.36962464  1
  Rb  Rb1  1  0.07238580  0.70394113  0.13037536  1
  Rb  Rb2  1  0.42761420  0.20394113  0.86962464  1
  Rb  Rb3  1  0.92761420  0.79605887  0.63037536  1
  Rb  Rb4  1  0.42761420  0.70394113  0.63037536  1
  Rb  Rb5  1  0.92761420  0.29605887  0.86962464  1
  Rb  Rb6  1  0.57238580  0.79605887  0.13037536  1
  Rb  Rb7  1  0.07238580  0.20394113  0.36962464  1
  Rb  Rb8  1  0.57590534  0.36089288  0.00371291  1
  Rb  Rb9  1  0.07590534  0.63910712  0.49628709  1
  Rb  Rb10  1  0.42409466  0.13910712  0.50371291  1
  Rb  Rb11  1  0.92409466  0.86089288  0.99628709  1
  Rb  Rb12  1  0.42409466  0.63910712  0.99628709  1
  Rb  Rb13  1  0.92409466  0.36089288  0.50371291  1
  Rb  Rb14  1  0.57590534  0.86089288  0.49628709  1
  Rb  Rb15  1  0.07590534  0.13910712  0.00371291  1
  Rb  Rb16  1  0.58300420  0.07002637  0.06614978  1
  Rb  Rb17  1  0.08300420  0.92997363  0.43385022  1
  Rb  Rb18  1  0.41699580  0.42997363  0.56614978  1
  Rb  Rb19  1  0.91699580  0.57002637  0.93385022  1
  Rb  Rb20  1  0.41699580  0.92997363  0.93385022  1
  Rb  Rb21  1  0.91699580  0.07002637  0.56614978  1
  Rb  Rb22  1  0.58300420  0.57002637  0.43385022  1
  Rb  Rb23  1  0.08300420  0.42997363  0.06614978  1
  Rb  Rb24  1  0.88061849  0.41283383  0.25499402  1
  Rb  Rb25  1  0.38061849  0.58716617  0.24500598  1
  Rb  Rb26  1  0.11938151  0.08716617  0.75499402  1
  Rb  Rb27  1  0.61938151  0.91283383  0.74500598  1
  Rb  Rb28  1  0.11938151  0.58716617  0.74500598  1
  Rb  Rb29  1  0.61938151  0.41283383  0.75499402  1
  Rb  Rb30  1  0.88061849  0.91283383  0.24500598  1
  Rb  Rb31  1  0.38061849  0.08716617  0.25499402  1
  Rb  Rb32  1  0.88697414  0.17101554  0.17764075  1
  Rb  Rb33  1  0.38697414  0.82898446  0.32235925  1
  Rb  Rb34  1  0.11302586  0.32898446  0.67764075  1
  Rb  Rb35  1  0.61302586  0.67101554  0.82235925  1
  Rb  Rb36  1  0.11302586  0.82898446  0.82235925  1
  Rb  Rb37  1  0.61302586  0.17101554  0.67764075  1
  Rb  Rb38  1  0.88697414  0.67101554  0.32235925  1
  Rb  Rb39  1  0.38697414  0.32898446  0.17764075  1
  Ga  Ga40  1  0.67655448  0.53142904  0.12480401  1
  Ga  Ga41  1  0.17655448  0.46857096  0.37519599  1
  Ga  Ga42  1  0.32344552  0.96857096  0.62480401  1
  Ga  Ga43  1  0.82344552  0.03142904  0.87519599  1
  Ga  Ga44  1  0.32344552  0.46857096  0.87519599  1
  Ga  Ga45  1  0.82344552  0.53142904  0.62480401  1
  Ga  Ga46  1  0.67655448  0.03142904  0.37519599  1
  Ga  Ga47  1  0.17655448  0.96857096  0.12480401  1
  O  O48  1  0.74659817  0.37576660  0.13025952  1
  O  O49  1  0.24659817  0.62423340  0.36974048  1
  O  O50  1  0.25340183  0.12423340  0.63025952  1
  O  O51  1  0.75340183  0.87576660  0.86974048  1
  O  O52  1  0.25340183  0.62423340  0.86974048  1
  O  O53  1  0.75340183  0.37576660  0.63025952  1
  O  O54  1  0.74659817  0.87576660  0.36974048  1
  O  O55  1  0.24659817  0.12423340  0.13025952  1
  O  O56  1  0.75623854  0.10974753  0.30149910  1
  O  O57  1  0.25623854  0.89025247  0.19850090  1
  O  O58  1  0.24376146  0.39025247  0.80149910  1
  O  O59  1  0.74376146  0.60974753  0.69850090  1
  O  O60  1  0.24376146  0.89025247  0.69850090  1
  O  O61  1  0.74376146  0.10974753  0.80149910  1
  O  O62  1  0.75623854  0.60974753  0.19850090  1
  O  O63  1  0.25623854  0.39025247  0.30149910  1
  O  O64  1  0.78837620  0.09968678  0.44665008  1
  O  O65  1  0.28837620  0.90031322  0.05334992  1
  O  O66  1  0.21162380  0.40031322  0.94665008  1
  O  O67  1  0.71162380  0.59968678  0.55334992  1
  O  O68  1  0.21162380  0.90031322  0.55334992  1
  O  O69  1  0.71162380  0.09968678  0.94665008  1
  O  O70  1  0.78837620  0.59968678  0.05334992  1
  O  O71  1  0.28837620  0.40031322  0.44665008  1
  O  O72  1  0.90514692  0.45933212  0.38409440  1
  O  O73  1  0.40514692  0.54066788  0.11590560  1
  O  O74  1  0.09485308  0.04066788  0.88409440  1
  O  O75  1  0.59485308  0.95933212  0.61590560  1
  O  O76  1  0.09485308  0.54066788  0.61590560  1
  O  O77  1  0.59485308  0.45933212  0.88409440  1
  O  O78  1  0.90514692  0.95933212  0.11590560  1
  O  O79  1  0.40514692  0.04066788  0.38409440  1
