# generated using pymatgen
data_Cs(Nb2Cl5)3
_symmetry_space_group_name_H-M   'P 1'
_cell_length_a   9.66978178
_cell_length_b   13.76144444
_cell_length_c   18.26169260
_cell_angle_alpha   90.00000000
_cell_angle_beta   90.00000000
_cell_angle_gamma   90.00000000
_symmetry_Int_Tables_number   1
_chemical_formula_structural   Cs(Nb2Cl5)3
_chemical_formula_sum   'Cs4 Nb24 Cl60'
_cell_volume   2430.08644221
_cell_formula_units_Z   4
loop_
 _symmetry_equiv_pos_site_id
 _symmetry_equiv_pos_as_xyz
  1  'x, y, z'
loop_
 _atom_site_type_symbol
 _atom_site_label
 _atom_site_symmetry_multiplicity
 _atom_site_fract_x
 _atom_site_fract_y
 _atom_site_fract_z
 _atom_site_occupancy
  Cs  Cs0  1  0.80144807  0.25345933  0.75000000  1
  Cs  Cs1  1  0.19855193  0.74654067  0.25000000  1
  Cs  Cs2  1  0.80144807  0.74654067  0.75000000  1
  Cs  Cs3  1  0.19855193  0.25345933  0.25000000  1
  Nb  Nb4  1  0.08088627  0.50000000  0.10389425  1
  Nb  Nb5  1  0.91911373  0.50000000  0.89610575  1
  Nb  Nb6  1  0.08088627  0.50000000  0.39610575  1
  Nb  Nb7  1  0.91911373  0.50000000  0.60389425  1
  Nb  Nb8  1  0.14095171  0.39276555  0.53059047  1
  Nb  Nb9  1  0.85904829  0.60723445  0.46940953  1
  Nb  Nb10  1  0.14095171  0.60723445  0.96940953  1
  Nb  Nb11  1  0.85904829  0.39276555  0.46940953  1
  Nb  Nb12  1  0.85904829  0.39276555  0.03059047  1
  Nb  Nb13  1  0.14095171  0.60723445  0.53059047  1
  Nb  Nb14  1  0.85904829  0.60723445  0.03059047  1
  Nb  Nb15  1  0.14095171  0.39276555  0.96940953  1
  Nb  Nb16  1  0.31354518  0.10736550  0.66918734  1
  Nb  Nb17  1  0.68645482  0.89263450  0.33081266  1
  Nb  Nb18  1  0.31354518  0.89263450  0.83081266  1
  Nb  Nb19  1  0.68645482  0.10736550  0.33081266  1
  Nb  Nb20  1  0.68645482  0.10736550  0.16918734  1
  Nb  Nb21  1  0.31354518  0.89263450  0.66918734  1
  Nb  Nb22  1  0.68645482  0.89263450  0.16918734  1
  Nb  Nb23  1  0.31354518  0.10736550  0.83081266  1
  Nb  Nb24  1  0.52587253  -0.00000000  0.75000000  1
  Nb  Nb25  1  0.47412747  -0.00000000  0.25000000  1
  Nb  Nb26  1  0.10246733  -0.00000000  0.75000000  1
  Nb  Nb27  1  0.89753267  -0.00000000  0.25000000  1
  Cl  Cl28  1  0.31756180  0.24996109  0.56810259  1
  Cl  Cl29  1  0.68243820  0.75003891  0.43189741  1
  Cl  Cl30  1  0.31756180  0.75003891  0.93189741  1
  Cl  Cl31  1  0.68243820  0.24996109  0.43189741  1
  Cl  Cl32  1  0.68243820  0.24996109  0.06810259  1
  Cl  Cl33  1  0.31756180  0.75003891  0.56810259  1
  Cl  Cl34  1  0.68243820  0.75003891  0.06810259  1
  Cl  Cl35  1  0.31756180  0.24996109  0.93189741  1
  Cl  Cl36  1  0.07106746  0.37698662  0.65939714  1
  Cl  Cl37  1  0.92893254  0.62301338  0.34060286  1
  Cl  Cl38  1  0.07106746  0.62301338  0.84060286  1
  Cl  Cl39  1  0.92893254  0.37698662  0.34060286  1
  Cl  Cl40  1  0.92893254  0.37698662  0.15939714  1
  Cl  Cl41  1  0.07106746  0.62301338  0.65939714  1
  Cl  Cl42  1  0.92893254  0.62301338  0.15939714  1
  Cl  Cl43  1  0.07106746  0.37698662  0.84060286  1
  Cl  Cl44  1  0.56653307  0.12216044  0.65210894  1
  Cl  Cl45  1  0.43346693  0.87783956  0.34789106  1
  Cl  Cl46  1  0.56653307  0.87783956  0.84789106  1
  Cl  Cl47  1  0.43346693  0.12216044  0.34789106  1
  Cl  Cl48  1  0.43346693  0.12216044  0.15210894  1
  Cl  Cl49  1  0.56653307  0.87783956  0.65210894  1
  Cl  Cl50  1  0.43346693  0.87783956  0.15210894  1
  Cl  Cl51  1  0.56653307  0.12216044  0.84789106  1
  Cl  Cl52  1  0.33089084  0.50000000  0.57170661  1
  Cl  Cl53  1  0.66910916  0.50000000  0.42829339  1
  Cl  Cl54  1  0.33089084  0.50000000  0.92829339  1
  Cl  Cl55  1  0.66910916  0.50000000  0.07170661  1
  Cl  Cl56  1  0.32274517  0.25061067  0.75000000  1
  Cl  Cl57  1  0.67725483  0.74938933  0.25000000  1
  Cl  Cl58  1  0.32274517  0.74938933  0.75000000  1
  Cl  Cl59  1  0.67725483  0.25061067  0.25000000  1
  Cl  Cl60  1  0.31206668  -0.00000000  0.56073210  1
  Cl  Cl61  1  0.68793332  -0.00000000  0.43926790  1
  Cl  Cl62  1  0.31206668  -0.00000000  0.93926790  1
  Cl  Cl63  1  0.68793332  -0.00000000  0.06073210  1
  Cl  Cl64  1  0.81671170  0.50000000  0.75000000  1
  Cl  Cl65  1  0.18328830  0.50000000  0.25000000  1
  Cl  Cl66  1  0.81315893  -0.00000000  0.75000000  1
  Cl  Cl67  1  0.18684107  -0.00000000  0.25000000  1
  Cl  Cl68  1  0.26545666  0.37608646  0.08788498  1
  Cl  Cl69  1  0.73454334  0.62391354  0.91211502  1
  Cl  Cl70  1  0.26545666  0.62391354  0.41211502  1
  Cl  Cl71  1  0.73454334  0.37608646  0.91211502  1
  Cl  Cl72  1  0.73454334  0.37608646  0.58788498  1
  Cl  Cl73  1  0.26545666  0.62391354  0.08788498  1
  Cl  Cl74  1  0.73454334  0.62391354  0.58788498  1
  Cl  Cl75  1  0.26545666  0.37608646  0.41211502  1
  Cl  Cl76  1  0.06044909  0.12330549  0.65475750  1
  Cl  Cl77  1  0.93955091  0.87669451  0.34524250  1
  Cl  Cl78  1  0.06044909  0.87669451  0.84524250  1
  Cl  Cl79  1  0.93955091  0.12330549  0.34524250  1
  Cl  Cl80  1  0.93955091  0.12330549  0.15475750  1
  Cl  Cl81  1  0.06044909  0.87669451  0.65475750  1
  Cl  Cl82  1  0.93955091  0.87669451  0.15475750  1
  Cl  Cl83  1  0.06044909  0.12330549  0.84524250  1
  Cl  Cl84  1  0.00000000  0.24968961  0.50000000  1
  Cl  Cl85  1  0.00000000  0.75031039  0.50000000  1
  Cl  Cl86  1  0.00000000  0.75031039  -0.00000000  1
  Cl  Cl87  1  0.00000000  0.24968961  -0.00000000  1
