# generated using pymatgen
data_SrMg14SnO16
_symmetry_space_group_name_H-M   'P 1'
_cell_length_a   8.77335226
_cell_length_b   8.90680565
_cell_length_c   4.47483525
_cell_angle_alpha   90.00000000
_cell_angle_beta   90.00000000
_cell_angle_gamma   90.00000000
_symmetry_Int_Tables_number   1
_chemical_formula_structural   SrMg14SnO16
_chemical_formula_sum   'Sr1 Mg14 Sn1 O16'
_cell_volume   349.67500808
_cell_formula_units_Z   1
loop_
 _symmetry_equiv_pos_site_id
 _symmetry_equiv_pos_as_xyz
  1  'x, y, z'
loop_
 _atom_site_type_symbol
 _atom_site_label
 _atom_site_symmetry_multiplicity
 _atom_site_fract_x
 _atom_site_fract_y
 _atom_site_fract_z
 _atom_site_occupancy
  Sr  Sr0  1  0.00000000  0.50000000  -0.00000000  1
  Mg  Mg1  1  0.50000000  0.00000000  -0.00000000  1
  Mg  Mg2  1  0.50000000  0.50000000  -0.00000000  1
  Mg  Mg3  1  0.00000000  0.24911324  0.50000000  1
  Mg  Mg4  1  0.00000000  0.75088676  0.50000000  1
  Mg  Mg5  1  0.50000000  0.24998062  0.50000000  1
  Mg  Mg6  1  0.50000000  0.75001938  0.50000000  1
  Mg  Mg7  1  0.26004067  -0.00000000  0.50000000  1
  Mg  Mg8  1  0.26101201  0.50000000  0.50000000  1
  Mg  Mg9  1  0.73995933  0.00000000  0.50000000  1
  Mg  Mg10  1  0.73898799  0.50000000  0.50000000  1
  Mg  Mg11  1  0.26107769  0.24868708  0.00000000  1
  Mg  Mg12  1  0.26107769  0.75131292  0.00000000  1
  Mg  Mg13  1  0.73892231  0.24868708  -0.00000000  1
  Mg  Mg14  1  0.73892231  0.75131292  -0.00000000  1
  Sn  Sn15  1  0.00000000  0.00000000  -0.00000000  1
  O  O16  1  0.27379985  -0.00000000  -0.00000000  1
  O  O17  1  0.27266989  0.50000000  -0.00000000  1
  O  O18  1  0.72620015  0.00000000  0.00000000  1
  O  O19  1  0.72733011  0.50000000  0.00000000  1
  O  O20  1  0.25088074  0.25024125  0.50000000  1
  O  O21  1  0.25088074  0.74975875  0.50000000  1
  O  O22  1  0.74911926  0.25024125  0.50000000  1
  O  O23  1  0.74911926  0.74975875  0.50000000  1
  O  O24  1  0.00000000  0.00000000  0.50000000  1
  O  O25  1  0.00000000  0.50000000  0.50000000  1
  O  O26  1  0.50000000  0.00000000  0.50000000  1
  O  O27  1  0.50000000  0.50000000  0.50000000  1
  O  O28  1  0.00000000  0.24719094  -0.00000000  1
  O  O29  1  0.00000000  0.75280906  0.00000000  1
  O  O30  1  0.50000000  0.24989694  0.00000000  1
  O  O31  1  0.50000000  0.75010306  -0.00000000  1
