# generated using pymatgen
data_Cd3Ga2(GeO4)3
_symmetry_space_group_name_H-M   'P 1'
_cell_length_a   10.75390158
_cell_length_b   10.75390158
_cell_length_c   10.75390158
_cell_angle_alpha   109.47122063
_cell_angle_beta   109.47122063
_cell_angle_gamma   109.47122063
_symmetry_Int_Tables_number   1
_chemical_formula_structural   Cd3Ga2(GeO4)3
_chemical_formula_sum   'Cd12 Ga8 Ge12 O48'
_cell_volume   957.36221157
_cell_formula_units_Z   4
loop_
 _symmetry_equiv_pos_site_id
 _symmetry_equiv_pos_as_xyz
  1  'x, y, z'
loop_
 _atom_site_type_symbol
 _atom_site_label
 _atom_site_symmetry_multiplicity
 _atom_site_fract_x
 _atom_site_fract_y
 _atom_site_fract_z
 _atom_site_occupancy
  Cd  Cd0  1  0.87500000  0.62500000  0.75000000  1
  Cd  Cd1  1  0.12500000  0.37500000  0.25000000  1
  Cd  Cd2  1  0.62500000  0.87500000  0.25000000  1
  Cd  Cd3  1  0.62500000  0.75000000  0.87500000  1
  Cd  Cd4  1  0.87500000  0.25000000  0.62500000  1
  Cd  Cd5  1  0.37500000  0.12500000  0.75000000  1
  Cd  Cd6  1  0.37500000  0.25000000  0.12500000  1
  Cd  Cd7  1  0.12500000  0.75000000  0.37500000  1
  Cd  Cd8  1  0.75000000  0.87500000  0.62500000  1
  Cd  Cd9  1  0.25000000  0.12500000  0.37500000  1
  Cd  Cd10  1  0.25000000  0.62500000  0.87500000  1
  Cd  Cd11  1  0.75000000  0.37500000  0.12500000  1
  Ga  Ga12  1  -0.00000000  -0.00000000  0.00000000  1
  Ga  Ga13  1  0.50000000  -0.00000000  0.50000000  1
  Ga  Ga14  1  0.50000000  0.50000000  0.00000000  1
  Ga  Ga15  1  0.00000000  -0.00000000  0.50000000  1
  Ga  Ga16  1  -0.00000000  0.50000000  0.50000000  1
  Ga  Ga17  1  0.50000000  0.50000000  0.50000000  1
  Ga  Ga18  1  0.50000000  -0.00000000  0.00000000  1
  Ga  Ga19  1  0.00000000  0.50000000  0.00000000  1
  Ge  Ge20  1  0.62500000  0.37500000  0.75000000  1
  Ge  Ge21  1  0.37500000  0.62500000  0.25000000  1
  Ge  Ge22  1  0.87500000  0.12500000  0.25000000  1
  Ge  Ge23  1  0.37500000  0.75000000  0.62500000  1
  Ge  Ge24  1  0.62500000  0.25000000  0.37500000  1
  Ge  Ge25  1  0.12500000  0.87500000  0.75000000  1
  Ge  Ge26  1  0.12500000  0.25000000  0.87500000  1
  Ge  Ge27  1  0.87500000  0.75000000  0.12500000  1
  Ge  Ge28  1  0.75000000  0.62500000  0.37500000  1
  Ge  Ge29  1  0.25000000  0.37500000  0.62500000  1
  Ge  Ge30  1  0.25000000  0.87500000  0.12500000  1
  Ge  Ge31  1  0.75000000  0.12500000  0.87500000  1
  O  O32  1  0.69942005  0.61895649  0.51618234  1
  O  O33  1  0.30057995  0.38104351  0.48381766  1
  O  O34  1  0.80057995  0.81676229  0.41953644  1
  O  O35  1  0.39722585  0.88104351  0.08046356  1
  O  O36  1  0.61895649  0.51618234  0.69942005  1
  O  O37  1  0.69942005  0.08046356  0.68323771  1
  O  O38  1  0.19942005  0.18323771  0.58046356  1
  O  O39  1  0.60277415  0.11895649  0.91953644  1
  O  O40  1  0.38104351  0.48381766  0.30057995  1
  O  O41  1  0.30057995  0.91953644  0.31676229  1
  O  O42  1  0.10277415  0.68323771  0.98381766  1
  O  O43  1  0.81676229  0.41953644  0.80057995  1
  O  O44  1  0.80057995  0.98381766  0.88104351  1
  O  O45  1  0.89722585  0.31676229  0.01618234  1
  O  O46  1  0.18323771  0.58046356  0.19942005  1
  O  O47  1  0.19942005  0.01618234  0.11895649  1
  O  O48  1  0.88104351  0.08046356  0.39722585  1
  O  O49  1  0.39722585  0.51618234  0.81676229  1
  O  O50  1  0.11895649  0.91953644  0.60277415  1
  O  O51  1  0.60277415  0.48381766  0.18323771  1
  O  O52  1  0.68323771  0.98381766  0.10277415  1
  O  O53  1  0.10277415  0.41953644  0.61895649  1
  O  O54  1  0.31676229  0.01618234  0.89722585  1
  O  O55  1  0.89722585  0.58046356  0.38104351  1
  O  O56  1  0.51618234  0.69942005  0.61895649  1
  O  O57  1  0.61895649  0.10277415  0.41953644  1
  O  O58  1  0.48381766  0.30057995  0.38104351  1
  O  O59  1  0.38104351  0.89722585  0.58046356  1
  O  O60  1  0.08046356  0.39722585  0.88104351  1
  O  O61  1  0.88104351  0.80057995  0.98381766  1
  O  O62  1  0.91953644  0.60277415  0.11895649  1
  O  O63  1  0.11895649  0.19942005  0.01618234  1
  O  O64  1  0.98381766  0.10277415  0.68323771  1
  O  O65  1  0.68323771  0.69942005  0.08046356  1
  O  O66  1  0.01618234  0.89722585  0.31676229  1
  O  O67  1  0.31676229  0.30057995  0.91953644  1
  O  O68  1  0.41953644  0.80057995  0.81676229  1
  O  O69  1  0.81676229  0.39722585  0.51618234  1
  O  O70  1  0.58046356  0.19942005  0.18323771  1
  O  O71  1  0.18323771  0.60277415  0.48381766  1
  O  O72  1  0.08046356  0.68323771  0.69942005  1
  O  O73  1  0.91953644  0.31676229  0.30057995  1
  O  O74  1  0.98381766  0.88104351  0.80057995  1
  O  O75  1  0.01618234  0.11895649  0.19942005  1
  O  O76  1  0.41953644  0.61895649  0.10277415  1
  O  O77  1  0.58046356  0.38104351  0.89722585  1
  O  O78  1  0.51618234  0.81676229  0.39722585  1
  O  O79  1  0.48381766  0.18323771  0.60277415  1
