# generated using pymatgen
data_K2MgFe4P6(O4F3)4
_symmetry_space_group_name_H-M   'P 1'
_cell_length_a   7.47370293
_cell_length_b   7.93597351
_cell_length_c   10.79619747
_cell_angle_alpha   100.31535018
_cell_angle_beta   108.81512562
_cell_angle_gamma   90.63819629
_symmetry_Int_Tables_number   1
_chemical_formula_structural   K2MgFe4P6(O4F3)4
_chemical_formula_sum   'K2 Mg1 Fe4 P6 O16 F12'
_cell_volume   594.68716396
_cell_formula_units_Z   1
loop_
 _symmetry_equiv_pos_site_id
 _symmetry_equiv_pos_as_xyz
  1  'x, y, z'
loop_
 _atom_site_type_symbol
 _atom_site_label
 _atom_site_symmetry_multiplicity
 _atom_site_fract_x
 _atom_site_fract_y
 _atom_site_fract_z
 _atom_site_occupancy
  K  K0  1  0.78216595  0.09199563  0.77349361  1
  K  K1  1  0.22989823  0.94830931  0.21952080  1
  Mg  Mg2  1  0.63360310  0.21889779  0.08115807  1
  Fe  Fe3  1  0.67602209  0.32510778  0.36431072  1
  Fe  Fe4  1  0.33620476  0.67394259  0.65839626  1
  Fe  Fe5  1  0.48070632  0.52319682  0.98650325  1
  Fe  Fe6  1  0.00564183  0.99773870  0.50821494  1
  P  P7  1  0.65639569  0.73017141  0.50229077  1
  P  P8  1  0.33503444  0.27804604  0.49642885  1
  P  P9  1  0.30300694  0.05875349  0.81890185  1
  P  P10  1  0.70560542  0.91565135  0.18862848  1
  P  P11  1  0.04807212  0.59540404  0.82791847  1
  P  P12  1  0.96956895  0.39347511  0.15267928  1
  O  O13  1  0.72922457  0.57200034  0.44161742  1
  O  O14  1  0.25882280  0.44470246  0.54448840  1
  O  O15  1  0.80184128  0.88520494  0.55472860  1
  O  O16  1  0.19853102  0.11855936  0.46090048  1
  O  O17  1  0.59443377  0.07574661  0.20941952  1
  O  O18  1  0.41277720  0.90886534  0.78238041  1
  O  O19  1  0.44126652  0.21232952  0.90343119  1
  O  O20  1  0.58073764  0.75835567  0.11153527  1
  O  O21  1  0.87968131  0.89939291  0.30387985  1
  O  O22  1  0.13381193  0.10012108  0.70843566  1
  O  O23  1  0.91088746  0.31996664  0.25325559  1
  O  O24  1  0.10633816  0.65712001  0.72311095  1
  O  O25  1  0.80911126  0.38270495  0.02229672  1
  O  O26  1  0.18966091  0.54556435  0.94641670  1
  O  O27  1  0.41848215  0.27864323  0.38612005  1
  O  O28  1  0.56123766  0.71106032  0.60472537  1
  F  F29  1  0.84777095  0.19256110  0.49393387  1
  F  F30  1  0.16509298  0.79705536  0.52337046  1
  F  F31  1  0.52539044  0.41435843  0.15284975  1
  F  F32  1  0.48527112  0.57146510  0.81313060  1
  F  F33  1  0.79426156  0.98058932  0.07698443  1
  F  F34  1  0.20893640  0.00529027  0.92358307  1
  F  F35  1  0.88810172  0.44635165  0.75983252  1
  F  F36  1  0.06917836  0.57753779  0.20756790  1
  F  F37  1  0.50626238  0.24633184  0.62381051  1
  F  F38  1  0.49143151  0.78574145  0.38123594  1
  F  F39  1  0.13486050  0.29376809  0.12177474  1
  F  F40  1  0.92681360  0.73458881  0.88048872  1
