# generated using pymatgen
data_VO2
_symmetry_space_group_name_H-M   'P 1'
_cell_length_a   2.84559348
_cell_length_b   7.24028145
_cell_length_c   7.24456825
_cell_angle_alpha   87.69719675
_cell_angle_beta   78.67570450
_cell_angle_gamma   78.67205910
_symmetry_Int_Tables_number   1
_chemical_formula_structural   VO2
_chemical_formula_sum   'V4 O8'
_cell_volume   143.50193441
_cell_formula_units_Z   4
loop_
 _symmetry_equiv_pos_site_id
 _symmetry_equiv_pos_as_xyz
  1  'x, y, z'
loop_
 _atom_site_type_symbol
 _atom_site_label
 _atom_site_symmetry_multiplicity
 _atom_site_fract_x
 _atom_site_fract_y
 _atom_site_fract_z
 _atom_site_occupancy
  V  V0  1  0.63762911  0.18431579  0.54010185  1
  V  V1  1  0.17766758  0.46045879  0.18442851  1
  V  V2  1  0.82233613  0.53953121  0.81557208  1
  V  V3  1  0.36237956  0.81567714  0.45989636  1
  O  O4  1  0.83863590  0.70541744  0.61685107  1
  O  O5  1  0.45556206  0.38235329  0.70612896  1
  O  O6  1  0.54443966  0.61764568  0.29387380  1
  O  O7  1  0.16136253  0.29458463  0.38314690  1
  O  O8  1  0.15688579  0.04538845  0.64083132  1
  O  O9  1  0.79733545  0.35922636  0.04617785  1
  O  O10  1  0.84309774  0.95464524  0.35917861  1
  O  O11  1  0.20267150  0.64075798  0.95381870  1
