# generated using pymatgen
data_K9Fe2S7
_symmetry_space_group_name_H-M   'P 1'
_cell_length_a   12.65142231
_cell_length_b   12.65138192
_cell_length_c   12.65130320
_cell_angle_alpha   89.99992732
_cell_angle_beta   90.00010530
_cell_angle_gamma   89.99978031
_symmetry_Int_Tables_number   1
_chemical_formula_structural   K9Fe2S7
_chemical_formula_sum   'K36 Fe8 S28'
_cell_volume   2024.94197747
_cell_formula_units_Z   4
loop_
 _symmetry_equiv_pos_site_id
 _symmetry_equiv_pos_as_xyz
  1  'x, y, z'
loop_
 _atom_site_type_symbol
 _atom_site_label
 _atom_site_symmetry_multiplicity
 _atom_site_fract_x
 _atom_site_fract_y
 _atom_site_fract_z
 _atom_site_occupancy
  K  K0  1  0.70770916  0.82301023  0.54226105  1
  K  K1  1  0.26128254  0.76128258  0.73871750  1
  K  K2  1  0.73871495  0.26128201  0.76128512  1
  K  K3  1  0.76128237  0.73871584  0.26128325  1
  K  K4  1  0.05867919  0.05866462  0.05868424  1
  K  K5  1  0.44133280  0.94132944  0.55866963  1
  K  K6  1  0.55867913  0.44133572  0.94131617  1
  K  K7  1  0.94131320  0.55868969  0.44131084  1
  K  K8  1  0.83309758  0.00080249  0.30023000  1
  K  K9  1  0.30023233  0.83310081  0.00080234  1
  K  K10  1  0.00079887  0.30022765  0.83310524  1
  K  K11  1  0.49920148  0.69976575  0.33310409  1
  K  K12  1  0.80023196  0.66689825  0.99919794  1
  K  K13  1  0.99920121  0.80023401  0.66689592  1
  K  K14  1  0.19976643  0.16689818  0.50080211  1
  K  K15  1  0.69976747  0.33310298  0.49919636  1
  K  K16  1  0.58547186  0.91452450  0.08547223  1
  K  K17  1  0.91453050  0.08546969  0.58547036  1
  K  K18  1  0.08547186  0.58547352  0.91452805  1
  K  K19  1  0.41453062  0.41453020  0.41452893  1
  K  K20  1  0.32301696  0.95772918  0.29230898  1
  K  K21  1  0.82301502  0.54226841  0.70769530  1
  K  K22  1  0.50079937  0.19977312  0.16689450  1
  K  K23  1  0.54226466  0.70770403  0.82300381  1
  K  K24  1  0.20771217  0.67698964  0.45773866  1
  K  K25  1  0.23871517  0.23871770  0.23871484  1
  K  K26  1  0.95773271  0.29230522  0.32301398  1
  K  K27  1  0.29229311  0.32300576  0.95773605  1
  K  K28  1  0.45772876  0.20769097  0.67698809  1
  K  K29  1  0.04226425  0.79229488  0.17699568  1
  K  K30  1  0.79229442  0.17698995  0.04226220  1
  K  K31  1  0.17698382  0.04226834  0.79230511  1
  K  K32  1  0.66689996  0.99919839  0.80023178  1
  K  K33  1  0.16690023  0.50080073  0.19976763  1
  K  K34  1  0.33309778  0.49919717  0.69976937  1
  K  K35  1  0.67698425  0.45773159  0.20769567  1
  Fe  Fe36  1  0.09972739  0.40027075  0.59972885  1
  Fe  Fe37  1  0.40027258  0.59972924  0.09972895  1
  Fe  Fe38  1  0.59972599  0.09972830  0.40027279  1
  Fe  Fe39  1  0.90027220  0.90027065  0.90027329  1
  Fe  Fe40  1  0.42874351  0.07125745  0.92874361  1
  Fe  Fe41  1  0.07125966  0.92874569  0.42873699  1
  Fe  Fe42  1  0.92874366  0.42874156  0.07125671  1
  Fe  Fe43  1  0.57125798  0.57125557  0.57126405  1
  S  S44  1  0.20677273  0.29322630  0.70677485  1
  S  S45  1  0.29322654  0.70677385  0.20677658  1
  S  S46  1  0.70677257  0.20677313  0.29322615  1
  S  S47  1  0.79322651  0.79322609  0.79322439  1
  S  S48  1  0.42425827  0.94028808  0.81063842  1
  S  S49  1  0.92425872  0.55971163  0.18936421  1
  S  S50  1  0.57573284  0.44027781  0.68935723  1
  S  S51  1  0.55971317  0.18936401  0.92425914  1
  S  S52  1  0.68936866  0.57574431  0.44029014  1
  S  S53  1  0.18936710  0.92425580  0.55971104  1
  S  S54  1  0.94029019  0.81063437  0.42425755  1
  S  S55  1  0.81063563  0.42425824  0.94028963  1
  S  S56  1  0.44029034  0.68936497  0.57574311  1
  S  S57  1  0.05971318  0.31063601  0.07574136  1
  S  S58  1  0.31063548  0.07574179  0.05971096  1
  S  S59  1  0.07573295  0.05972307  0.31064262  1
  S  S60  1  0.58813123  0.93096391  0.33458027  1
  S  S61  1  0.08813196  0.56903559  0.66542059  1
  S  S62  1  0.41186825  0.43096567  0.16541919  1
  S  S63  1  0.56903587  0.66541788  0.08813173  1
  S  S64  1  0.16542086  0.41186771  0.43096556  1
  S  S65  1  0.66542019  0.08813208  0.56903480  1
  S  S66  1  0.93096575  0.33457852  0.58813246  1
  S  S67  1  0.33458088  0.58813382  0.93096455  1
  S  S68  1  0.43096567  0.16542091  0.41186804  1
  S  S69  1  0.06903512  0.83458216  0.91186892  1
  S  S70  1  0.83458006  0.91186595  0.06903641  1
  S  S71  1  0.91186817  0.06903386  0.83458184  1
