# generated using pymatgen
data_In2P2O7
_symmetry_space_group_name_H-M   'P 1'
_cell_length_a   10.49427772
_cell_length_b   7.53259520
_cell_length_c   8.48327240
_cell_angle_alpha   73.86215223
_cell_angle_beta   90.00000000
_cell_angle_gamma   90.00000000
_symmetry_Int_Tables_number   1
_chemical_formula_structural   In2P2O7
_chemical_formula_sum   'In8 P8 O28'
_cell_volume   644.17113480
_cell_formula_units_Z   4
loop_
 _symmetry_equiv_pos_site_id
 _symmetry_equiv_pos_as_xyz
  1  'x, y, z'
loop_
 _atom_site_type_symbol
 _atom_site_label
 _atom_site_symmetry_multiplicity
 _atom_site_fract_x
 _atom_site_fract_y
 _atom_site_fract_z
 _atom_site_occupancy
  In  In0  1  0.67992482  0.33052131  0.06327288  1
  In  In1  1  0.17992482  0.66947869  0.43672712  1
  In  In2  1  0.32007518  0.66947869  0.93672712  1
  In  In3  1  0.82007518  0.33052131  0.56327288  1
  In  In4  1  0.59929836  0.73818035  0.24073785  1
  In  In5  1  0.09929836  0.26181965  0.25926215  1
  In  In6  1  0.40070164  0.26181965  0.75926215  1
  In  In7  1  0.90070164  0.73818035  0.74073785  1
  P  P8  1  0.63706957  0.93815356  0.80876840  1
  P  P9  1  0.13706957  0.06184644  0.69123160  1
  P  P10  1  0.36293043  0.06184644  0.19123160  1
  P  P11  1  0.86293043  0.93815356  0.30876840  1
  P  P12  1  0.59806380  0.63114915  0.67404147  1
  P  P13  1  0.09806380  0.36885085  0.82595853  1
  P  P14  1  0.40193620  0.36885085  0.32595853  1
  P  P15  1  0.90193620  0.63114915  0.17404147  1
  O  O16  1  0.60610950  0.81662484  0.97828575  1
  O  O17  1  0.10610950  0.18337516  0.52171425  1
  O  O18  1  0.39389050  0.18337516  0.02171425  1
  O  O19  1  0.89389050  0.81662484  0.47828575  1
  O  O20  1  0.57872868  0.12893880  0.76681733  1
  O  O21  1  0.07872868  0.87106120  0.73318267  1
  O  O22  1  0.42127132  0.87106120  0.23318267  1
  O  O23  1  0.92127132  0.12893880  0.26681733  1
  O  O24  1  0.57128761  0.83730621  0.68416176  1
  O  O25  1  0.07128761  0.16269379  0.81583824  1
  O  O26  1  0.42871239  0.16269379  0.31583824  1
  O  O27  1  0.92871239  0.83730621  0.18416176  1
  O  O28  1  0.72936892  0.57328077  0.74924263  1
  O  O29  1  0.22936892  0.42671923  0.75075737  1
  O  O30  1  0.27063108  0.42671923  0.25075737  1
  O  O31  1  0.77063108  0.57328077  0.24924263  1
  O  O32  1  0.90766649  0.63387424  -0.00203766  1
  O  O33  1  0.40766649  0.36612576  0.50203766  1
  O  O34  1  0.09233351  0.36612576  0.00203766  1
  O  O35  1  0.59233351  0.63387424  0.49796234  1
  O  O36  1  0.77846591  0.95522205  0.76773084  1
  O  O37  1  0.27846591  0.04477795  0.73226916  1
  O  O38  1  0.22153409  0.04477795  0.23226916  1
  O  O39  1  0.72153409  0.95522205  0.26773084  1
  O  O40  1  0.99554526  0.48942334  0.72025128  1
  O  O41  1  0.49554526  0.51057666  0.77974872  1
  O  O42  1  0.00445474  0.51057666  0.27974872  1
  O  O43  1  0.50445474  0.48942334  0.22025128  1
