# generated using pymatgen
data_Sr3TbRhO6
_symmetry_space_group_name_H-M   'P 1'
_cell_length_a   6.80687478
_cell_length_b   6.80687478
_cell_length_c   6.80687526
_cell_angle_alpha   92.03875872
_cell_angle_beta   92.03875872
_cell_angle_gamma   92.03876363
_symmetry_Int_Tables_number   1
_chemical_formula_structural   Sr3TbRhO6
_chemical_formula_sum   'Sr6 Tb2 Rh2 O12'
_cell_volume   314.77311916
_cell_formula_units_Z   2
loop_
 _symmetry_equiv_pos_site_id
 _symmetry_equiv_pos_as_xyz
  1  'x, y, z'
loop_
 _atom_site_type_symbol
 _atom_site_label
 _atom_site_symmetry_multiplicity
 _atom_site_fract_x
 _atom_site_fract_y
 _atom_site_fract_z
 _atom_site_occupancy
  Sr  Sr0  1  0.88072137  0.61927863  0.25000000  1
  Sr  Sr1  1  0.61927863  0.25000000  0.88072137  1
  Sr  Sr2  1  0.25000000  0.88072137  0.61927863  1
  Sr  Sr3  1  0.11927863  0.38072137  0.75000000  1
  Sr  Sr4  1  0.75000000  0.11927863  0.38072137  1
  Sr  Sr5  1  0.38072137  0.75000000  0.11927863  1
  Tb  Tb6  1  0.75000000  0.75000000  0.75000000  1
  Tb  Tb7  1  0.25000000  0.25000000  0.25000000  1
  Rh  Rh8  1  0.50000000  0.50000000  0.50000000  1
  Rh  Rh9  1  -0.00000000  -0.00000000  0.00000000  1
  O  O10  1  0.58927458  0.79105860  0.45491531  1
  O  O11  1  0.45491531  0.58927458  0.79105860  1
  O  O12  1  0.79105860  0.45491531  0.58927458  1
  O  O13  1  0.91072542  0.04508469  0.70894140  1
  O  O14  1  0.70894140  0.91072542  0.04508469  1
  O  O15  1  0.04508469  0.70894140  0.91072542  1
  O  O16  1  0.41072542  0.20894140  0.54508469  1
  O  O17  1  0.54508469  0.41072542  0.20894140  1
  O  O18  1  0.20894140  0.54508469  0.41072542  1
  O  O19  1  0.08927458  0.95491531  0.29105860  1
  O  O20  1  0.95491531  0.29105860  0.08927458  1
  O  O21  1  0.29105860  0.08927458  0.95491531  1
