# generated using pymatgen
data_Ba10MgAs6(ClO12)2
_symmetry_space_group_name_H-M   'P 1'
_cell_length_a   10.58624613
_cell_length_b   10.95217548
_cell_length_c   8.11988183
_cell_angle_alpha   95.38813763
_cell_angle_beta   90.97702993
_cell_angle_gamma   117.73829624
_symmetry_Int_Tables_number   1
_chemical_formula_structural   Ba10MgAs6(ClO12)2
_chemical_formula_sum   'Ba10 Mg1 As6 Cl2 O24'
_cell_volume   827.59515730
_cell_formula_units_Z   1
loop_
 _symmetry_equiv_pos_site_id
 _symmetry_equiv_pos_as_xyz
  1  'x, y, z'
loop_
 _atom_site_type_symbol
 _atom_site_label
 _atom_site_symmetry_multiplicity
 _atom_site_fract_x
 _atom_site_fract_y
 _atom_site_fract_z
 _atom_site_occupancy
  Ba  Ba0  1  0.68630540  0.34548091  0.46217065  1
  Ba  Ba1  1  0.32715416  0.67077365  0.51646242  1
  Ba  Ba2  1  0.00161317  0.23433524  0.17122851  1
  Ba  Ba3  1  0.30941990  0.64693840  0.01334297  1
  Ba  Ba4  1  0.71890624  0.70783391  0.27602480  1
  Ba  Ba5  1  0.25835649  0.98667760  0.28949646  1
  Ba  Ba6  1  0.76140908  0.04045533  0.63102515  1
  Ba  Ba7  1  0.98595075  0.74195367  0.77229052  1
  Ba  Ba8  1  0.69493937  0.31033590  0.97684111  1
  Ba  Ba9  1  0.28058719  0.26910576  0.73735479  1
  Mg  Mg10  1  0.65420196  0.92357545  0.95893592  1
  As  As11  1  0.96805223  0.59194213  0.25158542  1
  As  As12  1  0.59707899  0.63255416  0.77253059  1
  As  As13  1  0.36581590  0.95424658  0.79567358  1
  As  As14  1  0.40519344  0.37453310  0.24776221  1
  As  As15  1  0.04298460  0.41010113  0.72057494  1
  As  As16  1  0.60365912  0.01186251  0.24199436  1
  Cl  Cl17  1  0.96303067  0.93866384  0.08916955  1
  Cl  Cl18  1  0.02154466  0.99511511  0.55451694  1
  O  O19  1  0.62221084  0.72929585  0.96799859  1
  O  O20  1  0.39180413  0.52810000  0.27135944  1
  O  O21  1  0.38139185  0.28889489  0.42346378  1
  O  O22  1  0.41310573  0.54372156  0.74424668  1
  O  O23  1  0.10592008  0.35479803  0.55224809  1
  O  O24  1  0.66981199  0.52137063  0.76369599  1
  O  O25  1  0.85929116  0.34147913  0.70558939  1
  O  O26  1  0.12069072  0.59034249  0.74570123  1
  O  O27  1  0.58411660  0.43254926  0.20774601  1
  O  O28  1  0.78492721  0.11307264  0.94300148  1
  O  O29  1  0.10905906  0.37422190  0.89716788  1
  O  O30  1  0.90358176  0.41463256  0.23877863  1
  O  O31  1  0.48098748  0.87857925  0.80414179  1
  O  O32  1  0.89410604  0.62293899  0.08082259  1
  O  O33  1  0.89770865  0.63241248  0.42816393  1
  O  O34  1  0.45832014  0.13069141  0.78592689  1
  O  O35  1  0.28591236  0.26281576  0.09079017  1
  O  O36  1  0.76702203  0.13166794  0.35347863  1
  O  O37  1  0.15291686  0.68156552  0.26180034  1
  O  O38  1  0.26190442  0.89709279  0.96211321  1
  O  O39  1  0.50662584  0.90062222  0.39029217  1
  O  O40  1  0.25285388  0.87870627  0.61970599  1
  O  O41  1  0.67135339  0.75168132  0.63195450  1
  O  O42  1  0.52817447  0.12476275  0.22583171  1
