# generated using pymatgen
data_Zn3MoN4
_symmetry_space_group_name_H-M   'P 1'
_cell_length_a   6.50139678
_cell_length_b   5.62542348
_cell_length_c   5.30516604
_cell_angle_alpha   90.00000000
_cell_angle_beta   90.00000000
_cell_angle_gamma   90.00000000
_symmetry_Int_Tables_number   1
_chemical_formula_structural   Zn3MoN4
_chemical_formula_sum   'Zn6 Mo2 N8'
_cell_volume   194.02642167
_cell_formula_units_Z   2
loop_
 _symmetry_equiv_pos_site_id
 _symmetry_equiv_pos_as_xyz
  1  'x, y, z'
loop_
 _atom_site_type_symbol
 _atom_site_label
 _atom_site_symmetry_multiplicity
 _atom_site_fract_x
 _atom_site_fract_y
 _atom_site_fract_z
 _atom_site_occupancy
  Zn  Zn0  1  0.25150465  0.83232863  0.73106854  1
  Zn  Zn1  1  0.24849535  0.16767137  0.23106854  1
  Zn  Zn2  1  0.74849535  0.83232863  0.73106854  1
  Zn  Zn3  1  0.75150465  0.16767137  0.23106854  1
  Zn  Zn4  1  -0.00000000  0.33382841  0.72980111  1
  Zn  Zn5  1  0.50000000  0.66617159  0.22980111  1
  Mo  Mo6  1  -0.00000000  0.67022773  0.22923776  1
  Mo  Mo7  1  0.50000000  0.32977227  0.72923776  1
  N  N8  1  0.76327675  0.82643887  0.11351099  1
  N  N9  1  0.73672325  0.17356113  0.61351099  1
  N  N10  1  0.23672325  0.82643887  0.11351099  1
  N  N11  1  0.26327675  0.17356113  0.61351099  1
  N  N12  1  -0.00000000  0.35752590  0.11297113  1
  N  N13  1  0.50000000  0.64247410  0.61297113  1
  N  N14  1  -0.00000000  0.67134675  0.57808995  1
  N  N15  1  0.50000000  0.32865325  0.07808995  1
