# generated using pymatgen
data_Ca5As3ClO12
_symmetry_space_group_name_H-M   'P 1'
_cell_length_a   10.15640086
_cell_length_b   10.15640086
_cell_length_c   6.77091592
_cell_angle_alpha   90.00000000
_cell_angle_beta   90.00000000
_cell_angle_gamma   119.99999954
_symmetry_Int_Tables_number   1
_chemical_formula_structural   Ca5As3ClO12
_chemical_formula_sum   'Ca10 As6 Cl2 O24'
_cell_volume   604.86397844
_cell_formula_units_Z   2
loop_
 _symmetry_equiv_pos_site_id
 _symmetry_equiv_pos_as_xyz
  1  'x, y, z'
loop_
 _atom_site_type_symbol
 _atom_site_label
 _atom_site_symmetry_multiplicity
 _atom_site_fract_x
 _atom_site_fract_y
 _atom_site_fract_z
 _atom_site_occupancy
  Ca  Ca0  1  0.33333300  0.66666700  0.99486602  1
  Ca  Ca1  1  0.66666700  0.33333300  0.49486602  1
  Ca  Ca2  1  0.66666700  0.33333300  0.00471638  1
  Ca  Ca3  1  0.33333300  0.66666700  0.50471638  1
  Ca  Ca4  1  0.97279970  0.72773013  0.74757185  1
  Ca  Ca5  1  0.75493043  0.02720030  0.74757185  1
  Ca  Ca6  1  0.27226987  0.24506957  0.74757185  1
  Ca  Ca7  1  0.02720030  0.27226987  0.24757185  1
  Ca  Ca8  1  0.24506957  0.97279970  0.24757185  1
  Ca  Ca9  1  0.72773013  0.75493043  0.24757185  1
  As  As10  1  0.61972083  0.58920659  0.75097428  1
  As  As11  1  0.96948576  0.38027917  0.75097428  1
  As  As12  1  0.41079341  0.03051424  0.75097428  1
  As  As13  1  0.38027917  0.41079341  0.25097428  1
  As  As14  1  0.03051424  0.61972083  0.25097428  1
  As  As15  1  0.58920659  0.96948576  0.25097428  1
  Cl  Cl16  1  0.00000000  0.00000000  0.86575977  1
  Cl  Cl17  1  0.00000000  0.00000000  0.36575977  1
  O  O18  1  0.35605175  0.84449996  0.75209288  1
  O  O19  1  0.48844721  0.64394825  0.75209288  1
  O  O20  1  0.15550004  0.51155279  0.75209288  1
  O  O21  1  0.64394825  0.15550004  0.25209288  1
  O  O22  1  0.51155279  0.35605175  0.25209288  1
  O  O23  1  0.84449996  0.48844721  0.25209288  1
  O  O24  1  0.85943754  0.46448022  0.74653067  1
  O  O25  1  0.60504267  0.14056246  0.74653067  1
  O  O26  1  0.53551978  0.39495733  0.74653067  1
  O  O27  1  0.14056246  0.53551978  0.24653067  1
  O  O28  1  0.39495733  0.85943754  0.24653067  1
  O  O29  1  0.46448022  0.60504267  0.24653067  1
  O  O30  1  0.73576442  0.64338664  0.95143113  1
  O  O31  1  0.90762222  0.26423558  0.95143113  1
  O  O32  1  0.35661336  0.09237778  0.95143113  1
  O  O33  1  0.26423558  0.35661336  0.45143113  1
  O  O34  1  0.09237778  0.73576442  0.45143113  1
  O  O35  1  0.64338664  0.90762222  0.45143113  1
  O  O36  1  0.26025853  0.34599105  0.05418748  1
  O  O37  1  0.08573152  0.73974147  0.05418748  1
  O  O38  1  0.65400895  0.91426848  0.05418748  1
  O  O39  1  0.73974147  0.65400895  0.55418748  1
  O  O40  1  0.91426848  0.26025853  0.55418748  1
  O  O41  1  0.34599105  0.08573152  0.55418748  1
