# generated using pymatgen
data_TmOF
_symmetry_space_group_name_H-M   'P 1'
_cell_length_a   5.39687609
_cell_length_b   5.47010105
_cell_length_c   5.48060710
_cell_angle_alpha   80.21295723
_cell_angle_beta   90.00000000
_cell_angle_gamma   90.00000000
_symmetry_Int_Tables_number   1
_chemical_formula_structural   TmOF
_chemical_formula_sum   'Tm4 O4 F4'
_cell_volume   159.44079739
_cell_formula_units_Z   4
loop_
 _symmetry_equiv_pos_site_id
 _symmetry_equiv_pos_as_xyz
  1  'x, y, z'
loop_
 _atom_site_type_symbol
 _atom_site_label
 _atom_site_symmetry_multiplicity
 _atom_site_fract_x
 _atom_site_fract_y
 _atom_site_fract_z
 _atom_site_occupancy
  Tm  Tm0  1  0.47440405  0.69451873  0.71293212  1
  Tm  Tm1  1  0.52559595  0.30548127  0.28706788  1
  Tm  Tm2  1  0.97440405  0.30548127  0.78706788  1
  Tm  Tm3  1  0.02559595  0.69451873  0.21293212  1
  O  O4  1  0.24701352  0.46098389  0.51021530  1
  O  O5  1  0.75298648  0.53901611  0.48978470  1
  O  O6  1  0.74701352  0.53901611  0.98978470  1
  O  O7  1  0.25298648  0.46098389  0.01021530  1
  F  F8  1  0.17479071  0.94269130  0.84533538  1
  F  F9  1  0.82520929  0.05730870  0.15466462  1
  F  F10  1  0.67479071  0.05730870  0.65466462  1
  F  F11  1  0.32520929  0.94269130  0.34533538  1
