# generated using pymatgen
data_HgAsF7
_symmetry_space_group_name_H-M   'P 1'
_cell_length_a   9.84506945
_cell_length_b   7.09588860
_cell_length_c   7.87066561
_cell_angle_alpha   76.25251935
_cell_angle_beta   90.00000000
_cell_angle_gamma   90.00000000
_symmetry_Int_Tables_number   1
_chemical_formula_structural   HgAsF7
_chemical_formula_sum   'Hg4 As4 F28'
_cell_volume   534.08933492
_cell_formula_units_Z   4
loop_
 _symmetry_equiv_pos_site_id
 _symmetry_equiv_pos_as_xyz
  1  'x, y, z'
loop_
 _atom_site_type_symbol
 _atom_site_label
 _atom_site_symmetry_multiplicity
 _atom_site_fract_x
 _atom_site_fract_y
 _atom_site_fract_z
 _atom_site_occupancy
  Hg  Hg0  1  0.24449076  0.27136846  0.91525651  1
  Hg  Hg1  1  0.74449076  0.72863154  0.58474349  1
  Hg  Hg2  1  0.75550924  0.72863154  0.08474349  1
  Hg  Hg3  1  0.25550924  0.27136846  0.41525651  1
  As  As4  1  0.56386098  0.19825585  0.19860530  1
  As  As5  1  0.06386098  0.80174415  0.30139470  1
  As  As6  1  0.43613902  0.80174415  0.80139470  1
  As  As7  1  0.93613902  0.19825585  0.69860530  1
  F  F8  1  0.70551295  0.34650933  0.14313449  1
  F  F9  1  0.20551295  0.65349067  0.35686551  1
  F  F10  1  0.29448705  0.65349067  0.85686551  1
  F  F11  1  0.79448705  0.34650933  0.64313449  1
  F  F12  1  0.63841704  0.07598645  0.39268717  1
  F  F13  1  0.13841704  0.92401355  0.10731283  1
  F  F14  1  0.36158296  0.92401355  0.60731283  1
  F  F15  1  0.86158296  0.07598645  0.89268717  1
  F  F16  1  0.48651927  0.31490603  0.00071352  1
  F  F17  1  0.98651927  0.68509397  0.49928648  1
  F  F18  1  0.51348073  0.68509397  0.99928648  1
  F  F19  1  0.01348073  0.31490603  0.50071352  1
  F  F20  1  0.41483589  0.06103444  0.25103565  1
  F  F21  1  0.91483589  0.93896556  0.24896435  1
  F  F22  1  0.58516411  0.93896556  0.74896435  1
  F  F23  1  0.08516411  0.06103444  0.75103565  1
  F  F24  1  0.62988484  0.02989082  0.09179798  1
  F  F25  1  0.12988484  0.97010918  0.40820202  1
  F  F26  1  0.37011516  0.97010918  0.90820202  1
  F  F27  1  0.87011516  0.02989082  0.59179798  1
  F  F28  1  0.49286763  0.36830394  0.30291329  1
  F  F29  1  0.99286763  0.63169606  0.19708671  1
  F  F30  1  0.50713237  0.63169606  0.69708671  1
  F  F31  1  0.00713237  0.36830394  0.80291329  1
  F  F32  1  0.18068880  0.32059093  0.15521960  1
  F  F33  1  0.68068880  0.67940907  0.34478040  1
  F  F34  1  0.81931120  0.67940907  0.84478040  1
  F  F35  1  0.31931120  0.32059093  0.65521960  1
