# generated using pymatgen
data_Rb3Sb2Br9
_symmetry_space_group_name_H-M   'P 1'
_cell_length_a   7.68782753
_cell_length_b   13.69578094
_cell_length_c   19.48151806
_cell_angle_alpha   89.05068551
_cell_angle_beta   90.00000000
_cell_angle_gamma   90.00000000
_symmetry_Int_Tables_number   1
_chemical_formula_structural   Rb3Sb2Br9
_chemical_formula_sum   'Rb12 Sb8 Br36'
_cell_volume   2050.94311029
_cell_formula_units_Z   4
loop_
 _symmetry_equiv_pos_site_id
 _symmetry_equiv_pos_as_xyz
  1  'x, y, z'
loop_
 _atom_site_type_symbol
 _atom_site_label
 _atom_site_symmetry_multiplicity
 _atom_site_fract_x
 _atom_site_fract_y
 _atom_site_fract_z
 _atom_site_occupancy
  Rb  Rb0  1  0.52264544  0.52949760  0.77534118  1
  Rb  Rb1  1  0.97735456  0.02949760  0.27534118  1
  Rb  Rb2  1  0.47735456  0.47050240  0.22465882  1
  Rb  Rb3  1  0.02264544  0.97050240  0.72465882  1
  Rb  Rb4  1  0.51448180  0.18404425  0.43604921  1
  Rb  Rb5  1  -0.01448180  0.68404425  0.93604921  1
  Rb  Rb6  1  0.48551820  0.81595575  0.56395079  1
  Rb  Rb7  1  0.01448180  0.31595575  0.06395079  1
  Rb  Rb8  1  0.47796261  0.15057057  0.89672578  1
  Rb  Rb9  1  0.02203739  0.65057057  0.39672578  1
  Rb  Rb10  1  0.52203739  0.84942943  0.10327422  1
  Rb  Rb11  1  0.97796261  0.34942943  0.60327422  1
  Sb  Sb12  1  0.49498361  0.16720852  0.65828960  1
  Sb  Sb13  1  0.00501639  0.66720852  0.15828960  1
  Sb  Sb14  1  0.50501639  0.83279148  0.34171040  1
  Sb  Sb15  1  0.99498361  0.33279148  0.84171040  1
  Sb  Sb16  1  0.50263383  0.16389602  0.15606644  1
  Sb  Sb17  1  -0.00263383  0.66389602  0.65606644  1
  Sb  Sb18  1  0.49736617  0.83610398  0.84393356  1
  Sb  Sb19  1  0.00263383  0.33610398  0.34393356  1
  Br  Br20  1  0.08032248  0.49537320  0.74565319  1
  Br  Br21  1  0.41967752  0.99537320  0.24565319  1
  Br  Br22  1  0.91967752  0.50462680  0.25434681  1
  Br  Br23  1  0.58032248  0.00462680  0.75434681  1
  Br  Br24  1  0.05645662  0.17429719  0.42041241  1
  Br  Br25  1  0.44354338  0.67429719  0.92041241  1
  Br  Br26  1  0.94354338  0.82570281  0.57958759  1
  Br  Br27  1  0.55645662  0.32570281  0.07958759  1
  Br  Br28  1  0.93388327  0.17474039  0.91975037  1
  Br  Br29  1  0.56611673  0.67474039  0.41975037  1
  Br  Br30  1  0.06611673  0.82525961  0.08024963  1
  Br  Br31  1  0.43388327  0.32525961  0.58024963  1
  Br  Br32  1  0.80110263  0.41238424  0.44030048  1
  Br  Br33  1  0.69889737  0.91238424  0.94030048  1
  Br  Br34  1  0.19889737  0.58761576  0.55969952  1
  Br  Br35  1  0.30110263  0.08761576  0.05969952  1
  Br  Br36  1  0.79636654  0.44746855  0.91957740  1
  Br  Br37  1  0.70363346  0.94746955  0.41957740  1
  Br  Br38  1  0.20363346  0.55253045  0.08042260  1
  Br  Br39  1  0.29636654  0.05253145  0.58042260  1
  Br  Br40  1  0.78921697  0.07614346  0.10988422  1
  Br  Br41  1  0.71078303  0.57614346  0.60988422  1
  Br  Br42  1  0.21078303  0.92385654  0.89011578  1
  Br  Br43  1  0.28921697  0.42385654  0.39011578  1
  Br  Br44  1  0.77990644  0.12098756  0.58652804  1
  Br  Br45  1  0.72009356  0.62098756  0.08652804  1
  Br  Br46  1  0.22009356  0.87901244  0.41347196  1
  Br  Br47  1  0.27990644  0.37901244  0.91347196  1
  Br  Br48  1  0.80695387  0.74222635  0.77880018  1
  Br  Br49  1  0.69304613  0.24222635  0.27880018  1
  Br  Br50  1  0.19304613  0.25777365  0.22119982  1
  Br  Br51  1  0.30695387  0.75777365  0.72119982  1
  Br  Br52  1  0.81393742  0.79671353  0.25415475  1
  Br  Br53  1  0.68606258  0.29671353  0.75415475  1
  Br  Br54  1  0.18606258  0.20328647  0.74584525  1
  Br  Br55  1  0.31393742  0.70328647  0.24584525  1
