# generated using pymatgen
data_Rb3AsSe4
_symmetry_space_group_name_H-M   'P 1'
_cell_length_a   9.74154943
_cell_length_b   10.13166005
_cell_length_c   11.45709047
_cell_angle_alpha   90.00000000
_cell_angle_beta   90.00000000
_cell_angle_gamma   90.00000000
_symmetry_Int_Tables_number   1
_chemical_formula_structural   Rb3AsSe4
_chemical_formula_sum   'Rb12 As4 Se16'
_cell_volume   1130.79268495
_cell_formula_units_Z   4
loop_
 _symmetry_equiv_pos_site_id
 _symmetry_equiv_pos_as_xyz
  1  'x, y, z'
loop_
 _atom_site_type_symbol
 _atom_site_label
 _atom_site_symmetry_multiplicity
 _atom_site_fract_x
 _atom_site_fract_y
 _atom_site_fract_z
 _atom_site_occupancy
  Rb  Rb0  1  0.64906684  0.91582837  0.25000000  1
  Rb  Rb1  1  0.14906684  0.58417163  0.25000000  1
  Rb  Rb2  1  0.85093316  0.41582837  0.75000000  1
  Rb  Rb3  1  0.35093316  0.08417163  0.75000000  1
  Rb  Rb4  1  0.05749913  0.80523321  0.95671240  1
  Rb  Rb5  1  0.55749913  0.69476679  0.54328760  1
  Rb  Rb6  1  0.44250087  0.30523321  0.04328760  1
  Rb  Rb7  1  0.94250087  0.19476679  0.45671240  1
  Rb  Rb8  1  0.94250087  0.19476679  0.04328760  1
  Rb  Rb9  1  0.44250087  0.30523321  0.45671240  1
  Rb  Rb10  1  0.55749913  0.69476679  0.95671240  1
  Rb  Rb11  1  0.05749913  0.80523321  0.54328760  1
  As  As12  1  0.77203669  0.97583124  0.75000000  1
  As  As13  1  0.22796331  0.02416876  0.25000000  1
  As  As14  1  0.72796331  0.47583124  0.25000000  1
  As  As15  1  0.27203669  0.52416876  0.75000000  1
  Se  Se16  1  0.34909280  0.96978562  0.08152626  1
  Se  Se17  1  0.84909280  0.53021438  0.41847374  1
  Se  Se18  1  0.15090720  0.46978562  0.91847374  1
  Se  Se19  1  0.65090720  0.03021438  0.58152626  1
  Se  Se20  1  0.01613512  0.91433297  0.25000000  1
  Se  Se21  1  0.51613512  0.58566703  0.25000000  1
  Se  Se22  1  0.48386488  0.41433297  0.75000000  1
  Se  Se23  1  0.98386488  0.08566703  0.75000000  1
  Se  Se24  1  0.65090720  0.03021438  0.91847374  1
  Se  Se25  1  0.34909280  0.96978562  0.41847374  1
  Se  Se26  1  0.84909280  0.53021438  0.08152626  1
  Se  Se27  1  0.15090720  0.46978562  0.58152626  1
  Se  Se28  1  0.81251935  0.74998504  0.75000000  1
  Se  Se29  1  0.31251935  0.75001496  0.75000000  1
  Se  Se30  1  0.68748065  0.24998504  0.25000000  1
  Se  Se31  1  0.18748065  0.25001496  0.25000000  1
