# generated using pymatgen
data_Sr2DyBiO6
_symmetry_space_group_name_H-M   'P 1'
_cell_length_a   8.45606459
_cell_length_b   8.45606459
_cell_length_c   8.45606459
_cell_angle_alpha   90.00000000
_cell_angle_beta   90.00000000
_cell_angle_gamma   90.00000000
_symmetry_Int_Tables_number   1
_chemical_formula_structural   Sr2DyBiO6
_chemical_formula_sum   'Sr8 Dy4 Bi4 O24'
_cell_volume   604.65113824
_cell_formula_units_Z   4
loop_
 _symmetry_equiv_pos_site_id
 _symmetry_equiv_pos_as_xyz
  1  'x, y, z'
loop_
 _atom_site_type_symbol
 _atom_site_label
 _atom_site_symmetry_multiplicity
 _atom_site_fract_x
 _atom_site_fract_y
 _atom_site_fract_z
 _atom_site_occupancy
  Sr  Sr0  1  0.50000000  0.50000000  0.50000000  1
  Sr  Sr1  1  0.00000000  0.00000000  0.00000000  1
  Sr  Sr2  1  0.00000000  0.00000000  0.50000000  1
  Sr  Sr3  1  0.00000000  0.50000000  0.00000000  1
  Sr  Sr4  1  0.50000000  0.00000000  0.00000000  1
  Sr  Sr5  1  0.50000000  0.50000000  0.00000000  1
  Sr  Sr6  1  0.50000000  0.00000000  0.50000000  1
  Sr  Sr7  1  0.00000000  0.50000000  0.50000000  1
  Dy  Dy8  1  0.25000000  0.25000000  0.25000000  1
  Dy  Dy9  1  0.25000000  0.75000000  0.75000000  1
  Dy  Dy10  1  0.75000000  0.25000000  0.75000000  1
  Dy  Dy11  1  0.75000000  0.75000000  0.25000000  1
  Bi  Bi12  1  0.75000000  0.75000000  0.75000000  1
  Bi  Bi13  1  0.75000000  0.25000000  0.25000000  1
  Bi  Bi14  1  0.25000000  0.75000000  0.25000000  1
  Bi  Bi15  1  0.25000000  0.25000000  0.75000000  1
  O  O16  1  0.21558400  0.29129742  0.50693165  1
  O  O17  1  0.21558400  0.70870258  0.49306835  1
  O  O18  1  0.78441600  0.29129742  0.49306835  1
  O  O19  1  0.78441600  0.70870258  0.50693165  1
  O  O20  1  0.29129742  0.50693165  0.21558400  1
  O  O21  1  0.70870258  0.49306835  0.21558400  1
  O  O22  1  0.29129742  0.49306835  0.78441600  1
  O  O23  1  0.70870258  0.50693165  0.78441600  1
  O  O24  1  0.50693165  0.21558400  0.29129742  1
  O  O25  1  0.49306835  0.21558400  0.70870258  1
  O  O26  1  0.49306835  0.78441600  0.29129742  1
  O  O27  1  0.50693165  0.78441600  0.70870258  1
  O  O28  1  0.28441600  0.20870258  0.99306835  1
  O  O29  1  0.28441600  0.79129742  0.00693165  1
  O  O30  1  0.71558400  0.20870258  0.00693165  1
  O  O31  1  0.71558400  0.79129742  0.99306835  1
  O  O32  1  0.20870258  0.99306835  0.28441600  1
  O  O33  1  0.79129742  0.00693165  0.28441600  1
  O  O34  1  0.20870258  0.00693165  0.71558400  1
  O  O35  1  0.79129742  0.99306835  0.71558400  1
  O  O36  1  0.99306835  0.28441600  0.20870258  1
  O  O37  1  0.00693165  0.28441600  0.79129742  1
  O  O38  1  0.00693165  0.71558400  0.20870258  1
  O  O39  1  0.99306835  0.71558400  0.79129742  1
