# generated using pymatgen
data_Ba(FeO2)2
_symmetry_space_group_name_H-M   'P 1'
_cell_length_a   10.50038519
_cell_length_b   10.50043286
_cell_length_c   5.41463758
_cell_angle_alpha   89.99990968
_cell_angle_beta   90.00010398
_cell_angle_gamma   132.18728936
_symmetry_Int_Tables_number   1
_chemical_formula_structural   Ba(FeO2)2
_chemical_formula_sum   'Ba4 Fe8 O16'
_cell_volume   442.35692971
_cell_formula_units_Z   4
loop_
 _symmetry_equiv_pos_site_id
 _symmetry_equiv_pos_as_xyz
  1  'x, y, z'
loop_
 _atom_site_type_symbol
 _atom_site_label
 _atom_site_symmetry_multiplicity
 _atom_site_fract_x
 _atom_site_fract_y
 _atom_site_fract_z
 _atom_site_occupancy
  Ba  Ba0  1  0.61735650  0.38264514  0.27534416  1
  Ba  Ba1  1  0.38264335  0.61735439  0.77534233  1
  Ba  Ba2  1  0.13203773  0.86796079  0.23501549  1
  Ba  Ba3  1  0.86796338  0.13204068  0.73501437  1
  Fe  Fe4  1  0.91858542  0.49883988  0.74727718  1
  Fe  Fe5  1  0.08141682  0.50116205  0.24727771  1
  Fe  Fe6  1  0.50116589  0.08142034  0.74727661  1
  Fe  Fe7  1  0.49883728  0.91858118  0.24727520  1
  Fe  Fe8  1  0.76459590  0.67668812  0.76851590  1
  Fe  Fe9  1  0.23540305  0.32331220  0.26851475  1
  Fe  Fe10  1  0.32331164  0.23540553  0.76851605  1
  Fe  Fe11  1  0.67668724  0.76459384  0.26851746  1
  O  O12  1  0.28305021  0.71696036  0.14163351  1
  O  O13  1  0.71695179  0.28303760  0.64163217  1
  O  O14  1  0.45002638  0.54997507  0.25886148  1
  O  O15  1  0.54997172  0.45002329  0.75886093  1
  O  O16  1  0.92077240  0.50335427  0.09564747  1
  O  O17  1  0.07922818  0.49664891  0.59564888  1
  O  O18  1  0.49664211  0.07922884  0.09565484  1
  O  O19  1  0.50335426  0.92077138  0.59565223  1
  O  O20  1  0.92176901  0.66869675  0.62115963  1
  O  O21  1  0.07822869  0.33130109  0.12115864  1
  O  O22  1  0.33130117  0.07822504  0.62115681  1
  O  O23  1  0.66869800  0.92177359  0.12115835  1
  O  O24  1  0.73843404  0.81629155  0.60447172  1
  O  O25  1  0.26156699  0.18370855  0.10447074  1
  O  O26  1  0.18370932  0.26156295  0.60447228  1
  O  O27  1  0.81629152  0.73843661  0.10447110  1
