# generated using pymatgen
data_Sr2P7I
_symmetry_space_group_name_H-M   'P 1'
_cell_length_a   10.03651114
_cell_length_b   10.03651114
_cell_length_c   10.03651114
_cell_angle_alpha   90.00000000
_cell_angle_beta   90.00000000
_cell_angle_gamma   90.00000000
_symmetry_Int_Tables_number   1
_chemical_formula_structural   Sr2P7I
_chemical_formula_sum   'Sr8 P28 I4'
_cell_volume   1010.99338257
_cell_formula_units_Z   4
loop_
 _symmetry_equiv_pos_site_id
 _symmetry_equiv_pos_as_xyz
  1  'x, y, z'
loop_
 _atom_site_type_symbol
 _atom_site_label
 _atom_site_symmetry_multiplicity
 _atom_site_fract_x
 _atom_site_fract_y
 _atom_site_fract_z
 _atom_site_occupancy
  Sr  Sr0  1  0.15438715  0.65438715  0.84561285  1
  Sr  Sr1  1  0.65438715  0.84561285  0.15438715  1
  Sr  Sr2  1  0.84561285  0.15438715  0.65438715  1
  Sr  Sr3  1  0.34561285  0.34561285  0.34561285  1
  Sr  Sr4  1  0.90189183  0.40189183  0.09810817  1
  Sr  Sr5  1  0.40189183  0.09810817  0.90189183  1
  Sr  Sr6  1  0.09810817  0.90189183  0.40189183  1
  Sr  Sr7  1  0.59810817  0.59810817  0.59810817  1
  P  P8  1  0.71900473  0.21900473  0.28099527  1
  P  P9  1  0.21900473  0.28099527  0.71900473  1
  P  P10  1  0.28099527  0.71900473  0.21900473  1
  P  P11  1  0.78099527  0.78099527  0.78099527  1
  P  P12  1  0.30804045  0.46349561  0.64261407  1
  P  P13  1  0.35738593  0.80804045  0.03650439  1
  P  P14  1  0.96349561  0.85738593  0.69195955  1
  P  P15  1  0.80804045  0.03650439  0.35738593  1
  P  P16  1  0.85738593  0.69195955  0.96349561  1
  P  P17  1  0.46349561  0.64261407  0.30804045  1
  P  P18  1  0.69195955  0.96349561  0.85738593  1
  P  P19  1  0.64261407  0.30804045  0.46349561  1
  P  P20  1  0.03650439  0.35738593  0.80804045  1
  P  P21  1  0.19195955  0.53650439  0.14261407  1
  P  P22  1  0.14261407  0.19195955  0.53650439  1
  P  P23  1  0.53650439  0.14261407  0.19195955  1
  P  P24  1  0.35754963  0.45907727  0.03026107  1
  P  P25  1  0.96973893  0.85754963  0.04092273  1
  P  P26  1  0.95907727  0.46973893  0.64245037  1
  P  P27  1  0.85754963  0.04092273  0.96973893  1
  P  P28  1  0.46973893  0.64245037  0.95907727  1
  P  P29  1  0.45907727  0.03026107  0.35754963  1
  P  P30  1  0.64245037  0.95907727  0.46973893  1
  P  P31  1  0.03026107  0.35754963  0.45907727  1
  P  P32  1  0.04092273  0.96973893  0.85754963  1
  P  P33  1  0.14245037  0.54092273  0.53026107  1
  P  P34  1  0.53026107  0.14245037  0.54092273  1
  P  P35  1  0.54092273  0.53026107  0.14245037  1
  I  I36  1  0.34826026  0.84826026  0.65173974  1
  I  I37  1  0.84826026  0.65173974  0.34826026  1
  I  I38  1  0.65173974  0.34826026  0.84826026  1
  I  I39  1  0.15173974  0.15173974  0.15173974  1
