# generated using pymatgen
data_Y2ZrS5
_symmetry_space_group_name_H-M   'P 1'
_cell_length_a   7.26340286
_cell_length_b   7.75609859
_cell_length_c   11.58471498
_cell_angle_alpha   90.00000000
_cell_angle_beta   90.00000000
_cell_angle_gamma   90.00000000
_symmetry_Int_Tables_number   1
_chemical_formula_structural   Y2ZrS5
_chemical_formula_sum   'Y8 Zr4 S20'
_cell_volume   652.63266488
_cell_formula_units_Z   4
loop_
 _symmetry_equiv_pos_site_id
 _symmetry_equiv_pos_as_xyz
  1  'x, y, z'
loop_
 _atom_site_type_symbol
 _atom_site_label
 _atom_site_symmetry_multiplicity
 _atom_site_fract_x
 _atom_site_fract_y
 _atom_site_fract_z
 _atom_site_occupancy
  Y  Y0  1  0.52143806  0.49753388  0.32093100  1
  Y  Y1  1  0.97856194  0.00246612  0.82093100  1
  Y  Y2  1  0.47856194  0.99753388  0.67906900  1
  Y  Y3  1  0.02143806  0.50246612  0.17906900  1
  Y  Y4  1  0.47856194  0.50246612  0.67906900  1
  Y  Y5  1  0.02143806  0.99753388  0.17906900  1
  Y  Y6  1  0.52143806  0.00246612  0.32093100  1
  Y  Y7  1  0.97856194  0.49753388  0.82093100  1
  Zr  Zr8  1  0.07752142  0.75000000  0.49380299  1
  Zr  Zr9  1  0.42247858  0.75000000  0.99380299  1
  Zr  Zr10  1  0.92247858  0.25000000  0.50619701  1
  Zr  Zr11  1  0.57752142  0.25000000  0.00619701  1
  S  S12  1  0.83945494  0.96328295  0.59440067  1
  S  S13  1  0.66054506  0.53671705  0.09440067  1
  S  S14  1  0.16054506  0.46328295  0.40559933  1
  S  S15  1  0.33945494  0.03671705  0.90559933  1
  S  S16  1  0.16054506  0.03671705  0.40559933  1
  S  S17  1  0.33945494  0.46328295  0.90559933  1
  S  S18  1  0.83945494  0.53671705  0.59440067  1
  S  S19  1  0.66054506  0.96328295  0.09440067  1
  S  S20  1  0.83152321  0.75000000  0.31831311  1
  S  S21  1  0.66847679  0.75000000  0.81831311  1
  S  S22  1  0.16847679  0.25000000  0.68168689  1
  S  S23  1  0.33152321  0.25000000  0.18168689  1
  S  S24  1  0.44882143  0.75000000  0.49725349  1
  S  S25  1  0.05117857  0.75000000  0.99725349  1
  S  S26  1  0.55117857  0.25000000  0.50274651  1
  S  S27  1  0.94882143  0.25000000  0.00274651  1
  S  S28  1  0.19044144  0.75000000  0.70815945  1
  S  S29  1  0.30955856  0.75000000  0.20815945  1
  S  S30  1  0.80955856  0.25000000  0.29184055  1
  S  S31  1  0.69044144  0.25000000  0.79184055  1
