# generated using pymatgen
data_YMnGaO5
_symmetry_space_group_name_H-M   'P 1'
_cell_length_a   5.66989419
_cell_length_b   7.27204213
_cell_length_c   8.46281324
_cell_angle_alpha   90.00000000
_cell_angle_beta   90.00000000
_cell_angle_gamma   90.00000000
_symmetry_Int_Tables_number   1
_chemical_formula_structural   YMnGaO5
_chemical_formula_sum   'Y4 Mn4 Ga4 O20'
_cell_volume   348.93625641
_cell_formula_units_Z   4
loop_
 _symmetry_equiv_pos_site_id
 _symmetry_equiv_pos_as_xyz
  1  'x, y, z'
loop_
 _atom_site_type_symbol
 _atom_site_label
 _atom_site_symmetry_multiplicity
 _atom_site_fract_x
 _atom_site_fract_y
 _atom_site_fract_z
 _atom_site_occupancy
  Y  Y0  1  0.50000000  0.36609407  0.33096375  1
  Y  Y1  1  0.50000000  0.63390593  0.66903625  1
  Y  Y2  1  0.50000000  0.13390593  0.83096375  1
  Y  Y3  1  0.50000000  0.86609407  0.16903625  1
  Mn  Mn4  1  0.24847692  0.00000000  0.50000000  1
  Mn  Mn5  1  0.75152308  0.00000000  0.50000000  1
  Mn  Mn6  1  0.75152308  0.50000000  0.00000000  1
  Mn  Mn7  1  0.24847692  0.50000000  -0.00000000  1
  Ga  Ga8  1  -0.00000000  0.10824282  0.14633193  1
  Ga  Ga9  1  -0.00000000  0.89175718  0.85366807  1
  Ga  Ga10  1  -0.00000000  0.39175718  0.64633193  1
  Ga  Ga11  1  -0.00000000  0.60824282  0.35366807  1
  O  O12  1  0.50000000  0.33974875  0.05716375  1
  O  O13  1  0.50000000  0.66025125  0.94283625  1
  O  O14  1  0.50000000  0.16025125  0.55716375  1
  O  O15  1  0.50000000  0.83974875  0.44283625  1
  O  O16  1  0.22867210  0.00000000  0.00000000  1
  O  O17  1  0.77132790  0.00000000  -0.00000000  1
  O  O18  1  0.77132790  0.50000000  0.50000000  1
  O  O19  1  0.22867210  0.50000000  0.50000000  1
  O  O20  1  0.25648286  0.10666183  0.29544166  1
  O  O21  1  0.74351714  0.89333817  0.70455834  1
  O  O22  1  0.25648286  0.89333817  0.70455834  1
  O  O23  1  0.74351714  0.39333817  0.79544166  1
  O  O24  1  0.74351714  0.10666183  0.29544166  1
  O  O25  1  0.25648286  0.60666183  0.20455834  1
  O  O26  1  0.74351714  0.60666183  0.20455834  1
  O  O27  1  0.25648286  0.39333817  0.79544166  1
  O  O28  1  -0.00000000  0.35011083  0.07035017  1
  O  O29  1  -0.00000000  0.64988917  0.92964983  1
  O  O30  1  -0.00000000  0.14988917  0.57035017  1
  O  O31  1  -0.00000000  0.85011083  0.42964983  1
