# generated using pymatgen
data_BaMg2Si2O7
_symmetry_space_group_name_H-M   'P 1'
_cell_length_a   7.30646230
_cell_length_b   7.30646230
_cell_length_c   13.79650089
_cell_angle_alpha   89.90779092
_cell_angle_beta   89.90779092
_cell_angle_gamma   120.62646532
_symmetry_Int_Tables_number   1
_chemical_formula_structural   BaMg2Si2O7
_chemical_formula_sum   'Ba4 Mg8 Si8 O28'
_cell_volume   633.77523585
_cell_formula_units_Z   4
loop_
 _symmetry_equiv_pos_site_id
 _symmetry_equiv_pos_as_xyz
  1  'x, y, z'
loop_
 _atom_site_type_symbol
 _atom_site_label
 _atom_site_symmetry_multiplicity
 _atom_site_fract_x
 _atom_site_fract_y
 _atom_site_fract_z
 _atom_site_occupancy
  Ba  Ba0  1  0.81985830  0.78296215  0.12045529  1
  Ba  Ba1  1  0.21703785  0.18014170  0.37954471  1
  Ba  Ba2  1  0.18014170  0.21703785  0.87954471  1
  Ba  Ba3  1  0.78296215  0.81985830  0.62045529  1
  Mg  Mg4  1  0.76917041  0.23082959  0.25000000  1
  Mg  Mg5  1  0.23082959  0.76917041  0.75000000  1
  Mg  Mg6  1  0.22992526  0.77007474  0.25000000  1
  Mg  Mg7  1  0.77007474  0.22992526  0.75000000  1
  Mg  Mg8  1  0.19544157  0.72574975  0.50902694  1
  Mg  Mg9  1  0.27425025  0.80455843  0.99097306  1
  Mg  Mg10  1  0.80455843  0.27425025  0.49097306  1
  Mg  Mg11  1  0.72574975  0.19544157  0.00902694  1
  Si  Si12  1  0.58697038  0.84110283  0.36650593  1
  Si  Si13  1  0.15889717  0.41302962  0.13349407  1
  Si  Si14  1  0.41302962  0.15889717  0.63349407  1
  Si  Si15  1  0.84110283  0.58697038  0.86650593  1
  Si  Si16  1  0.78038361  0.57128003  0.37939523  1
  Si  Si17  1  0.42871997  0.21961639  0.12060477  1
  Si  Si18  1  0.21961639  0.42871997  0.62060477  1
  Si  Si19  1  0.57128003  0.78038361  0.87939523  1
  O  O20  1  0.34985234  0.80157444  0.38611625  1
  O  O21  1  0.19842556  0.65014766  0.11388375  1
  O  O22  1  0.65014766  0.19842556  0.61388375  1
  O  O23  1  0.80157444  0.34985234  0.88611625  1
  O  O24  1  0.94573213  0.71426462  0.29626551  1
  O  O25  1  0.28573538  0.05426787  0.20373449  1
  O  O26  1  0.05426787  0.28573538  0.70373449  1
  O  O27  1  0.71426462  0.94573213  0.79626551  1
  O  O28  1  0.88742678  0.60816009  0.48598742  1
  O  O29  1  0.39183991  0.11257322  0.01401258  1
  O  O30  1  0.11257322  0.39183991  0.51401258  1
  O  O31  1  0.60816009  0.88742678  0.98598742  1
  O  O32  1  0.67435816  0.31462511  0.36539885  1
  O  O33  1  0.68537489  0.32564184  0.13460115  1
  O  O34  1  0.32564184  0.68537489  0.63460115  1
  O  O35  1  0.31462511  0.67435816  0.86539885  1
  O  O36  1  0.57429169  0.60807071  0.37956306  1
  O  O37  1  0.39192929  0.42570831  0.12043694  1
  O  O38  1  0.42570831  0.39192929  0.62043694  1
  O  O39  1  0.60807071  0.57429169  0.87956306  1
  O  O40  1  0.63577548  0.91951178  0.25397032  1
  O  O41  1  0.08048822  0.36422452  0.24602968  1
  O  O42  1  0.36422452  0.08048822  0.74602968  1
  O  O43  1  0.91951178  0.63577548  0.75397032  1
  O  O44  1  0.76928758  0.00133179  0.44093208  1
  O  O45  1  -0.00133179  0.23071242  0.05906792  1
  O  O46  1  0.23071242  -0.00133179  0.55906792  1
  O  O47  1  0.00133179  0.76928758  0.94093208  1
