# generated using pymatgen
data_Sr2H3I
_symmetry_space_group_name_H-M   'P 1'
_cell_length_a   4.24274507
_cell_length_b   4.24271246
_cell_length_c   7.68274743
_cell_angle_alpha   89.99985112
_cell_angle_beta   89.99992834
_cell_angle_gamma   119.99992478
_symmetry_Int_Tables_number   1
_chemical_formula_structural   Sr2H3I
_chemical_formula_sum   'Sr2 H3 I1'
_cell_volume   119.76724353
_cell_formula_units_Z   1
loop_
 _symmetry_equiv_pos_site_id
 _symmetry_equiv_pos_as_xyz
  1  'x, y, z'
loop_
 _atom_site_type_symbol
 _atom_site_label
 _atom_site_symmetry_multiplicity
 _atom_site_fract_x
 _atom_site_fract_y
 _atom_site_fract_z
 _atom_site_occupancy
  Sr  Sr0  1  0.66666905  0.33333502  0.67865529  1
  Sr  Sr1  1  0.33333095  0.66666498  0.32134471  1
  H  H2  1  0.00000000  0.00000000  0.50000000  1
  H  H3  1  0.66666662  0.33333281  0.35725150  1
  H  H4  1  0.33333338  0.66666719  0.64274850  1
  I  I5  1  0.00000000  0.00000000  -0.00000000  1
