# generated using pymatgen
data_Ti2Bi2O7
_symmetry_space_group_name_H-M   'P 1'
_cell_length_a   7.35982027
_cell_length_b   7.41662354
_cell_length_c   10.39652115
_cell_angle_alpha   90.00000000
_cell_angle_beta   90.00000000
_cell_angle_gamma   90.00000000
_symmetry_Int_Tables_number   1
_chemical_formula_structural   Ti2Bi2O7
_chemical_formula_sum   'Ti8 Bi8 O28'
_cell_volume   567.49427607
_cell_formula_units_Z   4
loop_
 _symmetry_equiv_pos_site_id
 _symmetry_equiv_pos_as_xyz
  1  'x, y, z'
loop_
 _atom_site_type_symbol
 _atom_site_label
 _atom_site_symmetry_multiplicity
 _atom_site_fract_x
 _atom_site_fract_y
 _atom_site_fract_z
 _atom_site_occupancy
  Ti  Ti0  1  0.00478884  0.00497990  0.00871874  1
  Ti  Ti1  1  0.99521116  0.50497990  0.99128126  1
  Ti  Ti2  1  0.49521116  0.50497990  0.50871874  1
  Ti  Ti3  1  0.50478884  0.00497990  0.49128126  1
  Ti  Ti4  1  0.24424671  0.24602696  0.74047920  1
  Ti  Ti5  1  0.75575329  0.74602696  0.25952080  1
  Ti  Ti6  1  0.25575329  0.74602696  0.24047920  1
  Ti  Ti7  1  0.74424671  0.24602696  0.75952080  1
  Bi  Bi8  1  0.02691105  0.97561210  0.46853006  1
  Bi  Bi9  1  0.97308895  0.47561210  0.53146994  1
  Bi  Bi10  1  0.47308895  0.47561210  0.96853006  1
  Bi  Bi11  1  0.52691105  0.97561210  0.03146994  1
  Bi  Bi12  1  0.27517180  0.29549506  0.26201363  1
  Bi  Bi13  1  0.72482820  0.79549506  0.73798637  1
  Bi  Bi14  1  0.22482820  0.79549506  0.76201363  1
  Bi  Bi15  1  0.77517180  0.29549506  0.23798637  1
  O  O16  1  0.19337965  0.43146469  0.87859711  1
  O  O17  1  0.80662035  0.93146469  0.12140289  1
  O  O18  1  0.30662035  0.93146469  0.37859711  1
  O  O19  1  0.69337965  0.43146469  0.62140289  1
  O  O20  1  0.70300542  0.93051690  0.38435435  1
  O  O21  1  0.29699458  0.43051690  0.61564565  1
  O  O22  1  0.79699458  0.43051690  0.88435435  1
  O  O23  1  0.20300542  0.93051690  0.11564565  1
  O  O24  1  0.79429802  0.04467600  0.87456277  1
  O  O25  1  0.20570198  0.54467600  0.12543723  1
  O  O26  1  0.70570198  0.54467600  0.37456277  1
  O  O27  1  0.29429802  0.04467600  0.62543723  1
  O  O28  1  0.32511849  0.55072292  0.36498963  1
  O  O29  1  0.67488151  0.05072292  0.63501037  1
  O  O30  1  0.17488151  0.05072292  0.86498963  1
  O  O31  1  0.82511849  0.55072292  0.13501037  1
  O  O32  1  0.99105359  0.26094959  0.68366898  1
  O  O33  1  0.00894641  0.76094959  0.31633102  1
  O  O34  1  0.50894641  0.76094959  0.18366898  1
  O  O35  1  0.49105359  0.26094959  0.81633102  1
  O  O36  1  0.50535115  0.74212581  0.57305420  1
  O  O37  1  0.49464885  0.24212581  0.42694580  1
  O  O38  1  0.99464885  0.24212581  0.07305420  1
  O  O39  1  0.00535115  0.74212581  0.92694580  1
  O  O40  1  0.98611934  0.76731007  0.62129819  1
  O  O41  1  0.01388066  0.26731007  0.37870181  1
  O  O42  1  0.51388066  0.26731007  0.12129819  1
  O  O43  1  0.48611934  0.76731007  0.87870181  1
