# generated using pymatgen
data_K4ZrO4
_symmetry_space_group_name_H-M   'P 1'
_cell_length_a   6.55368005
_cell_length_b   6.56060254
_cell_length_c   9.77620098
_cell_angle_alpha   72.07487280
_cell_angle_beta   80.15566697
_cell_angle_gamma   67.13478920
_symmetry_Int_Tables_number   1
_chemical_formula_structural   K4ZrO4
_chemical_formula_sum   'K8 Zr2 O8'
_cell_volume   367.87524741
_cell_formula_units_Z   2
loop_
 _symmetry_equiv_pos_site_id
 _symmetry_equiv_pos_as_xyz
  1  'x, y, z'
loop_
 _atom_site_type_symbol
 _atom_site_label
 _atom_site_symmetry_multiplicity
 _atom_site_fract_x
 _atom_site_fract_y
 _atom_site_fract_z
 _atom_site_occupancy
  K  K0  1  0.77560555  0.04188773  0.38556600  1
  K  K1  1  0.22439445  0.95811227  0.61443400  1
  K  K2  1  0.74009278  0.58827465  0.17175905  1
  K  K3  1  0.25990722  0.41172535  0.82824095  1
  K  K4  1  0.24125809  0.76081261  0.02461323  1
  K  K5  1  0.75874191  0.23918739  0.97538677  1
  K  K6  1  0.27345103  0.51402438  0.44066016  1
  K  K7  1  0.72654897  0.48597562  0.55933984  1
  Zr  Zr8  1  0.27998423  0.15364505  0.24441122  1
  Zr  Zr9  1  0.72001577  0.84635495  0.75558878  1
  O  O10  1  0.03776772  0.28983477  0.37725890  1
  O  O11  1  0.96223228  0.71016523  0.62274110  1
  O  O12  1  0.53840319  0.15855770  0.64578307  1
  O  O13  1  0.46159681  0.84144230  0.35421693  1
  O  O14  1  0.46755538  0.34441516  0.19336059  1
  O  O15  1  0.53244462  0.65558484  0.80663941  1
  O  O16  1  0.14034066  0.15949122  0.07881025  1
  O  O17  1  0.85965934  0.84050878  0.92118975  1
