# generated using pymatgen
data_Th(SeO3)2
_symmetry_space_group_name_H-M   'P 1'
_cell_length_a   10.87935319
_cell_length_b   7.20229460
_cell_length_c   8.67355560
_cell_angle_alpha   54.70461733
_cell_angle_beta   90.00000000
_cell_angle_gamma   90.00000000
_symmetry_Int_Tables_number   1
_chemical_formula_structural   Th(SeO3)2
_chemical_formula_sum   'Th4 Se8 O24'
_cell_volume   554.70142847
_cell_formula_units_Z   4
loop_
 _symmetry_equiv_pos_site_id
 _symmetry_equiv_pos_as_xyz
  1  'x, y, z'
loop_
 _atom_site_type_symbol
 _atom_site_label
 _atom_site_symmetry_multiplicity
 _atom_site_fract_x
 _atom_site_fract_y
 _atom_site_fract_z
 _atom_site_occupancy
  Th  Th0  1  0.90171251  0.75412831  0.98502625  1
  Th  Th1  1  0.59828749  0.75412831  0.48502625  1
  Th  Th2  1  0.09828749  0.24587169  0.01497375  1
  Th  Th3  1  0.40171251  0.24587169  0.51497375  1
  Se  Se4  1  0.56728866  0.71546512  0.06098884  1
  Se  Se5  1  0.93271134  0.71546512  0.56098884  1
  Se  Se6  1  0.43271134  0.28453488  0.93901116  1
  Se  Se7  1  0.06728866  0.28453488  0.43901116  1
  Se  Se8  1  0.21479521  0.80403701  0.93521440  1
  Se  Se9  1  0.28520479  0.80403701  0.43521440  1
  Se  Se10  1  0.78520479  0.19596299  0.06478560  1
  Se  Se11  1  0.71479521  0.19596299  0.56478560  1
  O  O12  1  0.10181024  0.98804181  0.91597489  1
  O  O13  1  0.39818976  0.98804181  0.41597489  1
  O  O14  1  0.89818976  0.01195819  0.08402511  1
  O  O15  1  0.60181024  0.01195819  0.58402511  1
  O  O16  1  0.47847341  0.48104052  0.20889511  1
  O  O17  1  0.02152659  0.48104052  0.70889511  1
  O  O18  1  0.52152659  0.51895948  0.79110489  1
  O  O19  1  0.97847341  0.51895948  0.29110489  1
  O  O20  1  0.10537433  0.61656813  0.95620067  1
  O  O21  1  0.39462567  0.61656813  0.45620067  1
  O  O22  1  0.89462567  0.38343187  0.04379933  1
  O  O23  1  0.60537433  0.38343187  0.54379933  1
  O  O24  1  0.25885839  0.93892460  0.70868804  1
  O  O25  1  0.24114161  0.93892460  0.20868804  1
  O  O26  1  0.74114161  0.06107540  0.29131196  1
  O  O27  1  0.75885839  0.06107540  0.79131196  1
  O  O28  1  0.70814600  0.59094127  0.09738828  1
  O  O29  1  0.79185400  0.59094127  0.59738828  1
  O  O30  1  0.29185400  0.40905873  0.90261172  1
  O  O31  1  0.20814600  0.40905873  0.40261172  1
  O  O32  1  0.59039064  0.83621767  0.18100889  1
  O  O33  1  0.90960936  0.83621767  0.68100889  1
  O  O34  1  0.40960936  0.16378233  0.81899111  1
  O  O35  1  0.09039064  0.16378233  0.31899111  1
