# generated using pymatgen
data_Na6Ni3B9P6H3O38
_symmetry_space_group_name_H-M   'P 1'
_cell_length_a   11.81013017
_cell_length_b   11.81397715
_cell_length_c   12.19898083
_cell_angle_alpha   90.00000000
_cell_angle_beta   90.00000000
_cell_angle_gamma   120.00018583
_symmetry_Int_Tables_number   1
_chemical_formula_structural   Na6Ni3B9P6H3O38
_chemical_formula_sum   'Na12 Ni6 B18 P12 H6 O76'
_cell_volume   1474.02272130
_cell_formula_units_Z   2
loop_
 _symmetry_equiv_pos_site_id
 _symmetry_equiv_pos_as_xyz
  1  'x, y, z'
loop_
 _atom_site_type_symbol
 _atom_site_label
 _atom_site_symmetry_multiplicity
 _atom_site_fract_x
 _atom_site_fract_y
 _atom_site_fract_z
 _atom_site_occupancy
  Na  Na0  1  0.71908961  0.70148529  0.02880551  1
  Na  Na1  1  0.29867429  0.01746350  0.02874513  1
  Na  Na2  1  0.98260703  0.28122175  0.02872968  1
  Na  Na3  1  0.28091039  0.29851471  0.52880551  1
  Na  Na4  1  0.70132571  0.98253650  0.52874513  1
  Na  Na5  1  0.01739297  0.71877825  0.52872968  1
  Na  Na6  1  0.66686866  0.33328086  0.38087533  1
  Na  Na7  1  0.33313134  0.66671914  0.88087533  1
  Na  Na8  1  0.33317502  0.66650855  0.37301891  1
  Na  Na9  1  0.66682498  0.33349145  0.87301891  1
  Na  Na10  1  0.99980915  0.99979702  0.98530081  1
  Na  Na11  1  0.00019085  0.00020298  0.48530081  1
  Ni  Ni12  1  0.99700627  0.50097211  0.28108174  1
  Ni  Ni13  1  0.49900861  0.49595073  0.28130091  1
  Ni  Ni14  1  0.50407649  0.00293748  0.28117725  1
  Ni  Ni15  1  0.00299373  0.49902789  0.78108174  1
  Ni  Ni16  1  0.50099139  0.50404927  0.78130091  1
  Ni  Ni17  1  0.49592351  0.99706252  0.78117725  1
  B  B18  1  0.03801476  0.74914002  0.13225636  1
  B  B19  1  0.25143426  0.28910584  0.13220813  1
  B  B20  1  0.71128465  0.96214235  0.13221729  1
  B  B21  1  0.96198524  0.25085998  0.63225636  1
  B  B22  1  0.74856574  0.71089416  0.63220813  1
  B  B23  1  0.28871535  0.03785765  0.63221729  1
  B  B24  1  0.29597890  0.04299659  0.43053287  1
  B  B25  1  0.95675404  0.25289822  0.43046121  1
  B  B26  1  0.74652483  0.70366996  0.43059837  1
  B  B27  1  0.70402110  0.95700341  0.93053287  1
  B  B28  1  0.04324596  0.74710178  0.93046121  1
  B  B29  1  0.25347517  0.29633004  0.93059837  1
  B  B30  1  0.08800890  0.59332098  0.03545520  1
  B  B31  1  0.40752333  0.49486951  0.03550436  1
  B  B32  1  0.50541081  0.91213350  0.03547399  1
  B  B33  1  0.91199110  0.40667902  0.53545520  1
  B  B34  1  0.59247667  0.50513049  0.53550436  1
  B  B35  1  0.49458919  0.08786650  0.53547399  1
  P  P36  1  0.18738043  0.80735815  0.31615170  1
  P  P37  1  0.19271328  0.37996234  0.31612546  1
  P  P38  1  0.62019153  0.81279594  0.31603311  1
  P  P39  1  0.81261957  0.19264185  0.81615170  1
  P  P40  1  0.80728672  0.62003766  0.81612546  1
  P  P41  1  0.37980847  0.18720406  0.81603311  1
  P  P42  1  0.81381279  0.19674913  0.24230612  1
  P  P43  1  0.80310074  0.61708068  0.24241341  1
  P  P44  1  0.38285399  0.18608553  0.24246944  1
  P  P45  1  0.18618721  0.80325087  0.74230612  1
  P  P46  1  0.19689926  0.38291932  0.74241341  1
  P  P47  1  0.61714601  0.81391447  0.74246944  1
  H  H48  1  0.16482998  0.50575550  0.11705173  1
  H  H49  1  0.49419936  0.65911595  0.11712058  1
  H  H50  1  0.34099961  0.83512391  0.11707194  1
  H  H51  1  0.83517002  0.49424450  0.61705173  1
  H  H52  1  0.50580064  0.34088405  0.61712058  1
  H  H53  1  0.65900039  0.16487609  0.61707194  1
  O  O54  1  0.11377425  0.83673500  0.22344904  1
  O  O55  1  0.16398342  0.27735541  0.22341571  1
  O  O56  1  0.72323334  0.88655873  0.22350833  1
  O  O57  1  0.88622575  0.16326500  0.72344904  1
  O  O58  1  0.83601658  0.72264459  0.72341571  1
  O  O59  1  0.27676666  0.11344127  0.72350833  1
  O  O60  1  0.80580615  0.10290602  0.14780721  1
  O  O61  1  0.89721981  0.70307263  0.14805620  1
  O  O62  1  0.29713960  0.19425488  0.14783761  1
  O  O63  1  0.19419385  0.89709398  0.64780721  1
  O  O64  1  0.10278019  0.29692737  0.64805620  1
  O  O65  1  0.70286040  0.80574512  0.64783761  1
  O  O66  1  0.20143682  0.90076192  0.41289725  1
  O  O67  1  0.09908813  0.30047094  0.41270232  1
  O  O68  1  0.69926456  0.79845392  0.41286728  1
  O  O69  1  0.79856318  0.09923808  0.91289725  1
  O  O70  1  0.90091187  0.69952906  0.91270232  1
  O  O71  1  0.30073544  0.20154608  0.91286728  1
  O  O72  1  0.88205605  0.16583486  0.34000317  1
  O  O73  1  0.83353645  0.71595051  0.34016284  1
  O  O74  1  0.28352850  0.11757346  0.33999760  1
  O  O75  1  0.11794395  0.83416514  0.84000317  1
  O  O76  1  0.16646355  0.28404949  0.84016284  1
  O  O77  1  0.71647150  0.88242654  0.83999760  1
  O  O78  1  0.05895196  0.63292455  0.13235095  1
  O  O79  1  0.36801925  0.42611104  0.13239042  1
  O  O80  1  0.57410730  0.94122448  0.13234554  1
  O  O81  1  0.94104804  0.36707545  0.63235095  1
  O  O82  1  0.63198075  0.57388896  0.63239042  1
  O  O83  1  0.42589270  0.05877552  0.63234554  1
  O  O84  1  0.93522190  0.36956265  0.43451888  1
  O  O85  1  0.62951352  0.56560876  0.43456145  1
  O  O86  1  0.43416947  0.06447573  0.43457913  1
  O  O87  1  0.06477810  0.63043735  0.93451888  1
  O  O88  1  0.37048648  0.43439124  0.93456145  1
  O  O89  1  0.56583053  0.93552427  0.93457913  1
  O  O90  1  0.10550193  0.67054937  0.36612375  1
  O  O91  1  0.32963050  0.43517464  0.36618558  1
  O  O92  1  0.56529141  0.89467352  0.36609403  1
  O  O93  1  0.89449807  0.32945063  0.86612375  1
  O  O94  1  0.67036950  0.56482536  0.86618558  1
  O  O95  1  0.43470859  0.10532648  0.86609403  1
  O  O96  1  0.90352448  0.33324288  0.19482173  1
  O  O97  1  0.66665879  0.57016785  0.19492394  1
  O  O98  1  0.42948412  0.09620907  0.19488576  1
  O  O99  1  0.09647552  0.66675712  0.69482173  1
  O  O100  1  0.33334121  0.42983215  0.69492394  1
  O  O101  1  0.57051588  0.90379093  0.69488576  1
  O  O102  1  0.08159628  0.82160970  0.03090119  1
  O  O103  1  0.17887914  0.26037510  0.03094829  1
  O  O104  1  0.74033188  0.91864152  0.03089033  1
  O  O105  1  0.91840372  0.17839030  0.53090119  1
  O  O106  1  0.82112086  0.73962490  0.53094829  1
  O  O107  1  0.25966812  0.08135848  0.53089033  1
  O  O108  1  0.32046404  0.83234691  0.27312832  1
  O  O109  1  0.16754706  0.48789259  0.27309934  1
  O  O110  1  0.51214393  0.67975658  0.27283450  1
  O  O111  1  0.67953596  0.16765309  0.77312832  1
  O  O112  1  0.83245294  0.51210741  0.77309934  1
  O  O113  1  0.48785607  0.32024342  0.77283450  1
  O  O114  1  0.82930993  0.50970010  0.28104068  1
  O  O115  1  0.49011920  0.31937000  0.28121804  1
  O  O116  1  0.68032191  0.17070903  0.28095847  1
  O  O117  1  0.17069007  0.49029990  0.78104068  1
  O  O118  1  0.50988080  0.68063000  0.78121804  1
  O  O119  1  0.31967809  0.82929097  0.78095847  1
  O  O120  1  0.14520969  0.51564566  0.03962188  1
  O  O121  1  0.48464003  0.62967012  0.03963725  1
  O  O122  1  0.37050534  0.85469938  0.03961612  1
  O  O123  1  0.85479031  0.48435434  0.53962188  1
  O  O124  1  0.51535997  0.37032988  0.53963725  1
  O  O125  1  0.62949466  0.14530062  0.53961612  1
  O  O126  1  0.66660058  0.33335970  0.07701958  1
  O  O127  1  0.33339942  0.66664030  0.57701958  1
  O  O128  1  0.99998484  0.99997864  0.78250378  1
  O  O129  1  0.00001516  0.00002136  0.28250378  1
