# generated using pymatgen
data_CsTm2Cl7
_symmetry_space_group_name_H-M   'P 1'
_cell_length_a   6.89701224
_cell_length_b   12.47929153
_cell_length_c   13.66582839
_cell_angle_alpha   90.00000000
_cell_angle_beta   90.00000000
_cell_angle_gamma   90.00000000
_symmetry_Int_Tables_number   1
_chemical_formula_structural   CsTm2Cl7
_chemical_formula_sum   'Cs4 Tm8 Cl28'
_cell_volume   1176.21547753
_cell_formula_units_Z   4
loop_
 _symmetry_equiv_pos_site_id
 _symmetry_equiv_pos_as_xyz
  1  'x, y, z'
loop_
 _atom_site_type_symbol
 _atom_site_label
 _atom_site_symmetry_multiplicity
 _atom_site_fract_x
 _atom_site_fract_y
 _atom_site_fract_z
 _atom_site_occupancy
  Cs  Cs0  1  0.25000000  0.79694157  0.03757700  1
  Cs  Cs1  1  0.75000000  0.20305843  0.96242300  1
  Cs  Cs2  1  0.75000000  0.29694157  0.46242300  1
  Cs  Cs3  1  0.25000000  0.70305843  0.53757700  1
  Tm  Tm4  1  0.25000000  0.45259186  0.24310372  1
  Tm  Tm5  1  0.75000000  0.54740814  0.75689628  1
  Tm  Tm6  1  0.75000000  0.95259186  0.25689628  1
  Tm  Tm7  1  0.25000000  0.04740814  0.74310372  1
  Tm  Tm8  1  0.25000000  0.14918236  0.25012113  1
  Tm  Tm9  1  0.75000000  0.85081764  0.74987887  1
  Tm  Tm10  1  0.75000000  0.64918236  0.24987887  1
  Tm  Tm11  1  0.25000000  0.35081764  0.75012113  1
  Cl  Cl12  1  0.00926030  0.29992352  0.18313044  1
  Cl  Cl13  1  0.99073970  0.70007648  0.81686956  1
  Cl  Cl14  1  0.99073970  0.79992352  0.31686956  1
  Cl  Cl15  1  0.50926030  0.70007648  0.81686956  1
  Cl  Cl16  1  0.00926030  0.20007648  0.68313044  1
  Cl  Cl17  1  0.49073970  0.29992352  0.18313044  1
  Cl  Cl18  1  0.49073970  0.20007648  0.68313044  1
  Cl  Cl19  1  0.50926030  0.79992352  0.31686956  1
  Cl  Cl20  1  0.00900918  0.56590735  0.12934089  1
  Cl  Cl21  1  0.99099082  0.43409265  0.87065911  1
  Cl  Cl22  1  0.99099082  0.06590735  0.37065911  1
  Cl  Cl23  1  0.50900918  0.43409265  0.87065911  1
  Cl  Cl24  1  0.00900918  0.93409265  0.62934089  1
  Cl  Cl25  1  0.49099082  0.56590735  0.12934089  1
  Cl  Cl26  1  0.49099082  0.93409265  0.62934089  1
  Cl  Cl27  1  0.50900918  0.06590735  0.37065911  1
  Cl  Cl28  1  0.00989687  0.03487373  0.13422808  1
  Cl  Cl29  1  0.99010313  0.96512627  0.86577192  1
  Cl  Cl30  1  0.99010313  0.53487373  0.36577192  1
  Cl  Cl31  1  0.50989687  0.96512627  0.86577192  1
  Cl  Cl32  1  0.00989687  0.46512627  0.63422808  1
  Cl  Cl33  1  0.49010313  0.03487373  0.13422808  1
  Cl  Cl34  1  0.49010313  0.46512627  0.63422808  1
  Cl  Cl35  1  0.50989687  0.53487373  0.36577192  1
  Cl  Cl36  1  0.25000000  0.30262805  0.38982705  1
  Cl  Cl37  1  0.75000000  0.69737195  0.61017295  1
  Cl  Cl38  1  0.75000000  0.80262805  0.11017295  1
  Cl  Cl39  1  0.25000000  0.19737195  0.88982705  1
