# generated using pymatgen
data_RbHo2Cl7
_symmetry_space_group_name_H-M   'P 1'
_cell_length_a   6.91332307
_cell_length_b   12.56147361
_cell_length_c   13.07502911
_cell_angle_alpha   90.00000000
_cell_angle_beta   90.00000000
_cell_angle_gamma   90.00000000
_symmetry_Int_Tables_number   1
_chemical_formula_structural   RbHo2Cl7
_chemical_formula_sum   'Rb4 Ho8 Cl28'
_cell_volume   1135.45547127
_cell_formula_units_Z   4
loop_
 _symmetry_equiv_pos_site_id
 _symmetry_equiv_pos_as_xyz
  1  'x, y, z'
loop_
 _atom_site_type_symbol
 _atom_site_label
 _atom_site_symmetry_multiplicity
 _atom_site_fract_x
 _atom_site_fract_y
 _atom_site_fract_z
 _atom_site_occupancy
  Rb  Rb0  1  0.25000000  0.80448474  0.04065548  1
  Rb  Rb1  1  0.75000000  0.19551526  0.95934452  1
  Rb  Rb2  1  0.75000000  0.30448474  0.45934452  1
  Rb  Rb3  1  0.25000000  0.69551526  0.54065548  1
  Ho  Ho4  1  0.25000000  0.45990885  0.23772054  1
  Ho  Ho5  1  0.75000000  0.54009115  0.76227946  1
  Ho  Ho6  1  0.75000000  0.95990885  0.26227946  1
  Ho  Ho7  1  0.25000000  0.04009115  0.73772054  1
  Ho  Ho8  1  0.25000000  0.15714816  0.24860942  1
  Ho  Ho9  1  0.75000000  0.84285184  0.75139058  1
  Ho  Ho10  1  0.75000000  0.65714816  0.25139058  1
  Ho  Ho11  1  0.25000000  0.34285184  0.74860942  1
  Cl  Cl12  1  0.00738590  0.30689178  0.17482058  1
  Cl  Cl13  1  0.99261410  0.69310822  0.82517942  1
  Cl  Cl14  1  0.99261410  0.80689178  0.32517942  1
  Cl  Cl15  1  0.50738590  0.69310822  0.82517942  1
  Cl  Cl16  1  0.00738590  0.19310822  0.67482058  1
  Cl  Cl17  1  0.49261410  0.30689178  0.17482058  1
  Cl  Cl18  1  0.49261410  0.19310822  0.67482058  1
  Cl  Cl19  1  0.50738590  0.80689178  0.32517942  1
  Cl  Cl20  1  0.01019200  0.57802493  0.12159122  1
  Cl  Cl21  1  0.98980800  0.42197507  0.87840878  1
  Cl  Cl22  1  0.98980800  0.07802493  0.37840878  1
  Cl  Cl23  1  0.51019200  0.42197507  0.87840878  1
  Cl  Cl24  1  0.01019200  0.92197507  0.62159122  1
  Cl  Cl25  1  0.48980800  0.57802493  0.12159122  1
  Cl  Cl26  1  0.48980800  0.92197507  0.62159122  1
  Cl  Cl27  1  0.51019200  0.07802493  0.37840878  1
  Cl  Cl28  1  0.00983288  0.03933570  0.13049536  1
  Cl  Cl29  1  0.99016712  0.96066430  0.86950464  1
  Cl  Cl30  1  0.99016712  0.53933570  0.36950464  1
  Cl  Cl31  1  0.50983288  0.96066430  0.86950464  1
  Cl  Cl32  1  0.00983288  0.46066430  0.63049536  1
  Cl  Cl33  1  0.49016712  0.03933570  0.13049536  1
  Cl  Cl34  1  0.49016712  0.46066430  0.63049536  1
  Cl  Cl35  1  0.50983288  0.53933570  0.36950464  1
  Cl  Cl36  1  0.25000000  0.31115174  0.39384182  1
  Cl  Cl37  1  0.75000000  0.68884826  0.60615818  1
  Cl  Cl38  1  0.75000000  0.81115174  0.10615818  1
  Cl  Cl39  1  0.25000000  0.18884826  0.89384182  1
