# generated using pymatgen
data_CeSe2
_symmetry_space_group_name_H-M   'P 1'
_cell_length_a   11.60645294
_cell_length_b   11.51144863
_cell_length_c   11.51144863
_cell_angle_alpha   90.00000000
_cell_angle_beta   90.00000000
_cell_angle_gamma   90.00000000
_symmetry_Int_Tables_number   1
_chemical_formula_structural   CeSe2
_chemical_formula_sum   'Ce8 Se16'
_cell_volume   1538.01111625
_cell_formula_units_Z   8
loop_
 _symmetry_equiv_pos_site_id
 _symmetry_equiv_pos_as_xyz
  1  'x, y, z'
loop_
 _atom_site_type_symbol
 _atom_site_label
 _atom_site_symmetry_multiplicity
 _atom_site_fract_x
 _atom_site_fract_y
 _atom_site_fract_z
 _atom_site_occupancy
  Ce  Ce0  1  0.45333508  0.95295640  0.70328381  1
  Ce  Ce1  1  0.95333508  0.54704360  0.20328381  1
  Ce  Ce2  1  0.54666492  0.29671619  0.95295640  1
  Ce  Ce3  1  0.04666492  0.20328381  0.45295640  1
  Ce  Ce4  1  0.45333508  0.04704360  0.29671619  1
  Ce  Ce5  1  0.95333508  0.45295640  0.79671619  1
  Ce  Ce6  1  0.54666492  0.70328381  0.04704360  1
  Ce  Ce7  1  0.04666492  0.79671619  0.54704360  1
  Se  Se8  1  0.41663698  0.15747683  0.81443518  1
  Se  Se9  1  0.91663698  0.34252317  0.31443518  1
  Se  Se10  1  0.58336302  0.18556482  0.15747683  1
  Se  Se11  1  0.08336302  0.31443518  0.65747683  1
  Se  Se12  1  0.41663698  0.84252317  0.18556482  1
  Se  Se13  1  0.91663698  0.65747683  0.68556482  1
  Se  Se14  1  0.58336302  0.81443518  0.84252317  1
  Se  Se15  1  0.08336302  0.68556482  0.34252317  1
  Se  Se16  1  0.25000000  0.84721825  0.65278175  1
  Se  Se17  1  0.75000000  0.65278175  0.15278175  1
  Se  Se18  1  0.75000000  0.34721825  0.84721825  1
  Se  Se19  1  0.25000000  0.15278175  0.34721825  1
  Se  Se20  1  0.56279320  0.00000000  0.50000000  1
  Se  Se21  1  0.06279320  0.50000000  -0.00000000  1
  Se  Se22  1  0.43720680  0.50000000  -0.00000000  1
  Se  Se23  1  0.93720680  0.00000000  0.50000000  1
