# generated using pymatgen
data_Tm(CuS)3
_symmetry_space_group_name_H-M   'P 1'
_cell_length_a   7.35601346
_cell_length_b   7.35601346
_cell_length_c   7.35601392
_cell_angle_alpha   53.48981389
_cell_angle_beta   53.48981392
_cell_angle_gamma   53.48981423
_symmetry_Int_Tables_number   1
_chemical_formula_structural   Tm(CuS)3
_chemical_formula_sum   'Tm2 Cu6 S6'
_cell_volume   238.58033434
_cell_formula_units_Z   2
loop_
 _symmetry_equiv_pos_site_id
 _symmetry_equiv_pos_as_xyz
  1  'x, y, z'
loop_
 _atom_site_type_symbol
 _atom_site_label
 _atom_site_symmetry_multiplicity
 _atom_site_fract_x
 _atom_site_fract_y
 _atom_site_fract_z
 _atom_site_occupancy
  Tm  Tm0  1  0.83354809  0.83354809  0.83354809  1
  Tm  Tm1  1  0.16645191  0.16645191  0.16645191  1
  Cu  Cu2  1  0.28469158  0.96093270  0.62382901  1
  Cu  Cu3  1  0.62382901  0.28469158  0.96093270  1
  Cu  Cu4  1  0.96093270  0.62382901  0.28469158  1
  Cu  Cu5  1  0.03906730  0.37617099  0.71530842  1
  Cu  Cu6  1  0.37617099  0.71530842  0.03906730  1
  Cu  Cu7  1  0.71530842  0.03906730  0.37617099  1
  S  S8  1  0.08263359  0.75086233  0.41845648  1
  S  S9  1  0.75086233  0.41845648  0.08263359  1
  S  S10  1  0.41845648  0.08263359  0.75086233  1
  S  S11  1  0.58154352  0.91736641  0.24913767  1
  S  S12  1  0.24913767  0.58154352  0.91736641  1
  S  S13  1  0.91736641  0.24913767  0.58154352  1
