# generated using pymatgen
data_SrLiTi4CrO11
_symmetry_space_group_name_H-M   'P 1'
_cell_length_a   5.86114565
_cell_length_b   10.00468209
_cell_length_c   13.98079817
_cell_angle_alpha   90.00000000
_cell_angle_beta   90.00000000
_cell_angle_gamma   90.00000000
_symmetry_Int_Tables_number   1
_chemical_formula_structural   SrLiTi4CrO11
_chemical_formula_sum   'Sr4 Li4 Ti16 Cr4 O44'
_cell_volume   819.81861059
_cell_formula_units_Z   4
loop_
 _symmetry_equiv_pos_site_id
 _symmetry_equiv_pos_as_xyz
  1  'x, y, z'
loop_
 _atom_site_type_symbol
 _atom_site_label
 _atom_site_symmetry_multiplicity
 _atom_site_fract_x
 _atom_site_fract_y
 _atom_site_fract_z
 _atom_site_occupancy
  Sr  Sr0  1  0.25000000  0.10497625  0.09168320  1
  Sr  Sr1  1  0.25000000  0.39502375  0.59168320  1
  Sr  Sr2  1  0.75000000  0.60497625  0.40831680  1
  Sr  Sr3  1  0.75000000  0.89502375  0.90831680  1
  Li  Li4  1  0.25000000  0.07974636  0.54460379  1
  Li  Li5  1  0.25000000  0.42025364  0.04460379  1
  Li  Li6  1  0.75000000  0.92025364  0.45539621  1
  Li  Li7  1  0.75000000  0.57974636  0.95539621  1
  Ti  Ti8  1  0.99961468  0.66897178  0.17105608  1
  Ti  Ti9  1  0.99961468  0.83102822  0.67105608  1
  Ti  Ti10  1  0.25000000  0.06017353  0.83486041  1
  Ti  Ti11  1  0.25000000  0.61036823  0.83720653  1
  Ti  Ti12  1  0.25000000  0.88963177  0.33720653  1
  Ti  Ti13  1  0.25000000  0.43982647  0.33486041  1
  Ti  Ti14  1  0.50038532  0.66897178  0.17105608  1
  Ti  Ti15  1  0.50038532  0.83102822  0.67105608  1
  Ti  Ti16  1  0.49961468  0.16897178  0.32894392  1
  Ti  Ti17  1  0.49961468  0.33102822  0.82894392  1
  Ti  Ti18  1  0.75000000  0.11036823  0.66279347  1
  Ti  Ti19  1  0.75000000  0.38963177  0.16279347  1
  Ti  Ti20  1  0.75000000  0.56017353  0.66513959  1
  Ti  Ti21  1  0.75000000  0.93982647  0.16513959  1
  Ti  Ti22  1  0.00038532  0.16897178  0.32894392  1
  Ti  Ti23  1  0.00038532  0.33102822  0.82894392  1
  Cr  Cr24  1  0.25000000  0.76804467  0.00241862  1
  Cr  Cr25  1  0.25000000  0.73195533  0.50241862  1
  Cr  Cr26  1  0.75000000  0.23195533  0.99758138  1
  Cr  Cr27  1  0.75000000  0.26804467  0.49758138  1
  O  O28  1  0.99845681  0.49343483  0.74423972  1
  O  O29  1  0.99845681  0.00656517  0.24423972  1
  O  O30  1  0.00962916  0.32564245  0.41106913  1
  O  O31  1  0.00962916  0.17435755  0.91106913  1
  O  O32  1  0.02476370  0.81726994  0.41241055  1
  O  O33  1  0.02476370  0.68273006  0.91241055  1
  O  O34  1  0.25000000  0.74679172  0.24451838  1
  O  O35  1  0.25000000  0.24587604  0.76058485  1
  O  O36  1  0.25000000  0.25412396  0.26058485  1
  O  O37  1  0.25000000  0.60553083  0.08838704  1
  O  O38  1  0.25000000  0.75320828  0.74451838  1
  O  O39  1  0.25000000  0.89446917  0.58838704  1
  O  O40  1  0.25000000  0.94074482  0.93260405  1
  O  O41  1  0.25000000  0.42716893  0.89736555  1
  O  O42  1  0.25000000  0.55925518  0.43260405  1
  O  O43  1  0.25000000  0.07283107  0.39736555  1
  O  O44  1  0.47523630  0.81726994  0.41241055  1
  O  O45  1  0.47523630  0.68273006  0.91241055  1
  O  O46  1  0.49037084  0.32564245  0.41106913  1
  O  O47  1  0.49037084  0.17435755  0.91106913  1
  O  O48  1  0.50154319  0.00656517  0.24423972  1
  O  O49  1  0.50154319  0.49343483  0.74423972  1
  O  O50  1  0.49845681  0.50656517  0.25576028  1
  O  O51  1  0.49845681  0.99343483  0.75576028  1
  O  O52  1  0.50962916  0.82564245  0.08893087  1
  O  O53  1  0.50962916  0.67435755  0.58893087  1
  O  O54  1  0.52476370  0.31726994  0.08758945  1
  O  O55  1  0.52476370  0.18273006  0.58758945  1
  O  O56  1  0.75000000  0.57283107  0.10263445  1
  O  O57  1  0.75000000  0.75412396  0.23941515  1
  O  O58  1  0.75000000  0.05925518  0.06739595  1
  O  O59  1  0.75000000  0.10553083  0.41161296  1
  O  O60  1  0.75000000  0.24679172  0.25548162  1
  O  O61  1  0.75000000  0.25320828  0.75548162  1
  O  O62  1  0.75000000  0.39446917  0.91161296  1
  O  O63  1  0.75000000  0.44074482  0.56739595  1
  O  O64  1  0.75000000  0.74587604  0.73941515  1
  O  O65  1  0.75000000  0.92716893  0.60263445  1
  O  O66  1  0.97523630  0.18273006  0.58758945  1
  O  O67  1  0.97523630  0.31726994  0.08758945  1
  O  O68  1  0.99037084  0.67435755  0.58893087  1
  O  O69  1  0.99037084  0.82564245  0.08893087  1
  O  O70  1  0.00154319  0.99343483  0.75576028  1
  O  O71  1  0.00154319  0.50656517  0.25576028  1
