# generated using pymatgen
data_InTe2O5F
_symmetry_space_group_name_H-M   'P 1'
_cell_length_a   6.66899849
_cell_length_b   6.66899849
_cell_length_c   13.22551341
_cell_angle_alpha   90.00000000
_cell_angle_beta   90.00000000
_cell_angle_gamma   116.53658512
_symmetry_Int_Tables_number   1
_chemical_formula_structural   InTe2O5F
_chemical_formula_sum   'In4 Te8 O20 F4'
_cell_volume   526.24331190
_cell_formula_units_Z   4
loop_
 _symmetry_equiv_pos_site_id
 _symmetry_equiv_pos_as_xyz
  1  'x, y, z'
loop_
 _atom_site_type_symbol
 _atom_site_label
 _atom_site_symmetry_multiplicity
 _atom_site_fract_x
 _atom_site_fract_y
 _atom_site_fract_z
 _atom_site_occupancy
  In  In0  1  0.94955373  0.75342259  0.37412652  1
  In  In1  1  0.75342259  0.94955373  0.62587348  1
  In  In2  1  0.05044627  0.24657741  0.87412652  1
  In  In3  1  0.24657741  0.05044627  0.12587348  1
  Te  Te4  1  0.68128879  0.14202642  0.38995662  1
  Te  Te5  1  0.14202642  0.68128879  0.61004338  1
  Te  Te6  1  0.31871121  0.85797358  0.88995662  1
  Te  Te7  1  0.85797358  0.31871121  0.11004338  1
  Te  Te8  1  0.27112814  0.37852847  0.35393687  1
  Te  Te9  1  0.37852847  0.27112814  0.64606313  1
  Te  Te10  1  0.72887186  0.62147153  0.85393687  1
  Te  Te11  1  0.62147153  0.72887186  0.14606313  1
  O  O12  1  0.01126877  0.09902420  0.37384047  1
  O  O13  1  0.09902420  0.01126877  0.62615953  1
  O  O14  1  0.98873123  0.90097580  0.87384047  1
  O  O15  1  0.90097580  0.98873123  0.12615953  1
  O  O16  1  0.29814132  0.33470840  0.21586840  1
  O  O17  1  0.33470840  0.29814132  0.78413160  1
  O  O18  1  0.70185868  0.66529160  0.71586840  1
  O  O19  1  0.66529160  0.70185868  0.28413160  1
  O  O20  1  0.41774327  0.88715445  0.66417806  1
  O  O21  1  0.88715445  0.41774327  0.33582194  1
  O  O22  1  0.58225673  0.11284555  0.16417806  1
  O  O23  1  0.11284555  0.58225673  0.83582194  1
  O  O24  1  0.46020376  0.26362802  0.41320058  1
  O  O25  1  0.26362802  0.46020376  0.58679942  1
  O  O26  1  0.53979624  0.73637198  0.91320058  1
  O  O27  1  0.73637198  0.53979624  0.08679942  1
  O  O28  1  0.20082079  0.76573472  0.47480346  1
  O  O29  1  0.76573472  0.20082079  0.52519654  1
  O  O30  1  0.79917921  0.23426528  0.97480346  1
  O  O31  1  0.23426528  0.79917921  0.02519654  1
  F  F32  1  0.17689296  0.82310704  0.25000000  1
  F  F33  1  0.82310704  0.17689296  0.75000000  1
  F  F34  1  0.73154941  0.73154941  0.50000000  1
  F  F35  1  0.26845059  0.26845059  0.00000000  1
