# generated using pymatgen
data_MgAl2(Si3O8)2
_symmetry_space_group_name_H-M   'P 1'
_cell_length_a   5.09988579
_cell_length_b   8.52394872
_cell_length_c   8.85445106
_cell_angle_alpha   94.67832760
_cell_angle_beta   91.14416716
_cell_angle_gamma   87.87574978
_symmetry_Int_Tables_number   1
_chemical_formula_structural   MgAl2(Si3O8)2
_chemical_formula_sum   'Mg1 Al2 Si6 O16'
_cell_volume   383.31177006
_cell_formula_units_Z   1
loop_
 _symmetry_equiv_pos_site_id
 _symmetry_equiv_pos_as_xyz
  1  'x, y, z'
loop_
 _atom_site_type_symbol
 _atom_site_label
 _atom_site_symmetry_multiplicity
 _atom_site_fract_x
 _atom_site_fract_y
 _atom_site_fract_z
 _atom_site_occupancy
  Mg  Mg0  1  0.50098100  0.17397600  0.93880000  1
  Al  Al1  1  0.68075400  0.29870300  0.32435700  1
  Al  Al2  1  0.97234900  0.18729800  0.81399600  1
  Si  Si3  1  0.83307200  0.82066600  0.81988000  1
  Si  Si4  1  0.50423400  0.67149500  0.31142700  1
  Si  Si5  1  0.33807200  0.68378500  0.64822300  1
  Si  Si6  1  0.99705700  0.80040000  0.16008300  1
  Si  Si7  1  0.47157400  0.31739400  0.65763200  1
  Si  Si8  1  0.17497000  0.16116000  0.17448100  1
  O  O9  1  0.12122500  0.20717700  0.99695200  1
  O  O10  1  0.60656600  0.24814300  0.50491600  1
  O  O11  1  0.24176500  0.68523400  0.20296800  1
  O  O12  1  0.05077500  0.76504600  0.69227300  1
  O  O13  1  0.10074000  0.97864800  0.18131200  1
  O  O14  1  0.33085100  0.49258800  0.65304500  1
  O  O15  1  0.78787800  0.01495100  0.83480200  1
  O  O16  1  0.60428900  0.49305500  0.30233900  1
  O  O17  1  0.73550100  0.78508200  0.25969400  1
  O  O18  1  0.54897600  0.74961700  0.77628100  1
  O  O19  1  0.41823600  0.73657600  0.48428200  1
  O  O20  1  0.92521100  0.75804100  0.98110600  1
  O  O21  1  0.25860500  0.19560400  0.71560100  1
  O  O22  1  0.49926500  0.18215800  0.17624500  1
  O  O23  1  0.69182900  0.31553900  0.80290000  1
  O  O24  1  0.01772700  0.27051800  0.29737700  1
