# generated using pymatgen
data_YMoO3
_symmetry_space_group_name_H-M   'P 1'
_cell_length_a   5.40189403
_cell_length_b   5.81564474
_cell_length_c   7.82605709
_cell_angle_alpha   90.00000000
_cell_angle_beta   90.00000000
_cell_angle_gamma   90.00000000
_symmetry_Int_Tables_number   1
_chemical_formula_structural   YMoO3
_chemical_formula_sum   'Y4 Mo4 O12'
_cell_volume   245.85946991
_cell_formula_units_Z   4
loop_
 _symmetry_equiv_pos_site_id
 _symmetry_equiv_pos_as_xyz
  1  'x, y, z'
loop_
 _atom_site_type_symbol
 _atom_site_label
 _atom_site_symmetry_multiplicity
 _atom_site_fract_x
 _atom_site_fract_y
 _atom_site_fract_z
 _atom_site_occupancy
  Y  Y0  1  0.52171140  0.42878843  0.25000000  1
  Y  Y1  1  0.02171140  0.07121157  0.75000000  1
  Y  Y2  1  0.97828860  0.92878843  0.25000000  1
  Y  Y3  1  0.47828860  0.57121157  0.75000000  1
  Mo  Mo4  1  0.50000000  0.00000000  0.00000000  1
  Mo  Mo5  1  -0.00000000  0.50000000  0.00000000  1
  Mo  Mo6  1  -0.00000000  0.50000000  0.50000000  1
  Mo  Mo7  1  0.50000000  0.00000000  0.50000000  1
  O  O8  1  0.18103518  0.81041324  0.93351802  1
  O  O9  1  0.68103518  0.68958676  0.06648198  1
  O  O10  1  0.31896482  0.31041324  0.56648198  1
  O  O11  1  0.81896482  0.18958676  0.43351802  1
  O  O12  1  0.81896482  0.18958676  0.06648198  1
  O  O13  1  0.31896482  0.31041324  0.93351802  1
  O  O14  1  0.68103518  0.68958676  0.43351802  1
  O  O15  1  0.18103518  0.81041324  0.56648198  1
  O  O16  1  0.63542729  0.93787108  0.75000000  1
  O  O17  1  0.13542729  0.56212892  0.25000000  1
  O  O18  1  0.86457271  0.43787108  0.75000000  1
  O  O19  1  0.36457271  0.06212892  0.25000000  1
