# generated using pymatgen
data_Dy3GaS6
_symmetry_space_group_name_H-M   'P 1'
_cell_length_a   8.50270115
_cell_length_b   8.50270115
_cell_length_c   6.43933995
_cell_angle_alpha   90.00000000
_cell_angle_beta   90.00000000
_cell_angle_gamma   102.36156315
_symmetry_Int_Tables_number   1
_chemical_formula_structural   Dy3GaS6
_chemical_formula_sum   'Dy6 Ga2 S12'
_cell_volume   454.74506827
_cell_formula_units_Z   2
loop_
 _symmetry_equiv_pos_site_id
 _symmetry_equiv_pos_as_xyz
  1  'x, y, z'
loop_
 _atom_site_type_symbol
 _atom_site_label
 _atom_site_symmetry_multiplicity
 _atom_site_fract_x
 _atom_site_fract_y
 _atom_site_fract_z
 _atom_site_occupancy
  Dy  Dy0  1  0.28443553  0.08556109  0.22661737  1
  Dy  Dy1  1  0.91443891  0.71556447  0.22661737  1
  Dy  Dy2  1  0.71556447  0.91443891  0.72661737  1
  Dy  Dy3  1  0.08556109  0.28443553  0.72661737  1
  Dy  Dy4  1  0.40202483  0.59797517  0.13647719  1
  Dy  Dy5  1  0.59797517  0.40202483  0.63647719  1
  Ga  Ga6  1  0.20085310  0.79914690  0.76271852  1
  Ga  Ga7  1  0.79914690  0.20085310  0.26271852  1
  S  S8  1  0.56748647  0.10184537  0.44078397  1
  S  S9  1  0.89815463  0.43251353  0.44078397  1
  S  S10  1  0.43251353  0.89815463  0.94078397  1
  S  S11  1  0.10184537  0.56748647  0.94078397  1
  S  S12  1  0.63191951  0.69319371  0.43048372  1
  S  S13  1  0.30680629  0.36808049  0.43048372  1
  S  S14  1  0.36808049  0.30680629  0.93048372  1
  S  S15  1  0.69319371  0.63191951  0.93048372  1
  S  S16  1  0.21704083  0.78295917  0.41284325  1
  S  S17  1  0.78295917  0.21704083  0.91284325  1
  S  S18  1  0.95918924  0.04081076  0.40719092  1
  S  S19  1  0.04081076  0.95918924  0.90719092  1
