# generated using pymatgen
data_MoH8(S2N)2
_symmetry_space_group_name_H-M   'P 1'
_cell_length_a   7.08526854
_cell_length_b   9.65275779
_cell_length_c   12.17018087
_cell_angle_alpha   90.00000000
_cell_angle_beta   90.00000000
_cell_angle_gamma   90.00000000
_symmetry_Int_Tables_number   1
_chemical_formula_structural   MoH8(S2N)2
_chemical_formula_sum   'Mo4 H32 S16 N8'
_cell_volume   832.34764804
_cell_formula_units_Z   4
loop_
 _symmetry_equiv_pos_site_id
 _symmetry_equiv_pos_as_xyz
  1  'x, y, z'
loop_
 _atom_site_type_symbol
 _atom_site_label
 _atom_site_symmetry_multiplicity
 _atom_site_fract_x
 _atom_site_fract_y
 _atom_site_fract_z
 _atom_site_occupancy
  Mo  Mo0  1  0.75000000  0.25337863  0.56936329  1
  Mo  Mo1  1  0.75000000  0.75337863  0.93063671  1
  Mo  Mo2  1  0.25000000  0.74662137  0.43063671  1
  Mo  Mo3  1  0.25000000  0.24662137  0.06936329  1
  H  H4  1  0.75000000  0.76736870  0.63593228  1
  H  H5  1  0.75000000  0.26736870  0.86406772  1
  H  H6  1  0.25000000  0.23263130  0.36406772  1
  H  H7  1  0.25000000  0.73263130  0.13593228  1
  H  H8  1  0.75000000  0.60018092  0.67458682  1
  H  H9  1  0.75000000  0.10018092  0.82541318  1
  H  H10  1  0.25000000  0.39981908  0.32541318  1
  H  H11  1  0.25000000  0.89981908  0.17458682  1
  H  H12  1  0.86798354  0.64999546  0.56102496  1
  H  H13  1  0.63201646  0.14999546  0.93897504  1
  H  H14  1  0.36798354  0.35000454  0.43897504  1
  H  H15  1  0.13201646  0.85000454  0.06102496  1
  H  H16  1  0.13201646  0.35000454  0.43897504  1
  H  H17  1  0.36798354  0.85000454  0.06102496  1
  H  H18  1  0.63201646  0.64999546  0.56102496  1
  H  H19  1  0.86798354  0.14999546  0.93897504  1
  H  H20  1  0.75000000  0.00045785  0.26792469  1
  H  H21  1  0.75000000  0.50045885  0.23207531  1
  H  H22  1  0.25000000  0.99954115  0.73207531  1
  H  H23  1  0.25000000  0.49954215  0.76792469  1
  H  H24  1  0.75000000  0.00666348  0.40546535  1
  H  H25  1  0.75000000  0.50666348  0.09453465  1
  H  H26  1  0.25000000  0.99333652  0.59453465  1
  H  H27  1  0.25000000  0.49333652  0.90546535  1
  H  H28  1  0.63256107  0.87932834  0.33976206  1
  H  H29  1  0.86743893  0.37932834  0.16023794  1
  H  H30  1  0.13256107  0.12067166  0.66023794  1
  H  H31  1  0.36743893  0.62067166  0.83976206  1
  H  H32  1  0.36743893  0.12067166  0.66023794  1
  H  H33  1  0.13256107  0.62067166  0.83976206  1
  H  H34  1  0.86743893  0.87932834  0.33976206  1
  H  H35  1  0.63256107  0.37932834  0.16023794  1
  S  S36  1  0.75000000  0.03254888  0.61495138  1
  S  S37  1  0.75000000  0.53254888  0.88504862  1
  S  S38  1  0.25000000  0.96745112  0.38504862  1
  S  S39  1  0.25000000  0.46745112  0.11495138  1
  S  S40  1  0.75000000  0.27474444  0.39181612  1
  S  S41  1  0.75000000  0.77474444  0.10818388  1
  S  S42  1  0.25000000  0.72525556  0.60818388  1
  S  S43  1  0.25000000  0.22525556  0.89181612  1
  S  S44  1  0.49923969  0.35462858  0.63612487  1
  S  S45  1  0.00076031  0.85462858  0.86387513  1
  S  S46  1  0.99923969  0.64537142  0.36387513  1
  S  S47  1  0.50076031  0.14537142  0.13612487  1
  S  S48  1  0.50076031  0.64537142  0.36387513  1
  S  S49  1  0.99923969  0.14537142  0.13612487  1
  S  S50  1  0.00076031  0.35462858  0.63612487  1
  S  S51  1  0.49923969  0.85462858  0.86387513  1
  N  N52  1  0.75000000  0.66679290  0.60861204  1
  N  N53  1  0.75000000  0.16679290  0.89138796  1
  N  N54  1  0.25000000  0.33320710  0.39138796  1
  N  N55  1  0.25000000  0.83320710  0.10861204  1
  N  N56  1  0.75000000  0.94212036  0.33809627  1
  N  N57  1  0.75000000  0.44212036  0.16190373  1
  N  N58  1  0.25000000  0.05787964  0.66190373  1
  N  N59  1  0.25000000  0.55787964  0.83809627  1
