# generated using pymatgen
data_CrPbO4
_symmetry_space_group_name_H-M   'P 1'
_cell_length_a   7.43348116
_cell_length_b   6.80690603
_cell_length_c   8.71718994
_cell_angle_alpha   52.85346862
_cell_angle_beta   90.00000000
_cell_angle_gamma   90.00000000
_symmetry_Int_Tables_number   1
_chemical_formula_structural   CrPbO4
_chemical_formula_sum   'Cr4 Pb4 O16'
_cell_volume   351.58305246
_cell_formula_units_Z   4
loop_
 _symmetry_equiv_pos_site_id
 _symmetry_equiv_pos_as_xyz
  1  'x, y, z'
loop_
 _atom_site_type_symbol
 _atom_site_label
 _atom_site_symmetry_multiplicity
 _atom_site_fract_x
 _atom_site_fract_y
 _atom_site_fract_z
 _atom_site_occupancy
  Cr  Cr0  1  0.66446176  0.31949110  0.79925317  1
  Cr  Cr1  1  0.83553824  0.31949110  0.29925317  1
  Cr  Cr2  1  0.16446176  0.68050890  0.70074683  1
  Cr  Cr3  1  0.33553824  0.68050890  0.20074683  1
  Pb  Pb4  1  0.64204237  0.82106445  0.77980072  1
  Pb  Pb5  1  0.14204237  0.17893555  0.72019928  1
  Pb  Pb6  1  0.35795763  0.17893555  0.22019928  1
  Pb  Pb7  1  0.85795763  0.82106445  0.27980072  1
  O  O8  1  0.71187674  0.60192983  0.61240438  1
  O  O9  1  0.21187674  0.39807017  0.88759562  1
  O  O10  1  0.28812326  0.39807017  0.38759562  1
  O  O11  1  0.78812326  0.60192983  0.11240438  1
  O  O12  1  0.59886354  0.34557826  0.96830039  1
  O  O13  1  0.09886354  0.65442174  0.53169961  1
  O  O14  1  0.40113646  0.65442174  0.03169961  1
  O  O15  1  0.90113646  0.34557826  0.46830039  1
  O  O16  1  0.99210059  0.19288254  0.25058143  1
  O  O17  1  0.49210059  0.80711746  0.24941857  1
  O  O18  1  0.00789941  0.80711746  0.74941857  1
  O  O19  1  0.50789941  0.19288254  0.75058143  1
  O  O20  1  0.65546394  0.14080888  0.37515768  1
  O  O21  1  0.15546394  0.85919112  0.12484232  1
  O  O22  1  0.34453606  0.85919112  0.62484232  1
  O  O23  1  0.84453606  0.14080888  0.87515768  1
