# generated using pymatgen
data_Sc3B5O12
_symmetry_space_group_name_H-M   'P 1'
_cell_length_a   4.43985485
_cell_length_b   12.22819025
_cell_length_c   12.46197971
_cell_angle_alpha   90.00000000
_cell_angle_beta   90.00000000
_cell_angle_gamma   90.00000000
_symmetry_Int_Tables_number   1
_chemical_formula_structural   Sc3B5O12
_chemical_formula_sum   'Sc12 B20 O48'
_cell_volume   676.57819797
_cell_formula_units_Z   4
loop_
 _symmetry_equiv_pos_site_id
 _symmetry_equiv_pos_as_xyz
  1  'x, y, z'
loop_
 _atom_site_type_symbol
 _atom_site_label
 _atom_site_symmetry_multiplicity
 _atom_site_fract_x
 _atom_site_fract_y
 _atom_site_fract_z
 _atom_site_occupancy
  Sc  Sc0  1  0.00000000  0.00000000  0.63006368  1
  Sc  Sc1  1  0.00000000  0.50000000  0.86993632  1
  Sc  Sc2  1  0.00000000  0.00000000  0.36993632  1
  Sc  Sc3  1  0.00000000  0.50000000  0.13006368  1
  Sc  Sc4  1  0.98774019  0.80456305  0.86418149  1
  Sc  Sc5  1  0.01225981  0.19543695  0.86418149  1
  Sc  Sc6  1  0.98774019  0.69543695  0.63581851  1
  Sc  Sc7  1  0.01225981  0.30456305  0.63581851  1
  Sc  Sc8  1  0.01225981  0.19543695  0.13581851  1
  Sc  Sc9  1  0.98774019  0.80456305  0.13581851  1
  Sc  Sc10  1  0.01225981  0.30456305  0.36418149  1
  Sc  Sc11  1  0.98774019  0.69543695  0.36418149  1
  B  B12  1  0.50000000  0.00000000  0.83766672  1
  B  B13  1  0.50000000  0.50000000  0.66233328  1
  B  B14  1  0.50000000  0.00000000  0.16233328  1
  B  B15  1  0.50000000  0.50000000  0.33766672  1
  B  B16  1  0.45763753  0.64982399  0.79781801  1
  B  B17  1  0.54236247  0.35017601  0.79781801  1
  B  B18  1  0.45763753  0.85017601  0.70218199  1
  B  B19  1  0.54236247  0.14982399  0.70218199  1
  B  B20  1  0.54236247  0.35017601  0.20218199  1
  B  B21  1  0.45763753  0.64982399  0.20218199  1
  B  B22  1  0.54236247  0.14982399  0.29781801  1
  B  B23  1  0.45763753  0.85017601  0.29781801  1
  B  B24  1  0.46783420  0.14562280  0.50000000  1
  B  B25  1  0.53216580  0.85437720  0.50000000  1
  B  B26  1  0.46783420  0.35437720  -0.00000000  1
  B  B27  1  0.53216580  0.64562280  -0.00000000  1
  B  B28  1  0.53937754  0.63094706  0.50000000  1
  B  B29  1  0.46062246  0.36905294  0.50000000  1
  B  B30  1  0.53937754  0.86905294  -0.00000000  1
  B  B31  1  0.46062246  0.13094706  -0.00000000  1
  O  O32  1  0.23912359  0.06385429  0.50000000  1
  O  O33  1  0.76087641  0.93614571  0.50000000  1
  O  O34  1  0.23912359  0.43614571  -0.00000000  1
  O  O35  1  0.76087641  0.56385429  -0.00000000  1
  O  O36  1  0.22533930  0.64506660  0.50000000  1
  O  O37  1  0.77466070  0.35493340  0.50000000  1
  O  O38  1  0.22533930  0.85493340  -0.00000000  1
  O  O39  1  0.77466070  0.14506660  -0.00000000  1
  O  O40  1  0.77915018  0.65298651  0.79635743  1
  O  O41  1  0.22084982  0.34701349  0.79635743  1
  O  O42  1  0.77915018  0.84701349  0.70364257  1
  O  O43  1  0.22084982  0.15298651  0.70364257  1
  O  O44  1  0.22084982  0.34701349  0.20364257  1
  O  O45  1  0.77915018  0.65298651  0.20364257  1
  O  O46  1  0.22084982  0.15298651  0.29635743  1
  O  O47  1  0.77915018  0.84701349  0.29635743  1
  O  O48  1  0.32828459  0.64220417  0.90554368  1
  O  O49  1  0.67171541  0.35779583  0.90554368  1
  O  O50  1  0.32828459  0.85779583  0.59445632  1
  O  O51  1  0.67171541  0.14220417  0.59445632  1
  O  O52  1  0.67171541  0.35779583  0.09445632  1
  O  O53  1  0.32828459  0.64220417  0.09445632  1
  O  O54  1  0.67171541  0.14220417  0.40554368  1
  O  O55  1  0.32828459  0.85779583  0.40554368  1
  O  O56  1  0.33477322  0.07813646  0.90333297  1
  O  O57  1  0.66522678  0.92186354  0.90333297  1
  O  O58  1  0.33477322  0.42186354  0.59666703  1
  O  O59  1  0.66522678  0.57813646  0.59666703  1
  O  O60  1  0.66522678  0.92186354  0.09666703  1
  O  O61  1  0.33477322  0.07813646  0.09666703  1
  O  O62  1  0.66522678  0.57813646  0.40333297  1
  O  O63  1  0.33477322  0.42186354  0.40333297  1
  O  O64  1  0.32197932  0.75000000  0.75000000  1
  O  O65  1  0.67802068  0.25000000  0.75000000  1
  O  O66  1  0.67802068  0.25000000  0.25000000  1
  O  O67  1  0.32197932  0.75000000  0.25000000  1
  O  O68  1  0.69998486  0.75725462  -0.00000000  1
  O  O69  1  0.30001514  0.24274538  -0.00000000  1
  O  O70  1  0.69998486  0.74274538  0.50000000  1
  O  O71  1  0.30001514  0.25725462  0.50000000  1
  O  O72  1  0.29660857  0.93741677  0.76687130  1
  O  O73  1  0.70339143  0.06258323  0.76687130  1
  O  O74  1  0.29660857  0.56258323  0.73312870  1
  O  O75  1  0.70339143  0.43741677  0.73312870  1
  O  O76  1  0.70339143  0.06258323  0.23312870  1
  O  O77  1  0.29660857  0.93741677  0.23312870  1
  O  O78  1  0.70339143  0.43741677  0.26687130  1
  O  O79  1  0.29660857  0.56258323  0.26687130  1
