# generated using pymatgen
data_RbNbSiO5
_symmetry_space_group_name_H-M   'P 1'
_cell_length_a   10.41539559
_cell_length_b   10.41516624
_cell_length_c   21.07529803
_cell_angle_alpha   75.70104654
_cell_angle_beta   75.69394108
_cell_angle_gamma   89.99982826
_symmetry_Int_Tables_number   1
_chemical_formula_structural   RbNbSiO5
_chemical_formula_sum   'Rb16 Nb16 Si16 O80'
_cell_volume   2142.14309564
_cell_formula_units_Z   16
loop_
 _symmetry_equiv_pos_site_id
 _symmetry_equiv_pos_as_xyz
  1  'x, y, z'
loop_
 _atom_site_type_symbol
 _atom_site_label
 _atom_site_symmetry_multiplicity
 _atom_site_fract_x
 _atom_site_fract_y
 _atom_site_fract_z
 _atom_site_occupancy
  Rb  Rb0  1  0.99018463  0.99017658  0.01989517  1
  Rb  Rb1  1  0.74014813  0.23990600  0.51985534  1
  Rb  Rb2  1  0.60064271  0.10038301  0.79899495  1
  Rb  Rb3  1  0.85057123  0.85067544  0.29899621  1
  Rb  Rb4  1  0.79516798  0.78205838  0.90952985  1
  Rb  Rb5  1  0.29521661  0.30843960  0.90947131  1
  Rb  Rb6  1  0.53200677  0.54526298  0.40949841  1
  Rb  Rb7  1  0.05836990  0.04524495  0.40950140  1
  Rb  Rb8  1  0.09771871  0.59733963  0.80484404  1
  Rb  Rb9  1  0.34778725  0.34775866  0.30484910  1
  Rb  Rb10  1  0.49313244  0.49322911  0.01401825  1
  Rb  Rb11  1  0.24321113  0.74282770  0.51401716  1
  Rb  Rb12  1  0.62678165  0.14552833  0.15764547  1
  Rb  Rb13  1  0.89550017  0.46554488  0.65764614  1
  Rb  Rb14  1  0.14364153  0.62619145  0.16077347  1
  Rb  Rb15  1  0.37616417  0.94556726  0.66076836  1
  Nb  Nb16  1  0.96010891  0.21257257  0.84466465  1
  Nb  Nb17  1  0.19483999  0.94300716  0.84598954  1
  Nb  Nb18  1  0.96156650  0.44421962  0.34601322  1
  Nb  Nb19  1  0.69336264  0.20949272  0.34464005  1
  Nb  Nb20  1  0.63116379  0.14769335  0.97242234  1
  Nb  Nb21  1  0.39600947  0.87830049  0.97374532  1
  Nb  Nb22  1  0.89828863  0.64701715  0.47238620  1
  Nb  Nb23  1  0.62886531  0.88082064  0.47378223  1
  Nb  Nb24  1  0.87560000  0.39138182  0.98184739  1
  Nb  Nb25  1  0.14372153  0.62647808  0.98046812  1
  Nb  Nb26  1  0.14214401  0.39328040  0.48180481  1
  Nb  Nb27  1  0.37718652  0.12649916  0.48050602  1
  Nb  Nb28  1  0.71507745  0.46397657  0.83791727  1
  Nb  Nb29  1  0.44816252  0.69973500  0.83653973  1
  Nb  Nb30  1  0.21444183  0.69741599  0.33658929  1
  Nb  Nb31  1  0.44887121  0.96437465  0.33786640  1
  Si  Si32  1  0.76501229  0.78113521  0.73727944  1
  Si  Si33  1  0.49720639  0.48203298  0.73729538  1
  Si  Si34  1  0.53077836  0.74714997  0.23725124  1
  Si  Si35  1  0.23166159  0.01490987  0.23731940  1
  Si  Si36  1  0.82518841  0.60852685  0.08170525  1
  Si  Si37  1  0.09257994  0.30930790  0.08171508  1
  Si  Si38  1  0.35859389  0.34315669  0.58174665  1
  Si  Si39  1  0.05941097  0.07581415  0.58167745  1
  Si  Si40  1  0.61352223  0.82686710  0.07499056  1
  Si  Si41  1  0.31118759  0.09756616  0.07492202  1
  Si  Si42  1  0.57693460  0.56157371  0.57495906  1
  Si  Si43  1  0.84761085  0.86396538  0.57495555  1
  Si  Si44  1  0.97666011  0.99272205  0.74410415  1
  Si  Si45  1  0.27894805  0.26379965  0.74404607  1
  Si  Si46  1  0.74218705  0.52884257  0.24408032  1
  Si  Si47  1  0.01324674  0.22658998  0.24406656  1
  O  O48  1  0.81412852  0.64181600  0.77626596  1
  O  O49  1  0.40915623  0.58120196  0.77694067  1
  O  O50  1  0.39191859  0.65920916  0.27689785  1
  O  O51  1  0.33193145  0.06414705  0.27630463  1
  O  O52  1  0.77709445  0.50980632  0.04163912  1
  O  O53  1  0.18081952  0.44859356  0.04230437  1
  O  O54  1  0.25983069  0.43122054  0.54168092  1
  O  O55  1  0.19864406  0.02686358  0.54226834  1
  O  O56  1  0.06172898  0.06180141  0.87640143  1
  O  O57  1  0.81175154  0.31179891  0.37639885  1
  O  O58  1  0.52912717  0.02921022  0.94157406  1
  O  O59  1  0.77915305  0.77923746  0.44157447  1
  O  O60  1  0.56517968  0.56534104  0.86941209  1
  O  O61  1  0.31513753  0.81530046  0.36941340  1
  O  O62  1  0.02549346  0.52558157  0.94875462  1
  O  O63  1  0.27545282  0.27562679  0.44875475  1
  O  O64  1  0.51848973  0.77999514  0.03274782  1
  O  O65  1  0.44889535  0.18699427  0.03339961  1
  O  O66  1  0.52997567  0.69879577  0.53272452  1
  O  O67  1  0.93694501  0.76772667  0.53341210  1
  O  O68  1  0.07287138  0.90327953  0.78545526  1
  O  O69  1  0.14180377  0.31089461  0.78608860  1
  O  O70  1  0.65297209  0.39176212  0.28611521  1
  O  O71  1  0.06122878  0.32285770  0.28543838  1
  O  O72  1  0.79606716  0.48977931  0.90895381  1
  O  O73  1  0.29489478  0.60125893  0.90896388  1
  O  O74  1  0.23942367  0.54493347  0.40896139  1
  O  O75  1  0.35091665  0.04610510  0.40895605  1
  O  O76  1  0.72252243  0.25856560  0.01461940  1
  O  O77  1  0.26211005  0.72636223  0.01480913  1
  O  O78  1  0.00842698  0.51274307  0.51463633  1
  O  O79  1  0.47623764  0.97298531  0.51479410  1
  O  O80  1  0.86722515  0.36402332  0.80347434  1
  O  O81  1  0.32857265  0.83275342  0.80365815  1
  O  O82  1  0.11345229  0.57869427  0.30364209  1
  O  O83  1  0.58234937  0.11733204  0.30348997  1
  O  O84  1  0.79483794  0.11659538  0.90894893  1
  O  O85  1  0.29623942  0.97449517  0.90888121  1
  O  O86  1  0.86631237  0.54622577  0.40891136  1
  O  O87  1  0.72416914  0.04485500  0.40891769  1
  O  O88  1  0.83448387  0.90584843  0.75610511  1
  O  O89  1  0.40925345  0.33800513  0.75618247  1
  O  O90  1  0.65575914  0.65931711  0.25618036  1
  O  O91  1  0.08799432  0.08453970  0.25610823  1
  O  O92  1  0.75598361  0.75260419  0.06276398  1
  O  O93  1  0.18110355  0.18461479  0.06283780  1
  O  O94  1  0.50254266  0.43118170  0.56276799  1
  O  O95  1  0.93455627  0.00601121  0.56283515  1
  O  O96  1  0.60555868  0.79576680  0.76027335  1
  O  O97  1  0.63446109  0.44426536  0.75979667  1
  O  O98  1  0.54591595  0.88444874  0.25977035  1
  O  O99  1  0.19391558  0.85550226  0.26031121  1
  O  O100  1  0.98505133  0.64634367  0.05888250  1
  O  O101  1  0.95633905  0.29496399  0.05839911  1
  O  O102  1  0.39629782  0.20607445  0.55890877  1
  O  O103  1  0.04495558  0.23530785  0.55836096  1
  O  O104  1  0.61260464  0.30108775  0.89965473  1
  O  O105  1  0.48705461  0.79917030  0.89973596  1
  O  O106  1  0.05105763  0.73745355  0.39971269  1
  O  O107  1  0.54920070  0.86296885  0.39967905  1
  O  O108  1  0.97754551  0.29293533  0.91831079  1
  O  O109  1  0.10347983  0.78878211  0.91837798  1
  O  O110  1  0.04287565  0.35376529  0.41832622  1
  O  O111  1  0.53873628  0.22779689  0.41836224  1
  O  O112  1  0.93665976  0.12606120  0.76966584  1
  O  O113  1  0.29398481  0.10440626  0.76892148  1
  O  O114  1  0.87668252  0.54400308  0.26894409  1
  O  O115  1  0.85431296  0.18670044  0.26963603  1
  O  O116  1  0.65332257  0.98638866  0.04984126  1
  O  O117  1  0.29714147  0.96436748  0.04910459  1
  O  O118  1  0.73640820  0.54681339  0.54982024  1
  O  O119  1  0.71437920  0.90371403  0.54913373  1
  O  O120  1  0.77751484  0.53897071  0.16270466  1
  O  O121  1  0.06044520  0.29940491  0.16273377  1
  O  O122  1  0.28895217  0.30975800  0.66269945  1
  O  O123  1  0.04940157  0.02679539  0.66273508  1
  O  O124  1  0.54227554  0.78079475  0.15606689  1
  O  O125  1  0.30275417  0.06388595  0.15604953  1
  O  O126  1  0.53077138  0.55164813  0.65606273  1
  O  O127  1  0.81385526  0.79120338  0.65605074  1
