# generated using pymatgen
data_MnSe2O5
_symmetry_space_group_name_H-M   'P 1'
_cell_length_a   5.78343847
_cell_length_b   7.39037286
_cell_length_c   10.92074915
_cell_angle_alpha   89.99999998
_cell_angle_beta   90.00000226
_cell_angle_gamma   73.85282616
_symmetry_Int_Tables_number   1
_chemical_formula_structural   MnSe2O5
_chemical_formula_sum   'Mn4 Se8 O20'
_cell_volume   448.35818826
_cell_formula_units_Z   4
loop_
 _symmetry_equiv_pos_site_id
 _symmetry_equiv_pos_as_xyz
  1  'x, y, z'
loop_
 _atom_site_type_symbol
 _atom_site_label
 _atom_site_symmetry_multiplicity
 _atom_site_fract_x
 _atom_site_fract_y
 _atom_site_fract_z
 _atom_site_occupancy
  Mn  Mn0  1  0.25000000  0.00000000  0.08245222  1
  Mn  Mn1  1  0.25000000  0.50000000  0.41754778  1
  Mn  Mn2  1  0.75000000  0.50000000  0.58245222  1
  Mn  Mn3  1  0.75000000  -0.00000000  0.91754778  1
  Se  Se4  1  0.46810201  0.64949335  0.85896350  1
  Se  Se5  1  0.96810201  0.14949335  0.35896350  1
  Se  Se6  1  0.03189799  0.35050665  0.85896350  1
  Se  Se7  1  0.53189799  0.85050665  0.35896350  1
  Se  Se8  1  0.53189799  0.35050665  0.14103650  1
  Se  Se9  1  0.03189799  0.85050665  0.64103650  1
  Se  Se10  1  0.96810201  0.64949335  0.14103650  1
  Se  Se11  1  0.46810201  0.14949335  0.64103650  1
  O  O12  1  0.75000000  0.50000000  0.92125928  1
  O  O13  1  0.25000000  -0.00000000  0.42125928  1
  O  O14  1  0.25000000  0.50000000  0.07874072  1
  O  O15  1  0.75000000  0.00000000  0.57874072  1
  O  O16  1  0.53564287  0.68838220  0.71429385  1
  O  O17  1  0.03564287  0.18838220  0.21429385  1
  O  O18  1  0.96435713  0.31161780  0.71429385  1
  O  O19  1  0.46435713  0.81161780  0.21429385  1
  O  O20  1  0.46435713  0.31161780  0.28570615  1
  O  O21  1  0.96435713  0.81161780  0.78570615  1
  O  O22  1  0.03564287  0.68838220  0.28570615  1
  O  O23  1  0.53564287  0.18838220  0.78570615  1
  O  O24  1  0.98313809  0.84631253  0.06523041  1
  O  O25  1  0.48313809  0.34631253  0.56523041  1
  O  O26  1  0.51686191  0.15368747  0.06523041  1
  O  O27  1  0.01686191  0.65368747  0.56523041  1
  O  O28  1  0.01686191  0.15368747  0.93476959  1
  O  O29  1  0.51686191  0.65368747  0.43476959  1
  O  O30  1  0.48313809  0.84631253  0.93476959  1
  O  O31  1  0.98313809  0.34631253  0.43476959  1
