# generated using pymatgen
data_TaAlO4
_symmetry_space_group_name_H-M   'P 1'
_cell_length_a   3.77891429
_cell_length_b   6.35500015
_cell_length_c   6.46165125
_cell_angle_alpha   106.88722982
_cell_angle_beta   90.00000000
_cell_angle_gamma   107.29660781
_symmetry_Int_Tables_number   1
_chemical_formula_structural   TaAlO4
_chemical_formula_sum   'Ta2 Al2 O8'
_cell_volume   141.13544759
_cell_formula_units_Z   2
loop_
 _symmetry_equiv_pos_site_id
 _symmetry_equiv_pos_as_xyz
  1  'x, y, z'
loop_
 _atom_site_type_symbol
 _atom_site_label
 _atom_site_symmetry_multiplicity
 _atom_site_fract_x
 _atom_site_fract_y
 _atom_site_fract_z
 _atom_site_occupancy
  Ta  Ta0  1  0.89419076  0.78837952  0.76649806  1
  Ta  Ta1  1  0.10580924  0.21162048  0.23350194  1
  Al  Al2  1  0.79908059  0.59816217  0.17895459  1
  Al  Al3  1  0.20091941  0.40183783  0.82104541  1
  O  O4  1  0.35796276  0.71592551  0.79752558  1
  O  O5  1  0.64203724  0.28407449  0.20247442  1
  O  O6  1  0.94218677  0.88437453  0.13516783  1
  O  O7  1  0.05781323  0.11562547  0.86483217  1
  O  O8  1  0.14129523  0.28259246  0.52670664  1
  O  O9  1  0.85870477  0.71740754  0.47329336  1
  O  O10  1  0.26256297  0.52512693  0.14190917  1
  O  O11  1  0.73743703  0.47487307  0.85809083  1
