# generated using pymatgen
data_K3BrCl2
_symmetry_space_group_name_H-M   'P 1'
_cell_length_a   4.52161610
_cell_length_b   4.52161610
_cell_length_c   11.09133277
_cell_angle_alpha   90.00000000
_cell_angle_beta   90.00000000
_cell_angle_gamma   120.00000853
_symmetry_Int_Tables_number   1
_chemical_formula_structural   K3BrCl2
_chemical_formula_sum   'K3 Br1 Cl2'
_cell_volume   196.38201126
_cell_formula_units_Z   1
loop_
 _symmetry_equiv_pos_site_id
 _symmetry_equiv_pos_as_xyz
  1  'x, y, z'
loop_
 _atom_site_type_symbol
 _atom_site_label
 _atom_site_symmetry_multiplicity
 _atom_site_fract_x
 _atom_site_fract_y
 _atom_site_fract_z
 _atom_site_occupancy
  K  K0  1  0.00000000  0.00000000  0.50000000  1
  K  K1  1  0.33333300  0.66666700  0.17698219  1
  K  K2  1  0.66666700  0.33333300  0.82301781  1
  Br  Br3  1  0.00000000  0.00000000  -0.00000000  1
  Cl  Cl4  1  0.33333300  0.66666700  0.66169314  1
  Cl  Cl5  1  0.66666700  0.33333300  0.33830686  1
