# generated using pymatgen
data_SmCrO3
_symmetry_space_group_name_H-M   'P 1'
_cell_length_a   5.35209304
_cell_length_b   5.54722294
_cell_length_c   7.65437822
_cell_angle_alpha   90.00000000
_cell_angle_beta   90.00000000
_cell_angle_gamma   90.00000000
_symmetry_Int_Tables_number   1
_chemical_formula_structural   SmCrO3
_chemical_formula_sum   'Sm4 Cr4 O12'
_cell_volume   227.25277374
_cell_formula_units_Z   4
loop_
 _symmetry_equiv_pos_site_id
 _symmetry_equiv_pos_as_xyz
  1  'x, y, z'
loop_
 _atom_site_type_symbol
 _atom_site_label
 _atom_site_symmetry_multiplicity
 _atom_site_fract_x
 _atom_site_fract_y
 _atom_site_fract_z
 _atom_site_occupancy
  Sm  Sm0  1  0.51437101  0.55798237  0.25000000  1
  Sm  Sm1  1  0.98562899  0.05798237  0.25000000  1
  Sm  Sm2  1  0.48562899  0.44201763  0.75000000  1
  Sm  Sm3  1  0.01437101  0.94201763  0.75000000  1
  Cr  Cr4  1  -0.00000000  0.50000000  -0.00000000  1
  Cr  Cr5  1  0.50000000  0.00000000  0.50000000  1
  Cr  Cr6  1  -0.00000000  0.50000000  0.50000000  1
  Cr  Cr7  1  0.50000000  0.00000000  -0.00000000  1
  O  O8  1  0.40735057  0.97404646  0.25000000  1
  O  O9  1  0.09264943  0.47404646  0.25000000  1
  O  O10  1  0.59264943  0.02595354  0.75000000  1
  O  O11  1  0.90735057  0.52595354  0.75000000  1
  O  O12  1  0.79857044  0.79621972  0.04862124  1
  O  O13  1  0.70142956  0.29621972  0.45137876  1
  O  O14  1  0.20142956  0.20378028  0.54862124  1
  O  O15  1  0.29857044  0.70378028  0.95137876  1
  O  O16  1  0.20142956  0.20378028  0.95137876  1
  O  O17  1  0.29857044  0.70378028  0.54862124  1
  O  O18  1  0.79857044  0.79621972  0.45137876  1
  O  O19  1  0.70142956  0.29621972  0.04862124  1
