# generated using pymatgen
data_Dy6Mg(Sb5O12)2
_symmetry_space_group_name_H-M   'P 1'
_cell_length_a   9.71953734
_cell_length_b   9.37210573
_cell_length_c   9.37210573
_cell_angle_alpha   108.70812765
_cell_angle_beta   110.22393826
_cell_angle_gamma   110.22393826
_symmetry_Int_Tables_number   1
_chemical_formula_structural   Dy6Mg(Sb5O12)2
_chemical_formula_sum   'Dy6 Mg1 Sb10 O24'
_cell_volume   650.99712904
_cell_formula_units_Z   1
loop_
 _symmetry_equiv_pos_site_id
 _symmetry_equiv_pos_as_xyz
  1  'x, y, z'
loop_
 _atom_site_type_symbol
 _atom_site_label
 _atom_site_symmetry_multiplicity
 _atom_site_fract_x
 _atom_site_fract_y
 _atom_site_fract_z
 _atom_site_occupancy
  Dy  Dy0  1  0.73136485  0.24324442  0.48790665  1
  Dy  Dy1  1  0.73136485  0.48790665  0.24324442  1
  Dy  Dy2  1  0.48812044  0.24466223  0.75675558  1
  Dy  Dy3  1  0.48812044  0.75675558  0.24466223  1
  Dy  Dy4  1  0.24345820  0.75533777  0.51209335  1
  Dy  Dy5  1  0.24345820  0.51209335  0.75533777  1
  Mg  Mg6  1  0.30807377  0.00000000  0.00000000  1
  Sb  Sb7  1  0.57819155  0.00000000  0.00000000  1
  Sb  Sb8  1  0.24634871  0.00000000  0.29906999  1
  Sb  Sb9  1  0.24634871  0.29906999  0.00000000  1
  Sb  Sb10  1  0.71849276  0.00000000  0.71358989  1
  Sb  Sb11  1  0.71849276  0.71358989  0.00000000  1
  Sb  Sb12  1  0.99334657  0.52430612  0.00000000  1
  Sb  Sb13  1  0.99334657  0.00000000  0.52430612  1
  Sb  Sb14  1  0.46904045  0.47569388  0.47569388  1
  Sb  Sb15  1  0.00490287  0.28641011  0.28641011  1
  Sb  Sb16  1  0.94727872  0.70093001  0.70093001  1
  O  O17  1  0.50961434  0.00000000  0.18468569  1
  O  O18  1  0.50961434  0.18468569  0.00000000  1
  O  O19  1  0.70313024  0.49648420  0.00000000  1
  O  O20  1  0.70313024  0.00000000  0.49648420  1
  O  O21  1  0.81033392  0.30027506  0.30027506  1
  O  O22  1  0.48196665  0.49141765  0.19154309  1
  O  O23  1  0.48196665  0.19154309  0.49141765  1
  O  O24  1  0.51005986  0.69972494  0.00000000  1
  O  O25  1  0.51005986  0.00000000  0.69972494  1
  O  O26  1  0.69115970  0.48894725  0.48894725  1
  O  O27  1  0.80537164  0.28106728  0.79655509  1
  O  O28  1  0.80537164  0.79655509  0.28106728  1
  O  O29  1  0.20221145  0.51105275  0.00000000  1
  O  O30  1  0.20221145  0.00000000  0.51105275  1
  O  O31  1  0.52430336  0.71893272  0.51548681  1
  O  O32  1  0.52430336  0.51548681  0.71893272  1
  O  O33  1  0.00881655  0.48451319  0.20344491  1
  O  O34  1  0.00881655  0.20344491  0.48451319  1
  O  O35  1  0.29042455  0.80845691  0.29987555  1
  O  O36  1  0.29042455  0.29987555  0.80845691  1
  O  O37  1  0.20664704  0.50351580  0.50351580  1
  O  O38  1  0.99054900  0.70012445  0.50858235  1
  O  O39  1  0.99054900  0.50858235  0.70012445  1
  O  O40  1  0.32492765  0.81531431  0.81531431  1
