# generated using pymatgen
data_Sr6Mg(W2O9)2
_symmetry_space_group_name_H-M   'P 1'
_cell_length_a   9.34694927
_cell_length_b   6.82252137
_cell_length_c   7.44605053
_cell_angle_alpha   88.30142095
_cell_angle_beta   76.41112060
_cell_angle_gamma   79.42152704
_symmetry_Int_Tables_number   1
_chemical_formula_structural   Sr6Mg(W2O9)2
_chemical_formula_sum   'Sr6 Mg1 W4 O18'
_cell_volume   453.65129165
_cell_formula_units_Z   1
loop_
 _symmetry_equiv_pos_site_id
 _symmetry_equiv_pos_as_xyz
  1  'x, y, z'
loop_
 _atom_site_type_symbol
 _atom_site_label
 _atom_site_symmetry_multiplicity
 _atom_site_fract_x
 _atom_site_fract_y
 _atom_site_fract_z
 _atom_site_occupancy
  Sr  Sr0  1  0.30994600  0.88275000  0.61671000  1
  Sr  Sr1  1  0.03788400  0.33664500  0.79913100  1
  Sr  Sr2  1  0.35954900  0.74505400  0.09929500  1
  Sr  Sr3  1  0.48074300  0.24188600  0.88269400  1
  Sr  Sr4  1  0.73549600  0.55123700  0.19973300  1
  Sr  Sr5  1  0.80253900  0.04937500  0.39738700  1
  Mg  Mg6  1  0.09073600  0.62794200  0.39167300  1
  W  W7  1  0.87435100  0.84182300  0.82432700  1
  W  W8  1  0.36883400  0.33004900  0.36117400  1
  W  W9  1  0.14864400  0.17541800  0.19089600  1
  W  W10  1  0.67173700  0.64663400  0.65115700  1
  O  O11  1  0.09610900  0.92324400  0.28627500  1
  O  O12  1  0.06784900  0.69696700  0.78614800  1
  O  O13  1  0.66153800  0.92041700  0.78010900  1
  O  O14  1  0.30092600  0.61942100  0.42230800  1
  O  O15  1  0.14204400  0.30278500  0.45610200  1
  O  O16  1  0.22860200  0.43912400  0.14066500  1
  O  O17  1  0.47907800  0.62340400  0.78763400  1
  O  O18  1  0.60692200  0.79214700  0.45947800  1
  O  O19  1  0.82337200  0.87926400  0.07598100  1
  O  O20  1  0.23485900  0.09320800  0.92407300  1
  O  O21  1  0.43533900  0.21248900  0.55854800  1
  O  O22  1  0.88294500  0.71938700  0.53932100  1
  O  O23  1  0.53082600  0.40371300  0.16454500  1
  O  O24  1  0.78471700  0.57279800  0.85643500  1
  O  O25  1  0.72147400  0.40073800  0.53652500  1
  O  O26  1  0.37404700  0.07721400  0.21394700  1
  O  O27  1  0.94821400  0.28230200  0.16110600  1
  O  O28  1  0.91675000  0.07685300  0.72233400  1
