# generated using pymatgen
data_WO3
_symmetry_space_group_name_H-M   'P 1'
_cell_length_a   7.38885511
_cell_length_b   7.54426365
_cell_length_c   7.73825526
_cell_angle_alpha   88.87619406
_cell_angle_beta   89.73269002
_cell_angle_gamma   89.73143903
_symmetry_Int_Tables_number   1
_chemical_formula_structural   WO3
_chemical_formula_sum   'W8 O24'
_cell_volume   431.26498609
_cell_formula_units_Z   8
loop_
 _symmetry_equiv_pos_site_id
 _symmetry_equiv_pos_as_xyz
  1  'x, y, z'
loop_
 _atom_site_type_symbol
 _atom_site_label
 _atom_site_symmetry_multiplicity
 _atom_site_fract_x
 _atom_site_fract_y
 _atom_site_fract_z
 _atom_site_occupancy
  W  W0  1  0.75145804  0.52414424  0.72041969  1
  W  W1  1  0.24854196  0.47585576  0.27958031  1
  W  W2  1  0.75782266  0.02141075  0.78095765  1
  W  W3  1  0.24217734  0.97858925  0.21904235  1
  W  W4  1  0.74862801  0.52271144  0.21967220  1
  W  W5  1  0.25137199  0.47728856  0.78032780  1
  W  W6  1  0.74210384  0.02006302  0.28177129  1
  W  W7  1  0.25789616  0.97993698  0.71822871  1
  O  O8  1  0.78667087  -0.00011943  0.50607970  1
  O  O9  1  0.21332913  1.00011943  0.49392030  1
  O  O10  1  0.78463928  0.50108794  0.99444959  1
  O  O11  1  0.21536072  0.49891206  0.00555041  1
  O  O12  1  0.71537359  0.51845116  0.49439517  1
  O  O13  1  0.28462641  0.48154884  0.50560483  1
  O  O14  1  0.71320562  0.01722093  0.00608876  1
  O  O15  1  0.28679438  0.98277907  0.99391124  1
  O  O16  1  0.00106939  0.96475865  0.78664429  1
  O  O17  1  0.99893061  0.03524135  0.21335571  1
  O  O18  1  0.50211428  0.46436292  0.78354202  1
  O  O19  1  0.49788572  0.53563708  0.21645798  1
  O  O20  1  0.00215278  0.53597025  0.71607612  1
  O  O21  1  0.99784722  0.46402975  0.28392388  1
  O  O22  1  0.50101300  0.03527945  0.71392575  1
  O  O23  1  0.49898700  0.96472055  0.28607425  1
  O  O24  1  0.28529209  0.74216906  0.73826934  1
  O  O25  1  0.71470791  0.25783094  0.26173066  1
  O  O26  1  0.21285022  0.24182637  0.76057025  1
  O  O27  1  0.78714978  0.75817363  0.23942975  1
  O  O28  1  0.21458221  0.74236657  0.25501936  1
  O  O29  1  0.78541779  0.25763343  0.74498064  1
  O  O30  1  0.28741653  0.24199161  0.24402679  1
  O  O31  1  0.71258347  0.75800839  0.75597321  1
