# generated using pymatgen
data_KBa2I5
_symmetry_space_group_name_H-M   'P 1'
_cell_length_a   9.32434052
_cell_length_b   10.38258060
_cell_length_c   14.95073694
_cell_angle_alpha   89.71385549
_cell_angle_beta   90.00000000
_cell_angle_gamma   90.00000000
_symmetry_Int_Tables_number   1
_chemical_formula_structural   KBa2I5
_chemical_formula_sum   'K4 Ba8 I20'
_cell_volume   1447.37351180
_cell_formula_units_Z   4
loop_
 _symmetry_equiv_pos_site_id
 _symmetry_equiv_pos_as_xyz
  1  'x, y, z'
loop_
 _atom_site_type_symbol
 _atom_site_label
 _atom_site_symmetry_multiplicity
 _atom_site_fract_x
 _atom_site_fract_y
 _atom_site_fract_z
 _atom_site_occupancy
  K  K0  1  0.02511687  0.49997200  0.32312503  1
  K  K1  1  0.97488313  0.50002800  0.67687497  1
  K  K2  1  0.52511687  0.50002800  0.17687497  1
  K  K3  1  0.47488313  0.49997200  0.82312503  1
  Ba  Ba4  1  0.02689642  0.00033703  0.32205226  1
  Ba  Ba5  1  0.97310358  -0.00033703  0.67794774  1
  Ba  Ba6  1  0.52689642  -0.00033703  0.17794774  1
  Ba  Ba7  1  0.47310358  0.00033703  0.82205226  1
  Ba  Ba8  1  0.07791440  0.25388019  0.00694857  1
  Ba  Ba9  1  0.92208560  0.74611981  0.99305143  1
  Ba  Ba10  1  0.57791440  0.74611981  0.49305143  1
  Ba  Ba11  1  0.42208560  0.25388019  0.50694857  1
  I  I12  1  0.16728315  0.54163366  0.09988402  1
  I  I13  1  0.83271685  0.45836634  0.90011598  1
  I  I14  1  0.66728315  0.45836634  0.40011598  1
  I  I15  1  0.33271685  0.54163366  0.59988402  1
  I  I16  1  0.83041378  0.22546553  0.18401590  1
  I  I17  1  0.16958622  0.77453447  0.81598410  1
  I  I18  1  0.33041378  0.77453447  0.31598410  1
  I  I19  1  0.66958622  0.22546553  0.68401590  1
  I  I20  1  0.30429008  0.23796836  0.28043690  1
  I  I21  1  0.69570992  0.76203164  0.71956310  1
  I  I22  1  0.80429008  0.76203164  0.21956310  1
  I  I23  1  0.19570992  0.23796836  0.78043690  1
  I  I24  1  0.46246295  0.23148354  0.00232830  1
  I  I25  1  0.53753705  0.76851646  0.99767170  1
  I  I26  1  0.96246295  0.76851646  0.49767170  1
  I  I27  1  0.03753705  0.23148354  0.50232830  1
  I  I28  1  0.66471804  0.04302752  0.40203229  1
  I  I29  1  0.33528196  0.95697248  0.59796771  1
  I  I30  1  0.16471804  0.95697248  0.09796771  1
  I  I31  1  0.83528196  0.04302752  0.90203229  1
