# generated using pymatgen
data_SrSbF5
_symmetry_space_group_name_H-M   'P 1'
_cell_length_a   4.39386251
_cell_length_b   8.76352534
_cell_length_c   11.17043262
_cell_angle_alpha   90.00000000
_cell_angle_beta   90.00000000
_cell_angle_gamma   90.00000000
_symmetry_Int_Tables_number   1
_chemical_formula_structural   SrSbF5
_chemical_formula_sum   'Sr4 Sb4 F20'
_cell_volume   430.12561159
_cell_formula_units_Z   4
loop_
 _symmetry_equiv_pos_site_id
 _symmetry_equiv_pos_as_xyz
  1  'x, y, z'
loop_
 _atom_site_type_symbol
 _atom_site_label
 _atom_site_symmetry_multiplicity
 _atom_site_fract_x
 _atom_site_fract_y
 _atom_site_fract_z
 _atom_site_occupancy
  Sr  Sr0  1  0.01170842  0.25000000  0.00000000  1
  Sr  Sr1  1  0.98829158  0.75000000  0.50000000  1
  Sr  Sr2  1  0.98829158  0.75000000  0.00000000  1
  Sr  Sr3  1  0.01170842  0.25000000  0.50000000  1
  Sb  Sb4  1  0.39128203  0.05520016  0.25000000  1
  Sb  Sb5  1  0.39128203  0.44479984  0.75000000  1
  Sb  Sb6  1  0.60871797  0.55520016  0.25000000  1
  Sb  Sb7  1  0.60871797  0.94479984  0.75000000  1
  F  F8  1  0.08873573  0.98964034  0.38690452  1
  F  F9  1  0.08873573  0.51035966  0.61309548  1
  F  F10  1  0.91126427  0.48964034  0.11309548  1
  F  F11  1  0.91126427  0.01035966  0.88690452  1
  F  F12  1  0.91126427  0.01035966  0.61309548  1
  F  F13  1  0.91126427  0.48964034  0.38690452  1
  F  F14  1  0.08873573  0.51035966  0.88690452  1
  F  F15  1  0.08873573  0.98964034  0.11309548  1
  F  F16  1  0.07449254  0.21632779  0.25000000  1
  F  F17  1  0.07449254  0.28367221  0.75000000  1
  F  F18  1  0.92550746  0.71632779  0.25000000  1
  F  F19  1  0.92550746  0.78367221  0.75000000  1
  F  F20  1  0.47606748  0.70455986  0.11221123  1
  F  F21  1  0.47606748  0.79544014  0.88778877  1
  F  F22  1  0.52393252  0.20455986  0.38778877  1
  F  F23  1  0.52393252  0.29544014  0.61221123  1
  F  F24  1  0.52393252  0.29544014  0.88778877  1
  F  F25  1  0.52393252  0.20455986  0.11221123  1
  F  F26  1  0.47606748  0.79544014  0.61221123  1
  F  F27  1  0.47606748  0.70455986  0.38778877  1
