# generated using pymatgen
data_Na6Mn(SO4)4
_symmetry_space_group_name_H-M   'P 1'
_cell_length_a   8.15748444
_cell_length_b   9.23825809
_cell_length_c   9.61849246
_cell_angle_alpha   90.00000000
_cell_angle_beta   112.80626021
_cell_angle_gamma   90.00000000
_symmetry_Int_Tables_number   1
_chemical_formula_structural   Na6Mn(SO4)4
_chemical_formula_sum   'Na12 Mn2 S8 O32'
_cell_volume   668.18982739
_cell_formula_units_Z   2
loop_
 _symmetry_equiv_pos_site_id
 _symmetry_equiv_pos_as_xyz
  1  'x, y, z'
loop_
 _atom_site_type_symbol
 _atom_site_label
 _atom_site_symmetry_multiplicity
 _atom_site_fract_x
 _atom_site_fract_y
 _atom_site_fract_z
 _atom_site_occupancy
  Na  Na0  1  0.92272217  0.84828012  0.56756833  1
  Na  Na1  1  0.07727783  0.15171988  0.43243167  1
  Na  Na2  1  0.57727783  0.34828012  0.43243167  1
  Na  Na3  1  0.42272217  0.65171988  0.56756833  1
  Na  Na4  1  0.53568684  0.98784194  0.68368511  1
  Na  Na5  1  0.46431316  0.01215806  0.31631489  1
  Na  Na6  1  0.96431316  0.48784194  0.31631489  1
  Na  Na7  1  0.03568684  0.51215806  0.68368511  1
  Na  Na8  1  0.81575314  0.36557315  0.88469981  1
  Na  Na9  1  0.18424686  0.63442685  0.11530019  1
  Na  Na10  1  0.68424686  0.86557315  0.11530019  1
  Na  Na11  1  0.31575314  0.13442685  0.88469981  1
  Mn  Mn12  1  0.00000000  -0.00000000  0.00000000  1
  Mn  Mn13  1  0.50000000  0.50000000  0.00000000  1
  S  S14  1  0.78598161  0.69301026  0.85617132  1
  S  S15  1  0.21401839  0.30698974  0.14382868  1
  S  S16  1  0.71401839  0.19301026  0.14382868  1
  S  S17  1  0.28598161  0.80698974  0.85617132  1
  S  S18  1  0.66566053  0.65583385  0.34663172  1
  S  S19  1  0.33433947  0.34416615  0.65336828  1
  S  S20  1  0.83433947  0.15583385  0.65336828  1
  S  S21  1  0.16566053  0.84416615  0.34663172  1
  O  O22  1  0.84890774  0.80426869  0.97767388  1
  O  O23  1  0.15109226  0.19573131  0.02232612  1
  O  O24  1  0.65109226  0.30426869  0.02232612  1
  O  O25  1  0.34890774  0.69573131  0.97767388  1
  O  O26  1  0.93834195  0.60313490  0.86367004  1
  O  O27  1  0.06165805  0.39686510  0.13632996  1
  O  O28  1  0.56165805  0.10313490  0.13632996  1
  O  O29  1  0.43834195  0.89686510  0.86367004  1
  O  O30  1  0.01213669  0.90997920  0.36470434  1
  O  O31  1  0.98786331  0.09002080  0.63529566  1
  O  O32  1  0.48786331  0.40997920  0.63529566  1
  O  O33  1  0.51213669  0.59002080  0.36470434  1
  O  O34  1  0.70367526  0.76460650  0.70884050  1
  O  O35  1  0.29632474  0.23539350  0.29115950  1
  O  O36  1  0.79632474  0.26460650  0.29115950  1
  O  O37  1  0.20367526  0.73539350  0.70884050  1
  O  O38  1  0.65492971  0.59922990  0.88422553  1
  O  O39  1  0.34506929  0.40077010  0.11577447  1
  O  O40  1  0.84507029  0.09922990  0.11577447  1
  O  O41  1  0.15493071  0.90077010  0.88422553  1
  O  O42  1  0.83277900  0.61179308  0.46994579  1
  O  O43  1  0.16722100  0.38820692  0.53005421  1
  O  O44  1  0.66722100  0.11179308  0.53005421  1
  O  O45  1  0.33277900  0.88820692  0.46994579  1
  O  O46  1  0.32125629  0.39466795  0.79727161  1
  O  O47  1  0.67874371  0.60533205  0.20272839  1
  O  O48  1  0.17874371  0.89466795  0.20272839  1
  O  O49  1  0.82125629  0.10533205  0.79727161  1
  O  O50  1  0.84924725  0.31469020  0.65857371  1
  O  O51  1  0.15075275  0.68530980  0.34142629  1
  O  O52  1  0.65075275  0.81469020  0.34142629  1
  O  O53  1  0.34924725  0.18530980  0.65857371  1
