# generated using pymatgen
data_SmSnF7
_symmetry_space_group_name_H-M   'P 1'
_cell_length_a   5.62789020
_cell_length_b   9.04650265
_cell_length_c   12.17634531
_cell_angle_alpha   62.03797007
_cell_angle_beta   90.00000000
_cell_angle_gamma   90.00000000
_symmetry_Int_Tables_number   1
_chemical_formula_structural   SmSnF7
_chemical_formula_sum   'Sm4 Sn4 F28'
_cell_volume   547.55925176
_cell_formula_units_Z   4
loop_
 _symmetry_equiv_pos_site_id
 _symmetry_equiv_pos_as_xyz
  1  'x, y, z'
loop_
 _atom_site_type_symbol
 _atom_site_label
 _atom_site_symmetry_multiplicity
 _atom_site_fract_x
 _atom_site_fract_y
 _atom_site_fract_z
 _atom_site_occupancy
  Sm  Sm0  1  0.75888385  0.81263375  0.26500618  1
  Sm  Sm1  1  0.25888385  0.18736625  0.23499382  1
  Sm  Sm2  1  0.24111615  0.18736625  0.73499382  1
  Sm  Sm3  1  0.74111615  0.81263375  0.76500618  1
  Sn  Sn4  1  0.24486534  0.72720953  0.54282914  1
  Sn  Sn5  1  0.74486534  0.27279047  0.95717086  1
  Sn  Sn6  1  0.75513466  0.27279047  0.45717086  1
  Sn  Sn7  1  0.25513466  0.72720953  0.04282914  1
  F  F8  1  0.95104652  0.71704124  0.45651989  1
  F  F9  1  0.45104652  0.28295876  0.04348011  1
  F  F10  1  0.04895348  0.28295876  0.54348011  1
  F  F11  1  0.54895348  0.71704124  0.95651989  1
  F  F12  1  0.05088305  0.71118551  0.91699155  1
  F  F13  1  0.55088305  0.28881449  0.58300845  1
  F  F14  1  0.94911695  0.28881449  0.08300845  1
  F  F15  1  0.44911695  0.71118551  0.41699155  1
  F  F16  1  0.73281662  0.51842051  0.86016435  1
  F  F17  1  0.23281662  0.48157949  0.63983565  1
  F  F18  1  0.26718338  0.48157949  0.13983565  1
  F  F19  1  0.76718338  0.51842051  0.36016435  1
  F  F20  1  0.73894960  0.02639846  0.05374443  1
  F  F21  1  0.23894960  0.97360154  0.44625557  1
  F  F22  1  0.26105040  0.97360154  0.94625557  1
  F  F23  1  0.76105040  0.02639846  0.55374443  1
  F  F24  1  0.04893342  0.74317385  0.67192236  1
  F  F25  1  0.54893342  0.25682615  0.82807764  1
  F  F26  1  0.95106658  0.25682615  0.32807764  1
  F  F27  1  0.45106658  0.74317385  0.17192236  1
  F  F28  1  0.02776692  0.27088730  0.86191465  1
  F  F29  1  0.52776692  0.72911270  0.63808535  1
  F  F30  1  0.97223308  0.72911270  0.13808535  1
  F  F31  1  0.47223308  0.27088730  0.36191465  1
  F  F32  1  0.09595412  0.96374850  0.23168610  1
  F  F33  1  0.59595412  0.03625150  0.26831390  1
  F  F34  1  0.90404588  0.03625150  0.76831390  1
  F  F35  1  0.40404588  0.96374850  0.73168610  1
