# generated using pymatgen
data_Zr(TlS)4
_symmetry_space_group_name_H-M   'P 1'
_cell_length_a   9.17788606
_cell_length_b   9.17758276
_cell_length_c   15.67329271
_cell_angle_alpha   103.85339617
_cell_angle_beta   104.92893068
_cell_angle_gamma   90.04713738
_symmetry_Int_Tables_number   1
_chemical_formula_structural   Zr(TlS)4
_chemical_formula_sum   'Zr5 Tl20 S20'
_cell_volume   1235.75536751
_cell_formula_units_Z   5
loop_
 _symmetry_equiv_pos_site_id
 _symmetry_equiv_pos_as_xyz
  1  'x, y, z'
loop_
 _atom_site_type_symbol
 _atom_site_label
 _atom_site_symmetry_multiplicity
 _atom_site_fract_x
 _atom_site_fract_y
 _atom_site_fract_z
 _atom_site_occupancy
  Zr  Zr0  1  0.98395935  0.31829159  0.40059062  1
  Zr  Zr1  1  0.01604065  0.68170841  0.59940938  1
  Zr  Zr2  1  0.82541738  0.69081483  0.80060477  1
  Zr  Zr3  1  0.17458262  0.30918517  0.19939523  1
  Zr  Zr4  1  0.00000000  0.50000000  0.00000000  1
  Tl  Tl5  1  0.95569370  0.92098782  0.20000885  1
  Tl  Tl6  1  0.04430630  0.07901218  0.79999115  1
  Tl  Tl7  1  0.78492913  0.28083212  0.59878710  1
  Tl  Tl8  1  0.21507087  0.71916788  0.40121290  1
  Tl  Tl9  1  0.78339003  0.91347071  0.40314463  1
  Tl  Tl10  1  0.21660997  0.08652929  0.59685537  1
  Tl  Tl11  1  0.77715971  0.54634792  0.20344164  1
  Tl  Tl12  1  0.22284029  0.45365208  0.79655836  1
  Tl  Tl13  1  0.62378489  0.90213535  0.61045363  1
  Tl  Tl14  1  0.37621511  0.09786465  0.38954637  1
  Tl  Tl15  1  0.61328198  0.29912058  0.80854649  1
  Tl  Tl16  1  0.38671802  0.70087942  0.19145351  1
  Tl  Tl17  1  0.58749262  0.53288027  0.40072272  1
  Tl  Tl18  1  0.41250738  0.46711973  0.59927728  1
  Tl  Tl19  1  0.41797619  0.89472820  0.79826299  1
  Tl  Tl20  1  0.58202381  0.10527180  0.20173701  1
  Tl  Tl21  1  0.39172658  0.28439666  0.00139774  1
  Tl  Tl22  1  0.60827342  0.71560334  -0.00139774  1
  Tl  Tl23  1  0.22237893  0.89681085  0.99252068  1
  Tl  Tl24  1  0.77762107  0.10318915  0.00747932  1
  S  S25  1  0.93744742  0.94622820  0.59610485  1
  S  S26  1  0.06255258  0.05377180  0.40389515  1
  S  S27  1  0.93170437  0.60453377  0.42219469  1
  S  S28  1  0.06829563  0.39546623  0.57780531  1
  S  S29  1  0.92698995  0.76542961  0.97863372  1
  S  S30  1  0.07301005  0.23457039  0.02136628  1
  S  S31  1  0.91243914  0.41992518  0.82240949  1
  S  S32  1  0.08756086  0.58007482  0.17759051  1
  S  S33  1  0.76059091  0.95936840  0.80544669  1
  S  S34  1  0.23940909  0.04063160  0.19455331  1
  S  S35  1  0.74930264  0.61348800  0.62303671  1
  S  S36  1  0.25069736  0.38651200  0.37696329  1
  S  S37  1  0.55960616  0.61822843  0.80251806  1
  S  S38  1  0.44039384  0.38177157  0.19748194  1
  S  S39  1  0.28488226  0.75222826  0.60410591  1
  S  S40  1  0.71511774  0.24777174  0.39589409  1
  S  S41  1  0.27090540  0.57120805  0.99701375  1
  S  S42  1  0.72909460  0.42879195  0.00298625  1
  S  S43  1  0.09368008  0.73654765  0.77624144  1
  S  S44  1  0.90631992  0.26345235  0.22375856  1
