# generated using pymatgen
data_La2NCl3
_symmetry_space_group_name_H-M   'P 1'
_cell_length_a   6.16577661
_cell_length_b   6.94324286
_cell_length_c   8.32381453
_cell_angle_alpha   114.64979949
_cell_angle_beta   111.73840891
_cell_angle_gamma   90.00000000
_symmetry_Int_Tables_number   1
_chemical_formula_structural   La2NCl3
_chemical_formula_sum   'La4 N2 Cl6'
_cell_volume   295.76295631
_cell_formula_units_Z   2
loop_
 _symmetry_equiv_pos_site_id
 _symmetry_equiv_pos_as_xyz
  1  'x, y, z'
loop_
 _atom_site_type_symbol
 _atom_site_label
 _atom_site_symmetry_multiplicity
 _atom_site_fract_x
 _atom_site_fract_y
 _atom_site_fract_z
 _atom_site_occupancy
  La  La0  1  0.59366271  0.91667728  0.18732543  1
  La  La1  1  0.40633729  0.08332272  0.81267457  1
  La  La2  1  0.90633729  0.72935186  0.81267457  1
  La  La3  1  0.09366271  0.27064814  0.18732543  1
  N  N4  1  0.25000000  0.00000000  0.00000000  1
  N  N5  1  0.75000000  0.00000000  0.00000000  1
  Cl  Cl6  1  0.25000000  0.50000000  0.00000000  1
  Cl  Cl7  1  0.75000000  0.50000000  0.00000000  1
  Cl  Cl8  1  0.80247845  0.98931518  0.60495689  1
  Cl  Cl9  1  0.19752155  0.01068482  0.39504311  1
  Cl  Cl10  1  0.69752155  0.38435728  0.39504311  1
  Cl  Cl11  1  0.30247845  0.61564272  0.60495689  1
