# generated using pymatgen
data_CaTi3V5O16
_symmetry_space_group_name_H-M   'P 1'
_cell_length_a   6.03609301
_cell_length_b   6.05150201
_cell_length_c   9.41672366
_cell_angle_alpha   90.83308493
_cell_angle_beta   89.61522372
_cell_angle_gamma   120.44906340
_symmetry_Int_Tables_number   1
_chemical_formula_structural   CaTi3V5O16
_chemical_formula_sum   'Ca1 Ti3 V5 O16'
_cell_volume   296.49712073
_cell_formula_units_Z   1
loop_
 _symmetry_equiv_pos_site_id
 _symmetry_equiv_pos_as_xyz
  1  'x, y, z'
loop_
 _atom_site_type_symbol
 _atom_site_label
 _atom_site_symmetry_multiplicity
 _atom_site_fract_x
 _atom_site_fract_y
 _atom_site_fract_z
 _atom_site_occupancy
  Ca  Ca0  1  0.68844500  0.34858900  0.37133100  1
  Ti  Ti1  1  0.19761200  0.84794800  0.18726900  1
  Ti  Ti2  1  0.17958500  0.34170900  0.18523500  1
  Ti  Ti3  1  0.32633200  0.12293900  0.71170800  1
  V  V4  1  0.34882600  0.67895600  0.48556200  1
  V  V5  1  0.69137600  0.83831500  0.19777800  1
  V  V6  1  0.69043400  0.34403500  0.97166900  1
  V  V7  1  0.86319700  0.19093400  0.69854600  1
  V  V8  1  0.79942600  0.66282200  0.71992000  1
  O  O9  1  0.16497900  0.82950900  0.59898900  1
  O  O10  1  0.08516400  0.53213400  0.32009000  1
  O  O11  1  0.35129000  0.66826600  0.08793200  1
  O  O12  1  0.02593300  0.01146200  0.29452400  1
  O  O13  1  0.00372500  0.01048600  0.80499300  1
  O  O14  1  0.15711100  0.33944800  0.59678300  1
  O  O15  1  0.48445800  0.94898400  0.32267100  1
  O  O16  1  0.50225600  0.55672600  0.32043700  1
  O  O17  1  0.36883100  0.18177900  0.10181600  1
  O  O18  1  0.66685700  0.84333100  0.60183900  1
  O  O19  1  0.52999200  0.49010100  0.83151200  1
  O  O20  1  0.52849100  0.05244800  0.82696600  1
  O  O21  1  0.66053900  0.33629900  0.60276900  1
  O  O22  1  0.85321400  0.66038900  0.10504100  1
  O  O23  1  0.95504300  0.48643500  0.82688600  1
  O  O24  1  0.84563500  0.16573600  0.10059700  1
