# generated using pymatgen
data_Rb3SbSe4
_symmetry_space_group_name_H-M   'P 1'
_cell_length_a   9.96770840
_cell_length_b   10.35305399
_cell_length_c   11.57175110
_cell_angle_alpha   90.00000000
_cell_angle_beta   90.00000000
_cell_angle_gamma   90.00000000
_symmetry_Int_Tables_number   1
_chemical_formula_structural   Rb3SbSe4
_chemical_formula_sum   'Rb12 Sb4 Se16'
_cell_volume   1194.16100958
_cell_formula_units_Z   4
loop_
 _symmetry_equiv_pos_site_id
 _symmetry_equiv_pos_as_xyz
  1  'x, y, z'
loop_
 _atom_site_type_symbol
 _atom_site_label
 _atom_site_symmetry_multiplicity
 _atom_site_fract_x
 _atom_site_fract_y
 _atom_site_fract_z
 _atom_site_occupancy
  Rb  Rb0  1  0.93439420  0.30180717  0.95547279  1
  Rb  Rb1  1  0.43439420  0.19819283  0.95547279  1
  Rb  Rb2  1  0.56560580  0.80180717  0.45547279  1
  Rb  Rb3  1  0.06560580  0.69819283  0.04452721  1
  Rb  Rb4  1  0.13799649  0.91892426  0.75000000  1
  Rb  Rb5  1  0.63799649  0.58107574  0.75000000  1
  Rb  Rb6  1  0.36200351  0.41892426  0.25000000  1
  Rb  Rb7  1  0.86200351  0.08107574  0.25000000  1
  Rb  Rb8  1  0.06560580  0.69819283  0.45547279  1
  Rb  Rb9  1  0.43439420  0.19819283  0.54452721  1
  Rb  Rb10  1  0.56560580  0.80180717  0.04452721  1
  Rb  Rb11  1  0.93439420  0.30180717  0.54452721  1
  Sb  Sb12  1  0.77831075  0.52038256  0.25000000  1
  Sb  Sb13  1  0.27831075  0.97961744  0.25000000  1
  Sb  Sb14  1  0.72168925  0.02038256  0.75000000  1
  Sb  Sb15  1  0.22168925  0.47961744  0.75000000  1
  Se  Se16  1  0.65022542  0.46702088  0.07199490  1
  Se  Se17  1  0.15022542  0.03297912  0.42800510  1
  Se  Se18  1  0.84977458  0.96702088  0.92800510  1
  Se  Se19  1  0.34977458  0.53297912  0.57199490  1
  Se  Se20  1  0.34977458  0.53297912  0.92800510  1
  Se  Se21  1  0.84977458  0.96702088  0.57199490  1
  Se  Se22  1  0.15022542  0.03297912  0.07199490  1
  Se  Se23  1  0.65022542  0.46702088  0.42800510  1
  Se  Se24  1  0.00131559  0.59516508  0.75000000  1
  Se  Se25  1  0.50131559  0.90483492  0.75000000  1
  Se  Se26  1  0.49868441  0.09516508  0.25000000  1
  Se  Se27  1  0.99868441  0.40483492  0.25000000  1
  Se  Se28  1  0.17832637  0.24309391  0.75000000  1
  Se  Se29  1  0.82167363  0.75690609  0.25000000  1
  Se  Se30  1  0.32167363  0.74309391  0.25000000  1
  Se  Se31  1  0.67832637  0.25690609  0.75000000  1
