# generated using pymatgen
data_Na11B21(ClO18)2
_symmetry_space_group_name_H-M   'P 1'
_cell_length_a   8.92044215
_cell_length_b   9.04560904
_cell_length_c   24.01420428
_cell_angle_alpha   97.50872982
_cell_angle_beta   90.00000002
_cell_angle_gamma   60.45669201
_symmetry_Int_Tables_number   1
_chemical_formula_structural   Na11B21(ClO18)2
_chemical_formula_sum   'Na22 B42 Cl4 O72'
_cell_volume   1666.66334548
_cell_formula_units_Z   2
loop_
 _symmetry_equiv_pos_site_id
 _symmetry_equiv_pos_as_xyz
  1  'x, y, z'
loop_
 _atom_site_type_symbol
 _atom_site_label
 _atom_site_symmetry_multiplicity
 _atom_site_fract_x
 _atom_site_fract_y
 _atom_site_fract_z
 _atom_site_occupancy
  Na  Na0  1  0.72089440  0.24561914  0.16191465  1
  Na  Na1  1  0.96654198  0.75362380  0.33812154  1
  Na  Na2  1  0.27983422  0.75362380  0.83812154  1
  Na  Na3  1  0.03348646  0.24561914  0.66191465  1
  Na  Na4  1  0.45888638  0.02179296  0.34530027  1
  Na  Na5  1  0.48281894  0.97515758  0.15421623  1
  Na  Na6  1  0.54202348  0.97515758  0.65421623  1
  Na  Na7  1  0.51932065  0.02179296  0.84530027  1
  Na  Na8  1  0.75611931  0.18909357  0.02011104  1
  Na  Na9  1  0.93579283  0.81076001  0.48002081  1
  Na  Na10  1  0.25344717  0.81076001  0.98002081  1
  Na  Na11  1  0.05478713  0.18909357  0.52011104  1
  Na  Na12  1  0.98461457  0.72162764  0.15732614  1
  Na  Na13  1  0.70592794  0.27965673  0.34274346  1
  Na  Na14  1  0.01441533  0.27965673  0.84274346  1
  Na  Na15  1  0.29375780  0.72162764  0.65732614  1
  Na  Na16  1  0.44328121  0.12217012  0.00567624  1
  Na  Na17  1  0.43454867  0.12217012  0.50567624  1
  Na  Na18  1  0.98257859  0.33943119  0.97227120  1
  Na  Na19  1  0.32482103  0.66513685  0.52720767  1
  Na  Na20  1  0.01004212  0.66513685  0.02720767  1
  Na  Na21  1  0.67799022  0.33943119  0.47227120  1
  B  B22  1  0.28283955  0.37962648  0.21028352  1
  B  B23  1  0.66212904  0.62035414  0.28975857  1
  B  B24  1  0.71751682  0.62035414  0.78975857  1
  B  B25  1  0.33753397  0.37962648  0.71028352  1
  B  B26  1  0.18445577  0.36209065  0.10830024  1
  B  B27  1  0.54707330  0.63928682  0.39193679  1
  B  B28  1  0.81363988  0.63928682  0.89193679  1
  B  B29  1  0.45345358  0.36209066  0.60830024  1
  B  B30  1  0.88208962  0.43075676  0.08671772  1
  B  B31  1  0.31325542  0.56981827  0.41338758  1
  B  B32  1  0.11692631  0.56981827  0.91338758  1
  B  B33  1  0.68715362  0.43075676  0.58671772  1
  B  B34  1  0.16817700  0.93952380  0.20105677  1
  B  B35  1  0.10771831  0.06092822  0.29926181  1
  B  B36  1  0.83135347  0.06092822  0.79926181  1
  B  B37  1  0.89229920  0.93952380  0.70105677  1
  B  B38  1  0.35908241  0.50123405  0.07961644  1
  B  B39  1  0.85947551  0.49920317  0.42002987  1
  B  B40  1  0.64132131  0.49920317  0.92002987  1
  B  B41  1  0.13968354  0.50123405  0.57961644  1
  B  B42  1  0.55571404  0.16236704  0.25050082  1
  B  B43  1  0.71815207  0.83740988  0.24953329  1
  B  B44  1  0.44443806  0.83740988  0.74953329  1
  B  B45  1  0.28191893  0.16236704  0.75050082  1
  B  B46  1  0.74991530  0.56844507  0.19037327  1
  B  B47  1  0.31835664  0.43148586  0.30969144  1
  B  B48  1  0.25015750  0.43148586  0.80969144  1
  B  B49  1  0.68163963  0.56844507  0.69037327  1
  B  B50  1  0.88641977  0.00005799  0.25005524  1
  B  B51  1  0.11352224  0.00005799  0.75005524  1
  B  B52  1  0.27903467  0.81427083  0.09783184  1
  B  B53  1  0.09283070  0.18481164  0.40258325  1
  B  B54  1  0.72235766  0.18481164  0.90258325  1
  B  B55  1  0.90669450  0.81427083  0.59783184  1
  B  B56  1  0.57803933  0.58462381  0.06213521  1
  B  B57  1  0.16141342  0.41665564  0.43777317  1
  B  B58  1  0.42193094  0.41665564  0.93777317  1
  B  B59  1  0.83733685  0.58462381  0.56213521  1
  B  B60  1  0.11388744  0.12546185  0.07879254  1
  B  B61  1  0.24020463  0.87343685  0.42113381  1
  B  B62  1  0.88635852  0.87343685  0.92113381  1
  B  B63  1  0.76065070  0.12546185  0.57879254  1
  Cl  Cl64  1  0.72810921  0.96708050  0.07393348  1
  Cl  Cl65  1  0.69212805  0.04087207  0.42598588  1
  Cl  Cl66  1  0.26699987  0.04087207  0.92598588  1
  Cl  Cl67  1  0.30481029  0.96708050  0.57393348  1
  O  O68  1  0.14872675  0.95734950  0.07155114  1
  O  O69  1  0.10660754  0.04205175  0.42883333  1
  O  O70  1  0.85134071  0.04205175  0.92883333  1
  O  O71  1  0.89392375  0.95734950  0.57155114  1
  O  O72  1  0.74793754  0.53281270  0.04942843  1
  O  O73  1  0.28191258  0.46555701  0.45081728  1
  O  O74  1  0.25253041  0.46555701  0.95081728  1
  O  O75  1  0.71924976  0.53281270  0.54942843  1
  O  O76  1  0.29206614  0.86416660  0.15679427  1
  O  O77  1  0.15636389  0.13627342  0.34364580  1
  O  O78  1  0.70736269  0.13627342  0.84364580  1
  O  O79  1  0.84376726  0.86416660  0.65679427  1
  O  O80  1  0.72318209  0.15025705  0.24389715  1
  O  O81  1  0.87349130  0.84978124  0.25617041  1
  O  O82  1  0.27672745  0.84978124  0.75617041  1
  O  O83  1  0.12656086  0.15025705  0.74389715  1
  O  O84  1  0.21577247  0.00037704  0.25011812  1
  O  O85  1  0.78385049  0.00037704  0.75011812  1
  O  O86  1  0.46570944  0.27615275  0.30652661  1
  O  O87  1  0.74209289  0.72371571  0.19340244  1
  O  O88  1  0.53419140  0.72371571  0.69340244  1
  O  O89  1  0.25813781  0.27615275  0.80652661  1
  O  O90  1  0.22850312  0.17671544  0.09889127  1
  O  O91  1  0.40370155  0.82274225  0.39978238  1
  O  O92  1  0.77355620  0.82274225  0.89978238  1
  O  O93  1  0.59478144  0.17671544  0.59889127  1
  O  O94  1  0.69669812  0.75358105  0.29763525  1
  O  O95  1  0.45025616  0.24622151  0.20227214  1
  O  O96  1  0.30352233  0.24622151  0.70227214  1
  O  O97  1  0.54972082  0.75358105  0.79763525  1
  O  O98  1  0.02009423  0.47248968  0.08454014  1
  O  O99  1  0.49232989  0.52782756  0.41549439  1
  O  O100  1  0.97984255  0.52782756  0.91549439  1
  O  O101  1  0.50741609  0.47248968  0.58454014  1
  O  O102  1  0.95534794  0.24308450  0.06186302  1
  O  O103  1  0.19772370  0.75651882  0.43834892  1
  O  O104  1  0.04575748  0.75651882  0.93834892  1
  O  O105  1  0.80156755  0.24308450  0.56186302  1
  O  O106  1  0.21838519  0.47776347  0.26358153  1
  O  O107  1  0.69614575  0.52223690  0.23635128  1
  O  O108  1  0.78161735  0.52223690  0.73635128  1
  O  O109  1  0.30385135  0.47776347  0.76358153  1
  O  O110  1  0.32891932  0.36738146  0.07786764  1
  O  O111  1  0.69728865  0.63154129  0.42063528  1
  O  O112  1  0.67117006  0.63154129  0.92063528  1
  O  O113  1  0.30369923  0.36738146  0.57786764  1
  O  O114  1  0.00724413  0.95735581  0.19812026  1
  O  O115  1  0.96461363  0.04289145  0.30203586  1
  O  O116  1  0.99249492  0.04289145  0.80203586  1
  O  O117  1  0.03540006  0.95735581  0.69812026  1
  O  O118  1  0.53241024  0.45676209  0.06747064  1
  O  O119  1  0.99027049  0.54251137  0.43176046  1
  O  O120  1  0.46721814  0.54251137  0.93176046  1
  O  O121  1  0.01082767  0.45676209  0.56747064  1
  O  O122  1  0.80335592  0.44803958  0.14277422  1
  O  O123  1  0.25109947  0.55128419  0.35741517  1
  O  O124  1  0.19761635  0.55128419  0.85741517  1
  O  O125  1  0.74860451  0.44803958  0.64277422  1
  O  O126  1  0.56251687  0.99996416  0.24996079  1
  O  O127  1  0.43751897  0.99996416  0.74996079  1
  O  O128  1  0.23259240  0.67209366  0.08958466  1
  O  O129  1  0.90606811  0.32695983  0.41107650  1
  O  O130  1  0.76697207  0.32695983  0.91107650  1
  O  O131  1  0.09531394  0.67209366  0.58958466  1
  O  O132  1  0.17214309  0.42870226  0.16830586  1
  O  O133  1  0.59996053  0.57131482  0.33140638  1
  O  O134  1  0.82872465  0.57131482  0.83140638  1
  O  O135  1  0.39915465  0.42870226  0.66830586  1
  O  O136  1  0.45055512  0.75179774  0.06763244  1
  O  O137  1  0.20341056  0.24785336  0.43398675  1
  O  O138  1  0.54873608  0.24785336  0.93398675  1
  O  O139  1  0.79764714  0.75179774  0.56763244  1
