# generated using pymatgen
data_CsBr2F7
_symmetry_space_group_name_H-M   'P 1'
_cell_length_a   7.63646644
_cell_length_b   8.04725580
_cell_length_c   14.19075189
_cell_angle_alpha   90.00000000
_cell_angle_beta   122.35100115
_cell_angle_gamma   90.00000000
_symmetry_Int_Tables_number   1
_chemical_formula_structural   CsBr2F7
_chemical_formula_sum   'Cs4 Br8 F28'
_cell_volume   736.70275242
_cell_formula_units_Z   4
loop_
 _symmetry_equiv_pos_site_id
 _symmetry_equiv_pos_as_xyz
  1  'x, y, z'
loop_
 _atom_site_type_symbol
 _atom_site_label
 _atom_site_symmetry_multiplicity
 _atom_site_fract_x
 _atom_site_fract_y
 _atom_site_fract_z
 _atom_site_occupancy
  Cs  Cs0  1  0.87784539  0.91626125  0.30967648  1
  Cs  Cs1  1  0.12215461  0.41626125  0.19032352  1
  Cs  Cs2  1  0.12215461  0.08373875  0.69032352  1
  Cs  Cs3  1  0.87784539  0.58373875  0.80967648  1
  Br  Br4  1  0.23947683  0.92495806  0.12135407  1
  Br  Br5  1  0.76052317  0.42495806  0.37864593  1
  Br  Br6  1  0.76052317  0.07504194  0.87864593  1
  Br  Br7  1  0.23947683  0.57504194  0.62135407  1
  Br  Br8  1  0.51923031  0.72092994  0.98100310  1
  Br  Br9  1  0.48076969  0.22092994  0.51899690  1
  Br  Br10  1  0.48076969  0.27907006  0.01899690  1
  Br  Br11  1  0.51923031  0.77907006  0.48100310  1
  F  F12  1  0.38973900  0.11417299  0.20045630  1
  F  F13  1  0.61026100  0.61417299  0.29954370  1
  F  F14  1  0.61026100  0.88582701  0.79954370  1
  F  F15  1  0.38973900  0.38582701  0.70045630  1
  F  F16  1  0.08407288  0.73305668  0.04283555  1
  F  F17  1  0.91592712  0.23305668  0.45716445  1
  F  F18  1  0.91592712  0.26694332  0.95716445  1
  F  F19  1  0.08407288  0.76694332  0.54283555  1
  F  F20  1  0.04729313  0.97517121  0.15487309  1
  F  F21  1  0.95270687  0.47517121  0.34512691  1
  F  F22  1  0.95270687  0.02482879  0.84512691  1
  F  F23  1  0.04729313  0.52482879  0.65487309  1
  F  F24  1  0.46674619  0.88517136  0.08115649  1
  F  F25  1  0.53325381  0.38517136  0.41884351  1
  F  F26  1  0.53325381  0.11482864  0.91884351  1
  F  F27  1  0.46674619  0.61482864  0.58115649  1
  F  F28  1  0.27003517  0.77805773  0.84676879  1
  F  F29  1  0.72996483  0.27805773  0.65323121  1
  F  F30  1  0.72996483  0.22194227  0.15323121  1
  F  F31  1  0.27003517  0.72194227  0.34676879  1
  F  F32  1  0.58318425  0.58186499  0.90389518  1
  F  F33  1  0.41681575  0.08186499  0.59610482  1
  F  F34  1  0.41681575  0.41813501  0.09610482  1
  F  F35  1  0.58318425  0.91813501  0.40389518  1
  F  F36  1  0.76593822  0.65514290  0.11255905  1
  F  F37  1  0.23406178  0.15514290  0.38744095  1
  F  F38  1  0.23406178  0.34485710  0.88744095  1
  F  F39  1  0.76593822  0.84485710  0.61255905  1
