# generated using pymatgen
data_CdSe
_symmetry_space_group_name_H-M   'P 1'
_cell_length_a   4.34608591
_cell_length_b   4.34608486
_cell_length_c   7.08983988
_cell_angle_alpha   90.00000000
_cell_angle_beta   90.00000000
_cell_angle_gamma   120.00000020
_symmetry_Int_Tables_number   1
_chemical_formula_structural   CdSe
_chemical_formula_sum   'Cd2 Se2'
_cell_volume   115.97478238
_cell_formula_units_Z   2
loop_
 _symmetry_equiv_pos_site_id
 _symmetry_equiv_pos_as_xyz
  1  'x, y, z'
loop_
 _atom_site_type_symbol
 _atom_site_label
 _atom_site_symmetry_multiplicity
 _atom_site_fract_x
 _atom_site_fract_y
 _atom_site_fract_z
 _atom_site_occupancy
  Cd  Cd0  1  0.66666700  0.33333300  0.49995336  1
  Cd  Cd1  1  0.33333300  0.66666700  -0.00004664  1
  Se  Se2  1  0.66666700  0.33333300  0.87590664  1
  Se  Se3  1  0.33333300  0.66666700  0.37590664  1
