# generated using pymatgen
data_K2SmCl5
_symmetry_space_group_name_H-M   'P 1'
_cell_length_a   7.96807115
_cell_length_b   8.65308506
_cell_length_c   12.73943284
_cell_angle_alpha   90.00000000
_cell_angle_beta   90.00000000
_cell_angle_gamma   90.00000000
_symmetry_Int_Tables_number   1
_chemical_formula_structural   K2SmCl5
_chemical_formula_sum   'K8 Sm4 Cl20'
_cell_volume   878.36347842
_cell_formula_units_Z   4
loop_
 _symmetry_equiv_pos_site_id
 _symmetry_equiv_pos_as_xyz
  1  'x, y, z'
loop_
 _atom_site_type_symbol
 _atom_site_label
 _atom_site_symmetry_multiplicity
 _atom_site_fract_x
 _atom_site_fract_y
 _atom_site_fract_z
 _atom_site_occupancy
  K  K0  1  0.55064635  0.49539920  0.82799155  1
  K  K1  1  0.44935365  0.50460080  0.17200845  1
  K  K2  1  0.05064635  0.50460080  0.67200845  1
  K  K3  1  0.44935365  -0.00460080  0.17200845  1
  K  K4  1  0.94935365  0.49539920  0.32799155  1
  K  K5  1  0.55064635  0.00460080  0.82799155  1
  K  K6  1  0.94935365  0.00460080  0.32799155  1
  K  K7  1  0.05064635  -0.00460080  0.67200845  1
  Sm  Sm8  1  0.57666385  0.75000000  0.50503507  1
  Sm  Sm9  1  0.42333615  0.25000000  0.49496493  1
  Sm  Sm10  1  0.07666385  0.25000000  0.99496493  1
  Sm  Sm11  1  0.92333615  0.75000000  0.00503507  1
  Cl  Cl12  1  0.83675706  0.75000000  0.79642997  1
  Cl  Cl13  1  0.16324294  0.25000000  0.20357003  1
  Cl  Cl14  1  0.33675706  0.25000000  0.70357003  1
  Cl  Cl15  1  0.66324294  0.75000000  0.29642997  1
  Cl  Cl16  1  0.37220541  0.75000000  0.67756100  1
  Cl  Cl17  1  0.62779459  0.25000000  0.32243900  1
  Cl  Cl18  1  0.87220541  0.25000000  0.82243900  1
  Cl  Cl19  1  0.12779459  0.75000000  0.17756100  1
  Cl  Cl20  1  0.92300249  0.75000000  0.50817761  1
  Cl  Cl21  1  0.07699751  0.25000000  0.49182239  1
  Cl  Cl22  1  0.42300249  0.25000000  0.99182239  1
  Cl  Cl23  1  0.57699751  0.75000000  0.00817761  1
  Cl  Cl24  1  0.66425683  0.04303583  0.57725989  1
  Cl  Cl25  1  0.33574317  0.95696417  0.42274011  1
  Cl  Cl26  1  0.16425683  0.95696417  0.92274011  1
  Cl  Cl27  1  0.33574317  0.54303583  0.42274011  1
  Cl  Cl28  1  0.83574317  0.04303583  0.07725989  1
  Cl  Cl29  1  0.66425683  0.45696417  0.57725989  1
  Cl  Cl30  1  0.83574317  0.45696417  0.07725989  1
  Cl  Cl31  1  0.16425683  0.54303583  0.92274011  1
