# generated using pymatgen
data_KTiPO5
_symmetry_space_group_name_H-M   'P 1'
_cell_length_a   6.42726046
_cell_length_b   10.44750828
_cell_length_c   12.80035444
_cell_angle_alpha   90.00000000
_cell_angle_beta   90.00000000
_cell_angle_gamma   90.00000000
_symmetry_Int_Tables_number   1
_chemical_formula_structural   KTiPO5
_chemical_formula_sum   'K8 Ti8 P8 O40'
_cell_volume   859.52916822
_cell_formula_units_Z   8
loop_
 _symmetry_equiv_pos_site_id
 _symmetry_equiv_pos_as_xyz
  1  'x, y, z'
loop_
 _atom_site_type_symbol
 _atom_site_label
 _atom_site_symmetry_multiplicity
 _atom_site_fract_x
 _atom_site_fract_y
 _atom_site_fract_z
 _atom_site_occupancy
  K  K0  1  0.70992610  0.61193005  0.89382925  1
  K  K1  1  0.29007390  0.11193005  0.10617075  1
  K  K2  1  0.20992610  0.11193005  0.60617075  1
  K  K3  1  0.79007390  0.61193005  0.39382925  1
  K  K4  1  0.79624598  0.87137997  0.61431822  1
  K  K5  1  0.20375402  0.37137997  0.38568178  1
  K  K6  1  0.29624598  0.37137997  0.88568178  1
  K  K7  1  0.70375402  0.87137997  0.11431822  1
  Ti  Ti8  1  0.00489577  0.99032412  0.87256907  1
  Ti  Ti9  1  0.99510423  0.49032412  0.12743093  1
  Ti  Ti10  1  0.50489577  0.49032412  0.62743093  1
  Ti  Ti11  1  0.49510423  0.99032412  0.37256907  1
  Ti  Ti12  1  0.24986434  0.73098869  0.76071110  1
  Ti  Ti13  1  0.75013566  0.23098869  0.23928890  1
  Ti  Ti14  1  0.74986434  0.23098869  0.73928890  1
  Ti  Ti15  1  0.25013566  0.73098869  0.26071110  1
  P  P16  1  0.16855114  0.74563698  0.01076676  1
  P  P17  1  0.83144886  0.24563698  0.98923324  1
  P  P18  1  0.66855114  0.24563698  0.48923324  1
  P  P19  1  0.33144886  0.74563698  0.51076676  1
  P  P20  1  0.00698245  0.48366094  0.67829665  1
  P  P21  1  0.99301755  0.98366094  0.32170335  1
  P  P22  1  0.50698245  0.98366094  0.82170335  1
  P  P23  1  0.49301755  0.48366094  0.17829665  1
  O  O24  1  0.04847563  0.87111494  0.99875128  1
  O  O25  1  0.95152437  0.37111494  0.00124872  1
  O  O26  1  0.54847563  0.37111494  0.50124872  1
  O  O27  1  0.45152437  0.87111494  0.49875128  1
  O  O28  1  0.01247677  0.63632415  0.02354377  1
  O  O29  1  0.98752323  0.13632415  0.97645623  1
  O  O30  1  0.51247677  0.13632415  0.47645623  1
  O  O31  1  0.48752323  0.63632415  0.52354377  1
  O  O32  1  0.30574761  0.71583706  0.91500406  1
  O  O33  1  0.69425239  0.21583706  0.08499594  1
  O  O34  1  0.80574761  0.21583706  0.58499594  1
  O  O35  1  0.19425239  0.71583706  0.41500406  1
  O  O36  1  0.30871696  0.75682959  0.10771791  1
  O  O37  1  0.69128304  0.25682959  0.89228209  1
  O  O38  1  0.80871696  0.25682959  0.39228209  1
  O  O39  1  0.19128304  0.75682959  0.60771791  1
  O  O40  1  0.54072994  0.34923478  0.71150602  1
  O  O41  1  0.45927006  0.84923478  0.28849398  1
  O  O42  1  0.04072994  0.84923478  0.78849398  1
  O  O43  1  0.95927006  0.34923478  0.21150602  1
  O  O44  1  0.45508990  0.60223903  0.73296009  1
  O  O45  1  0.54491010  0.10223903  0.26703991  1
  O  O46  1  0.95508990  0.10223903  0.76703991  1
  O  O47  1  0.04491010  0.60223903  0.23296009  1
  O  O48  1  0.19449117  0.46293879  0.60613302  1
  O  O49  1  0.80550883  0.96293879  0.39386698  1
  O  O50  1  0.69449117  0.96293879  0.89386698  1
  O  O51  1  0.30550883  0.46293879  0.10613302  1
  O  O52  1  0.81557408  0.51982451  0.61432599  1
  O  O53  1  0.18442592  0.01982451  0.38567401  1
  O  O54  1  0.31557408  0.01982451  0.88567401  1
  O  O55  1  0.68442592  0.51982451  0.11432599  1
  O  O56  1  0.97061118  0.36080872  0.74223011  1
  O  O57  1  0.02938882  0.86080872  0.25776989  1
  O  O58  1  0.47061118  0.86080872  0.75776989  1
  O  O59  1  0.52938882  0.36080872  0.24223011  1
  O  O60  1  0.04745316  0.58882467  0.76008940  1
  O  O61  1  0.95254684  0.08882467  0.23991060  1
  O  O62  1  0.54745316  0.08882467  0.73991060  1
  O  O63  1  0.45254684  0.58882467  0.26008940  1
