# generated using pymatgen
data_AgP15
_symmetry_space_group_name_H-M   'P 1'
_cell_length_a   7.14130340
_cell_length_b   9.07781599
_cell_length_c   11.47206486
_cell_angle_alpha   100.32955382
_cell_angle_beta   97.66318609
_cell_angle_gamma   107.34785757
_symmetry_Int_Tables_number   1
_chemical_formula_structural   AgP15
_chemical_formula_sum   'Ag2 P30'
_cell_volume   684.41034232
_cell_formula_units_Z   2
loop_
 _symmetry_equiv_pos_site_id
 _symmetry_equiv_pos_as_xyz
  1  'x, y, z'
loop_
 _atom_site_type_symbol
 _atom_site_label
 _atom_site_symmetry_multiplicity
 _atom_site_fract_x
 _atom_site_fract_y
 _atom_site_fract_z
 _atom_site_occupancy
  Ag  Ag0  1  0.34216605  0.72444524  0.50564248  1
  Ag  Ag1  1  0.65783395  0.27555476  0.49435752  1
  P  P2  1  0.95144404  0.56156269  0.80952852  1
  P  P3  1  0.04855596  0.43843731  0.19047148  1
  P  P4  1  0.95884026  -0.00341091  0.65437665  1
  P  P5  1  0.04115974  0.00341091  0.34562335  1
  P  P6  1  0.90151885  0.78024964  0.20963315  1
  P  P7  1  0.09848115  0.21975036  0.79036685  1
  P  P8  1  0.85383976  0.54845825  0.62055725  1
  P  P9  1  0.14616024  0.45154175  0.37944275  1
  P  P10  1  0.78933223  0.87985821  0.77612131  1
  P  P11  1  0.21066777  0.12014179  0.22387869  1
  P  P12  1  0.73681725  0.68579302  0.34195168  1
  P  P13  1  0.26318275  0.31420698  0.65804832  1
  P  P14  1  0.68467346  0.48960130  0.89250090  1
  P  P15  1  0.31532654  0.51039870  0.10749910  1
  P  P16  1  0.66520335  0.83250728  0.08006837  1
  P  P17  1  0.33479665  0.16749272  0.91993163  1
  P  P18  1  0.62129848  0.65337584  0.64621774  1
  P  P19  1  0.37870152  0.34662416  0.35378226  1
  P  P20  1  0.60523141  0.23226991  0.84309630  1
  P  P21  1  0.39476859  0.76773009  0.15690370  1
  P  P22  1  0.54183789  0.83712298  0.35102398  1
  P  P23  1  0.45816211  0.16287702  0.64897602  1
  P  P24  1  0.45107262  0.54435080  0.77432595  1
  P  P25  1  0.54892738  0.45564920  0.22567405  1
  P  P26  1  0.29982884  0.91965297  0.84312134  1
  P  P27  1  0.70017116  0.08034703  0.15687866  1
  P  P28  1  0.23254618  0.91991348  0.64711584  1
  P  P29  1  0.76745382  0.08008652  0.35288416  1
  P  P30  1  0.01466230  0.81434881  0.89430292  1
  P  P31  1  0.98533770  0.18565119  0.10569708  1
