# generated using pymatgen
data_Na5Tb(MoO4)4
_symmetry_space_group_name_H-M   'P 1'
_cell_length_a   9.82390796
_cell_length_b   9.82390796
_cell_length_c   9.82390796
_cell_angle_alpha   109.33195037
_cell_angle_beta   109.33195037
_cell_angle_gamma   109.75012167
_symmetry_Int_Tables_number   1
_chemical_formula_structural   Na5Tb(MoO4)4
_chemical_formula_sum   'Na10 Tb2 Mo8 O32'
_cell_volume   729.83257071
_cell_formula_units_Z   2
loop_
 _symmetry_equiv_pos_site_id
 _symmetry_equiv_pos_as_xyz
  1  'x, y, z'
loop_
 _atom_site_type_symbol
 _atom_site_label
 _atom_site_symmetry_multiplicity
 _atom_site_fract_x
 _atom_site_fract_y
 _atom_site_fract_z
 _atom_site_occupancy
  Na  Na0  1  0.08913112  0.67270921  0.82521612  1
  Na  Na1  1  0.92270921  0.59749309  0.08357809  1
  Na  Na2  1  0.51391500  0.83913112  0.91642191  1
  Na  Na3  1  0.84749309  0.26391500  0.17478388  1
  Na  Na4  1  0.16086888  0.07729079  0.67478388  1
  Na  Na5  1  0.32729079  0.15250691  0.41642191  1
  Na  Na6  1  0.73608500  0.91086888  0.58357809  1
  Na  Na7  1  0.40250691  0.48608500  0.32521612  1
  Na  Na8  1  0.25000000  0.75000000  0.50000000  1
  Na  Na9  1  -0.00000000  -0.00000000  -0.00000000  1
  Tb  Tb10  1  0.50000000  0.50000000  -0.00000000  1
  Tb  Tb11  1  0.75000000  0.25000000  0.50000000  1
  Mo  Mo12  1  0.41843665  0.14275740  0.08756989  1
  Mo  Mo13  1  0.39275740  0.80518752  0.22432075  1
  Mo  Mo14  1  0.19481248  0.41913323  0.58756989  1
  Mo  Mo15  1  0.66913323  0.58156335  0.72432075  1
  Mo  Mo16  1  0.85724260  0.94481248  0.27567925  1
  Mo  Mo17  1  0.83156335  0.60724260  0.41243011  1
  Mo  Mo18  1  0.05518752  0.33086677  0.91243011  1
  Mo  Mo19  1  0.58086677  0.16843665  0.77567925  1
  O  O20  1  0.25654532  0.35317874  0.73693718  1
  O  O21  1  0.60317874  0.36624155  0.59663341  1
  O  O22  1  0.76960814  0.00654532  0.40336659  1
  O  O23  1  0.61624155  0.51960814  0.26306282  1
  O  O24  1  0.99345468  0.39682126  0.76306282  1
  O  O25  1  0.64682126  0.38375845  0.90336659  1
  O  O26  1  0.48039186  0.74345468  0.09663341  1
  O  O27  1  0.63375845  0.23039186  0.23693718  1
  O  O28  1  0.97563516  0.30147015  0.44695195  1
  O  O29  1  0.55147015  0.60451921  0.82583599  1
  O  O30  1  0.77868321  0.72563516  0.17416401  1
  O  O31  1  0.85451921  0.52868321  0.55304805  1
  O  O32  1  0.27436484  0.44852985  0.05304805  1
  O  O33  1  0.69852985  0.14548079  0.67416401  1
  O  O34  1  0.47131679  0.02436484  0.32583599  1
  O  O35  1  0.39548079  0.22131679  0.94695195  1
  O  O36  1  0.24833707  0.63067327  0.67785585  1
  O  O37  1  0.88067327  0.70281642  0.88233620  1
  O  O38  1  0.82048022  0.99833707  0.11766380  1
  O  O39  1  0.95281642  0.57048022  0.32214415  1
  O  O40  1  0.32375179  0.92737220  0.96423440  1
  O  O41  1  0.17737220  0.71313780  0.10361941  1
  O  O42  1  0.60951739  0.07375179  0.89638059  1
  O  O43  1  0.96313780  0.35951739  0.03576560  1
  O  O44  1  0.92624821  0.82262780  0.53576560  1
  O  O45  1  0.07262780  0.03686220  0.39638059  1
  O  O46  1  0.64048261  0.67624821  0.60361941  1
  O  O47  1  0.28686220  0.39048261  0.46423440  1
  O  O48  1  0.29718358  0.17951978  0.17785585  1
  O  O49  1  0.42951978  0.75166293  0.38233620  1
  O  O50  1  0.36932673  0.04718358  0.61766380  1
  O  O51  1  0.00166293  0.11932673  0.82214415  1
