# generated using pymatgen
data_Y2MgSe4
_symmetry_space_group_name_H-M   'P 1'
_cell_length_a   13.23445784
_cell_length_b   7.90762629
_cell_length_c   13.43842689
_cell_angle_alpha   90.00000000
_cell_angle_beta   90.00000000
_cell_angle_gamma   90.00000000
_symmetry_Int_Tables_number   1
_chemical_formula_structural   Y2MgSe4
_chemical_formula_sum   'Y16 Mg8 Se32'
_cell_volume   1406.37366140
_cell_formula_units_Z   8
loop_
 _symmetry_equiv_pos_site_id
 _symmetry_equiv_pos_as_xyz
  1  'x, y, z'
loop_
 _atom_site_type_symbol
 _atom_site_label
 _atom_site_symmetry_multiplicity
 _atom_site_fract_x
 _atom_site_fract_y
 _atom_site_fract_z
 _atom_site_occupancy
  Y  Y0  1  0.10764954  0.88172241  0.68572297  1
  Y  Y1  1  0.89235046  0.11827759  0.18572297  1
  Y  Y2  1  0.39235046  0.88172241  0.18572297  1
  Y  Y3  1  0.60764954  0.11827759  0.68572297  1
  Y  Y4  1  0.12766976  0.38041683  0.32689055  1
  Y  Y5  1  0.87233024  0.61958317  0.82689055  1
  Y  Y6  1  0.37233024  0.38041683  0.82689055  1
  Y  Y7  1  0.62766976  0.61958317  0.32689055  1
  Y  Y8  1  0.13311710  0.62778606  0.99012437  1
  Y  Y9  1  0.86688290  0.37221394  0.49012437  1
  Y  Y10  1  0.36688290  0.62778606  0.49012437  1
  Y  Y11  1  0.63311710  0.37221394  0.99012437  1
  Y  Y12  1  0.13340179  0.12842622  0.99109483  1
  Y  Y13  1  0.86659821  0.87157378  0.49109483  1
  Y  Y14  1  0.36659821  0.12842622  0.49109483  1
  Y  Y15  1  0.63340179  0.87157378  0.99109483  1
  Mg  Mg16  1  0.11017860  0.38028032  0.69038538  1
  Mg  Mg17  1  0.88982140  0.61971968  0.19038538  1
  Mg  Mg18  1  0.38982140  0.38028032  0.19038538  1
  Mg  Mg19  1  0.61017860  0.61971968  0.69038538  1
  Mg  Mg20  1  0.12667783  0.87715750  0.32074770  1
  Mg  Mg21  1  0.87332217  0.12284250  0.82074770  1
  Mg  Mg22  1  0.37332217  0.87715750  0.82074770  1
  Mg  Mg23  1  0.62667783  0.12284250  0.32074770  1
  Se  Se24  1  0.01237929  0.87766846  0.87788096  1
  Se  Se25  1  0.98762071  0.12233154  0.37788096  1
  Se  Se26  1  0.48762071  0.87766846  0.37788096  1
  Se  Se27  1  0.51237929  0.12233154  0.87788096  1
  Se  Se28  1  0.03398612  0.37732031  0.13014032  1
  Se  Se29  1  0.96601388  0.62267969  0.63014032  1
  Se  Se30  1  0.46601388  0.37732031  0.63014032  1
  Se  Se31  1  0.53398612  0.62267969  0.13014032  1
  Se  Se32  1  0.02125091  0.37308757  0.86868333  1
  Se  Se33  1  0.97874909  0.62691243  0.36868333  1
  Se  Se34  1  0.47874909  0.37308757  0.36868333  1
  Se  Se35  1  0.52125091  0.62691243  0.86868333  1
  Se  Se36  1  0.04262698  0.87211715  0.13682189  1
  Se  Se37  1  0.95737302  0.12788285  0.63682189  1
  Se  Se38  1  0.45737302  0.87211715  0.63682189  1
  Se  Se39  1  0.54262698  0.12788285  0.13682189  1
  Se  Se40  1  0.21159830  0.87885617  0.50333660  1
  Se  Se41  1  0.78840170  0.12114383  0.00333660  1
  Se  Se42  1  0.28840170  0.87885617  0.00333660  1
  Se  Se43  1  0.71159830  0.12114383  0.50333660  1
  Se  Se44  1  0.21231812  0.37927841  0.51920795  1
  Se  Se45  1  0.78768188  0.62072159  0.01920795  1
  Se  Se46  1  0.28768188  0.37927841  0.01920795  1
  Se  Se47  1  0.71231812  0.62072159  0.51920795  1
  Se  Se48  1  0.23131816  0.12777381  0.77759018  1
  Se  Se49  1  0.76868184  0.87222619  0.27759018  1
  Se  Se50  1  0.26868184  0.12777381  0.27759018  1
  Se  Se51  1  0.73131816  0.87222619  0.77759018  1
  Se  Se52  1  0.23037555  0.63152285  0.77837397  1
  Se  Se53  1  0.76962445  0.36847715  0.27837397  1
  Se  Se54  1  0.26962445  0.63152285  0.27837397  1
  Se  Se55  1  0.73037555  0.36847715  0.77837397  1
