# generated using pymatgen
data_K2RbScV2O8
_symmetry_space_group_name_H-M   'P 1'
_cell_length_a   5.78301589
_cell_length_b   5.78301589
_cell_length_c   7.52274963
_cell_angle_alpha   90.00000000
_cell_angle_beta   90.00000000
_cell_angle_gamma   119.99999671
_symmetry_Int_Tables_number   1
_chemical_formula_structural   K2RbScV2O8
_chemical_formula_sum   'K2 Rb1 Sc1 V2 O8'
_cell_volume   217.87932727
_cell_formula_units_Z   1
loop_
 _symmetry_equiv_pos_site_id
 _symmetry_equiv_pos_as_xyz
  1  'x, y, z'
loop_
 _atom_site_type_symbol
 _atom_site_label
 _atom_site_symmetry_multiplicity
 _atom_site_fract_x
 _atom_site_fract_y
 _atom_site_fract_z
 _atom_site_occupancy
  K  K0  1  0.33333300  0.66666700  0.68701649  1
  K  K1  1  0.66666700  0.33333300  0.31298351  1
  Rb  Rb2  1  0.00000000  0.00000000  0.00000000  1
  Sc  Sc3  1  0.00000000  0.00000000  0.50000000  1
  V  V4  1  0.33333300  0.66666700  0.25393205  1
  V  V5  1  0.66666700  0.33333300  0.74606795  1
  O  O6  1  0.33333300  0.66666700  0.03307708  1
  O  O7  1  0.66666700  0.33333300  0.96692292  1
  O  O8  1  0.17062095  0.82937905  0.33531361  1
  O  O9  1  0.82937905  0.17062095  0.66468639  1
  O  O10  1  0.17062095  0.34124191  0.33531361  1
  O  O11  1  0.82937905  0.65875809  0.66468639  1
  O  O12  1  0.65875809  0.82937905  0.33531361  1
  O  O13  1  0.34124191  0.17062095  0.66468639  1
