# generated using pymatgen
data_Rb3P6N11
_symmetry_space_group_name_H-M   'P 1'
_cell_length_a   10.50594843
_cell_length_b   10.50594843
_cell_length_c   10.50594843
_cell_angle_alpha   90.00000000
_cell_angle_beta   90.00000000
_cell_angle_gamma   90.00000000
_symmetry_Int_Tables_number   1
_chemical_formula_structural   Rb3P6N11
_chemical_formula_sum   'Rb12 P24 N44'
_cell_volume   1159.59355802
_cell_formula_units_Z   4
loop_
 _symmetry_equiv_pos_site_id
 _symmetry_equiv_pos_as_xyz
  1  'x, y, z'
loop_
 _atom_site_type_symbol
 _atom_site_label
 _atom_site_symmetry_multiplicity
 _atom_site_fract_x
 _atom_site_fract_y
 _atom_site_fract_z
 _atom_site_occupancy
  Rb  Rb0  1  0.98739291  0.98739291  0.98739291  1
  Rb  Rb1  1  0.23739291  0.26260709  0.73739291  1
  Rb  Rb2  1  0.26260709  0.73739291  0.23739291  1
  Rb  Rb3  1  0.73739291  0.23739291  0.26260709  1
  Rb  Rb4  1  0.48739291  0.51260709  0.01260709  1
  Rb  Rb5  1  0.51260709  0.01260709  0.48739291  1
  Rb  Rb6  1  0.01260709  0.48739291  0.51260709  1
  Rb  Rb7  1  0.76260709  0.76260709  0.76260709  1
  Rb  Rb8  1  0.87500000  0.12500000  0.62500000  1
  Rb  Rb9  1  0.12500000  0.62500000  0.87500000  1
  Rb  Rb10  1  0.62500000  0.87500000  0.12500000  1
  Rb  Rb11  1  0.37500000  0.37500000  0.37500000  1
  P  P12  1  0.67940538  0.45249651  0.54036646  1
  P  P13  1  0.17940538  0.04750349  0.45963354  1
  P  P14  1  0.45249651  0.54036646  0.67940538  1
  P  P15  1  0.54750349  0.04036646  0.82059462  1
  P  P16  1  0.54036646  0.67940538  0.45249651  1
  P  P17  1  0.95963354  0.32059462  0.95249651  1
  P  P18  1  0.42940538  0.79036646  0.79750349  1
  P  P19  1  0.92940538  0.70963354  0.20249651  1
  P  P20  1  0.57059462  0.29036646  0.70249651  1
  P  P21  1  0.70963354  0.20249651  0.92940538  1
  P  P22  1  0.70249651  0.57059462  0.29036646  1
  P  P23  1  0.20249651  0.92940538  0.70963354  1
  P  P24  1  0.79036646  0.79750349  0.42940538  1
  P  P25  1  0.79750349  0.42940538  0.79036646  1
  P  P26  1  0.29036646  0.70249651  0.57059462  1
  P  P27  1  0.20963354  0.29750349  0.07059462  1
  P  P28  1  0.29750349  0.07059462  0.20963354  1
  P  P29  1  0.45963354  0.17940538  0.04750349  1
  P  P30  1  0.04036646  0.82059462  0.54750349  1
  P  P31  1  0.95249651  0.95963354  0.32059462  1
  P  P32  1  0.04750349  0.45963354  0.17940538  1
  P  P33  1  0.82059462  0.54750349  0.04036646  1
  P  P34  1  0.32059462  0.95249651  0.95963354  1
  P  P35  1  0.07059462  0.20963354  0.29750349  1
  N  N36  1  0.55065457  0.55065457  0.55065457  1
  N  N37  1  0.80065457  0.69934543  0.30065457  1
  N  N38  1  0.69934543  0.30065457  0.80065457  1
  N  N39  1  0.30065457  0.80065457  0.69934543  1
  N  N40  1  0.05065457  0.94934543  0.44934543  1
  N  N41  1  0.94934543  0.44934543  0.05065457  1
  N  N42  1  0.44934543  0.05065457  0.94934543  1
  N  N43  1  0.19934543  0.19934543  0.19934543  1
  N  N44  1  0.62500000  0.30857260  0.55857260  1
  N  N45  1  0.69142740  0.05857260  0.87500000  1
  N  N46  1  0.55857260  0.62500000  0.30857260  1
  N  N47  1  0.94142740  0.37500000  0.80857260  1
  N  N48  1  0.30857260  0.55857260  0.62500000  1
  N  N49  1  0.44142740  0.12500000  0.19142740  1
  N  N50  1  0.05857260  0.87500000  0.69142740  1
  N  N51  1  0.80857260  0.94142740  0.37500000  1
  N  N52  1  0.19142740  0.44142740  0.12500000  1
  N  N53  1  0.87500000  0.69142740  0.05857260  1
  N  N54  1  0.37500000  0.80857260  0.94142740  1
  N  N55  1  0.27654344  0.01126221  0.34671768  1
  N  N56  1  0.12500000  0.19142740  0.44142740  1
  N  N57  1  0.23873779  0.02654344  0.59671768  1
  N  N58  1  0.47345656  0.40328232  0.73873779  1
  N  N59  1  0.52654344  0.90328232  0.76126221  1
  N  N60  1  0.40328232  0.73873779  0.47345656  1
  N  N61  1  0.09671768  0.26126221  0.97345656  1
  N  N62  1  0.48873779  0.65328232  0.77654344  1
  N  N63  1  0.98873779  0.84671768  0.22345656  1
  N  N64  1  0.51126221  0.15328232  0.72345656  1
  N  N65  1  0.84671768  0.22345656  0.98873779  1
  N  N66  1  0.72345656  0.51126221  0.15328232  1
  N  N67  1  0.22345656  0.98873779  0.84671768  1
  N  N68  1  0.65328232  0.77654344  0.48873779  1
  N  N69  1  0.77654344  0.48873779  0.65328232  1
  N  N70  1  0.15328232  0.72345656  0.51126221  1
  N  N71  1  0.34671768  0.27654344  0.01126221  1
  N  N72  1  0.01126221  0.34671768  0.27654344  1
  N  N73  1  0.26126221  0.97345656  0.09671768  1
  N  N74  1  0.76126221  0.52654344  0.90328232  1
  N  N75  1  0.02654344  0.59671768  0.23873779  1
  N  N76  1  0.97345656  0.09671768  0.26126221  1
  N  N77  1  0.90328232  0.76126221  0.52654344  1
  N  N78  1  0.59671768  0.23873779  0.02654344  1
  N  N79  1  0.73873779  0.47345656  0.40328232  1
