# generated using pymatgen
data_Gd3Lu2(GaO4)3
_symmetry_space_group_name_H-M   'P 1'
_cell_length_a   11.13908977
_cell_length_b   11.13908977
_cell_length_c   11.13908977
_cell_angle_alpha   109.47122063
_cell_angle_beta   109.47122063
_cell_angle_gamma   109.47122063
_symmetry_Int_Tables_number   1
_chemical_formula_structural   Gd3Lu2(GaO4)3
_chemical_formula_sum   'Gd12 Lu8 Ga12 O48'
_cell_volume   1063.96470580
_cell_formula_units_Z   4
loop_
 _symmetry_equiv_pos_site_id
 _symmetry_equiv_pos_as_xyz
  1  'x, y, z'
loop_
 _atom_site_type_symbol
 _atom_site_label
 _atom_site_symmetry_multiplicity
 _atom_site_fract_x
 _atom_site_fract_y
 _atom_site_fract_z
 _atom_site_occupancy
  Gd  Gd0  1  0.87500000  0.62500000  0.75000000  1
  Gd  Gd1  1  0.12500000  0.37500000  0.25000000  1
  Gd  Gd2  1  0.62500000  0.87500000  0.25000000  1
  Gd  Gd3  1  0.62500000  0.75000000  0.87500000  1
  Gd  Gd4  1  0.87500000  0.25000000  0.62500000  1
  Gd  Gd5  1  0.37500000  0.12500000  0.75000000  1
  Gd  Gd6  1  0.37500000  0.25000000  0.12500000  1
  Gd  Gd7  1  0.12500000  0.75000000  0.37500000  1
  Gd  Gd8  1  0.75000000  0.87500000  0.62500000  1
  Gd  Gd9  1  0.25000000  0.12500000  0.37500000  1
  Gd  Gd10  1  0.25000000  0.62500000  0.87500000  1
  Gd  Gd11  1  0.75000000  0.37500000  0.12500000  1
  Lu  Lu12  1  -0.00000000  -0.00000000  -0.00000000  1
  Lu  Lu13  1  0.50000000  -0.00000000  0.50000000  1
  Lu  Lu14  1  0.50000000  0.50000000  -0.00000000  1
  Lu  Lu15  1  -0.00000000  -0.00000000  0.50000000  1
  Lu  Lu16  1  -0.00000000  0.50000000  0.50000000  1
  Lu  Lu17  1  0.50000000  0.50000000  0.50000000  1
  Lu  Lu18  1  0.50000000  -0.00000000  -0.00000000  1
  Lu  Lu19  1  -0.00000000  0.50000000  -0.00000000  1
  Ga  Ga20  1  0.62500000  0.37500000  0.75000000  1
  Ga  Ga21  1  0.37500000  0.62500000  0.25000000  1
  Ga  Ga22  1  0.87500000  0.12500000  0.25000000  1
  Ga  Ga23  1  0.37500000  0.75000000  0.62500000  1
  Ga  Ga24  1  0.62500000  0.25000000  0.37500000  1
  Ga  Ga25  1  0.12500000  0.87500000  0.75000000  1
  Ga  Ga26  1  0.12500000  0.25000000  0.87500000  1
  Ga  Ga27  1  0.87500000  0.75000000  0.12500000  1
  Ga  Ga28  1  0.75000000  0.62500000  0.37500000  1
  Ga  Ga29  1  0.25000000  0.37500000  0.62500000  1
  Ga  Ga30  1  0.25000000  0.87500000  0.12500000  1
  Ga  Ga31  1  0.75000000  0.12500000  0.87500000  1
  O  O32  1  0.71606416  0.62895116  0.53030721  1
  O  O33  1  0.28393584  0.37104884  0.46969279  1
  O  O34  1  0.78393584  0.81424305  0.41288700  1
  O  O35  1  0.40135605  0.87104884  0.08711300  1
  O  O36  1  0.62895116  0.53030721  0.71606416  1
  O  O37  1  0.71606416  0.08711300  0.68575695  1
  O  O38  1  0.21606416  0.18575695  0.58711300  1
  O  O39  1  0.59864395  0.12895116  0.91288700  1
  O  O40  1  0.37104884  0.46969279  0.28393584  1
  O  O41  1  0.28393584  0.91288700  0.31424305  1
  O  O42  1  0.09864395  0.68575695  0.96969279  1
  O  O43  1  0.81424305  0.41288700  0.78393584  1
  O  O44  1  0.78393584  0.96969279  0.87104884  1
  O  O45  1  0.90135605  0.31424305  0.03030721  1
  O  O46  1  0.18575695  0.58711300  0.21606416  1
  O  O47  1  0.21606416  0.03030721  0.12895116  1
  O  O48  1  0.87104884  0.08711300  0.40135605  1
  O  O49  1  0.40135605  0.53030721  0.81424305  1
  O  O50  1  0.12895116  0.91288700  0.59864395  1
  O  O51  1  0.59864395  0.46969279  0.18575695  1
  O  O52  1  0.68575695  0.96969279  0.09864395  1
  O  O53  1  0.09864395  0.41288700  0.62895116  1
  O  O54  1  0.31424305  0.03030721  0.90135605  1
  O  O55  1  0.90135605  0.58711300  0.37104884  1
  O  O56  1  0.53030721  0.71606416  0.62895116  1
  O  O57  1  0.62895116  0.09864395  0.41288700  1
  O  O58  1  0.46969279  0.28393584  0.37104884  1
  O  O59  1  0.37104884  0.90135605  0.58711300  1
  O  O60  1  0.08711300  0.40135605  0.87104884  1
  O  O61  1  0.87104884  0.78393584  0.96969279  1
  O  O62  1  0.91288700  0.59864395  0.12895116  1
  O  O63  1  0.12895116  0.21606416  0.03030721  1
  O  O64  1  0.96969279  0.09864395  0.68575695  1
  O  O65  1  0.68575695  0.71606416  0.08711300  1
  O  O66  1  0.03030721  0.90135605  0.31424305  1
  O  O67  1  0.31424305  0.28393584  0.91288700  1
  O  O68  1  0.41288700  0.78393584  0.81424305  1
  O  O69  1  0.81424305  0.40135605  0.53030721  1
  O  O70  1  0.58711300  0.21606416  0.18575695  1
  O  O71  1  0.18575695  0.59864395  0.46969279  1
  O  O72  1  0.08711300  0.68575695  0.71606416  1
  O  O73  1  0.91288700  0.31424305  0.28393584  1
  O  O74  1  0.96969279  0.87104884  0.78393584  1
  O  O75  1  0.03030721  0.12895116  0.21606416  1
  O  O76  1  0.41288700  0.62895116  0.09864395  1
  O  O77  1  0.58711300  0.37104884  0.90135605  1
  O  O78  1  0.53030721  0.81424305  0.40135605  1
  O  O79  1  0.46969279  0.18575695  0.59864395  1
