# generated using pymatgen
data_Er2WO6
_symmetry_space_group_name_H-M   'P 1'
_cell_length_a   5.29068200
_cell_length_b   7.56888313
_cell_length_c   11.26738432
_cell_angle_alpha   75.29353082
_cell_angle_beta   90.00000000
_cell_angle_gamma   90.00000000
_symmetry_Int_Tables_number   1
_chemical_formula_structural   Er2WO6
_chemical_formula_sum   'Er8 W4 O24'
_cell_volume   436.41574266
_cell_formula_units_Z   4
loop_
 _symmetry_equiv_pos_site_id
 _symmetry_equiv_pos_as_xyz
  1  'x, y, z'
loop_
 _atom_site_type_symbol
 _atom_site_label
 _atom_site_symmetry_multiplicity
 _atom_site_fract_x
 _atom_site_fract_y
 _atom_site_fract_z
 _atom_site_occupancy
  Er  Er0  1  0.18461892  0.20335883  0.42171508  1
  Er  Er1  1  0.18461892  0.79664117  0.07828492  1
  Er  Er2  1  0.81538108  0.79664117  0.57828492  1
  Er  Er3  1  0.81538108  0.20335883  0.92171508  1
  Er  Er4  1  0.68298643  0.50000000  0.25000000  1
  Er  Er5  1  0.31701357  0.50000000  0.75000000  1
  Er  Er6  1  0.73905441  0.00000000  0.25000000  1
  Er  Er7  1  0.26094559  0.00000000  0.75000000  1
  W  W8  1  0.25533702  0.27825211  0.11362127  1
  W  W9  1  0.25533702  0.72174789  0.38637873  1
  W  W10  1  0.74466298  0.72174789  0.88637873  1
  W  W11  1  0.74466298  0.27825211  0.61362127  1
  O  O12  1  0.46233559  0.21141403  0.27325319  1
  O  O13  1  0.46233559  0.78858597  0.22674681  1
  O  O14  1  0.53766441  0.78858597  0.72674681  1
  O  O15  1  0.53766441  0.21141403  0.77325319  1
  O  O16  1  0.04021458  0.06129115  0.10390094  1
  O  O17  1  0.04021458  0.93870885  0.39609906  1
  O  O18  1  0.95978542  0.93870885  0.89609906  1
  O  O19  1  0.95978542  0.06129115  0.60390094  1
  O  O20  1  0.98251655  0.28923404  0.22904270  1
  O  O21  1  0.98251655  0.71076596  0.27095730  1
  O  O22  1  0.01748345  0.71076596  0.77095730  1
  O  O23  1  0.01748345  0.28923404  0.72904270  1
  O  O24  1  0.84694615  0.36702744  0.45046186  1
  O  O25  1  0.84694615  0.63297256  0.04953814  1
  O  O26  1  0.15305385  0.63297256  0.54953814  1
  O  O27  1  0.15305385  0.36702744  0.95046186  1
  O  O28  1  0.64126122  0.51173281  0.61355559  1
  O  O29  1  0.64126122  0.48826719  0.88644441  1
  O  O30  1  0.35873878  0.48826719  0.38644441  1
  O  O31  1  0.35873878  0.51173281  0.11355559  1
  O  O32  1  0.46940196  0.15053111  0.56975100  1
  O  O33  1  0.46940196  0.84946889  0.93024900  1
  O  O34  1  0.53059804  0.84946889  0.43024900  1
  O  O35  1  0.53059804  0.15053111  0.06975100  1
