# generated using pymatgen
data_Sm2MgMo2(I4O15)2
_symmetry_space_group_name_H-M   'P 1'
_cell_length_a   7.12466741
_cell_length_b   7.18177385
_cell_length_c   14.43239573
_cell_angle_alpha   92.55899498
_cell_angle_beta   89.73136783
_cell_angle_gamma   114.98266866
_symmetry_Int_Tables_number   1
_chemical_formula_structural   Sm2MgMo2(I4O15)2
_chemical_formula_sum   'Sm2 Mg1 Mo2 I8 O30'
_cell_volume   668.62902415
_cell_formula_units_Z   1
loop_
 _symmetry_equiv_pos_site_id
 _symmetry_equiv_pos_as_xyz
  1  'x, y, z'
loop_
 _atom_site_type_symbol
 _atom_site_label
 _atom_site_symmetry_multiplicity
 _atom_site_fract_x
 _atom_site_fract_y
 _atom_site_fract_z
 _atom_site_occupancy
  Sm  Sm0  1  0.09121911  0.43340730  0.43508434  1
  Sm  Sm1  1  0.90344007  0.55362469  0.95924890  1
  Mg  Mg2  1  0.80336982  0.60684119  0.72382968  1
  Mo  Mo3  1  0.58843902  0.77701734  0.27325037  1
  Mo  Mo4  1  0.41408925  0.21817777  0.77692565  1
  I  I5  1  0.50149993  0.75568545  0.03371353  1
  I  I6  1  0.49851119  0.27071658  0.52927254  1
  I  I7  1  0.74427741  0.28741295  0.19609414  1
  I  I8  1  0.27543894  0.71901964  0.68111114  1
  I  I9  1  0.15880049  0.94359775  0.31739101  1
  I  I10  1  0.84742325  0.06780085  0.80482578  1
  I  I11  1  0.76819114  0.88011421  0.52897788  1
  I  I12  1  0.21934784  0.13382013  0.05758050  1
  O  O13  1  0.38847908  0.68754045  0.14945637  1
  O  O14  1  0.62768156  0.33961856  0.64773944  1
  O  O15  1  0.26109290  0.63562070  0.96629436  1
  O  O16  1  0.72855049  0.38140033  0.46008842  1
  O  O17  1  0.58380879  0.54424400  0.01649539  1
  O  O18  1  0.41628244  0.48236136  0.52800883  1
  O  O19  1  0.74678705  0.02791228  0.17954030  1
  O  O20  1  0.26484131  0.97933574  0.67921984  1
  O  O21  1  0.90376309  0.39740777  0.09577601  1
  O  O22  1  0.08504420  0.60287273  0.58842775  1
  O  O23  1  0.94377296  0.38831029  0.28601184  1
  O  O24  1  0.07994832  0.63048360  0.77298645  1
  O  O25  1  0.43038908  0.98594562  0.29505149  1
  O  O26  1  0.56665588  0.00227107  0.78762204  1
  O  O27  1  0.23433667  0.18548505  0.38609222  1
  O  O28  1  0.80626402  0.81316896  0.84191989  1
  O  O29  1  0.10697782  0.77268992  0.41466232  1
  O  O30  1  0.88722491  0.21066096  0.91606273  1
  O  O31  1  0.53020323  0.91821486  0.54229695  1
  O  O32  1  0.45395182  0.08709777  0.04966933  1
  O  O33  1  0.78325784  0.82971734  0.65545959  1
  O  O34  1  0.21862038  0.17278335  0.18256281  1
  O  O35  1  0.95983166  0.14596013  0.53910244  1
  O  O36  1  0.01518005  0.87145678  0.03891187  1
  O  O37  1  0.77515830  0.93334266  0.36442652  1
  O  O38  1  0.25569993  0.10762827  0.87095336  1
  O  O39  1  0.38768971  0.59808011  0.33814392  1
  O  O40  1  0.66125863  0.41076286  0.82764039  1
  O  O41  1  0.72623977  0.64037931  0.22659725  1
  O  O42  1  0.29214567  0.36630733  0.73367840  1
