# generated using pymatgen
data_H7N2F
_symmetry_space_group_name_H-M   'P 1'
_cell_length_a   5.62965244
_cell_length_b   7.36769889
_cell_length_c   8.04838318
_cell_angle_alpha   90.00000000
_cell_angle_beta   90.00000000
_cell_angle_gamma   90.00000000
_symmetry_Int_Tables_number   1
_chemical_formula_structural   H7N2F
_chemical_formula_sum   'H28 N8 F4'
_cell_volume   333.82748968
_cell_formula_units_Z   4
loop_
 _symmetry_equiv_pos_site_id
 _symmetry_equiv_pos_as_xyz
  1  'x, y, z'
loop_
 _atom_site_type_symbol
 _atom_site_label
 _atom_site_symmetry_multiplicity
 _atom_site_fract_x
 _atom_site_fract_y
 _atom_site_fract_z
 _atom_site_occupancy
  H  H0  1  0.78850117  0.02829185  0.72531324  1
  H  H1  1  0.21149883  0.52829185  0.27468676  1
  H  H2  1  0.78850117  0.52829185  0.77468676  1
  H  H3  1  0.21149883  0.02829185  0.22531324  1
  H  H4  1  0.04597635  0.14942717  0.74558209  1
  H  H5  1  0.95402365  0.64942717  0.25441791  1
  H  H6  1  0.04597635  0.64942717  0.75441791  1
  H  H7  1  0.95402365  0.14942717  0.24558209  1
  H  H8  1  0.04439634  0.95670578  0.63095034  1
  H  H9  1  0.95560366  0.45670578  0.36904966  1
  H  H10  1  0.04439634  0.45670578  0.86904966  1
  H  H11  1  0.95560366  0.95670578  0.13095034  1
  H  H12  1  0.90101091  0.14622438  0.55900580  1
  H  H13  1  0.09898909  0.64622438  0.44099420  1
  H  H14  1  0.90101091  0.64622438  0.94099420  1
  H  H15  1  0.09898909  0.14622438  0.05900580  1
  H  H16  1  0.43277008  0.56179594  0.62979324  1
  H  H17  1  0.56722992  0.06179594  0.37020676  1
  H  H18  1  0.43277008  0.06179594  0.87020676  1
  H  H19  1  0.56722992  0.56179594  0.12979324  1
  H  H20  1  0.43151389  0.37164347  0.73587691  1
  H  H21  1  0.56848611  0.87164347  0.26412309  1
  H  H22  1  0.43151389  0.87164347  0.76412309  1
  H  H23  1  0.56848611  0.37164347  0.23587691  1
  H  H24  1  0.59185757  0.38691703  0.56356576  1
  H  H25  1  0.40814243  0.88691703  0.43643424  1
  H  H26  1  0.59185757  0.88691703  0.93643424  1
  H  H27  1  0.40814243  0.38691703  0.06356576  1
  N  N28  1  0.94660827  0.07106900  0.66366839  1
  N  N29  1  0.05339173  0.57106900  0.33633161  1
  N  N30  1  0.94660827  0.57106900  0.83633161  1
  N  N31  1  0.05339173  0.07106900  0.16366839  1
  N  N32  1  0.53647709  0.45553578  0.66661027  1
  N  N33  1  0.46352291  0.95553578  0.33338973  1
  N  N34  1  0.53647709  0.95553578  0.83338973  1
  N  N35  1  0.46352291  0.45553578  0.16661027  1
  F  F36  1  0.19694785  0.76259060  0.60588742  1
  F  F37  1  0.80305215  0.26259060  0.39411258  1
  F  F38  1  0.19694785  0.26259060  0.89411258  1
  F  F39  1  0.80305215  0.76259060  0.10588742  1
