# generated using pymatgen
data_TmTlTe2
_symmetry_space_group_name_H-M   'P 1'
_cell_length_a   4.40590891
_cell_length_b   4.40590894
_cell_length_c   8.51459883
_cell_angle_alpha   75.00548198
_cell_angle_beta   75.00547543
_cell_angle_gamma   60.00001593
_symmetry_Int_Tables_number   1
_chemical_formula_structural   TmTlTe2
_chemical_formula_sum   'Tm1 Tl1 Te2'
_cell_volume   136.60445888
_cell_formula_units_Z   1
loop_
 _symmetry_equiv_pos_site_id
 _symmetry_equiv_pos_as_xyz
  1  'x, y, z'
loop_
 _atom_site_type_symbol
 _atom_site_label
 _atom_site_symmetry_multiplicity
 _atom_site_fract_x
 _atom_site_fract_y
 _atom_site_fract_z
 _atom_site_occupancy
  Tm  Tm0  1  0.50000000  0.50000000  0.50000000  1
  Tl  Tl1  1  0.00000000  0.00000000  -0.00000000  1
  Te  Te2  1  0.76340732  0.76340732  0.70977704  1
  Te  Te3  1  0.23659268  0.23659268  0.29022296  1
