# generated using pymatgen
data_Li4MnFe3(BO3)4
_symmetry_space_group_name_H-M   'P 1'
_cell_length_a   5.99852023
_cell_length_b   5.22056461
_cell_length_c   16.12151712
_cell_angle_alpha   91.08172260
_cell_angle_beta   98.22489098
_cell_angle_gamma   89.23707343
_symmetry_Int_Tables_number   1
_chemical_formula_structural   Li4MnFe3(BO3)4
_chemical_formula_sum   'Li8 Mn2 Fe6 B8 O24'
_cell_volume   499.54533851
_cell_formula_units_Z   2
loop_
 _symmetry_equiv_pos_site_id
 _symmetry_equiv_pos_as_xyz
  1  'x, y, z'
loop_
 _atom_site_type_symbol
 _atom_site_label
 _atom_site_symmetry_multiplicity
 _atom_site_fract_x
 _atom_site_fract_y
 _atom_site_fract_z
 _atom_site_occupancy
  Li  Li0  1  0.06396794  0.85034729  0.61036864  1
  Li  Li1  1  0.43700730  0.15218813  0.89022555  1
  Li  Li2  1  0.18672105  0.65221770  0.13966368  1
  Li  Li3  1  0.31274091  0.34964436  0.35996728  1
  Li  Li4  1  0.68747384  0.65090333  0.64178981  1
  Li  Li5  1  0.81238204  0.34952342  0.85875351  1
  Li  Li6  1  0.56117418  0.84721831  0.10742092  1
  Li  Li7  1  0.93533543  0.15103196  0.39132646  1
  Mn  Mn8  1  0.02552465  0.16609518  0.20997608  1
  Mn  Mn9  1  0.77599486  0.66742607  0.45957299  1
  Fe  Fe10  1  0.27683293  0.66074994  0.95854245  1
  Fe  Fe11  1  0.22379979  0.32689086  0.53892693  1
  Fe  Fe12  1  0.52494008  0.16082527  0.70888801  1
  Fe  Fe13  1  0.47280454  0.83871402  0.28956226  1
  Fe  Fe14  1  0.97517595  0.84041195  0.79120491  1
  Fe  Fe15  1  0.72407769  0.32669896  0.04001544  1
  B  B16  1  0.03895456  0.33069127  0.70286094  1
  B  B17  1  0.28653790  0.82747359  0.45284291  1
  B  B18  1  0.46122425  0.67080574  0.79765421  1
  B  B19  1  0.21205094  0.17037444  0.04698870  1
  B  B20  1  0.78676724  0.82900248  0.95194851  1
  B  B21  1  0.53708046  0.33184014  0.20236734  1
  B  B22  1  0.71450826  0.16963245  0.54920426  1
  B  B23  1  0.96400043  0.67020446  0.29765237  1
  O  O24  1  0.01408253  0.59069550  0.69113219  1
  O  O25  1  0.17242385  0.18397017  0.65493746  1
  O  O26  1  0.16934710  0.70834735  0.50958042  1
  O  O27  1  0.32926455  0.29231910  0.99025164  1
  O  O28  1  0.08544181  0.78358364  0.24097375  1
  O  O29  1  0.32904875  0.81954585  0.84600329  1
  O  O30  1  0.07907260  0.32116520  0.09423353  1
  O  O31  1  0.26680874  0.09018133  0.44115605  1
  O  O32  1  0.48524286  0.41068450  0.80921356  1
  O  O33  1  0.23499707  0.91076300  0.05945550  1
  O  O34  1  0.41781597  0.68120967  0.40392944  1
  O  O35  1  0.42288134  0.20962192  0.25999838  1
  O  O36  1  0.57646535  0.79302476  0.74049344  1
  O  O37  1  0.57950131  0.32055852  0.59567865  1
  O  O38  1  0.76574600  0.09192642  0.94028403  1
  O  O39  1  0.51507753  0.59134120  0.19064491  1
  O  O40  1  0.73455483  0.90935312  0.56244087  1
  O  O41  1  0.92106099  0.68272769  0.90383460  1
  O  O42  1  0.66835066  0.18373693  0.15358776  1
  O  O43  1  0.92265058  0.20789886  0.75979442  1
  O  O44  1  0.66755782  0.70716980  0.00738703  1
  O  O45  1  0.83320265  0.28563952  0.49204768  1
  O  O46  1  0.82804286  0.82345260  0.34280749  1
  O  O47  1  0.98428403  0.41017001  0.31240876  1
