# generated using pymatgen
data_K2SmBr5
_symmetry_space_group_name_H-M   'P 1'
_cell_length_a   8.43658350
_cell_length_b   9.10490592
_cell_length_c   13.36864359
_cell_angle_alpha   90.00000000
_cell_angle_beta   90.00000000
_cell_angle_gamma   90.00000000
_symmetry_Int_Tables_number   1
_chemical_formula_structural   K2SmBr5
_chemical_formula_sum   'K8 Sm4 Br20'
_cell_volume   1026.90298666
_cell_formula_units_Z   4
loop_
 _symmetry_equiv_pos_site_id
 _symmetry_equiv_pos_as_xyz
  1  'x, y, z'
loop_
 _atom_site_type_symbol
 _atom_site_label
 _atom_site_symmetry_multiplicity
 _atom_site_fract_x
 _atom_site_fract_y
 _atom_site_fract_z
 _atom_site_occupancy
  K  K0  1  0.94619254  0.00338682  0.82748151  1
  K  K1  1  0.05380746  0.99661318  0.17251849  1
  K  K2  1  0.44619254  0.99661318  0.67251849  1
  K  K3  1  0.05380746  0.50338682  0.17251849  1
  K  K4  1  0.55380746  0.00338682  0.32748151  1
  K  K5  1  0.94619254  0.49661318  0.82748151  1
  K  K6  1  0.55380746  0.49661318  0.32748151  1
  K  K7  1  0.44619254  0.50338682  0.67251849  1
  Sm  Sm8  1  0.92183916  0.75000000  0.50568405  1
  Sm  Sm9  1  0.07816084  0.25000000  0.49431595  1
  Sm  Sm10  1  0.42183916  0.25000000  0.99431595  1
  Sm  Sm11  1  0.57816084  0.75000000  0.00568405  1
  Br  Br12  1  0.12746186  0.75000000  0.67972975  1
  Br  Br13  1  0.87253814  0.25000000  0.32027025  1
  Br  Br14  1  0.62746186  0.25000000  0.82027025  1
  Br  Br15  1  0.37253814  0.75000000  0.17972975  1
  Br  Br16  1  0.83328137  0.04446872  0.57715801  1
  Br  Br17  1  0.16671863  0.95553128  0.42284199  1
  Br  Br18  1  0.33328137  0.95553128  0.92284199  1
  Br  Br19  1  0.16671863  0.54446872  0.42284199  1
  Br  Br20  1  0.66671863  0.04446872  0.07715801  1
  Br  Br21  1  0.83328137  0.45553128  0.57715801  1
  Br  Br22  1  0.66671863  0.45553128  0.07715801  1
  Br  Br23  1  0.33328137  0.54446872  0.92284199  1
  Br  Br24  1  0.57356858  0.75000000  0.50877341  1
  Br  Br25  1  0.42643142  0.25000000  0.49122659  1
  Br  Br26  1  0.07356858  0.25000000  0.99122659  1
  Br  Br27  1  0.92643142  0.75000000  0.00877341  1
  Br  Br28  1  0.66261955  0.75000000  0.79508507  1
  Br  Br29  1  0.33738045  0.25000000  0.20491493  1
  Br  Br30  1  0.16261955  0.25000000  0.70491493  1
  Br  Br31  1  0.83738045  0.75000000  0.29508507  1
