# generated using pymatgen
data_Sr6Mg(Te4O11)2
_symmetry_space_group_name_H-M   'P 1'
_cell_length_a   7.63523787
_cell_length_b   9.83787425
_cell_length_c   10.05687551
_cell_angle_alpha   101.32571552
_cell_angle_beta   107.22615048
_cell_angle_gamma   101.73909503
_symmetry_Int_Tables_number   1
_chemical_formula_structural   Sr6Mg(Te4O11)2
_chemical_formula_sum   'Sr6 Mg1 Te8 O22'
_cell_volume   679.31786062
_cell_formula_units_Z   1
loop_
 _symmetry_equiv_pos_site_id
 _symmetry_equiv_pos_as_xyz
  1  'x, y, z'
loop_
 _atom_site_type_symbol
 _atom_site_label
 _atom_site_symmetry_multiplicity
 _atom_site_fract_x
 _atom_site_fract_y
 _atom_site_fract_z
 _atom_site_occupancy
  Sr  Sr0  1  0.30080594  0.04303015  0.27120067  1
  Sr  Sr1  1  0.76009416  0.96006272  0.88494857  1
  Sr  Sr2  1  0.84833309  0.08591361  0.33220000  1
  Sr  Sr3  1  0.10252990  0.88266643  0.63672879  1
  Sr  Sr4  1  0.31220586  0.53755402  0.63049048  1
  Sr  Sr5  1  0.66180622  0.43836364  0.39039118  1
  Mg  Mg6  1  0.34650330  0.03895626  0.97022723  1
  Te  Te7  1  0.07064634  0.37085801  0.20042907  1
  Te  Te8  1  0.85883921  0.61328209  0.75848910  1
  Te  Te9  1  0.05684059  0.22835131  0.76786111  1
  Te  Te10  1  0.89819589  0.74288331  0.19814089  1
  Te  Te11  1  0.39241178  0.74815048  0.01147810  1
  Te  Te12  1  0.57596399  0.30674258  0.96501671  1
  Te  Te13  1  0.46084522  0.76445829  0.43590445  1
  Te  Te14  1  0.57262052  0.17238799  0.61622768  1
  O  O15  1  0.98544121  0.55717581  0.62947649  1
  O  O16  1  0.94566146  0.44767037  0.31878454  1
  O  O17  1  0.39323537  0.55863225  0.38167857  1
  O  O18  1  0.61612349  0.48660330  0.63789908  1
  O  O19  1  0.84228718  0.22473122  0.06095952  1
  O  O20  1  0.20536316  0.82858794  0.88931302  1
  O  O21  1  0.76808505  0.07158556  0.67364270  1
  O  O22  1  0.26683687  0.79595104  0.28511818  1
  O  O23  1  0.35232891  0.77959744  0.58196916  1
  O  O24  1  0.62644138  0.19753133  0.43766245  1
  O  O25  1  0.08537707  0.15094802  0.59220097  1
  O  O26  1  0.94473602  0.85977932  0.38419312  1
  O  O27  1  0.47916824  0.25182207  0.10822522  1
  O  O28  1  0.51939068  0.73106029  0.87651842  1
  O  O29  1  0.50782738  0.95246338  0.12291197  1
  O  O30  1  0.49427693  0.10810777  0.84931706  1
  O  O31  1  0.93911971  0.90972036  0.12694267  1
  O  O32  1  0.10400892  0.08467354  0.86608354  1
  O  O33  1  0.15448695  0.24243735  0.30647547  1
  O  O34  1  0.80939104  0.77521170  0.69600542  1
  O  O35  1  0.62707790  0.68598888  0.15767040  1
  O  O36  1  0.33969308  0.35177421  0.84999701  1
