# generated using pymatgen
data_Sm2EuSe4
_symmetry_space_group_name_H-M   'P 1'
_cell_length_a   7.72840101
_cell_length_b   7.72836357
_cell_length_c   7.72831580
_cell_angle_alpha   109.35869727
_cell_angle_beta   109.35877018
_cell_angle_gamma   109.69568780
_symmetry_Int_Tables_number   1
_chemical_formula_structural   Sm2EuSe4
_chemical_formula_sum   'Sm4 Eu2 Se8'
_cell_volume   355.33592668
_cell_formula_units_Z   2
loop_
 _symmetry_equiv_pos_site_id
 _symmetry_equiv_pos_as_xyz
  1  'x, y, z'
loop_
 _atom_site_type_symbol
 _atom_site_label
 _atom_site_symmetry_multiplicity
 _atom_site_fract_x
 _atom_site_fract_y
 _atom_site_fract_z
 _atom_site_occupancy
  Sm  Sm0  1  0.99859535  0.37498831  0.12369151  1
  Sm  Sm1  1  0.62502088  0.74871306  0.62361005  1
  Sm  Sm2  1  0.25129282  0.87490278  0.87631527  1
  Sm  Sm3  1  0.12509520  0.00140396  0.37639582  1
  Eu  Eu4  1  0.75000261  0.25000315  0.49999905  1
  Eu  Eu5  1  0.50000437  0.50000130  0.00000541  1
  Se  Se6  1  0.51639355  0.11696952  0.74932391  1
  Se  Se7  1  0.73389941  0.98280178  0.10075596  1
  Se  Se8  1  0.88306721  0.63234529  0.39942024  1
  Se  Se9  1  0.36684340  0.26610160  0.24889613  1
  Se  Se10  1  0.88202996  0.63316116  0.89925134  1
  Se  Se11  1  0.23291759  0.48360257  0.60056829  1
  Se  Se12  1  0.36762398  0.76704346  0.25067466  1
  Se  Se13  1  0.01721167  0.11796207  0.75109437  1
