# generated using pymatgen
data_Zn2IN
_symmetry_space_group_name_H-M   'P 1'
_cell_length_a   6.26470171
_cell_length_b   6.38215515
_cell_length_c   7.94968406
_cell_angle_alpha   90.00000000
_cell_angle_beta   90.00000000
_cell_angle_gamma   90.00000000
_symmetry_Int_Tables_number   1
_chemical_formula_structural   Zn2IN
_chemical_formula_sum   'Zn8 I4 N4'
_cell_volume   317.84663933
_cell_formula_units_Z   4
loop_
 _symmetry_equiv_pos_site_id
 _symmetry_equiv_pos_as_xyz
  1  'x, y, z'
loop_
 _atom_site_type_symbol
 _atom_site_label
 _atom_site_symmetry_multiplicity
 _atom_site_fract_x
 _atom_site_fract_y
 _atom_site_fract_z
 _atom_site_occupancy
  Zn  Zn0  1  0.25000000  0.65191516  0.69738724  1
  Zn  Zn1  1  0.25000000  0.15191516  0.80261276  1
  Zn  Zn2  1  0.75000000  0.34808484  0.30261276  1
  Zn  Zn3  1  0.75000000  0.84808484  0.19738724  1
  Zn  Zn4  1  0.00000000  -0.00000000  0.50000000  1
  Zn  Zn5  1  0.50000000  0.50000000  0.00000000  1
  Zn  Zn6  1  0.50000000  -0.00000000  0.50000000  1
  Zn  Zn7  1  -0.00000000  0.50000000  0.00000000  1
  I  I8  1  0.25000000  0.41687686  0.38134545  1
  I  I9  1  0.25000000  0.91687686  0.11865455  1
  I  I10  1  0.75000000  0.58312314  0.61865455  1
  I  I11  1  0.75000000  0.08312314  0.88134545  1
  N  N12  1  0.25000000  0.44140267  0.87327837  1
  N  N13  1  0.25000000  0.94140267  0.62672163  1
  N  N14  1  0.75000000  0.55859733  0.12672163  1
  N  N15  1  0.75000000  0.05859733  0.37327837  1
