# generated using pymatgen
data_WO3
_symmetry_space_group_name_H-M   'P 1'
_cell_length_a   7.36612661
_cell_length_b   7.57579512
_cell_length_c   7.74727780
_cell_angle_alpha   90.00000000
_cell_angle_beta   90.00000000
_cell_angle_gamma   90.00000000
_symmetry_Int_Tables_number   1
_chemical_formula_structural   WO3
_chemical_formula_sum   'W8 O24'
_cell_volume   432.33115132
_cell_formula_units_Z   8
loop_
 _symmetry_equiv_pos_site_id
 _symmetry_equiv_pos_as_xyz
  1  'x, y, z'
loop_
 _atom_site_type_symbol
 _atom_site_label
 _atom_site_symmetry_multiplicity
 _atom_site_fract_x
 _atom_site_fract_y
 _atom_site_fract_z
 _atom_site_occupancy
  W  W0  1  0.75191050  0.02606359  0.22036068  1
  W  W1  1  0.74808950  0.02606359  0.72036068  1
  W  W2  1  0.24808950  0.97393641  0.77963932  1
  W  W3  1  0.24808950  0.47393641  0.22036068  1
  W  W4  1  0.75191050  0.52606359  0.77963932  1
  W  W5  1  0.74808950  0.52606359  0.27963932  1
  W  W6  1  0.25191050  0.97393641  0.27963932  1
  W  W7  1  0.25191050  0.47393641  0.72036068  1
  O  O8  1  0.71164023  0.75954018  0.25741979  1
  O  O9  1  0.49954269  0.03735763  0.28013555  1
  O  O10  1  0.28835977  0.24045982  0.74258021  1
  O  O11  1  0.78835977  0.25954018  0.24258021  1
  O  O12  1  0.71764336  0.01128822  0.99430715  1
  O  O13  1  -0.00045731  0.96264237  0.21986445  1
  O  O14  1  0.00045731  0.03735763  0.78013555  1
  O  O15  1  0.78835977  0.75954018  0.75741979  1
  O  O16  1  0.00045731  0.53735763  0.21986445  1
  O  O17  1  0.49954269  0.53735763  0.71986445  1
  O  O18  1  0.21764336  0.98871178  0.50569285  1
  O  O19  1  -0.00045731  0.46264237  0.78013555  1
  O  O20  1  0.50045731  0.96264237  0.71986445  1
  O  O21  1  0.21764336  0.48871178  0.49430715  1
  O  O22  1  0.71164023  0.25954018  0.74258021  1
  O  O23  1  0.28235664  0.48871178  0.99430715  1
  O  O24  1  0.50045731  0.46264237  0.28013555  1
  O  O25  1  0.71764336  0.51128822  0.00569285  1
  O  O26  1  0.21164023  0.74045982  0.75741979  1
  O  O27  1  0.28235664  0.98871178  0.00569285  1
  O  O28  1  0.78235664  0.01128822  0.49430715  1
  O  O29  1  0.28835977  0.74045982  0.25741979  1
  O  O30  1  0.78235664  0.51128822  0.50569285  1
  O  O31  1  0.21164023  0.24045982  0.24258021  1
