# generated using pymatgen
data_Sr4MgMn2(GaO5)2
_symmetry_space_group_name_H-M   'P 1'
_cell_length_a   6.54522675
_cell_length_b   6.10863405
_cell_length_c   9.02678044
_cell_angle_alpha   68.12910792
_cell_angle_beta   74.90733263
_cell_angle_gamma   97.88720533
_symmetry_Int_Tables_number   1
_chemical_formula_structural   Sr4MgMn2(GaO5)2
_chemical_formula_sum   'Sr4 Mg1 Mn2 Ga2 O10'
_cell_volume   312.13860698
_cell_formula_units_Z   1
loop_
 _symmetry_equiv_pos_site_id
 _symmetry_equiv_pos_as_xyz
  1  'x, y, z'
loop_
 _atom_site_type_symbol
 _atom_site_label
 _atom_site_symmetry_multiplicity
 _atom_site_fract_x
 _atom_site_fract_y
 _atom_site_fract_z
 _atom_site_occupancy
  Sr  Sr0  1  0.18859400  0.63242000  0.78148800  1
  Sr  Sr1  1  0.77321300  0.39356700  0.21822600  1
  Sr  Sr2  1  0.76503200  0.07672400  0.74341900  1
  Sr  Sr3  1  0.39126400  0.93060900  0.20993800  1
  Mg  Mg4  1  0.30619100  0.47632800  0.14578300  1
  Mn  Mn5  1  0.62279500  0.48857800  0.87828100  1
  Mn  Mn6  1  0.01136100  0.01827900  0.02958500  1
  Ga  Ga7  1  0.63429000  0.69893600  0.47801800  1
  Ga  Ga8  1  0.33416300  0.27842500  0.53729800  1
  O  O9  1  0.28748900  0.29224600  0.00563200  1
  O  O10  1  0.11879700  0.69816600  0.12303400  1
  O  O11  1  0.83840800  0.29387200  0.92423200  1
  O  O12  1  0.61346300  0.69306700  0.02364600  1
  O  O13  1  0.61982600  0.75839100  0.66482900  1
  O  O14  1  0.34560500  0.23114300  0.34452100  1
  O  O15  1  0.13479700  0.04073900  0.73634500  1
  O  O16  1  0.76524300  0.95333800  0.26949000  1
  O  O17  1  0.32009900  0.60431400  0.50313400  1
  O  O18  1  0.64365700  0.36942900  0.51881400  1
