# generated using pymatgen
data_MgO
_symmetry_space_group_name_H-M   'P 1'
_cell_length_a   8.09245403
_cell_length_b   8.09245403
_cell_length_c   8.09245403
_cell_angle_alpha   150.25046149
_cell_angle_beta   135.49444166
_cell_angle_gamma   54.45196640
_symmetry_Int_Tables_number   1
_chemical_formula_structural   MgO
_chemical_formula_sum   'Mg8 O8'
_cell_volume   183.24431062
_cell_formula_units_Z   8
loop_
 _symmetry_equiv_pos_site_id
 _symmetry_equiv_pos_as_xyz
  1  'x, y, z'
loop_
 _atom_site_type_symbol
 _atom_site_label
 _atom_site_symmetry_multiplicity
 _atom_site_fract_x
 _atom_site_fract_y
 _atom_site_fract_z
 _atom_site_occupancy
  Mg  Mg0  1  0.73705356  0.07077674  0.66627582  1
  Mg  Mg1  1  0.26294644  0.92922326  0.33372418  1
  Mg  Mg2  1  0.59549908  0.42922326  0.16627582  1
  Mg  Mg3  1  0.40450092  0.57077674  0.83372418  1
  Mg  Mg4  1  0.02636676  0.69007738  0.33628837  1
  Mg  Mg5  1  0.97363324  0.30992262  0.66371163  1
  Mg  Mg6  1  0.64621099  0.80992262  0.83628837  1
  Mg  Mg7  1  0.35378901  0.19007738  0.16371163  1
  O  O8  1  0.02565802  0.19016232  0.83549670  1
  O  O9  1  0.97434198  0.80983768  0.16450330  1
  O  O10  1  0.64533437  0.30983768  0.33549670  1
  O  O11  1  0.35466563  0.69016232  0.66450330  1
  O  O12  1  0.74084357  0.57076606  0.17007751  1
  O  O13  1  0.25915643  0.42923394  0.82992249  1
  O  O14  1  0.59931145  0.92923394  0.67007751  1
  O  O15  1  0.40068855  0.07076606  0.32992249  1
