# generated using pymatgen
data_FeAsO4
_symmetry_space_group_name_H-M   'P 1'
_cell_length_a   9.27322165
_cell_length_b   9.27308053
_cell_length_c   9.27317128
_cell_angle_alpha   138.65929325
_cell_angle_beta   108.44817642
_cell_angle_gamma   86.14348685
_symmetry_Int_Tables_number   1
_chemical_formula_structural   FeAsO4
_chemical_formula_sum   'Fe6 As6 O24'
_cell_volume   480.83622884
_cell_formula_units_Z   6
loop_
 _symmetry_equiv_pos_site_id
 _symmetry_equiv_pos_as_xyz
  1  'x, y, z'
loop_
 _atom_site_type_symbol
 _atom_site_label
 _atom_site_symmetry_multiplicity
 _atom_site_fract_x
 _atom_site_fract_y
 _atom_site_fract_z
 _atom_site_occupancy
  Fe  Fe0  1  0.00000027  0.50000758  0.50000645  1
  Fe  Fe1  1  0.50000125  0.00000288  0.50000132  1
  Fe  Fe2  1  0.88731021  0.88730875  0.50000642  1
  Fe  Fe3  1  0.61268988  0.11268562  -0.00000337  1
  Fe  Fe4  1  0.11269238  0.11269298  0.50000111  1
  Fe  Fe5  1  0.38730515  0.88731363  0.00000370  1
  As  As6  1  0.25001582  0.81686914  0.56688751  1
  As  As7  1  0.74999325  0.18313092  0.43312121  1
  As  As8  1  0.82266838  0.32268218  0.00000988  1
  As  As9  1  0.67731366  0.67732092  0.49997989  1
  As  As10  1  0.17733577  0.67732055  -0.00000480  1
  As  As11  1  0.32267661  0.32268289  0.50001193  1
  O  O12  1  0.12298472  0.97430492  0.59729392  1
  O  O13  1  0.37702292  0.97432465  0.85135105  1
  O  O14  1  0.62297528  0.02567069  0.14864957  1
  O  O15  1  0.87701387  0.02568255  0.40270247  1
  O  O16  1  0.14376906  0.57876793  0.43502433  1
  O  O17  1  0.35626064  0.79125091  0.43501715  1
  O  O18  1  0.85623684  0.42122810  0.56497235  1
  O  O19  1  0.64374105  0.20874460  0.56497519  1
  O  O20  1  0.14037502  0.40315441  0.82369585  1
  O  O21  1  0.35962446  0.18333026  0.26279280  1
  O  O22  1  0.42053695  0.59683822  0.73721326  1
  O  O23  1  0.07947314  0.81668111  0.17630907  1
  O  O24  1  0.65120916  0.80515882  0.42508389  1
  O  O25  1  0.84878309  0.27386853  0.15393762  1
  O  O26  1  0.61993043  0.19485211  0.84606459  1
  O  O27  1  0.88005394  0.72611593  0.57490051  1
  O  O28  1  0.34879852  0.19485002  0.57491605  1
  O  O29  1  0.15121728  0.72613121  0.84606829  1
  O  O30  1  0.38007363  0.80515258  0.15393758  1
  O  O31  1  0.11994007  0.27388646  0.42509129  1
  O  O32  1  0.92052809  0.18331305  0.82369241  1
  O  O33  1  0.57945263  0.40316412  0.26278085  1
  O  O34  1  0.64037279  0.81666695  0.73720428  1
  O  O35  1  0.85961981  0.59684483  0.17630538  1
