# generated using pymatgen
data_SrMg14NiO16
_symmetry_space_group_name_H-M   'P 1'
_cell_length_a   8.65167028
_cell_length_b   8.63736548
_cell_length_c   4.39382272
_cell_angle_alpha   90.00000000
_cell_angle_beta   90.00000000
_cell_angle_gamma   90.00000000
_symmetry_Int_Tables_number   1
_chemical_formula_structural   SrMg14NiO16
_chemical_formula_sum   'Sr1 Mg14 Ni1 O16'
_cell_volume   328.33999463
_cell_formula_units_Z   1
loop_
 _symmetry_equiv_pos_site_id
 _symmetry_equiv_pos_as_xyz
  1  'x, y, z'
loop_
 _atom_site_type_symbol
 _atom_site_label
 _atom_site_symmetry_multiplicity
 _atom_site_fract_x
 _atom_site_fract_y
 _atom_site_fract_z
 _atom_site_occupancy
  Sr  Sr0  1  0.00000000  0.50000000  0.00000000  1
  Mg  Mg1  1  0.50000000  0.00000000  0.00000000  1
  Mg  Mg2  1  0.50000000  0.50000000  0.00000000  1
  Mg  Mg3  1  0.00000000  0.23997653  0.50000000  1
  Mg  Mg4  1  0.00000000  0.76002347  0.50000000  1
  Mg  Mg5  1  0.50000000  0.24846514  0.50000000  1
  Mg  Mg6  1  0.50000000  0.75153486  0.50000000  1
  Mg  Mg7  1  0.25000207  0.00000000  0.50000000  1
  Mg  Mg8  1  0.25946582  0.50000000  0.50000000  1
  Mg  Mg9  1  0.74999793  0.00000000  0.50000000  1
  Mg  Mg10  1  0.74053418  0.50000000  0.50000000  1
  Mg  Mg11  1  0.25560403  0.24391683  0.00000000  1
  Mg  Mg12  1  0.25560403  0.75608317  0.00000000  1
  Mg  Mg13  1  0.74439597  0.24391683  0.00000000  1
  Mg  Mg14  1  0.74439597  0.75608317  0.00000000  1
  Ni  Ni15  1  0.00000000  0.00000000  0.00000000  1
  O  O16  1  0.25588186  0.00000000  0.00000000  1
  O  O17  1  0.27145790  0.50000000  0.00000000  1
  O  O18  1  0.74411814  0.00000000  0.00000000  1
  O  O19  1  0.72854210  0.50000000  0.00000000  1
  O  O20  1  0.24953410  0.24960831  0.50000000  1
  O  O21  1  0.24953410  0.75039169  0.50000000  1
  O  O22  1  0.75046590  0.24960831  0.50000000  1
  O  O23  1  0.75046590  0.75039169  0.50000000  1
  O  O24  1  0.00000000  0.00000000  0.50000000  1
  O  O25  1  0.00000000  0.50000000  0.50000000  1
  O  O26  1  0.50000000  0.00000000  0.50000000  1
  O  O27  1  0.50000000  0.50000000  0.50000000  1
  O  O28  1  0.00000000  0.22891768  0.00000000  1
  O  O29  1  0.00000000  0.77108232  0.00000000  1
  O  O30  1  0.50000000  0.24561628  0.00000000  1
  O  O31  1  0.50000000  0.75438372  0.00000000  1
