# generated using pymatgen
data_KVPO5
_symmetry_space_group_name_H-M   'P 1'
_cell_length_a   6.35194589
_cell_length_b   10.46683990
_cell_length_c   12.73184994
_cell_angle_alpha   90.00000901
_cell_angle_beta   89.99999202
_cell_angle_gamma   90.00169745
_symmetry_Int_Tables_number   1
_chemical_formula_structural   KVPO5
_chemical_formula_sum   'K8 V8 P8 O40'
_cell_volume   846.47450492
_cell_formula_units_Z   8
loop_
 _symmetry_equiv_pos_site_id
 _symmetry_equiv_pos_as_xyz
  1  'x, y, z'
loop_
 _atom_site_type_symbol
 _atom_site_label
 _atom_site_symmetry_multiplicity
 _atom_site_fract_x
 _atom_site_fract_y
 _atom_site_fract_z
 _atom_site_occupancy
  K  K0  1  0.22110703  0.81303432  0.62526821  1
  K  K1  1  0.72110905  0.31303381  0.87473109  1
  K  K2  1  0.27890279  0.81303585  0.12527559  1
  K  K3  1  0.70270743  0.06901090  0.10507254  1
  K  K4  1  0.20270909  0.56900751  0.39492691  1
  K  K5  1  0.29722788  0.56898987  0.89493818  1
  K  K6  1  0.79722946  0.06899553  0.60506114  1
  K  K7  1  0.77890131  0.31303592  0.37472359  1
  V  V8  1  0.49442775  0.00223157  0.37524664  1
  V  V9  1  0.50545224  0.50221808  0.62473821  1
  V  V10  1  0.00545253  0.00221796  0.87526156  1
  V  V11  1  0.27004657  0.25516181  0.24641106  1
  V  V12  1  0.72993766  0.75513354  0.75357423  1
  V  V13  1  0.22993860  0.25513341  0.74642588  1
  V  V14  1  0.77004691  0.75516197  0.25358888  1
  V  V15  1  0.99442791  0.50223231  0.12475323  1
  P  P16  1  0.99747954  0.01765563  0.31961200  1
  P  P17  1  0.00251956  0.51762669  0.68037982  1
  P  P18  1  0.50251991  0.01762730  0.81962010  1
  P  P19  1  0.49747979  0.51765542  0.18038778  1
  P  P20  1  0.83301370  0.76336966  0.00335693  1
  P  P21  1  0.16698796  0.26337124  0.99665232  1
  P  P22  1  0.66698729  0.76337087  0.50334770  1
  P  P23  1  0.33301202  0.26336887  0.49664324  1
  O  O24  1  0.54162928  0.89249575  0.28085680  1
  O  O25  1  0.45848986  0.39255524  0.71919546  1
  O  O26  1  0.95849085  0.89255481  0.78080493  1
  O  O27  1  0.04162958  0.39249616  0.21914306  1
  O  O28  1  0.95564254  0.64431024  0.22626811  1
  O  O29  1  0.04420035  0.14438260  0.77375461  1
  O  O30  1  0.54419967  0.64438247  0.72624536  1
  O  O31  1  0.45564220  0.14431037  0.27373181  1
  O  O32  1  0.95404618  0.90461227  0.24553298  1
  O  O33  1  0.04601492  0.40462121  0.75448494  1
  O  O34  1  0.54601352  0.90462078  0.74551588  1
  O  O35  1  0.45404567  0.40461256  0.25446728  1
  O  O36  1  0.03344644  0.13304867  0.24635004  1
  O  O37  1  0.96655581  0.63304157  0.75362652  1
  O  O38  1  0.46655630  0.13304136  0.74637249  1
  O  O39  1  0.68993982  0.74663196  0.90772987  1
  O  O40  1  0.53344645  0.63304891  0.25364933  1
  O  O41  1  0.81181994  0.48854197  0.61103012  1
  O  O42  1  0.31182067  0.98854419  0.88897061  1
  O  O43  1  0.68822724  0.48857594  0.11104404  1
  O  O44  1  0.80658817  0.04441607  0.38953396  1
  O  O45  1  0.19346791  0.54437776  0.61046781  1
  O  O46  1  0.69346892  0.04437859  0.88953156  1
  O  O47  1  0.30658889  0.54441570  0.11046569  1
  O  O48  1  0.47873149  0.14848242  0.48168660  1
  O  O49  1  0.52126727  0.64847620  0.51829180  1
  O  O50  1  0.02126615  0.14847749  0.98170835  1
  O  O51  1  0.97873300  0.64848316  0.01831370  1
  O  O52  1  0.47381597  0.38264135  0.50876853  1
  O  O53  1  0.52619758  0.88263766  0.49121132  1
  O  O54  1  0.02620002  0.38263897  0.00878803  1
  O  O55  1  0.97381728  0.88264221  0.99123180  1
  O  O56  1  0.19552893  0.28403388  0.39873574  1
  O  O57  1  0.80445874  0.78403197  0.60126017  1
  O  O58  1  0.30446081  0.28403103  0.89874004  1
  O  O59  1  0.69553046  0.78403462  0.10126436  1
  O  O60  1  0.18993762  0.24663136  0.59227021  1
  O  O61  1  0.81011673  0.74664078  0.40773448  1
  O  O62  1  0.31011708  0.24664105  0.09226566  1
  O  O63  1  0.18822668  0.98857666  0.38895611  1
