# generated using pymatgen
data_Mg6CdCO8
_symmetry_space_group_name_H-M   'P 1'
_cell_length_a   8.63863563
_cell_length_b   4.33441825
_cell_length_c   4.33441825
_cell_angle_alpha   90.00000000
_cell_angle_beta   90.00000000
_cell_angle_gamma   90.00000000
_symmetry_Int_Tables_number   1
_chemical_formula_structural   Mg6CdCO8
_chemical_formula_sum   'Mg6 Cd1 C1 O8'
_cell_volume   162.29561606
_cell_formula_units_Z   1
loop_
 _symmetry_equiv_pos_site_id
 _symmetry_equiv_pos_as_xyz
  1  'x, y, z'
loop_
 _atom_site_type_symbol
 _atom_site_label
 _atom_site_symmetry_multiplicity
 _atom_site_fract_x
 _atom_site_fract_y
 _atom_site_fract_z
 _atom_site_occupancy
  Mg  Mg0  1  0.00000000  0.50000000  0.50000000  1
  Mg  Mg1  1  0.50000000  0.50000000  0.50000000  1
  Mg  Mg2  1  0.25953114  0.00000000  0.50000000  1
  Mg  Mg3  1  0.74046886  -0.00000000  0.50000000  1
  Mg  Mg4  1  0.25953114  0.50000000  -0.00000000  1
  Mg  Mg5  1  0.74046886  0.50000000  0.00000000  1
  Cd  Cd6  1  0.00000000  0.00000000  0.00000000  1
  C  C7  1  0.50000000  0.00000000  0.00000000  1
  O  O8  1  0.26814785  0.00000000  -0.00000000  1
  O  O9  1  0.73185215  -0.00000000  0.00000000  1
  O  O10  1  0.25063397  0.50000000  0.50000000  1
  O  O11  1  0.74936603  0.50000000  0.50000000  1
  O  O12  1  0.00000000  0.00000000  0.50000000  1
  O  O13  1  0.50000000  0.00000000  0.50000000  1
  O  O14  1  0.00000000  0.50000000  0.00000000  1
  O  O15  1  0.50000000  0.50000000  0.00000000  1
