# generated using pymatgen
data_Sr2LiZrCrO6
_symmetry_space_group_name_H-M   'P 1'
_cell_length_a   5.68922894
_cell_length_b   6.09431534
_cell_length_c   5.68875210
_cell_angle_alpha   89.99950254
_cell_angle_beta   119.99084026
_cell_angle_gamma   117.78950191
_symmetry_Int_Tables_number   1
_chemical_formula_structural   Sr2LiZrCrO6
_chemical_formula_sum   'Sr2 Li1 Zr1 Cr1 O6'
_cell_volume   143.96871772
_cell_formula_units_Z   1
loop_
 _symmetry_equiv_pos_site_id
 _symmetry_equiv_pos_as_xyz
  1  'x, y, z'
loop_
 _atom_site_type_symbol
 _atom_site_label
 _atom_site_symmetry_multiplicity
 _atom_site_fract_x
 _atom_site_fract_y
 _atom_site_fract_z
 _atom_site_occupancy
  Sr  Sr0  1  0.52561400  0.28890300  0.76295700  1
  Sr  Sr1  1  0.58763300  0.88213800  0.29418300  1
  Li  Li2  1  0.26047900  0.39145200  0.13033900  1
  Zr  Zr3  1  0.00778000  0.51205700  0.50399300  1
  Cr  Cr4  1  0.97094800  0.95674300  0.98555600  1
  O  O5  1  0.98558900  0.22515300  0.23919700  1
  O  O6  1  0.98012100  0.72917800  0.74948300  1
  O  O7  1  0.47873500  0.22599400  0.23955200  1
  O  O8  1  0.49827800  0.72740200  0.74897000  1
  O  O9  1  0.97969200  0.72837900  0.22997300  1
  O  O10  1  0.98554700  0.22545800  0.74674700  1
