# generated using pymatgen
data_Sm2MgSe4
_symmetry_space_group_name_H-M   'P 1'
_cell_length_a   13.47443967
_cell_length_b   8.05869521
_cell_length_c   13.59483768
_cell_angle_alpha   90.00000000
_cell_angle_beta   90.00000000
_cell_angle_gamma   90.00000000
_symmetry_Int_Tables_number   1
_chemical_formula_structural   Sm2MgSe4
_chemical_formula_sum   'Sm16 Mg8 Se32'
_cell_volume   1476.21451524
_cell_formula_units_Z   8
loop_
 _symmetry_equiv_pos_site_id
 _symmetry_equiv_pos_as_xyz
  1  'x, y, z'
loop_
 _atom_site_type_symbol
 _atom_site_label
 _atom_site_symmetry_multiplicity
 _atom_site_fract_x
 _atom_site_fract_y
 _atom_site_fract_z
 _atom_site_occupancy
  Sm  Sm0  1  0.10794579  0.88330742  0.68531492  1
  Sm  Sm1  1  0.89205421  0.11669258  0.18531492  1
  Sm  Sm2  1  0.39205421  0.88330742  0.18531492  1
  Sm  Sm3  1  0.60794579  0.11669258  0.68531492  1
  Sm  Sm4  1  0.12749131  0.38184593  0.32634522  1
  Sm  Sm5  1  0.87250869  0.61815407  0.82634522  1
  Sm  Sm6  1  0.37250869  0.38184593  0.82634522  1
  Sm  Sm7  1  0.62749131  0.61815407  0.32634522  1
  Sm  Sm8  1  0.13353935  0.62852309  0.99154975  1
  Sm  Sm9  1  0.86646065  0.37147691  0.49154975  1
  Sm  Sm10  1  0.36646065  0.62852309  0.49154975  1
  Sm  Sm11  1  0.63353935  0.37147691  0.99154975  1
  Sm  Sm12  1  0.13417663  0.12878986  0.99246678  1
  Sm  Sm13  1  0.86582337  0.87121014  0.49246678  1
  Sm  Sm14  1  0.36582337  0.12878986  0.49246678  1
  Sm  Sm15  1  0.63417663  0.87121014  0.99246678  1
  Mg  Mg16  1  0.11128600  0.38290830  0.69203130  1
  Mg  Mg17  1  0.88871400  0.61709170  0.19203130  1
  Mg  Mg18  1  0.38871400  0.38290830  0.19203130  1
  Mg  Mg19  1  0.61128600  0.61709170  0.69203130  1
  Mg  Mg20  1  0.12639754  0.87882500  0.32001846  1
  Mg  Mg21  1  0.87360246  0.12117500  0.82001846  1
  Mg  Mg22  1  0.37360246  0.87882500  0.82001846  1
  Mg  Mg23  1  0.62639754  0.12117500  0.32001846  1
  Se  Se24  1  0.01123635  0.87986901  0.87908469  1
  Se  Se25  1  0.98876365  0.12013099  0.37908469  1
  Se  Se26  1  0.48876365  0.87986901  0.37908469  1
  Se  Se27  1  0.51123635  0.12013099  0.87908469  1
  Se  Se28  1  0.03162970  0.37982927  0.12896563  1
  Se  Se29  1  0.96837030  0.62017073  0.62896563  1
  Se  Se30  1  0.46837030  0.37982927  0.62896563  1
  Se  Se31  1  0.53162970  0.62017073  0.12896563  1
  Se  Se32  1  0.02311299  0.37138415  0.86731345  1
  Se  Se33  1  0.97688701  0.62861585  0.36731345  1
  Se  Se34  1  0.47688701  0.37138415  0.36731345  1
  Se  Se35  1  0.52311299  0.62861585  0.86731345  1
  Se  Se36  1  0.04451153  0.87160257  0.13825662  1
  Se  Se37  1  0.95548847  0.12839743  0.63825662  1
  Se  Se38  1  0.45548847  0.87160257  0.63825662  1
  Se  Se39  1  0.54451153  0.12839743  0.13825662  1
  Se  Se40  1  0.21001022  0.87914701  0.49912982  1
  Se  Se41  1  0.78998978  0.12085299  0.99912982  1
  Se  Se42  1  0.28998978  0.87914701  0.99912982  1
  Se  Se43  1  0.71001022  0.12085299  0.49912982  1
  Se  Se44  1  0.21078338  0.37998464  0.52191794  1
  Se  Se45  1  0.78921662  0.62001536  0.02191794  1
  Se  Se46  1  0.28921662  0.37998464  0.02191794  1
  Se  Se47  1  0.71078338  0.62001536  0.52191794  1
  Se  Se48  1  0.23215528  0.12856473  0.77638956  1
  Se  Se49  1  0.76784472  0.87143527  0.27638956  1
  Se  Se50  1  0.26784472  0.12856473  0.27638956  1
  Se  Se51  1  0.73215528  0.87143527  0.77638956  1
  Se  Se52  1  0.23034373  0.63240729  0.77821686  1
  Se  Se53  1  0.76965627  0.36759271  0.27821686  1
  Se  Se54  1  0.26965627  0.63240729  0.27821686  1
  Se  Se55  1  0.73034373  0.36759271  0.77821686  1
