# generated using pymatgen
data_KRb2CrF6
_symmetry_space_group_name_H-M   'P 1'
_cell_length_a   8.85048792
_cell_length_b   10.61210768
_cell_length_c   10.61210768
_cell_angle_alpha   79.98600919
_cell_angle_beta   65.35469727
_cell_angle_gamma   65.35469727
_symmetry_Int_Tables_number   1
_chemical_formula_structural   KRb2CrF6
_chemical_formula_sum   'K5 Rb10 Cr5 F30'
_cell_volume   823.39665750
_cell_formula_units_Z   5
loop_
 _symmetry_equiv_pos_site_id
 _symmetry_equiv_pos_as_xyz
  1  'x, y, z'
loop_
 _atom_site_type_symbol
 _atom_site_label
 _atom_site_symmetry_multiplicity
 _atom_site_fract_x
 _atom_site_fract_y
 _atom_site_fract_z
 _atom_site_occupancy
  K  K0  1  0.50000000  0.00000000  0.00000000  1
  K  K1  1  0.26300136  0.82462316  0.64937312  1
  K  K2  1  0.08762552  0.64937312  0.17537684  1
  K  K3  1  0.73699864  0.17537684  0.35062688  1
  K  K4  1  0.91237448  0.35062688  0.82462316  1
  Rb  Rb5  1  0.75000000  0.50000000  0.50000000  1
  Rb  Rb6  1  0.25000000  0.50000000  0.50000000  1
  Rb  Rb7  1  0.61936898  0.89425666  0.31843709  1
  Rb  Rb8  1  0.51362564  0.31843709  0.10574334  1
  Rb  Rb9  1  0.83206173  0.10574334  0.68156291  1
  Rb  Rb10  1  0.93780506  0.68156291  0.89425666  1
  Rb  Rb11  1  0.38063102  0.10574334  0.68156291  1
  Rb  Rb12  1  0.48637436  0.68156291  0.89425666  1
  Rb  Rb13  1  0.16793827  0.89425666  0.31843709  1
  Rb  Rb14  1  0.06219494  0.31843709  0.10574334  1
  Cr  Cr15  1  -0.00000000  0.00000000  0.00000000  1
  Cr  Cr16  1  0.80413509  0.79066768  0.60106414  1
  Cr  Cr17  1  0.59480177  0.60106414  0.20933232  1
  Cr  Cr18  1  0.19586491  0.20933232  0.39893586  1
  Cr  Cr19  1  0.40519823  0.39893586  0.79066768  1
  F  F20  1  0.93705640  0.93677658  0.18911162  1
  F  F21  1  0.87383298  0.18911162  0.06322342  1
  F  F22  1  0.06294360  0.06322342  0.81088838  1
  F  F23  1  0.12616702  0.81088838  0.93677658  1
  F  F24  1  0.78403616  -0.00000000  -0.00000000  1
  F  F25  1  0.21596384  0.00000000  0.00000000  1
  F  F26  1  0.67153172  0.88017283  0.77676373  1
  F  F27  1  0.55170455  0.77676373  0.11982717  1
  F  F28  1  0.32846828  0.11982717  0.22323627  1
  F  F29  1  0.44829545  0.22323627  0.88017283  1
  F  F30  1  0.84698649  0.61346259  0.69256543  1
  F  F31  1  0.46044908  0.69256543  0.38653741  1
  F  F32  1  0.15301351  0.38653741  0.30743457  1
  F  F33  1  0.53955092  0.30743457  0.61346259  1
  F  F34  1  0.93610745  0.70131802  0.42646608  1
  F  F35  1  0.63742647  0.42646608  0.29868198  1
  F  F36  1  0.06389255  0.29868198  0.57353392  1
  F  F37  1  0.36257353  0.57353392  0.70131802  1
  F  F38  1  0.75867669  0.96945652  0.51318810  1
  F  F39  1  0.72813521  0.51318810  0.03054348  1
  F  F40  1  0.24132331  0.03054348  0.48681190  1
  F  F41  1  0.27186479  0.48681190  0.96945652  1
  F  F42  1  0.58361145  0.79478242  0.60342190  1
  F  F43  1  0.37839387  0.60342190  0.20521758  1
  F  F44  1  0.98181577  0.20521758  0.39657810  1
  F  F45  1  0.18703335  0.39657810  0.79478242  1
  F  F46  1  0.41638855  0.20521758  0.39657810  1
  F  F47  1  0.62160613  0.39657810  0.79478242  1
  F  F48  1  0.01818423  0.79478242  0.60342190  1
  F  F49  1  0.81296665  0.60342190  0.20521758  1
