# generated using pymatgen
data_CsSrI3
_symmetry_space_group_name_H-M   'P 1'
_cell_length_a   8.48757693
_cell_length_b   8.48757693
_cell_length_c   12.32933082
_cell_angle_alpha   90.00000000
_cell_angle_beta   90.00000000
_cell_angle_gamma   146.58169807
_symmetry_Int_Tables_number   1
_chemical_formula_structural   CsSrI3
_chemical_formula_sum   'Cs2 Sr2 I6'
_cell_volume   489.16953033
_cell_formula_units_Z   2
loop_
 _symmetry_equiv_pos_site_id
 _symmetry_equiv_pos_as_xyz
  1  'x, y, z'
loop_
 _atom_site_type_symbol
 _atom_site_label
 _atom_site_symmetry_multiplicity
 _atom_site_fract_x
 _atom_site_fract_y
 _atom_site_fract_z
 _atom_site_occupancy
  Cs  Cs0  1  0.24847966  0.75152034  0.75000000  1
  Cs  Cs1  1  0.75152034  0.24847966  0.25000000  1
  Sr  Sr2  1  0.50000000  0.50000000  0.50000000  1
  Sr  Sr3  1  0.50000000  0.50000000  -0.00000000  1
  I  I4  1  0.13259888  0.86740112  0.44914337  1
  I  I5  1  0.86740112  0.13259888  0.94914337  1
  I  I6  1  0.13259888  0.86740112  0.05085663  1
  I  I7  1  0.86740112  0.13259888  0.55085663  1
  I  I8  1  0.56509870  0.43490130  0.75000000  1
  I  I9  1  0.43490130  0.56509870  0.25000000  1
