# generated using pymatgen
data_Na3ErBr6
_symmetry_space_group_name_H-M   'P 1'
_cell_length_a   7.66135758
_cell_length_b   7.11399351
_cell_length_c   12.93480598
_cell_angle_alpha   55.55342314
_cell_angle_beta   90.00000000
_cell_angle_gamma   90.00000000
_symmetry_Int_Tables_number   1
_chemical_formula_structural   Na3ErBr6
_chemical_formula_sum   'Na6 Er2 Br12'
_cell_volume   581.36764896
_cell_formula_units_Z   2
loop_
 _symmetry_equiv_pos_site_id
 _symmetry_equiv_pos_as_xyz
  1  'x, y, z'
loop_
 _atom_site_type_symbol
 _atom_site_label
 _atom_site_symmetry_multiplicity
 _atom_site_fract_x
 _atom_site_fract_y
 _atom_site_fract_z
 _atom_site_occupancy
  Na  Na0  1  -0.00000000  0.50000000  0.50000000  1
  Na  Na1  1  0.50000000  0.50000000  0.00000000  1
  Na  Na2  1  0.41079438  0.22871791  0.73837447  1
  Na  Na3  1  0.58920562  0.77128209  0.26162553  1
  Na  Na4  1  0.91079438  0.77128209  0.76162553  1
  Na  Na5  1  0.08920562  0.22871791  0.23837447  1
  Er  Er6  1  -0.00000000  -0.00000000  0.00000000  1
  Er  Er7  1  0.50000000  -0.00000000  0.50000000  1
  Br  Br8  1  0.69307264  0.91419906  0.92044310  1
  Br  Br9  1  0.30692736  0.08580094  0.07955690  1
  Br  Br10  1  0.19307264  0.08580094  0.57955690  1
  Br  Br11  1  0.80692736  0.91419906  0.42044310  1
  Br  Br12  1  0.06106655  0.38423722  0.75990763  1
  Br  Br13  1  0.93893345  0.61576278  0.24009237  1
  Br  Br14  1  0.56106655  0.61576278  0.74009237  1
  Br  Br15  1  0.43893345  0.38423722  0.25990763  1
  Br  Br16  1  0.17803814  0.74548160  0.93548807  1
  Br  Br17  1  0.82196186  0.25451840  0.06451193  1
  Br  Br18  1  0.67803814  0.25451840  0.56451193  1
  Br  Br19  1  0.32196186  0.74548160  0.43548807  1
