# generated using pymatgen
data_CaP4(Br3O)4
_symmetry_space_group_name_H-M   'P 1'
_cell_length_a   6.87910481
_cell_length_b   11.00852316
_cell_length_c   10.98822166
_cell_angle_alpha   91.64540167
_cell_angle_beta   87.23052124
_cell_angle_gamma   98.60184383
_symmetry_Int_Tables_number   1
_chemical_formula_structural   CaP4(Br3O)4
_chemical_formula_sum   'Ca1 P4 Br12 O4'
_cell_volume   821.60907236
_cell_formula_units_Z   1
loop_
 _symmetry_equiv_pos_site_id
 _symmetry_equiv_pos_as_xyz
  1  'x, y, z'
loop_
 _atom_site_type_symbol
 _atom_site_label
 _atom_site_symmetry_multiplicity
 _atom_site_fract_x
 _atom_site_fract_y
 _atom_site_fract_z
 _atom_site_occupancy
  Ca  Ca0  1  0.50222400  0.99346500  0.77912400  1
  P  P1  1  0.37600700  0.31126400  0.25545100  1
  P  P2  1  0.62408000  0.67342500  0.76088300  1
  P  P3  1  0.94228200  0.23424400  0.74594000  1
  P  P4  1  0.09002200  0.80979500  0.24308300  1
  Br  Br5  1  0.78246000  0.65393600  0.58709100  1
  Br  Br6  1  0.93974400  0.96293200  0.19577800  1
  Br  Br7  1  0.24225400  0.87231100  0.40919700  1
  Br  Br8  1  0.69235300  0.18742100  0.92726000  1
  Br  Br9  1  0.19566000  0.34768100  0.42006300  1
  Br  Br10  1  0.79982500  0.61939600  0.90350800  1
  Br  Br11  1  0.35830800  0.53842900  0.75633500  1
  Br  Br12  1  0.69389300  0.14619700  0.59169100  1
  Br  Br13  1  0.11434100  0.94874900  0.74539600  1
  Br  Br14  1  0.18943300  0.34116000  0.10411400  1
  Br  Br15  1  0.32512200  0.80386800  0.09893400  1
  Br  Br16  1  0.61604600  0.46755000  0.24935900  1
  O  O17  1  0.57820800  0.80089000  0.78326600  1
  O  O18  1  0.97505800  0.36959400  0.73077000  1
  O  O19  1  0.44028200  0.18935000  0.25137600  1
  O  O20  1  0.95989800  0.69084200  0.25527800  1
