# generated using pymatgen
data_AsIrS
_symmetry_space_group_name_H-M   'P 1'
_cell_length_a   5.81620160
_cell_length_b   5.81620160
_cell_length_c   5.81620160
_cell_angle_alpha   90.00000000
_cell_angle_beta   90.00000000
_cell_angle_gamma   90.00000000
_symmetry_Int_Tables_number   1
_chemical_formula_structural   AsIrS
_chemical_formula_sum   'As4 Ir4 S4'
_cell_volume   196.75163708
_cell_formula_units_Z   4
loop_
 _symmetry_equiv_pos_site_id
 _symmetry_equiv_pos_as_xyz
  1  'x, y, z'
loop_
 _atom_site_type_symbol
 _atom_site_label
 _atom_site_symmetry_multiplicity
 _atom_site_fract_x
 _atom_site_fract_y
 _atom_site_fract_z
 _atom_site_occupancy
  As  As0  1  0.11690528  0.88309472  0.38309472  1
  As  As1  1  0.88309472  0.38309472  0.11690528  1
  As  As2  1  0.38309472  0.11690528  0.88309472  1
  As  As3  1  0.61690528  0.61690528  0.61690528  1
  Ir  Ir4  1  0.49679992  0.50320008  0.00320008  1
  Ir  Ir5  1  0.50320008  0.00320008  0.49679992  1
  Ir  Ir6  1  0.00320008  0.49679992  0.50320008  1
  Ir  Ir7  1  0.99679992  0.99679992  0.99679992  1
  S  S8  1  0.88742108  0.11257892  0.61257892  1
  S  S9  1  0.11257892  0.61257892  0.88742108  1
  S  S10  1  0.61257892  0.88742108  0.11257892  1
  S  S11  1  0.38742108  0.38742108  0.38742108  1
