# generated using pymatgen
data_Tl4Si5O12
_symmetry_space_group_name_H-M   'P 1'
_cell_length_a   7.43590519
_cell_length_b   7.43590519
_cell_length_c   13.18866099
_cell_angle_alpha   87.10893579
_cell_angle_beta   87.10893579
_cell_angle_gamma   103.30134187
_symmetry_Int_Tables_number   1
_chemical_formula_structural   Tl4Si5O12
_chemical_formula_sum   'Tl8 Si10 O24'
_cell_volume   707.32490459
_cell_formula_units_Z   2
loop_
 _symmetry_equiv_pos_site_id
 _symmetry_equiv_pos_as_xyz
  1  'x, y, z'
loop_
 _atom_site_type_symbol
 _atom_site_label
 _atom_site_symmetry_multiplicity
 _atom_site_fract_x
 _atom_site_fract_y
 _atom_site_fract_z
 _atom_site_occupancy
  Tl  Tl0  1  0.07259111  0.13165957  0.62350797  1
  Tl  Tl1  1  0.86834043  0.92740889  0.87649203  1
  Tl  Tl2  1  0.92740889  0.86834043  0.37649203  1
  Tl  Tl3  1  0.13165957  0.07259111  0.12350797  1
  Tl  Tl4  1  0.03476314  0.63041097  0.63113373  1
  Tl  Tl5  1  0.36958903  0.96523686  0.86886627  1
  Tl  Tl6  1  0.96523686  0.36958903  0.36886627  1
  Tl  Tl7  1  0.63041097  0.03476314  0.13113373  1
  Si  Si8  1  0.63863209  0.24770471  0.58148039  1
  Si  Si9  1  0.75229529  0.36136791  0.91851961  1
  Si  Si10  1  0.36136791  0.75229529  0.41851961  1
  Si  Si11  1  0.24770471  0.63863209  0.08148039  1
  Si  Si12  1  0.38145759  0.16617441  0.39725318  1
  Si  Si13  1  0.83382559  0.61854241  0.10274682  1
  Si  Si14  1  0.61854241  0.83382559  0.60274682  1
  Si  Si15  1  0.16617441  0.38145759  0.89725318  1
  Si  Si16  1  0.50986903  0.49013097  0.75000000  1
  Si  Si17  1  0.49013097  0.50986903  0.25000000  1
  O  O18  1  0.53661849  0.36228247  0.65842657  1
  O  O19  1  0.63771753  0.46338151  0.84157343  1
  O  O20  1  0.46338151  0.63771753  0.34157343  1
  O  O21  1  0.36228247  0.53661849  0.15842657  1
  O  O22  1  0.56562126  0.70527601  0.70920559  1
  O  O23  1  0.29472399  0.43437874  0.79079441  1
  O  O24  1  0.43437874  0.29472399  0.29079441  1
  O  O25  1  0.70527601  0.56562126  0.20920559  1
  O  O26  1  0.85681455  0.33169833  0.56253624  1
  O  O27  1  0.66830167  0.14318545  0.93746376  1
  O  O28  1  0.14318545  0.66830167  0.43746376  1
  O  O29  1  0.33169833  0.85681455  0.06253624  1
  O  O30  1  0.53938697  0.24865612  0.47446901  1
  O  O31  1  0.75134388  0.46061303  0.02553099  1
  O  O32  1  0.46061303  0.75134388  0.52553099  1
  O  O33  1  0.24865612  0.53938697  0.97446901  1
  O  O34  1  0.59148615  0.03659237  0.63324829  1
  O  O35  1  0.96340763  0.40851385  0.86675171  1
  O  O36  1  0.40851385  0.96340763  0.36675171  1
  O  O37  1  0.03659237  0.59148615  0.13324829  1
  O  O38  1  0.17469288  0.15591815  0.44111339  1
  O  O39  1  0.84408185  0.82530712  0.05888661  1
  O  O40  1  0.82530712  0.84408185  0.55888661  1
  O  O41  1  0.15591815  0.17469288  0.94111339  1
