# generated using pymatgen
data_K2MgFe4P6(O4F3)4
_symmetry_space_group_name_H-M   'P 1'
_cell_length_a   7.39566417
_cell_length_b   7.88991544
_cell_length_c   10.68976208
_cell_angle_alpha   98.68724140
_cell_angle_beta   109.37749508
_cell_angle_gamma   88.77723207
_symmetry_Int_Tables_number   1
_chemical_formula_structural   K2MgFe4P6(O4F3)4
_chemical_formula_sum   'K2 Mg1 Fe4 P6 O16 F12'
_cell_volume   581.39830568
_cell_formula_units_Z   1
loop_
 _symmetry_equiv_pos_site_id
 _symmetry_equiv_pos_as_xyz
  1  'x, y, z'
loop_
 _atom_site_type_symbol
 _atom_site_label
 _atom_site_symmetry_multiplicity
 _atom_site_fract_x
 _atom_site_fract_y
 _atom_site_fract_z
 _atom_site_occupancy
  K  K0  1  0.80297338  0.07958359  0.77404794  1
  K  K1  1  0.24675363  0.94559251  0.21413665  1
  Mg  Mg2  1  0.64549769  0.74013278  0.93888768  1
  Fe  Fe3  1  0.67206163  0.33371640  0.34437735  1
  Fe  Fe4  1  0.33069053  0.66617439  0.65349342  1
  Fe  Fe5  1  0.46014044  0.44671072  0.00145857  1
  Fe  Fe6  1  0.01590023  0.99609763  0.50002429  1
  P  P7  1  0.67439832  0.72644038  0.51454153  1
  P  P8  1  0.34374767  0.27065369  0.49083278  1
  P  P9  1  0.32295498  0.04875233  0.83028729  1
  P  P10  1  0.70672686  0.93962612  0.18865978  1
  P  P11  1  0.03646011  0.58333682  0.83009845  1
  P  P12  1  0.93370960  0.43789326  0.15707377  1
  O  O13  1  0.73861003  0.55549683  0.45871702  1
  O  O14  1  0.27319933  0.43781713  0.54046661  1
  O  O15  1  0.81822808  0.87681968  0.54662663  1
  O  O16  1  0.19582354  0.12256535  0.44106804  1
  O  O17  1  0.60754268  0.10363125  0.21373241  1
  O  O18  1  0.44135430  0.88753400  0.81632413  1
  O  O19  1  0.45282345  0.20290155  0.90316008  1
  O  O20  1  0.56795852  0.79295932  0.10517460  1
  O  O21  1  0.88205914  0.89831443  0.29973469  1
  O  O22  1  0.15820627  0.07418199  0.70448893  1
  O  O23  1  0.88416900  0.36798423  0.26348310  1
  O  O24  1  0.08583496  0.65489524  0.72569080  1
  O  O25  1  0.78466542  0.51431055  0.04833851  1
  O  O26  1  0.17731626  0.53492991  0.95442793  1
  O  O27  1  0.44479846  0.27407773  0.38794380  1
  O  O28  1  0.59908997  0.72232552  0.62944385  1
  F  F29  1  0.84714891  0.20288325  0.48123276  1
  F  F30  1  0.18084440  0.80611410  0.50741196  1
  F  F31  1  0.49863889  0.43675944  0.19071623  1
  F  F32  1  0.48234141  0.54937853  0.83844793  1
  F  F33  1  0.80644661  0.96450863  0.06772570  1
  F  F34  1  0.21031657  0.00880676  0.93074499  1
  F  F35  1  0.87815775  0.43609794  0.76713648  1
  F  F36  1  0.10920805  0.56605800  0.22160151  1
  F  F37  1  0.50580026  0.21358929  0.61926274  1
  F  F38  1  0.49834705  0.77594342  0.39074883  1
  F  F39  1  0.02910590  0.28821285  0.08656595  1
  F  F40  1  0.89994972  0.72452547  0.88416429  1
