# generated using pymatgen
data_VPHO5
_symmetry_space_group_name_H-M   'P 1'
_cell_length_a   6.67388200
_cell_length_b   7.26608404
_cell_length_c   7.86139216
_cell_angle_alpha   91.94185126
_cell_angle_beta   90.31691928
_cell_angle_gamma   62.12615217
_symmetry_Int_Tables_number   1
_chemical_formula_structural   VPHO5
_chemical_formula_sum   'V4 P4 H4 O20'
_cell_volume   336.77617127
_cell_formula_units_Z   4
loop_
 _symmetry_equiv_pos_site_id
 _symmetry_equiv_pos_as_xyz
  1  'x, y, z'
loop_
 _atom_site_type_symbol
 _atom_site_label
 _atom_site_symmetry_multiplicity
 _atom_site_fract_x
 _atom_site_fract_y
 _atom_site_fract_z
 _atom_site_occupancy
  V  V0  1  0.00000473  0.50000191  0.50000676  1
  V  V1  1  0.50000664  0.49999935  -0.00000435  1
  V  V2  1  -0.00000306  0.00000107  0.00000261  1
  V  V3  1  0.50000237  -0.00000052  0.50000181  1
  P  P4  1  0.27534299  0.23003319  0.16717483  1
  P  P5  1  0.77534665  0.23003360  0.66716571  1
  P  P6  1  0.72465489  0.76996796  0.83282168  1
  P  P7  1  0.22465077  0.76997295  0.33282729  1
  H  H8  1  0.83771230  0.31918988  0.18175334  1
  H  H9  1  0.33768814  0.31918345  0.68177720  1
  H  H10  1  0.16228410  0.68081101  0.81824902  1
  H  H11  1  0.66230666  0.68079554  0.31824530  1
  O  O12  1  0.72960755  0.72944837  0.40922573  1
  O  O13  1  0.22962470  0.72944977  0.90921930  1
  O  O14  1  0.27039159  0.27054930  0.59077886  1
  O  O15  1  0.77037679  0.27054658  0.09078335  1
  O  O16  1  0.05935961  0.36971992  0.27237530  1
  O  O17  1  0.55936853  0.36972185  0.77237331  1
  O  O18  1  0.94064512  0.63028768  0.72762307  1
  O  O19  1  0.44063303  0.63028078  0.22762431  1
  O  O20  1  0.67349888  0.63415567  0.95112405  1
  O  O21  1  0.17348418  0.63416259  0.45112054  1
  O  O22  1  0.32650695  0.36584083  0.04887175  1
  O  O23  1  0.82652334  0.36583417  0.54887619  1
  O  O24  1  0.23536357  0.07168102  0.06065750  1
  O  O25  1  0.73536373  0.07168972  0.56064939  1
  O  O26  1  0.76461955  0.92832399  0.93934193  1
  O  O27  1  0.26464272  0.92831353  0.43934329  1
  O  O28  1  0.47580372  0.11780778  0.28613340  1
  O  O29  1  0.97582410  0.11779456  0.78610759  1
  O  O30  1  0.52419447  0.88219566  0.71386382  1
  O  O31  1  0.02417069  0.88220583  0.21388410  1
