# generated using pymatgen
data_SmTl(MoO4)2
_symmetry_space_group_name_H-M   'P 1'
_cell_length_a   5.11864368
_cell_length_b   8.09774810
_cell_length_c   18.66908537
_cell_angle_alpha   90.00000000
_cell_angle_beta   90.00000000
_cell_angle_gamma   90.00000000
_symmetry_Int_Tables_number   1
_chemical_formula_structural   SmTl(MoO4)2
_chemical_formula_sum   'Sm4 Tl4 Mo8 O32'
_cell_volume   773.82401385
_cell_formula_units_Z   4
loop_
 _symmetry_equiv_pos_site_id
 _symmetry_equiv_pos_as_xyz
  1  'x, y, z'
loop_
 _atom_site_type_symbol
 _atom_site_label
 _atom_site_symmetry_multiplicity
 _atom_site_fract_x
 _atom_site_fract_y
 _atom_site_fract_z
 _atom_site_occupancy
  Sm  Sm0  1  0.50000000  0.75000000  0.49340954  1
  Sm  Sm1  1  -0.00000000  0.25000000  0.00659046  1
  Sm  Sm2  1  0.50000000  0.25000000  0.50659046  1
  Sm  Sm3  1  -0.00000000  0.75000000  0.99340954  1
  Tl  Tl4  1  -0.00000000  0.75000000  0.23036828  1
  Tl  Tl5  1  0.50000000  0.25000000  0.26963172  1
  Tl  Tl6  1  -0.00000000  0.25000000  0.76963172  1
  Tl  Tl7  1  0.50000000  0.75000000  0.73036828  1
  Mo  Mo8  1  0.48141299  0.51680080  0.10110048  1
  Mo  Mo9  1  0.98141299  0.48319920  0.39889952  1
  Mo  Mo10  1  0.01858701  0.01680080  0.39889952  1
  Mo  Mo11  1  0.51858701  0.98319920  0.10110048  1
  Mo  Mo12  1  0.51858701  0.48319920  0.89889952  1
  Mo  Mo13  1  0.01858701  0.51680080  0.60110048  1
  Mo  Mo14  1  0.98141299  0.98319920  0.60110048  1
  Mo  Mo15  1  0.48141299  0.01680080  0.89889952  1
  O  O16  1  0.60872831  0.52436089  0.18656333  1
  O  O17  1  0.10872831  0.47563911  0.31343667  1
  O  O18  1  0.89127169  0.02436089  0.31343667  1
  O  O19  1  0.39127169  0.97563911  0.18656333  1
  O  O20  1  0.39127169  0.47563911  0.81343667  1
  O  O21  1  0.89127169  0.52436089  0.68656333  1
  O  O22  1  0.10872831  0.97563911  0.68656333  1
  O  O23  1  0.60872831  0.02436089  0.81343667  1
  O  O24  1  0.74754150  0.49722440  0.03577277  1
  O  O25  1  0.24754150  0.50277560  0.46422723  1
  O  O26  1  0.75245850  0.99722440  0.46422723  1
  O  O27  1  0.25245850  0.00277560  0.03577277  1
  O  O28  1  0.25245850  0.50277560  0.96422723  1
  O  O29  1  0.75245850  0.49722440  0.53577277  1
  O  O30  1  0.24754150  0.00277560  0.53577277  1
  O  O31  1  0.74754150  0.99722440  0.96422723  1
  O  O32  1  0.27704585  0.84179615  0.90067280  1
  O  O33  1  0.77704685  0.15820385  0.59932720  1
  O  O34  1  0.22295415  0.34179615  0.59932720  1
  O  O35  1  0.72295315  0.65820385  0.90067280  1
  O  O36  1  0.72295315  0.15820385  0.09932720  1
  O  O37  1  0.22295415  0.84179615  0.40067280  1
  O  O38  1  0.77704685  0.65820385  0.40067280  1
  O  O39  1  0.27704585  0.34179615  0.09932720  1
  O  O40  1  0.26250276  0.18766293  0.90798698  1
  O  O41  1  0.76250276  0.81233707  0.59201302  1
  O  O42  1  0.23749724  0.68766293  0.59201302  1
  O  O43  1  0.73749724  0.31233707  0.90798698  1
  O  O44  1  0.73749724  0.81233707  0.09201302  1
  O  O45  1  0.23749724  0.18766293  0.40798698  1
  O  O46  1  0.76250276  0.31233707  0.40798698  1
  O  O47  1  0.26250276  0.68766293  0.09201302  1
