# generated using pymatgen
data_BaU2V2O12
_symmetry_space_group_name_H-M   'P 1'
_cell_length_a   8.34216335
_cell_length_b   6.66638675
_cell_length_c   10.50676766
_cell_angle_alpha   76.12648856
_cell_angle_beta   90.00000000
_cell_angle_gamma   90.00000000
_symmetry_Int_Tables_number   1
_chemical_formula_structural   BaU2V2O12
_chemical_formula_sum   'Ba2 U4 V4 O24'
_cell_volume   567.25765605
_cell_formula_units_Z   2
loop_
 _symmetry_equiv_pos_site_id
 _symmetry_equiv_pos_as_xyz
  1  'x, y, z'
loop_
 _atom_site_type_symbol
 _atom_site_label
 _atom_site_symmetry_multiplicity
 _atom_site_fract_x
 _atom_site_fract_y
 _atom_site_fract_z
 _atom_site_occupancy
  Ba  Ba0  1  0.96599676  0.46464970  0.84087928  1
  Ba  Ba1  1  0.03400324  0.46464970  0.34087928  1
  U  U2  1  0.76704439  0.01872482  0.67997848  1
  U  U3  1  0.27178664  0.98572638  0.82083266  1
  U  U4  1  0.72821336  0.98572638  0.32083266  1
  U  U5  1  0.23295561  0.01872482  0.17997848  1
  V  V6  1  0.09893116  0.88123052  0.55526240  1
  V  V7  1  0.60603997  0.11528863  0.94857893  1
  V  V8  1  0.39396003  0.11528863  0.44857893  1
  V  V9  1  0.90106884  0.88123052  0.05526240  1
  O  O10  1  0.72763107  0.74233525  0.72473321  1
  O  O11  1  0.21594569  0.25635660  0.76314595  1
  O  O12  1  0.78405431  0.25635660  0.26314595  1
  O  O13  1  0.27236893  0.74233525  0.22473321  1
  O  O14  1  0.18464460  0.03211502  0.39338647  1
  O  O15  1  0.69453529  0.95578487  0.10623763  1
  O  O16  1  0.30546471  0.95578487  0.60623763  1
  O  O17  1  0.81535540  0.03211502  0.89338647  1
  O  O18  1  0.83272736  0.28938911  0.64018943  1
  O  O19  1  0.29638704  0.71045652  0.88019259  1
  O  O20  1  0.70361296  0.71045652  0.38019259  1
  O  O21  1  0.16727264  0.28938911  0.14018943  1
  O  O22  1  0.09165338  0.63613766  0.55527210  1
  O  O23  1  0.64634946  0.35586433  0.93760037  1
  O  O24  1  0.35365054  0.35586433  0.43760037  1
  O  O25  1  0.90834662  0.63613766  0.05527210  1
  O  O26  1  0.03716535  0.89457910  0.72013520  1
  O  O27  1  0.54118176  0.07725769  0.78879796  1
  O  O28  1  0.45881824  0.07725769  0.28879796  1
  O  O29  1  0.96283465  0.89457910  0.22013520  1
  O  O30  1  0.90873960  0.99013865  0.49326355  1
  O  O31  1  0.40348630  0.05996517  0.00461181  1
  O  O32  1  0.59651370  0.05996517  0.50461181  1
  O  O33  1  0.09126040  0.99013865  0.99326355  1
