# generated using pymatgen
data_NaVPO5
_symmetry_space_group_name_H-M   'P 1'
_cell_length_a   6.49728357
_cell_length_b   6.98572884
_cell_length_c   8.42726917
_cell_angle_alpha   89.99851143
_cell_angle_beta   89.99924056
_cell_angle_gamma   114.76253825
_symmetry_Int_Tables_number   1
_chemical_formula_structural   NaVPO5
_chemical_formula_sum   'Na4 V4 P4 O20'
_cell_volume   347.32888975
_cell_formula_units_Z   4
loop_
 _symmetry_equiv_pos_site_id
 _symmetry_equiv_pos_as_xyz
  1  'x, y, z'
loop_
 _atom_site_type_symbol
 _atom_site_label
 _atom_site_symmetry_multiplicity
 _atom_site_fract_x
 _atom_site_fract_y
 _atom_site_fract_z
 _atom_site_occupancy
  Na  Na0  1  0.74339147  0.72634077  0.58307256  1
  Na  Na1  1  0.25658757  0.77360154  0.08305012  1
  Na  Na2  1  0.25660853  0.27365923  0.41692744  1
  Na  Na3  1  0.74341243  0.22639846  0.91694988  1
  V  V4  1  0.24561837  0.51939567  0.75916281  1
  V  V5  1  0.75438703  0.98065193  0.25915984  1
  V  V6  1  0.75438163  0.48060433  0.24083719  1
  V  V7  1  0.24561297  0.01934807  0.74084016  1
  P  P8  1  0.25014757  0.25164220  0.06806884  1
  P  P9  1  0.74984514  0.24832603  0.56811006  1
  P  P10  1  0.74985243  0.74835780  0.93193116  1
  P  P11  1  0.25015486  0.75167397  0.43188994  1
  O  O12  1  0.34493923  0.12578866  0.96366525  1
  O  O13  1  0.65507640  0.37419215  0.46369680  1
  O  O14  1  0.65506077  0.87421134  0.03633475  1
  O  O15  1  0.34492360  0.62580785  0.53630320  1
  O  O16  1  0.74755317  0.74799802  0.31691569  1
  O  O17  1  0.25242593  0.75199227  0.81688449  1
  O  O18  1  0.25244683  0.25200198  0.68308431  1
  O  O19  1  0.74757407  0.24800773  0.18311551  1
  O  O20  1  0.92809074  0.39860753  0.68235431  1
  O  O21  1  0.07190871  0.10136603  0.18234259  1
  O  O22  1  0.07190926  0.60139247  0.31764569  1
  O  O23  1  0.92809129  0.89863397  0.81765741  1
  O  O24  1  0.14394250  0.86842903  0.53552579  1
  O  O25  1  0.85608171  0.63159186  0.03555119  1
  O  O26  1  0.85605750  0.13157097  0.46447421  1
  O  O27  1  0.14391829  0.36840814  0.96444881  1
  O  O28  1  0.56320929  0.09115596  0.67349319  1
  O  O29  1  0.43677606  0.40881231  0.17343328  1
  O  O30  1  0.43679071  0.90884404  0.32650681  1
  O  O31  1  0.56322394  0.59118769  0.82656672  1
