# generated using pymatgen
data_Sr2Ge2Se5
_symmetry_space_group_name_H-M   'P 1'
_cell_length_a   12.39348995
_cell_length_b   8.52535437
_cell_length_c   12.20324559
_cell_angle_alpha   49.38111078
_cell_angle_beta   90.00000000
_cell_angle_gamma   90.00000000
_symmetry_Int_Tables_number   1
_chemical_formula_structural   Sr2Ge2Se5
_chemical_formula_sum   'Sr8 Ge8 Se20'
_cell_volume   978.71363739
_cell_formula_units_Z   4
loop_
 _symmetry_equiv_pos_site_id
 _symmetry_equiv_pos_as_xyz
  1  'x, y, z'
loop_
 _atom_site_type_symbol
 _atom_site_label
 _atom_site_symmetry_multiplicity
 _atom_site_fract_x
 _atom_site_fract_y
 _atom_site_fract_z
 _atom_site_occupancy
  Sr  Sr0  1  0.19771961  0.53724130  0.52273893  1
  Sr  Sr1  1  0.69771961  0.46275870  0.97726107  1
  Sr  Sr2  1  0.80228039  0.46275870  0.47726107  1
  Sr  Sr3  1  0.30228039  0.53724130  0.02273893  1
  Sr  Sr4  1  0.33788930  0.01267890  0.53280998  1
  Sr  Sr5  1  0.83788930  0.98732110  0.96719002  1
  Sr  Sr6  1  0.66211070  0.98732110  0.46719002  1
  Sr  Sr7  1  0.16211070  0.01267890  0.03280998  1
  Ge  Ge8  1  0.98122744  0.51386018  0.18873025  1
  Ge  Ge9  1  0.01877256  0.48613982  0.81126975  1
  Ge  Ge10  1  0.51877256  0.51386018  0.68873025  1
  Ge  Ge11  1  0.48122744  0.48613982  0.31126975  1
  Ge  Ge12  1  0.44944310  0.15890669  0.83761581  1
  Ge  Ge13  1  0.94944310  0.84109331  0.66238419  1
  Ge  Ge14  1  0.55055690  0.84109331  0.16238419  1
  Ge  Ge15  1  0.05055690  0.15890669  0.33761581  1
  Se  Se16  1  0.41070963  0.09596710  0.06005124  1
  Se  Se17  1  0.91070963  0.90403290  0.43994876  1
  Se  Se18  1  0.58929037  0.90403290  0.93994876  1
  Se  Se19  1  0.08929037  0.09596710  0.56005124  1
  Se  Se20  1  0.20373712  0.06409655  0.28059988  1
  Se  Se21  1  0.29626288  0.06409655  0.78059988  1
  Se  Se22  1  0.70373712  0.93590345  0.21940012  1
  Se  Se23  1  0.79626288  0.93590345  0.71940012  1
  Se  Se24  1  0.44155734  0.74541572  0.46053087  1
  Se  Se25  1  0.94155734  0.25458428  0.03946913  1
  Se  Se26  1  0.55844266  0.25458428  0.53946913  1
  Se  Se27  1  0.05844266  0.74541572  0.96053087  1
  Se  Se28  1  0.50879919  0.32568171  0.21242476  1
  Se  Se29  1  0.00879919  0.67431829  0.28757524  1
  Se  Se30  1  0.49120081  0.67431829  0.78757524  1
  Se  Se31  1  0.99120081  0.32568171  0.71242476  1
  Se  Se32  1  0.21032593  0.51870854  0.79534088  1
  Se  Se33  1  0.71032593  0.48129146  0.70465912  1
  Se  Se34  1  0.78967407  0.48129146  0.20465912  1
  Se  Se35  1  0.28967407  0.51870854  0.29534088  1
