# generated using pymatgen
data_Na3Er(PO4)2
_symmetry_space_group_name_H-M   'P 1'
_cell_length_a   5.29359550
_cell_length_b   13.88629110
_cell_length_c   18.49351109
_cell_angle_alpha   90.00000000
_cell_angle_beta   90.00000000
_cell_angle_gamma   90.00000000
_symmetry_Int_Tables_number   1
_chemical_formula_structural   Na3Er(PO4)2
_chemical_formula_sum   'Na24 Er8 P16 O64'
_cell_volume   1359.42856001
_cell_formula_units_Z   8
loop_
 _symmetry_equiv_pos_site_id
 _symmetry_equiv_pos_as_xyz
  1  'x, y, z'
loop_
 _atom_site_type_symbol
 _atom_site_label
 _atom_site_symmetry_multiplicity
 _atom_site_fract_x
 _atom_site_fract_y
 _atom_site_fract_z
 _atom_site_occupancy
  Na  Na0  1  0.99182384  0.21742759  0.99208725  1
  Na  Na1  1  0.00817616  0.78257241  0.49208725  1
  Na  Na2  1  0.00817616  0.71742759  0.99208725  1
  Na  Na3  1  0.99182384  0.28257241  0.49208725  1
  Na  Na4  1  0.99327992  0.95194167  0.64948505  1
  Na  Na5  1  0.00672008  0.04805833  0.14948505  1
  Na  Na6  1  0.00672008  0.45194167  0.64948505  1
  Na  Na7  1  0.99327992  0.54805833  0.14948505  1
  Na  Na8  1  0.99729692  0.86074327  0.82779841  1
  Na  Na9  1  0.00270308  0.13925673  0.32779841  1
  Na  Na10  1  0.00270308  0.36074327  0.82779841  1
  Na  Na11  1  0.99729692  0.63925673  0.32779841  1
  Na  Na12  1  0.48092126  0.79760956  0.72894845  1
  Na  Na13  1  0.51907874  0.20239044  0.22894845  1
  Na  Na14  1  0.51907874  0.29760956  0.72894845  1
  Na  Na15  1  0.48092126  0.70239044  0.22894845  1
  Na  Na16  1  0.53857245  0.96870006  0.88806588  1
  Na  Na17  1  0.46142755  0.03129994  0.38806588  1
  Na  Na18  1  0.46142755  0.46870006  0.88806588  1
  Na  Na19  1  0.53857245  0.53129994  0.38806588  1
  Na  Na20  1  0.50087243  0.88798485  0.54957396  1
  Na  Na21  1  0.49912757  0.11201515  0.04957396  1
  Na  Na22  1  0.49912757  0.38798485  0.54957396  1
  Na  Na23  1  0.50087243  0.61201515  0.04957396  1
  Er  Er24  1  0.92809777  0.61043125  0.80484605  1
  Er  Er25  1  0.07190223  0.38956875  0.30484605  1
  Er  Er26  1  0.07190223  0.11043125  0.80484605  1
  Er  Er27  1  0.92809777  0.88956875  0.30484605  1
  Er  Er28  1  0.55688541  0.63887843  0.57260276  1
  Er  Er29  1  0.44311459  0.36112157  0.07260276  1
  Er  Er30  1  0.44311459  0.13887843  0.57260276  1
  Er  Er31  1  0.55688541  0.86112157  0.07260276  1
  P  P32  1  0.96930434  0.47543009  0.98104978  1
  P  P33  1  0.03069566  0.52456991  0.48104978  1
  P  P34  1  0.03069566  0.97543009  0.98104978  1
  P  P35  1  0.96930434  0.02456991  0.48104978  1
  P  P36  1  0.99331123  0.22178513  0.65259419  1
  P  P37  1  0.00668877  0.77821487  0.15259419  1
  P  P38  1  0.00668877  0.72178513  0.65259419  1
  P  P39  1  0.99331123  0.27821487  0.15259419  1
  P  P40  1  0.48076927  0.52749284  0.72484762  1
  P  P41  1  0.51923073  0.47250716  0.22484762  1
  P  P42  1  0.51923073  0.02749284  0.72484762  1
  P  P43  1  0.48076927  0.97250716  0.22484762  1
  P  P44  1  0.46130295  0.72664767  0.89620382  1
  P  P45  1  0.53869705  0.27335233  0.39620382  1
  P  P46  1  0.53869705  0.22664767  0.89620382  1
  P  P47  1  0.46130295  0.77335233  0.39620382  1
  O  O48  1  0.57176329  0.80906291  0.85041500  1
  O  O49  1  0.42823671  0.19093709  0.35041500  1
  O  O50  1  0.42823671  0.30906291  0.85041500  1
  O  O51  1  0.57176329  0.69093709  0.35041500  1
  O  O52  1  0.69945126  0.47240391  0.76356943  1
  O  O53  1  0.30054874  0.52759609  0.26356943  1
  O  O54  1  0.30054874  0.97240391  0.76356943  1
  O  O55  1  0.69945126  0.02759609  0.26356943  1
  O  O56  1  0.87517900  0.88147318  0.99421623  1
  O  O57  1  0.12482100  0.11852682  0.49421623  1
  O  O58  1  0.12482100  0.38147318  0.99421623  1
  O  O59  1  0.87517900  0.61852682  0.49421623  1
  O  O60  1  0.79132872  0.77646159  0.61166220  1
  O  O61  1  0.20867128  0.22353841  0.11166220  1
  O  O62  1  0.20867128  0.27646159  0.61166220  1
  O  O63  1  0.79132872  0.72353841  0.11166220  1
  O  O64  1  0.68475127  0.45775215  0.00053906  1
  O  O65  1  0.31524873  0.54224785  0.50053906  1
  O  O66  1  0.31524873  0.95775215  0.00053906  1
  O  O67  1  0.68475127  0.04224785  0.50053906  1
  O  O68  1  0.92147930  0.44178855  0.52695841  1
  O  O69  1  0.07852070  0.55821145  0.02695841  1
  O  O70  1  0.07852070  0.94178855  0.52695841  1
  O  O71  1  0.92147930  0.05821145  0.02695841  1
  O  O72  1  0.77406977  0.00086202  0.76156393  1
  O  O73  1  0.22593023  -0.00086202  0.26156393  1
  O  O74  1  0.22593023  0.50086202  0.76156393  1
  O  O75  1  0.77406977  0.49913798  0.26156393  1
  O  O76  1  0.61765890  0.63265371  0.88510338  1
  O  O77  1  0.38234110  0.36734629  0.38510338  1
  O  O78  1  0.38234110  0.13265371  0.88510338  1
  O  O79  1  0.61765890  0.86734629  0.38510338  1
  O  O80  1  0.53815829  0.63580361  0.73177040  1
  O  O81  1  0.46184171  0.36419639  0.23177040  1
  O  O82  1  0.46184171  0.13580361  0.73177040  1
  O  O83  1  0.53815829  0.86419639  0.23177040  1
  O  O84  1  0.94853831  0.61346346  0.64626250  1
  O  O85  1  0.05146169  0.38653654  0.14626250  1
  O  O86  1  0.05146169  0.11346346  0.64626250  1
  O  O87  1  0.94853831  0.88653654  0.14626250  1
  O  O88  1  0.82129231  0.20753648  0.87444172  1
  O  O89  1  0.17870769  0.79246352  0.37444172  1
  O  O90  1  0.17870769  0.70753648  0.87444172  1
  O  O91  1  0.82129231  0.29246352  0.37444172  1
  O  O92  1  0.99159826  0.25152487  0.73373742  1
  O  O93  1  0.00840174  0.74847513  0.23373742  1
  O  O94  1  0.00840174  0.75152487  0.73373742  1
  O  O95  1  0.99159826  0.24847513  0.23373742  1
  O  O96  1  0.52722746  0.99892088  0.64328245  1
  O  O97  1  0.47277254  0.00107912  0.14328245  1
  O  O98  1  0.47277254  0.49892088  0.64328245  1
  O  O99  1  0.52722746  0.50107912  0.14328245  1
  O  O100  1  0.00682800  0.99778409  0.89862105  1
  O  O101  1  0.99317200  0.00221591  0.39862105  1
  O  O102  1  0.99317200  0.49778409  0.89862105  1
  O  O103  1  0.00682800  0.50221591  0.39862105  1
  O  O104  1  0.26431584  0.74822483  0.61764097  1
  O  O105  1  0.73568416  0.25177517  0.11764097  1
  O  O106  1  0.73568416  0.24822483  0.61764097  1
  O  O107  1  0.26431584  0.75177517  0.11764097  1
  O  O108  1  0.46736923  0.75013584  0.97871265  1
  O  O109  1  0.53263077  0.24986416  0.47871265  1
  O  O110  1  0.53263077  0.25013584  0.97871265  1
  O  O111  1  0.46736923  0.74986416  0.47871265  1
