# generated using pymatgen
data_KHfMg6O7
_symmetry_space_group_name_H-M   'P 1'
_cell_length_a   11.80179638
_cell_length_b   4.17842267
_cell_length_c   4.17842267
_cell_angle_alpha   90.00000000
_cell_angle_beta   90.00000000
_cell_angle_gamma   90.00000000
_symmetry_Int_Tables_number   1
_chemical_formula_structural   KHfMg6O7
_chemical_formula_sum   'K1 Hf1 Mg6 O7'
_cell_volume   206.05011229
_cell_formula_units_Z   1
loop_
 _symmetry_equiv_pos_site_id
 _symmetry_equiv_pos_as_xyz
  1  'x, y, z'
loop_
 _atom_site_type_symbol
 _atom_site_label
 _atom_site_symmetry_multiplicity
 _atom_site_fract_x
 _atom_site_fract_y
 _atom_site_fract_z
 _atom_site_occupancy
  K  K0  1  0.07281949  0.00000000  -0.00000000  1
  Hf  Hf1  1  0.90866682  0.50000000  0.50000000  1
  Mg  Mg2  1  0.52506986  -0.00000000  -0.00000000  1
  Mg  Mg3  1  0.52825224  0.50000000  0.50000000  1
  Mg  Mg4  1  0.33885502  0.00000000  0.50000000  1
  Mg  Mg5  1  0.71605046  -0.00000000  0.50000000  1
  Mg  Mg6  1  0.33885502  0.50000000  0.00000000  1
  Mg  Mg7  1  0.71605046  0.50000000  -0.00000000  1
  O  O8  1  0.33642330  0.00000000  -0.00000000  1
  O  O9  1  0.69713018  0.00000000  -0.00000000  1
  O  O10  1  0.72289386  0.50000000  0.50000000  1
  O  O11  1  0.90138260  -0.00000000  0.50000000  1
  O  O12  1  0.52308404  0.00000000  0.50000000  1
  O  O13  1  0.90138260  0.50000000  0.00000000  1
  O  O14  1  0.52308404  0.50000000  -0.00000000  1
