# generated using pymatgen
data_YSnF7
_symmetry_space_group_name_H-M   'P 1'
_cell_length_a   5.55547906
_cell_length_b   8.87006374
_cell_length_c   11.96286550
_cell_angle_alpha   62.33115534
_cell_angle_beta   90.00000000
_cell_angle_gamma   90.00000000
_symmetry_Int_Tables_number   1
_chemical_formula_structural   YSnF7
_chemical_formula_sum   'Y4 Sn4 F28'
_cell_volume   522.08806829
_cell_formula_units_Z   4
loop_
 _symmetry_equiv_pos_site_id
 _symmetry_equiv_pos_as_xyz
  1  'x, y, z'
loop_
 _atom_site_type_symbol
 _atom_site_label
 _atom_site_symmetry_multiplicity
 _atom_site_fract_x
 _atom_site_fract_y
 _atom_site_fract_z
 _atom_site_occupancy
  Y  Y0  1  0.75824159  0.81365780  0.76546960  1
  Y  Y1  1  0.25824159  0.18634220  0.73453040  1
  Y  Y2  1  0.24175841  0.18634220  0.23453040  1
  Y  Y3  1  0.74175841  0.81365780  0.26546960  1
  Sn  Sn4  1  0.75626006  0.27212128  0.95669106  1
  Sn  Sn5  1  0.25626006  0.72787872  0.54330894  1
  Sn  Sn6  1  0.24373994  0.72787872  0.04330894  1
  Sn  Sn7  1  0.74373994  0.27212128  0.45669106  1
  F  F8  1  0.45117061  0.70958980  0.91633357  1
  F  F9  1  0.95117061  0.29041020  0.58366643  1
  F  F10  1  0.54882939  0.29041020  0.08366643  1
  F  F11  1  0.04882939  0.70958980  0.41633357  1
  F  F12  1  0.44431888  0.28000993  0.54434220  1
  F  F13  1  0.94431888  0.71999007  0.95565780  1
  F  F14  1  0.55568112  0.71999007  0.45565780  1
  F  F15  1  0.05568112  0.28000993  0.04434220  1
  F  F16  1  0.77174360  0.52172352  0.85910658  1
  F  F17  1  0.27174360  0.47827648  0.64089342  1
  F  F18  1  0.22825640  0.47827648  0.14089342  1
  F  F19  1  0.72825640  0.52172352  0.35910658  1
  F  F20  1  0.75972233  0.02182236  0.05421015  1
  F  F21  1  0.25972233  0.97817764  0.44578985  1
  F  F22  1  0.24027767  0.97817764  0.94578985  1
  F  F23  1  0.74027767  0.02182236  0.55421015  1
  F  F24  1  0.97151295  0.72803897  0.64190261  1
  F  F25  1  0.47151295  0.27196103  0.85809739  1
  F  F26  1  0.02848705  0.27196103  0.35809739  1
  F  F27  1  0.52848705  0.72803897  0.14190261  1
  F  F28  1  0.04651678  0.74474040  0.17498006  1
  F  F29  1  0.54651678  0.25525960  0.32501994  1
  F  F30  1  0.95348322  0.25525960  0.82501994  1
  F  F31  1  0.45348322  0.74474040  0.67498006  1
  F  F32  1  0.41145731  0.96613881  0.23304884  1
  F  F33  1  0.91145731  0.03386119  0.26695116  1
  F  F34  1  0.58854269  0.03386119  0.76695116  1
  F  F35  1  0.08854269  0.96613881  0.73304884  1
