# generated using pymatgen
data_Ba3Tm(BO3)3
_symmetry_space_group_name_H-M   'P 1'
_cell_length_a   9.42801758
_cell_length_b   9.42801758
_cell_length_c   17.53002582
_cell_angle_alpha   90.00000000
_cell_angle_beta   90.00000000
_cell_angle_gamma   120.00000326
_symmetry_Int_Tables_number   1
_chemical_formula_structural   Ba3Tm(BO3)3
_chemical_formula_sum   'Ba18 Tm6 B18 O54'
_cell_volume   1349.44112364
_cell_formula_units_Z   6
loop_
 _symmetry_equiv_pos_site_id
 _symmetry_equiv_pos_as_xyz
  1  'x, y, z'
loop_
 _atom_site_type_symbol
 _atom_site_label
 _atom_site_symmetry_multiplicity
 _atom_site_fract_x
 _atom_site_fract_y
 _atom_site_fract_z
 _atom_site_occupancy
  Ba  Ba0  1  0.67976562  0.67976562  0.86998130  1
  Ba  Ba1  1  1.00000000  0.67976562  0.36998130  1
  Ba  Ba2  1  0.67976562  1.00000000  0.36998130  1
  Ba  Ba3  1  0.32023438  0.00000000  0.86998130  1
  Ba  Ba4  1  0.00000000  0.32023438  0.86998130  1
  Ba  Ba5  1  0.32023438  0.32023438  0.36998130  1
  Ba  Ba6  1  0.65422470  0.65422470  0.62677020  1
  Ba  Ba7  1  0.00000000  0.65422470  0.12677020  1
  Ba  Ba8  1  0.65422470  0.00000000  0.12677020  1
  Ba  Ba9  1  0.34577530  1.00000000  0.62677020  1
  Ba  Ba10  1  1.00000000  0.34577530  0.62677020  1
  Ba  Ba11  1  0.34577530  0.34577530  0.12677020  1
  Ba  Ba12  1  0.33333300  0.66666700  0.27377719  1
  Ba  Ba13  1  0.66666700  0.33333300  0.77377719  1
  Ba  Ba14  1  0.33333300  0.66666700  0.77377719  1
  Ba  Ba15  1  0.66666700  0.33333300  0.27377719  1
  Ba  Ba16  1  -0.00000000  0.00000000  0.71747339  1
  Ba  Ba17  1  -0.00000000  0.00000000  0.21747339  1
  Tm  Tm18  1  0.33333300  0.66666700  0.99567151  1
  Tm  Tm19  1  0.66666700  0.33333300  0.49567151  1
  Tm  Tm20  1  0.33333300  0.66666700  0.49567151  1
  Tm  Tm21  1  0.66666700  0.33333300  0.99567151  1
  Tm  Tm22  1  -0.00000000  0.00000000  0.50093851  1
  Tm  Tm23  1  -0.00000000  0.00000000  0.00093851  1
  B  B24  1  0.65995759  0.65995759  0.42051048  1
  B  B25  1  -0.00000000  0.65995759  0.92051048  1
  B  B26  1  0.65995759  -0.00000000  0.92051048  1
  B  B27  1  0.34004241  0.00000000  0.42051048  1
  B  B28  1  0.00000000  0.34004241  0.42051048  1
  B  B29  1  0.34004241  0.34004241  0.92051048  1
  B  B30  1  0.66720781  0.66720781  0.24750053  1
  B  B31  1  1.00000000  0.66720781  0.74750053  1
  B  B32  1  0.66720781  1.00000000  0.74750053  1
  B  B33  1  0.33279219  0.00000000  0.24750053  1
  B  B34  1  0.00000000  0.33279219  0.24750053  1
  B  B35  1  0.33279219  0.33279219  0.74750053  1
  B  B36  1  0.67346199  0.67346199  0.07165062  1
  B  B37  1  0.00000000  0.67346199  0.57165062  1
  B  B38  1  0.67346199  0.00000000  0.57165062  1
  B  B39  1  0.32653801  -0.00000000  0.07165062  1
  B  B40  1  -0.00000000  0.32653801  0.07165062  1
  B  B41  1  0.32653801  0.32653801  0.57165062  1
  O  O42  1  0.80607911  0.80607911  0.43041535  1
  O  O43  1  0.00000000  0.80607911  0.93041535  1
  O  O44  1  0.80607911  0.00000000  0.93041535  1
  O  O45  1  0.19392089  1.00000000  0.43041535  1
  O  O46  1  1.00000000  0.19392089  0.43041535  1
  O  O47  1  0.19392089  0.19392089  0.93041535  1
  O  O48  1  0.66092160  0.14705258  0.91554075  1
  O  O49  1  0.85294742  0.51386902  0.91554075  1
  O  O50  1  0.48613098  0.33907840  0.91554075  1
  O  O51  1  0.51386902  0.66092160  0.41554075  1
  O  O52  1  0.33907840  0.85294742  0.41554075  1
  O  O53  1  0.14705258  0.48613098  0.41554075  1
  O  O54  1  0.66092160  0.51386902  0.41554075  1
  O  O55  1  0.14705258  0.66092160  0.91554075  1
  O  O56  1  0.51386902  0.85294742  0.91554075  1
  O  O57  1  0.48613098  0.14705258  0.41554075  1
  O  O58  1  0.85294742  0.33907840  0.41554075  1
  O  O59  1  0.33907840  0.48613098  0.91554075  1
  O  O60  1  0.52013203  0.52013203  0.24738751  1
  O  O61  1  1.00000000  0.52013203  0.74738751  1
  O  O62  1  0.52013203  1.00000000  0.74738751  1
  O  O63  1  0.47986797  0.00000000  0.24738751  1
  O  O64  1  0.00000000  0.47986797  0.24738751  1
  O  O65  1  0.47986797  0.47986797  0.74738751  1
  O  O66  1  0.81418921  0.14706143  0.74795271  1
  O  O67  1  0.85293857  0.66712778  0.74795271  1
  O  O68  1  0.33287222  0.18581079  0.74795271  1
  O  O69  1  0.66712778  0.81418921  0.24795271  1
  O  O70  1  0.18581079  0.85293857  0.24795271  1
  O  O71  1  0.14706143  0.33287222  0.24795271  1
  O  O72  1  0.81418921  0.66712778  0.24795271  1
  O  O73  1  0.14706143  0.81418921  0.74795271  1
  O  O74  1  0.66712778  0.85293857  0.74795271  1
  O  O75  1  0.33287222  0.14706143  0.24795271  1
  O  O76  1  0.85293857  0.18581079  0.24795271  1
  O  O77  1  0.18581079  0.33287222  0.74795271  1
  O  O78  1  0.67359692  0.14643932  0.56673223  1
  O  O79  1  0.85356068  0.52715760  0.56673223  1
  O  O80  1  0.47284240  0.32640308  0.56673223  1
  O  O81  1  0.52715760  0.67359692  0.06673223  1
  O  O82  1  0.32640308  0.85356068  0.06673223  1
  O  O83  1  0.14643932  0.47284240  0.06673223  1
  O  O84  1  0.67359692  0.52715760  0.06673223  1
  O  O85  1  0.14643932  0.67359692  0.56673223  1
  O  O86  1  0.52715760  0.85356068  0.56673223  1
  O  O87  1  0.47284240  0.14643932  0.06673223  1
  O  O88  1  0.85356068  0.32640308  0.06673223  1
  O  O89  1  0.32640308  0.47284240  0.56673223  1
  O  O90  1  0.81900320  0.81900320  0.08089553  1
  O  O91  1  0.00000000  0.81900320  0.58089553  1
  O  O92  1  0.81900320  0.00000000  0.58089553  1
  O  O93  1  0.18099680  1.00000000  0.08089553  1
  O  O94  1  1.00000000  0.18099680  0.08089553  1
  O  O95  1  0.18099680  0.18099680  0.58089553  1
