# generated using pymatgen
data_Pr12Ge5S28
_symmetry_space_group_name_H-M   'P 1'
_cell_length_a   10.23934301
_cell_length_b   11.73205680
_cell_length_c   11.78907201
_cell_angle_alpha   119.78250946
_cell_angle_beta   115.74137462
_cell_angle_gamma   90.00303110
_symmetry_Int_Tables_number   1
_chemical_formula_structural   Pr12Ge5S28
_chemical_formula_sum   'Pr12 Ge5 S28'
_cell_volume   1064.16452250
_cell_formula_units_Z   1
loop_
 _symmetry_equiv_pos_site_id
 _symmetry_equiv_pos_as_xyz
  1  'x, y, z'
loop_
 _atom_site_type_symbol
 _atom_site_label
 _atom_site_symmetry_multiplicity
 _atom_site_fract_x
 _atom_site_fract_y
 _atom_site_fract_z
 _atom_site_occupancy
  Pr  Pr0  1  0.13074575  0.29729413  0.36708841  1
  Pr  Pr1  1  0.12466865  0.80951552  0.34803665  1
  Pr  Pr2  1  0.22658080  0.57305165  0.87835724  1
  Pr  Pr3  1  0.23273814  0.05013012  0.86830201  1
  Pr  Pr4  1  0.65375296  0.52327738  0.77971152  1
  Pr  Pr5  1  0.63400605  0.99406983  0.75933512  1
  Pr  Pr6  1  0.87965268  0.69300021  0.65436081  1
  Pr  Pr7  1  0.86285235  0.20038647  0.63293039  1
  Pr  Pr8  1  0.76873605  0.45004667  0.13563513  1
  Pr  Pr9  1  0.77728634  0.92897916  0.12063369  1
  Pr  Pr10  1  0.36461034  0.49640401  0.22988738  1
  Pr  Pr11  1  0.34635343  0.98135941  0.22343803  1
  Ge  Ge12  1  0.34075318  0.25134763  0.67399964  1
  Ge  Ge13  1  0.32645689  0.74395760  0.66143983  1
  Ge  Ge14  1  0.66882820  0.83644248  0.33556764  1
  Ge  Ge15  1  0.66379606  0.33119509  0.32999562  1
  Ge  Ge16  1  0.99814908  0.23371295  -0.00040120  1
  S  S17  1  0.09572584  0.00397927  0.26771349  1
  S  S18  1  0.08476166  0.45759768  0.22810547  1
  S  S19  1  0.14095758  0.30247450  0.91392818  1
  S  S20  1  0.17146446  0.82105130  0.90571647  1
  S  S21  1  0.76897882  0.27403260  0.85608384  1
  S  S22  1  0.73620364  0.78067935  0.82691196  1
  S  S23  1  0.91629714  0.00433924  0.76345718  1
  S  S24  1  0.90669400  0.48601264  0.73956046  1
  S  S25  1  0.83478595  0.66395912  0.09594274  1
  S  S26  1  0.84617766  0.16236910  0.08141970  1
  S  S27  1  0.26130325  0.69989667  0.16738777  1
  S  S28  1  0.23666166  0.19800035  0.15310954  1
  S  S29  1  0.33557220  0.06262545  0.66866605  1
  S  S30  1  0.33262889  0.56081149  0.66604765  1
  S  S31  1  0.65844660  0.13985538  0.31847912  1
  S  S32  1  0.67403866  0.65577526  0.34749651  1
  S  S33  1  0.42862964  0.25639310  0.53284458  1
  S  S34  1  0.39846506  0.74345209  0.50817072  1
  S  S35  1  0.11475965  0.29071822  0.60277119  1
  S  S36  1  0.09817792  0.77625297  0.57185101  1
  S  S37  1  0.48162564  0.44196000  0.90001283  1
  S  S38  1  0.47932173  0.93299732  0.88938728  1
  S  S39  1  0.58547524  0.98435820  0.48061208  1
  S  S40  1  0.58074570  0.47793262  0.47415451  1
  S  S41  1  0.89586429  0.95499966  0.41998723  1
  S  S42  1  0.89252188  0.44562592  0.41159853  1
  S  S43  1  0.52449956  0.79756155  0.10842749  1
  S  S44  1  0.51925470  0.29411762  0.10183652  1
