# generated using pymatgen
data_RbMg14BO16
_symmetry_space_group_name_H-M   'P 1'
_cell_length_a   8.96612925
_cell_length_b   8.19860255
_cell_length_c   4.54643519
_cell_angle_alpha   90.00000000
_cell_angle_beta   90.00000000
_cell_angle_gamma   90.00000000
_symmetry_Int_Tables_number   1
_chemical_formula_structural   RbMg14BO16
_chemical_formula_sum   'Rb1 Mg14 B1 O16'
_cell_volume   334.20722388
_cell_formula_units_Z   1
loop_
 _symmetry_equiv_pos_site_id
 _symmetry_equiv_pos_as_xyz
  1  'x, y, z'
loop_
 _atom_site_type_symbol
 _atom_site_label
 _atom_site_symmetry_multiplicity
 _atom_site_fract_x
 _atom_site_fract_y
 _atom_site_fract_z
 _atom_site_occupancy
  Rb  Rb0  1  0.00000000  0.00000000  -0.00000000  1
  Mg  Mg1  1  0.50000000  0.00000000  -0.00000000  1
  Mg  Mg2  1  0.50000000  0.50000000  -0.00000000  1
  Mg  Mg3  1  0.00000000  0.25902369  0.50000000  1
  Mg  Mg4  1  0.00000000  0.74097631  0.50000000  1
  Mg  Mg5  1  0.50000000  0.25119120  0.50000000  1
  Mg  Mg6  1  0.50000000  0.74880880  0.50000000  1
  Mg  Mg7  1  0.25565573  0.00000000  0.50000000  1
  Mg  Mg8  1  0.24637042  0.50000000  0.50000000  1
  Mg  Mg9  1  0.74434427  0.00000000  0.50000000  1
  Mg  Mg10  1  0.75362958  0.50000000  0.50000000  1
  Mg  Mg11  1  0.26802234  0.25462875  -0.00000000  1
  Mg  Mg12  1  0.26802234  0.74537125  -0.00000000  1
  Mg  Mg13  1  0.73197766  0.25462875  0.00000000  1
  Mg  Mg14  1  0.73197766  0.74537125  0.00000000  1
  B  B15  1  0.00000000  0.50000000  -0.00000000  1
  O  O16  1  0.27846829  0.00000000  -0.00000000  1
  O  O17  1  0.26937734  0.50000000  -0.00000000  1
  O  O18  1  0.72153171  0.00000000  -0.00000000  1
  O  O19  1  0.73062266  0.50000000  -0.00000000  1
  O  O20  1  0.24537343  0.24962822  0.50000000  1
  O  O21  1  0.24537343  0.75037178  0.50000000  1
  O  O22  1  0.75462657  0.24962822  0.50000000  1
  O  O23  1  0.75462657  0.75037178  0.50000000  1
  O  O24  1  0.00000000  0.00000000  0.50000000  1
  O  O25  1  0.00000000  0.50000000  0.50000000  1
  O  O26  1  0.50000000  0.00000000  0.50000000  1
  O  O27  1  0.50000000  0.50000000  0.50000000  1
  O  O28  1  0.00000000  0.33515536  -0.00000000  1
  O  O29  1  0.00000000  0.66484464  -0.00000000  1
  O  O30  1  0.50000000  0.25182212  -0.00000000  1
  O  O31  1  0.50000000  0.74817788  0.00000000  1
