# generated using pymatgen
data_Cs2I4O11
_symmetry_space_group_name_H-M   'P 1'
_cell_length_a   7.28603931
_cell_length_b   7.28609459
_cell_length_c   13.79030279
_cell_angle_alpha   89.99977261
_cell_angle_beta   90.00076103
_cell_angle_gamma   119.99786315
_symmetry_Int_Tables_number   1
_chemical_formula_structural   Cs2I4O11
_chemical_formula_sum   'Cs4 I8 O22'
_cell_volume   634.01582797
_cell_formula_units_Z   2
loop_
 _symmetry_equiv_pos_site_id
 _symmetry_equiv_pos_as_xyz
  1  'x, y, z'
loop_
 _atom_site_type_symbol
 _atom_site_label
 _atom_site_symmetry_multiplicity
 _atom_site_fract_x
 _atom_site_fract_y
 _atom_site_fract_z
 _atom_site_occupancy
  Cs  Cs0  1  0.66665250  0.33332167  0.01539118  1
  Cs  Cs1  1  0.33333603  0.66666968  0.51537892  1
  Cs  Cs2  1  0.33333754  0.66666703  0.14316168  1
  Cs  Cs3  1  0.66666521  0.33332801  0.64312850  1
  I  I4  1  0.80553921  0.66637457  0.32005121  1
  I  I5  1  0.33364272  0.13917527  0.32004190  1
  I  I6  1  0.86083985  0.19446561  0.32004158  1
  I  I7  1  0.19443807  0.33363382  0.82000722  1
  I  I8  1  0.66638627  0.86079794  0.82000960  1
  I  I9  1  0.13917152  0.80550939  0.82001048  1
  I  I10  1  0.00002435  0.00002105  0.07018169  1
  I  I11  1  0.00004191  0.00006242  0.57018809  1
  O  O12  1  0.05267053  0.66702001  0.32759757  1
  O  O13  1  0.33300261  0.38566458  0.32759307  1
  O  O14  1  0.61435206  0.94734645  0.32759104  1
  O  O15  1  0.94731599  0.33297998  0.82755757  1
  O  O16  1  0.66699024  0.61430720  0.82756089  1
  O  O17  1  0.38564112  0.05264013  0.82756314  1
  O  O18  1  0.76204879  0.64826979  0.19168336  1
  O  O19  1  0.35174027  0.11380525  0.19167372  1
  O  O20  1  0.88620800  0.23795300  0.19167496  1
  O  O21  1  0.23794417  0.35177625  0.69164601  1
  O  O22  1  0.64827801  0.88620296  0.69165439  1
  O  O23  1  0.11377200  0.76203009  0.69164779  1
  O  O24  1  0.66667288  0.33334011  0.33872936  1
  O  O25  1  0.33330246  0.66663225  0.83868677  1
  O  O26  1  0.00000487  0.00000821  0.31248618  1
  O  O27  1  0.99997426  0.99998145  0.81243354  1
  O  O28  1  0.16081886  0.25271129  0.00935810  1
  O  O29  1  0.74728701  0.90809045  0.00935769  1
  O  O30  1  0.09187699  0.83917293  0.00936957  1
  O  O31  1  0.83919567  0.74730963  0.50935491  1
  O  O32  1  0.25270558  0.09190120  0.50936000  1
  O  O33  1  0.90812043  0.16083334  0.50934737  1
