# generated using pymatgen
data_Na3TbV2O8
_symmetry_space_group_name_H-M   'P 1'
_cell_length_a   5.63946204
_cell_length_b   14.27569561
_cell_length_c   14.86589007
_cell_angle_alpha   91.52693092
_cell_angle_beta   100.93398653
_cell_angle_gamma   90.00000000
_symmetry_Int_Tables_number   1
_chemical_formula_structural   Na3TbV2O8
_chemical_formula_sum   'Na18 Tb6 V12 O48'
_cell_volume   1174.65252065
_cell_formula_units_Z   6
loop_
 _symmetry_equiv_pos_site_id
 _symmetry_equiv_pos_as_xyz
  1  'x, y, z'
loop_
 _atom_site_type_symbol
 _atom_site_label
 _atom_site_symmetry_multiplicity
 _atom_site_fract_x
 _atom_site_fract_y
 _atom_site_fract_z
 _atom_site_occupancy
  Na  Na0  1  0.71019055  0.41711547  0.42218966  1
  Na  Na1  1  0.71199911  0.91711547  0.42218966  1
  Na  Na2  1  0.82107793  0.32898572  0.67362397  1
  Na  Na3  1  0.85254603  0.82898572  0.67362397  1
  Na  Na4  1  0.66637946  0.07547648  0.22165761  1
  Na  Na5  1  0.55527816  0.57547648  0.22165761  1
  Na  Na6  1  0.45744645  0.23552296  0.00517136  1
  Na  Na7  1  0.54772491  0.73552296  0.00517136  1
  Na  Na8  1  0.94052716  0.00909676  0.87577083  1
  Na  Na9  1  0.93524367  0.50909676  0.87577083  1
  Na  Na10  1  0.38583499  0.39061121  0.80298686  1
  Na  Na11  1  0.41715186  0.89061121  0.80298686  1
  Na  Na12  1  0.06392111  0.15301415  0.11501234  1
  Na  Na13  1  0.05109123  0.65301415  0.11501234  1
  Na  Na14  1  0.27964210  0.47175673  0.55763092  1
  Na  Na15  1  0.27798882  0.97175673  0.55763092  1
  Na  Na16  1  0.18839972  0.29419379  0.35640517  1
  Na  Na17  1  0.16800545  0.79419379  0.35640517  1
  Tb  Tb18  1  0.42164617  0.63465132  0.76281553  1
  Tb  Tb19  1  0.34116936  0.13465132  0.76281553  1
  Tb  Tb20  1  0.96235048  0.40058235  0.11497582  1
  Tb  Tb21  1  0.15262533  0.90058235  0.11497582  1
  Tb  Tb22  1  0.77222892  0.17123773  0.46405016  1
  Tb  Tb23  1  0.69182124  0.67123773  0.46405016  1
  V  V24  1  0.29699274  0.24960051  0.57210298  1
  V  V25  1  0.27511025  0.74960051  0.57210298  1
  V  V26  1  0.91502309  0.25719790  0.89037213  1
  V  V27  1  0.97534903  0.75719790  0.89037213  1
  V  V28  1  0.82289654  0.05434094  0.65399371  1
  V  V29  1  0.83109717  0.55434094  0.65399371  1
  V  V30  1  0.19938826  0.04756314  0.33651480  1
  V  V31  1  0.13712654  0.54756314  0.33651480  1
  V  V32  1  0.57159648  0.30804852  0.22829704  1
  V  V33  1  0.65670056  0.80804852  0.22829704  1
  V  V34  1  0.54710445  0.00130321  0.99960548  1
  V  V35  1  0.45250103  0.50130321  0.99960548  1
  O  O36  1  0.07936685  0.16198799  0.85813067  1
  O  O37  1  0.77876382  0.66198799  0.85813067  1
  O  O38  1  0.58118901  0.02349607  0.70551002  1
  O  O39  1  0.12432101  0.52349607  0.70551002  1
  O  O40  1  0.60172570  0.39407607  0.00849416  1
  O  O41  1  0.40676846  0.89407607  0.00849416  1
  O  O42  1  0.53758741  0.28436907  0.52181802  1
  O  O43  1  0.98423062  0.78436907  0.52181802  1
  O  O44  1  0.69700153  0.41767299  0.21931522  1
  O  O45  1  0.52231369  0.91767299  0.21931522  1
  O  O46  1  0.97678048  0.35317032  0.83100471  1
  O  O47  1  0.85422422  0.85317032  0.83100471  1
  O  O48  1  0.87491888  0.17258045  0.65852405  1
  O  O49  1  0.78360517  0.67258045  0.65852405  1
  O  O50  1  0.42051588  0.07792838  0.06816991  1
  O  O51  1  0.64765403  0.57792838  0.06816991  1
  O  O52  1  0.12228248  0.52567066  0.21878083  1
  O  O53  1  0.09649834  0.02567066  0.21878083  1
  O  O54  1  0.64044502  0.27503967  0.34235091  1
  O  O55  1  0.70190589  0.77503967  0.34235091  1
  O  O56  1  0.33930278  0.64145621  0.36686705  1
  O  O57  1  0.02756428  0.14145621  0.36686705  1
  O  O58  1  0.25289897  0.30726086  0.19523558  1
  O  O59  1  0.94233661  0.80726086  0.19523558  1
  O  O60  1  0.50675492  0.07880475  0.36214066  1
  O  O61  1  0.85538574  0.57880475  0.36214066  1
  O  O62  1  0.26078376  0.13088722  0.56613693  1
  O  O63  1  0.30535317  0.63088722  0.56613693  1
  O  O64  1  0.03430953  0.30139179  0.51230335  1
  O  O65  1  0.47799381  0.80139179  0.51230335  1
  O  O66  1  0.76930721  0.02443635  0.53734708  1
  O  O67  1  0.76803987  0.52443635  0.53734708  1
  O  O68  1  0.47891474  0.03309645  0.88505800  1
  O  O69  1  0.40614326  0.53309645  0.88505800  1
  O  O70  1  0.60500145  0.23028246  0.86343194  1
  O  O71  1  0.25843049  0.73028246  0.86343194  1
  O  O72  1  0.25038405  0.45160302  0.39730067  1
  O  O73  1  0.14691662  0.95160302  0.39730067  1
  O  O74  1  0.62811822  0.50075777  0.71271480  1
  O  O75  1  0.08459658  0.00075777  0.71271480  1
  O  O76  1  0.01830873  0.27731691  0.00815715  1
  O  O77  1  0.98984842  0.77731691  0.00815715  1
  O  O78  1  0.71408072  0.23772694  0.15877608  1
  O  O79  1  0.44469537  0.73772694  0.15877608  1
  O  O80  1  0.16659211  0.49515666  0.03231580  1
  O  O81  1  0.86572369  0.99515666  0.03231580  1
  O  O82  1  0.33644648  0.78033206  0.68880005  1
  O  O83  1  0.35235357  0.28033206  0.68880005  1
