# generated using pymatgen
data_SrTa2O6
_symmetry_space_group_name_H-M   'P 1'
_cell_length_a   5.63450966
_cell_length_b   7.64221050
_cell_length_c   11.06642043
_cell_angle_alpha   90.00000000
_cell_angle_beta   90.00000000
_cell_angle_gamma   90.00000000
_symmetry_Int_Tables_number   1
_chemical_formula_structural   SrTa2O6
_chemical_formula_sum   'Sr4 Ta8 O24'
_cell_volume   476.52126869
_cell_formula_units_Z   4
loop_
 _symmetry_equiv_pos_site_id
 _symmetry_equiv_pos_as_xyz
  1  'x, y, z'
loop_
 _atom_site_type_symbol
 _atom_site_label
 _atom_site_symmetry_multiplicity
 _atom_site_fract_x
 _atom_site_fract_y
 _atom_site_fract_z
 _atom_site_occupancy
  Sr  Sr0  1  0.96244855  0.75000000  0.46000307  1
  Sr  Sr1  1  0.46244855  0.25000000  0.03999693  1
  Sr  Sr2  1  0.03755145  0.25000000  0.53999693  1
  Sr  Sr3  1  0.53755145  0.75000000  0.96000307  1
  Ta  Ta4  1  0.46504330  0.49545633  0.35746906  1
  Ta  Ta5  1  0.96504330  0.50454367  0.14253094  1
  Ta  Ta6  1  0.53495670  0.99545633  0.64253094  1
  Ta  Ta7  1  0.03495670  0.00454367  0.85746906  1
  Ta  Ta8  1  0.53495670  0.50454367  0.64253094  1
  Ta  Ta9  1  0.03495670  0.49545633  0.85746906  1
  Ta  Ta10  1  0.46504330  0.00454367  0.35746906  1
  Ta  Ta11  1  0.96504330  0.99545633  0.14253094  1
  O  O12  1  0.13996120  0.25000000  0.87072666  1
  O  O13  1  0.63996120  0.75000000  0.62927334  1
  O  O14  1  0.86003880  0.75000000  0.12927334  1
  O  O15  1  0.36003880  0.25000000  0.37072666  1
  O  O16  1  0.96951287  0.75000000  0.85434085  1
  O  O17  1  0.46951287  0.25000000  0.64565915  1
  O  O18  1  0.03048713  0.25000000  0.14565915  1
  O  O19  1  0.53048713  0.75000000  0.35434085  1
  O  O20  1  0.28171236  0.96583899  0.52412943  1
  O  O21  1  0.78171236  0.03416101  0.97587057  1
  O  O22  1  0.71828764  0.46583899  0.47587057  1
  O  O23  1  0.21828764  0.53416101  0.02412943  1
  O  O24  1  0.64188265  0.45068145  0.21379583  1
  O  O25  1  0.14188265  0.54931855  0.28620417  1
  O  O26  1  0.35811735  0.95068145  0.78620417  1
  O  O27  1  0.85811735  0.04931855  0.71379583  1
  O  O28  1  0.35811735  0.54931855  0.78620417  1
  O  O29  1  0.85811735  0.45068145  0.71379583  1
  O  O30  1  0.64188265  0.04931855  0.21379583  1
  O  O31  1  0.14188265  0.95068145  0.28620417  1
  O  O32  1  0.78171236  0.46583899  0.97587057  1
  O  O33  1  0.28171236  0.53416101  0.52412943  1
  O  O34  1  0.21828764  0.96583899  0.02412943  1
  O  O35  1  0.71828764  0.03416101  0.47587057  1
