# generated using pymatgen
data_Lu(CuS)3
_symmetry_space_group_name_H-M   'P 1'
_cell_length_a   7.32545602
_cell_length_b   7.32546896
_cell_length_c   7.32547957
_cell_angle_alpha   53.57083844
_cell_angle_beta   53.57112327
_cell_angle_gamma   53.57086482
_symmetry_Int_Tables_number   1
_chemical_formula_structural   Lu(CuS)3
_chemical_formula_sum   'Lu2 Cu6 S6'
_cell_volume   236.16009442
_cell_formula_units_Z   2
loop_
 _symmetry_equiv_pos_site_id
 _symmetry_equiv_pos_as_xyz
  1  'x, y, z'
loop_
 _atom_site_type_symbol
 _atom_site_label
 _atom_site_symmetry_multiplicity
 _atom_site_fract_x
 _atom_site_fract_y
 _atom_site_fract_z
 _atom_site_occupancy
  Lu  Lu0  1  0.83358248  0.83358050  0.83359322  1
  Lu  Lu1  1  0.16642275  0.16641304  0.16641539  1
  Cu  Cu2  1  0.28497527  0.96249463  0.62368064  1
  Cu  Cu3  1  0.62368534  0.28495946  0.96248311  1
  Cu  Cu4  1  0.96248779  0.62368432  0.28496510  1
  Cu  Cu5  1  0.03750148  0.37631016  0.71504442  1
  Cu  Cu6  1  0.37629136  0.71504428  0.03751531  1
  Cu  Cu7  1  0.71504811  0.03751670  0.37630029  1
  S  S8  1  0.08302098  0.75225207  0.41936395  1
  S  S9  1  0.75225142  0.41936275  0.08301997  1
  S  S10  1  0.41936122  0.08302240  0.75225157  1
  S  S11  1  0.58064179  0.91697695  0.24774759  1
  S  S12  1  0.24774662  0.58063997  0.91698024  1
  S  S13  1  0.91698240  0.24774278  0.58063918  1
