# generated using pymatgen
data_Tb3Te3N
_symmetry_space_group_name_H-M   'P 1'
_cell_length_a   12.02757048
_cell_length_b   8.14355585
_cell_length_c   8.67488877
_cell_angle_alpha   71.13831767
_cell_angle_beta   90.00000000
_cell_angle_gamma   90.00000000
_symmetry_Int_Tables_number   1
_chemical_formula_structural   Tb3Te3N
_chemical_formula_sum   'Tb12 Te12 N4'
_cell_volume   804.05463301
_cell_formula_units_Z   4
loop_
 _symmetry_equiv_pos_site_id
 _symmetry_equiv_pos_as_xyz
  1  'x, y, z'
loop_
 _atom_site_type_symbol
 _atom_site_label
 _atom_site_symmetry_multiplicity
 _atom_site_fract_x
 _atom_site_fract_y
 _atom_site_fract_z
 _atom_site_occupancy
  Tb  Tb0  1  0.02336719  0.60214047  0.13825985  1
  Tb  Tb1  1  0.52336719  0.39785953  0.36174015  1
  Tb  Tb2  1  0.97663281  0.39785953  0.86174015  1
  Tb  Tb3  1  0.47663281  0.60214047  0.63825985  1
  Tb  Tb4  1  0.41140666  0.83839511  0.20500555  1
  Tb  Tb5  1  0.91140666  0.16160489  0.29499445  1
  Tb  Tb6  1  0.58859334  0.16160489  0.79499445  1
  Tb  Tb7  1  0.08859334  0.83839511  0.70500555  1
  Tb  Tb8  1  0.70808226  0.76810761  0.34507916  1
  Tb  Tb9  1  0.20808226  0.23189239  0.15492084  1
  Tb  Tb10  1  0.29191774  0.23189239  0.65492084  1
  Tb  Tb11  1  0.79191774  0.76810761  0.84507916  1
  Te  Te12  1  0.97892056  0.77767120  0.41426017  1
  Te  Te13  1  0.47892056  0.22232880  0.08573983  1
  Te  Te14  1  0.02107944  0.22232880  0.58573983  1
  Te  Te15  1  0.52107944  0.77767120  0.91426017  1
  Te  Te16  1  0.26696011  0.50583246  0.31307971  1
  Te  Te17  1  0.76696011  0.49416754  0.18692029  1
  Te  Te18  1  0.73303989  0.49416754  0.68692029  1
  Te  Te19  1  0.23303989  0.50583246  0.81307971  1
  Te  Te20  1  0.30878522  0.95299780  0.48324397  1
  Te  Te21  1  0.80878522  0.04700220  0.01675603  1
  Te  Te22  1  0.69121478  0.04700220  0.51675603  1
  Te  Te23  1  0.19121478  0.95299780  0.98324397  1
  N  N24  1  0.53439482  0.67288465  0.37658633  1
  N  N25  1  0.03439482  0.32711535  0.12341367  1
  N  N26  1  0.46560518  0.32711535  0.62341367  1
  N  N27  1  0.96560518  0.67288465  0.87658633  1
