# generated using pymatgen
data_K2FeF5
_symmetry_space_group_name_H-M   'P 1'
_cell_length_a   5.65007426
_cell_length_b   7.29489707
_cell_length_c   11.48718164
_cell_angle_alpha   90.00000000
_cell_angle_beta   90.00000000
_cell_angle_gamma   90.00000000
_symmetry_Int_Tables_number   1
_chemical_formula_structural   K2FeF5
_chemical_formula_sum   'K8 Fe4 F20'
_cell_volume   473.46383626
_cell_formula_units_Z   4
loop_
 _symmetry_equiv_pos_site_id
 _symmetry_equiv_pos_as_xyz
  1  'x, y, z'
loop_
 _atom_site_type_symbol
 _atom_site_label
 _atom_site_symmetry_multiplicity
 _atom_site_fract_x
 _atom_site_fract_y
 _atom_site_fract_z
 _atom_site_occupancy
  K  K0  1  0.25000000  0.16183065  0.58507516  1
  K  K1  1  0.25000000  0.66183065  0.91492484  1
  K  K2  1  0.75000000  0.83816935  0.41492484  1
  K  K3  1  0.75000000  0.33816935  0.08507516  1
  K  K4  1  0.25000000  0.48153702  0.27849401  1
  K  K5  1  0.25000000  0.98153702  0.22150599  1
  K  K6  1  0.75000000  0.51846298  0.72150599  1
  K  K7  1  0.75000000  0.01846298  0.77849401  1
  Fe  Fe8  1  0.25000000  0.67447086  0.56372826  1
  Fe  Fe9  1  0.25000000  0.17447086  0.93627174  1
  Fe  Fe10  1  0.75000000  0.32552914  0.43627174  1
  Fe  Fe11  1  0.75000000  0.82552914  0.06372826  1
  F  F12  1  0.00000000  0.50000000  0.50000000  1
  F  F13  1  0.50000000  0.00000000  -0.00000000  1
  F  F14  1  0.50000000  0.50000000  0.50000000  1
  F  F15  1  0.00000000  0.00000000  -0.00000000  1
  F  F16  1  0.25000000  0.52510782  0.69868298  1
  F  F17  1  0.25000000  0.02510782  0.80131702  1
  F  F18  1  0.75000000  0.47489218  0.30131702  1
  F  F19  1  0.75000000  0.97489218  0.19868298  1
  F  F20  1  0.25000000  0.78227237  0.40989327  1
  F  F21  1  0.25000000  0.28227237  0.09010673  1
  F  F22  1  0.75000000  0.21772763  0.59010673  1
  F  F23  1  0.75000000  0.71772763  0.90989327  1
  F  F24  1  0.00284368  0.82760797  0.61597011  1
  F  F25  1  0.49715632  0.32760797  0.88402989  1
  F  F26  1  0.50284368  0.17239203  0.38402989  1
  F  F27  1  0.99715632  0.67239203  0.11597011  1
  F  F28  1  0.99715632  0.17239203  0.38402989  1
  F  F29  1  0.50284368  0.67239203  0.11597011  1
  F  F30  1  0.49715632  0.82760797  0.61597011  1
  F  F31  1  0.00284368  0.32760797  0.88402989  1
