# generated using pymatgen
data_CeSe2
_symmetry_space_group_name_H-M   'P 1'
_cell_length_a   14.12713258
_cell_length_b   16.44876036
_cell_length_c   16.47984025
_cell_angle_alpha   90.00000000
_cell_angle_beta   90.00000000
_cell_angle_gamma   90.00000000
_symmetry_Int_Tables_number   1
_chemical_formula_structural   CeSe2
_chemical_formula_sum   'Ce16 Se32'
_cell_volume   3829.48340522
_cell_formula_units_Z   16
loop_
 _symmetry_equiv_pos_site_id
 _symmetry_equiv_pos_as_xyz
  1  'x, y, z'
loop_
 _atom_site_type_symbol
 _atom_site_label
 _atom_site_symmetry_multiplicity
 _atom_site_fract_x
 _atom_site_fract_y
 _atom_site_fract_z
 _atom_site_occupancy
  Ce  Ce0  1  0.31260251  0.66951750  0.37935611  1
  Ce  Ce1  1  0.31260251  0.33048250  0.62064389  1
  Ce  Ce2  1  0.68739749  0.16951750  0.12064389  1
  Ce  Ce3  1  0.68739749  0.83048250  0.87935611  1
  Ce  Ce4  1  0.68739749  0.33048250  0.62064389  1
  Ce  Ce5  1  0.68739749  0.66951750  0.37935611  1
  Ce  Ce6  1  0.31260251  0.83048250  0.87935611  1
  Ce  Ce7  1  0.31260251  0.16951750  0.12064389  1
  Ce  Ce8  1  0.18743881  0.87878657  0.16971534  1
  Ce  Ce9  1  0.18743881  0.12121343  0.83028466  1
  Ce  Ce10  1  0.81256119  0.37878657  0.33028466  1
  Ce  Ce11  1  0.81256119  0.62121343  0.66971534  1
  Ce  Ce12  1  0.81256119  0.12121343  0.83028466  1
  Ce  Ce13  1  0.81256119  0.87878657  0.16971534  1
  Ce  Ce14  1  0.18743881  0.62121343  0.66971534  1
  Ce  Ce15  1  0.18743881  0.37878657  0.33028466  1
  Se  Se16  1  0.50000000  0.35099395  0.64559141  1
  Se  Se17  1  0.50000000  0.64900605  0.35440859  1
  Se  Se18  1  0.50000000  0.85099395  0.85440859  1
  Se  Se19  1  0.50000000  0.14900605  0.14559141  1
  Se  Se20  1  -0.00000000  0.14744375  0.84877882  1
  Se  Se21  1  -0.00000000  0.85255625  0.15122118  1
  Se  Se22  1  -0.00000000  0.64744375  0.65122118  1
  Se  Se23  1  -0.00000000  0.35255625  0.34877882  1
  Se  Se24  1  0.25115140  0.80639464  0.30610487  1
  Se  Se25  1  0.25115140  0.19360536  0.69389513  1
  Se  Se26  1  0.74884860  0.30639464  0.19389513  1
  Se  Se27  1  0.74884860  0.69360536  0.80610487  1
  Se  Se28  1  0.74884860  0.19360536  0.69389513  1
  Se  Se29  1  0.74884860  0.80639464  0.30610487  1
  Se  Se30  1  0.25115140  0.69360536  0.80610487  1
  Se  Se31  1  0.25115140  0.30639464  0.19389513  1
  Se  Se32  1  0.22007658  0.53998985  0.31724452  1
  Se  Se33  1  0.22007658  0.46001015  0.68275548  1
  Se  Se34  1  0.77992342  0.03998985  0.18275548  1
  Se  Se35  1  0.77992342  0.96001015  0.81724452  1
  Se  Se36  1  0.77992342  0.46001015  0.68275548  1
  Se  Se37  1  0.77992342  0.53998985  0.31724452  1
  Se  Se38  1  0.22007658  0.96001015  0.81724452  1
  Se  Se39  1  0.22007658  0.03998985  0.18275548  1
  Se  Se40  1  0.27881161  0.81630283  0.03999120  1
  Se  Se41  1  0.27881161  0.18369717  0.96000880  1
  Se  Se42  1  0.72118839  0.31630283  0.46000880  1
  Se  Se43  1  0.72118839  0.68369717  0.53999120  1
  Se  Se44  1  0.72118839  0.18369717  0.96000880  1
  Se  Se45  1  0.72118839  0.81630283  0.03999120  1
  Se  Se46  1  0.27881161  0.68369717  0.53999120  1
  Se  Se47  1  0.27881161  0.31630283  0.46000880  1
