# generated using pymatgen
data_LuPtF7
_symmetry_space_group_name_H-M   'P 1'
_cell_length_a   5.35119041
_cell_length_b   8.57569151
_cell_length_c   11.66601740
_cell_angle_alpha   62.78977947
_cell_angle_beta   90.00000000
_cell_angle_gamma   90.00000000
_symmetry_Int_Tables_number   1
_chemical_formula_structural   LuPtF7
_chemical_formula_sum   'Lu4 Pt4 F28'
_cell_volume   476.11018406
_cell_formula_units_Z   4
loop_
 _symmetry_equiv_pos_site_id
 _symmetry_equiv_pos_as_xyz
  1  'x, y, z'
loop_
 _atom_site_type_symbol
 _atom_site_label
 _atom_site_symmetry_multiplicity
 _atom_site_fract_x
 _atom_site_fract_y
 _atom_site_fract_z
 _atom_site_occupancy
  Lu  Lu0  1  0.26126745  0.81474817  0.26470640  1
  Lu  Lu1  1  0.73873255  0.18525183  0.73529360  1
  Lu  Lu2  1  0.76126745  0.18525183  0.23529360  1
  Lu  Lu3  1  0.23873255  0.81474817  0.76470640  1
  Pt  Pt4  1  0.75945921  0.72912296  0.04301470  1
  Pt  Pt5  1  0.24054079  0.27087704  0.95698530  1
  Pt  Pt6  1  0.25945921  0.27087704  0.45698530  1
  Pt  Pt7  1  0.74054079  0.72912296  0.54301470  1
  F  F8  1  0.93682304  0.70292590  0.41287610  1
  F  F9  1  0.06317696  0.29707410  0.58712390  1
  F  F10  1  0.43682304  0.29707410  0.08712390  1
  F  F11  1  0.56317696  0.70292590  0.91287610  1
  F  F12  1  0.45840953  0.72256801  0.13799804  1
  F  F13  1  0.54159047  0.27743199  0.86200196  1
  F  F14  1  0.95840953  0.27743199  0.36200196  1
  F  F15  1  0.04159047  0.72256801  0.63799804  1
  F  F16  1  0.94751928  0.74809547  0.17892892  1
  F  F17  1  0.05248072  0.25190453  0.82107108  1
  F  F18  1  0.44751928  0.25190453  0.32107108  1
  F  F19  1  0.55248072  0.74809547  0.67892892  1
  F  F20  1  0.77879138  0.47509824  0.14252677  1
  F  F21  1  0.22120862  0.52490176  0.85747323  1
  F  F22  1  0.27879138  0.52490176  0.35747323  1
  F  F23  1  0.72120862  0.47509824  0.64252677  1
  F  F24  1  0.92957287  0.27252438  0.04373293  1
  F  F25  1  0.07042713  0.72747562  0.95626707  1
  F  F26  1  0.42957287  0.72747562  0.45626707  1
  F  F27  1  0.57042713  0.27252438  0.54373293  1
  F  F28  1  0.74708300  0.98286699  0.44827610  1
  F  F29  1  0.25291700  0.01713301  0.55172390  1
  F  F30  1  0.24708300  0.01713301  0.05172390  1
  F  F31  1  0.75291700  0.98286699  0.94827610  1
  F  F32  1  0.58816590  0.96800693  0.23263086  1
  F  F33  1  0.41183410  0.03199307  0.76736914  1
  F  F34  1  0.08816590  0.03199307  0.26736914  1
  F  F35  1  0.91183410  0.96800693  0.73263086  1
