# generated using pymatgen
data_Gd4(SiS4)3
_symmetry_space_group_name_H-M   'P 1'
_cell_length_a   9.95632307
_cell_length_b   11.09131373
_cell_length_c   16.56506757
_cell_angle_alpha   90.00000000
_cell_angle_beta   102.88952222
_cell_angle_gamma   90.00000000
_symmetry_Int_Tables_number   1
_chemical_formula_structural   Gd4(SiS4)3
_chemical_formula_sum   'Gd16 Si12 S48'
_cell_volume   1783.16526361
_cell_formula_units_Z   4
loop_
 _symmetry_equiv_pos_site_id
 _symmetry_equiv_pos_as_xyz
  1  'x, y, z'
loop_
 _atom_site_type_symbol
 _atom_site_label
 _atom_site_symmetry_multiplicity
 _atom_site_fract_x
 _atom_site_fract_y
 _atom_site_fract_z
 _atom_site_occupancy
  Gd  Gd0  1  0.88947351  0.48196243  0.37477388  1
  Gd  Gd1  1  0.38947351  0.01803757  0.87477388  1
  Gd  Gd2  1  0.11052649  0.51803757  0.62522612  1
  Gd  Gd3  1  0.61052649  0.98196243  0.12522612  1
  Gd  Gd4  1  0.62351960  0.15150305  0.44051397  1
  Gd  Gd5  1  0.12351960  0.34849695  0.94051397  1
  Gd  Gd6  1  0.37648040  0.84849695  0.55948603  1
  Gd  Gd7  1  0.87648040  0.65150305  0.05948603  1
  Gd  Gd8  1  0.96914670  0.87578599  0.36890469  1
  Gd  Gd9  1  0.46914670  0.62421401  0.86890469  1
  Gd  Gd10  1  0.03085330  0.12421401  0.63109531  1
  Gd  Gd11  1  0.53085330  0.37578599  0.13109531  1
  Gd  Gd12  1  0.17846211  0.26079955  0.21082259  1
  Gd  Gd13  1  0.67846211  0.23920045  0.71082259  1
  Gd  Gd14  1  0.82153789  0.73920045  0.78917741  1
  Gd  Gd15  1  0.32153789  0.76079955  0.28917741  1
  Si  Si16  1  0.27879804  0.05163313  0.38250754  1
  Si  Si17  1  0.77879804  0.44836687  0.88250754  1
  Si  Si18  1  0.72120196  0.94836687  0.61749246  1
  Si  Si19  1  0.22120196  0.55163313  0.11749246  1
  Si  Si20  1  0.80197552  0.38182613  0.56049143  1
  Si  Si21  1  0.30197552  0.11817387  0.06049143  1
  Si  Si22  1  0.19802448  0.61817387  0.43950857  1
  Si  Si23  1  0.69802448  0.88182613  0.93950857  1
  Si  Si24  1  0.78971414  0.21503420  0.26622665  1
  Si  Si25  1  0.28971414  0.28496580  0.76622665  1
  Si  Si26  1  0.21028586  0.78496580  0.73377335  1
  Si  Si27  1  0.71028586  0.71503420  0.23377335  1
  S  S28  1  0.99296098  0.27686569  0.30897417  1
  S  S29  1  0.49296098  0.22313431  0.80897417  1
  S  S30  1  0.00703902  0.72313431  0.69102583  1
  S  S31  1  0.50703902  0.77686569  0.19102583  1
  S  S32  1  0.08121049  0.65335113  0.31726163  1
  S  S33  1  0.58121049  0.84664887  0.81726163  1
  S  S34  1  0.91878951  0.34664887  0.68273837  1
  S  S35  1  0.41878951  0.15335113  0.18273837  1
  S  S36  1  0.75528135  0.71162671  0.36372661  1
  S  S37  1  0.25528135  0.78837329  0.86372661  1
  S  S38  1  0.24471865  0.28837329  0.63627339  1
  S  S39  1  0.74471865  0.21162671  0.13627339  1
  S  S40  1  0.65385993  0.33470171  0.31145726  1
  S  S41  1  0.15385993  0.16529829  0.81145726  1
  S  S42  1  0.34614007  0.66529829  0.68854274  1
  S  S43  1  0.84614007  0.83470171  0.18854274  1
  S  S44  1  0.88716844  0.26036037  0.48636168  1
  S  S45  1  0.38716844  0.23963963  0.98636168  1
  S  S46  1  0.11283156  0.73963963  0.51363832  1
  S  S47  1  0.61283156  0.76036037  0.01363832  1
  S  S48  1  0.59462824  0.34554850  0.55348902  1
  S  S49  1  0.09462824  0.15445150  0.05348902  1
  S  S50  1  0.40537176  0.65445150  0.44651098  1
  S  S51  1  0.90537176  0.84554850  0.94651098  1
  S  S52  1  0.45639794  0.93656156  0.40610179  1
  S  S53  1  0.95639794  0.56343844  0.90610179  1
  S  S54  1  0.54360206  0.06343844  0.59389821  1
  S  S55  1  0.04360206  0.43656156  0.09389821  1
  S  S56  1  0.15207425  0.97799382  0.27251130  1
  S  S57  1  0.65207425  0.52200618  0.77251130  1
  S  S58  1  0.84792575  0.02200618  0.72748870  1
  S  S59  1  0.34792575  0.47799382  0.22748870  1
  S  S60  1  0.83237292  0.97482900  0.52374198  1
  S  S61  1  0.33237292  0.52517100  0.02374198  1
  S  S62  1  0.16762708  0.02517100  0.47625802  1
  S  S63  1  0.66762708  0.47482900  0.97625802  1
  S  S64  1  0.34790808  0.22769537  0.37279577  1
  S  S65  1  0.84790808  0.27230463  0.87279577  1
  S  S66  1  0.65209192  0.77230463  0.62720423  1
  S  S67  1  0.15209192  0.72769537  0.12720423  1
  S  S68  1  0.84328052  0.55596027  0.52795004  1
  S  S69  1  0.34328052  0.94403973  0.02795004  1
  S  S70  1  0.15671948  0.44403973  0.47204996  1
  S  S71  1  0.65671948  0.05596027  0.97204996  1
  S  S72  1  0.74510377  0.04382758  0.31257647  1
  S  S73  1  0.24510377  0.45617242  0.81257647  1
  S  S74  1  0.25489623  0.95617242  0.68742353  1
  S  S75  1  0.75489623  0.54382758  0.18742353  1
