# generated using pymatgen
data_Sr2SiO4
_symmetry_space_group_name_H-M   'P 1'
_cell_length_a   5.61288342
_cell_length_b   7.08271096
_cell_length_c   9.81411804
_cell_angle_alpha   90.00000000
_cell_angle_beta   90.00000000
_cell_angle_gamma   90.00000000
_symmetry_Int_Tables_number   1
_chemical_formula_structural   Sr2SiO4
_chemical_formula_sum   'Sr8 Si4 O16'
_cell_volume   390.15467762
_cell_formula_units_Z   4
loop_
 _symmetry_equiv_pos_site_id
 _symmetry_equiv_pos_as_xyz
  1  'x, y, z'
loop_
 _atom_site_type_symbol
 _atom_site_label
 _atom_site_symmetry_multiplicity
 _atom_site_fract_x
 _atom_site_fract_y
 _atom_site_fract_z
 _atom_site_occupancy
  Sr  Sr0  1  0.25000000  0.99772595  0.69651237  1
  Sr  Sr1  1  0.75000000  0.00227405  0.30348763  1
  Sr  Sr2  1  0.25000000  0.49772595  0.80348763  1
  Sr  Sr3  1  0.75000000  0.50227405  0.19651237  1
  Sr  Sr4  1  0.25000000  0.65515813  0.42470013  1
  Sr  Sr5  1  0.75000000  0.34484187  0.57529987  1
  Sr  Sr6  1  0.25000000  0.15515813  0.07529987  1
  Sr  Sr7  1  0.75000000  0.84484187  0.92470013  1
  Si  Si8  1  0.25000000  0.22095222  0.41945953  1
  Si  Si9  1  0.75000000  0.77904778  0.58054047  1
  Si  Si10  1  0.25000000  0.72095222  0.08054047  1
  Si  Si11  1  0.75000000  0.27904778  0.91945953  1
  O  O12  1  0.98755926  0.70025442  0.65712713  1
  O  O13  1  0.48755926  0.29974558  0.34287287  1
  O  O14  1  0.51244074  0.20025442  0.84287287  1
  O  O15  1  0.01244074  0.79974558  0.15712713  1
  O  O16  1  0.01244074  0.29974558  0.34287287  1
  O  O17  1  0.51244074  0.70025442  0.65712713  1
  O  O18  1  0.48755926  0.79974558  0.15712713  1
  O  O19  1  0.98755926  0.20025442  0.84287287  1
  O  O20  1  0.25000000  0.31837888  0.57216076  1
  O  O21  1  0.75000000  0.68162112  0.42783924  1
  O  O22  1  0.25000000  0.81837888  0.92783924  1
  O  O23  1  0.75000000  0.18162112  0.07216076  1
  O  O24  1  0.75000000  0.50732191  0.92707117  1
  O  O25  1  0.25000000  0.49267809  0.07292883  1
  O  O26  1  0.75000000  0.00732191  0.57292883  1
  O  O27  1  0.25000000  0.99267809  0.42707117  1
