# generated using pymatgen
data_KNaMg14O15
_symmetry_space_group_name_H-M   'P 1'
_cell_length_a   8.74771706
_cell_length_b   8.65397638
_cell_length_c   4.43319747
_cell_angle_alpha   90.00000000
_cell_angle_beta   90.00000000
_cell_angle_gamma   90.00000000
_symmetry_Int_Tables_number   1
_chemical_formula_structural   KNaMg14O15
_chemical_formula_sum   'K1 Na1 Mg14 O15'
_cell_volume   335.60429469
_cell_formula_units_Z   1
loop_
 _symmetry_equiv_pos_site_id
 _symmetry_equiv_pos_as_xyz
  1  'x, y, z'
loop_
 _atom_site_type_symbol
 _atom_site_label
 _atom_site_symmetry_multiplicity
 _atom_site_fract_x
 _atom_site_fract_y
 _atom_site_fract_z
 _atom_site_occupancy
  K  K0  1  0.98798920  0.00000000  0.00000000  1
  Na  Na1  1  0.50215868  0.50000000  0.00000000  1
  Mg  Mg2  1  0.97773649  0.50000000  0.00000000  1
  Mg  Mg3  1  0.49751688  0.00000000  0.00000000  1
  Mg  Mg4  1  0.00905829  0.25189957  0.50000000  1
  Mg  Mg5  1  0.00905829  0.74810043  0.50000000  1
  Mg  Mg6  1  0.49545563  0.25213149  0.50000000  1
  Mg  Mg7  1  0.49545563  0.74786851  0.50000000  1
  Mg  Mg8  1  0.25265884  0.00000000  0.50000000  1
  Mg  Mg9  1  0.24812566  0.50000000  0.50000000  1
  Mg  Mg10  1  0.74188191  0.00000000  0.50000000  1
  Mg  Mg11  1  0.74360217  0.50000000  0.50000000  1
  Mg  Mg12  1  0.25648281  0.22537636  0.00000000  1
  Mg  Mg13  1  0.25648281  0.77462364  0.00000000  1
  Mg  Mg14  1  0.73075839  0.25022628  0.00000000  1
  Mg  Mg15  1  0.73075839  0.74977372  -0.00000000  1
  O  O16  1  0.27083259  0.00000000  0.00000000  1
  O  O17  1  0.72074432  0.00000000  0.00000000  1
  O  O18  1  0.75417960  0.50000000  0.00000000  1
  O  O19  1  0.25483703  0.25923785  0.50000000  1
  O  O20  1  0.25483703  0.74076215  0.50000000  1
  O  O21  1  0.75076383  0.25128583  0.50000000  1
  O  O22  1  0.75076383  0.74871417  0.50000000  1
  O  O23  1  0.01714149  0.00000000  0.50000000  1
  O  O24  1  0.00785944  0.50000000  0.50000000  1
  O  O25  1  0.49599638  0.00000000  0.50000000  1
  O  O26  1  0.48461800  0.50000000  0.50000000  1
  O  O27  1  0.03388022  0.28376175  -0.00000000  1
  O  O28  1  0.03388022  0.71623825  -0.00000000  1
  O  O29  1  0.49224298  0.24331484  -0.00000000  1
  O  O30  1  0.49224298  0.75668516  0.00000000  1
