# generated using pymatgen
data_Tb3Sb5O12
_symmetry_space_group_name_H-M   'P 1'
_cell_length_a   9.34390781
_cell_length_b   9.34413115
_cell_length_c   9.34409543
_cell_angle_alpha   109.47122429
_cell_angle_beta   109.47037590
_cell_angle_gamma   109.47165091
_symmetry_Int_Tables_number   1
_chemical_formula_structural   Tb3Sb5O12
_chemical_formula_sum   'Tb6 Sb10 O24'
_cell_volume   628.03673380
_cell_formula_units_Z   2
loop_
 _symmetry_equiv_pos_site_id
 _symmetry_equiv_pos_as_xyz
  1  'x, y, z'
loop_
 _atom_site_type_symbol
 _atom_site_label
 _atom_site_symmetry_multiplicity
 _atom_site_fract_x
 _atom_site_fract_y
 _atom_site_fract_z
 _atom_site_occupancy
  Tb  Tb0  1  0.25000091  0.74999919  0.50000133  1
  Tb  Tb1  1  0.75000332  0.25000229  0.50000077  1
  Tb  Tb2  1  0.75000629  0.49999853  0.25000664  1
  Tb  Tb3  1  0.24999466  0.50000426  0.74999041  1
  Tb  Tb4  1  0.50000015  0.24999332  0.74999323  1
  Tb  Tb5  1  0.50000683  0.75001060  0.25001149  1
  Sb  Sb6  1  0.51499730  0.51500808  0.51501394  1
  Sb  Sb7  1  0.48499953  0.00000245  -0.00000500  1
  Sb  Sb8  1  -0.00000857  0.48497710  -0.00000345  1
  Sb  Sb9  1  -0.00001725  -0.00000627  0.48499158  1
  Sb  Sb10  1  0.71906382  0.71906704  0.00000078  1
  Sb  Sb11  1  0.28095338  0.28094639  0.00000038  1
  Sb  Sb12  1  0.71910949  -0.00000001  0.71910769  1
  Sb  Sb13  1  0.28092309  -0.00000767  0.28089140  1
  Sb  Sb14  1  0.00002009  0.71911250  0.71912019  1
  Sb  Sb15  1  -0.00000728  0.28088536  0.28088738  1
  O  O16  1  0.79960794  0.50440939  0.50440885  1
  O  O17  1  0.20038662  0.70479886  0.70479456  1
  O  O18  1  -0.00000254  0.49559707  0.29520707  1
  O  O19  1  0.50438766  0.50439286  0.79959260  1
  O  O20  1  -0.00000699  0.29520394  0.49559697  1
  O  O21  1  0.70479648  0.70479900  0.20040763  1
  O  O22  1  0.49559449  0.29519878  -0.00000137  1
  O  O23  1  0.29519845  0.49560492  -0.00000139  1
  O  O24  1  0.50439530  0.79960690  0.50440327  1
  O  O25  1  0.29520074  -0.00000196  0.49559189  1
  O  O26  1  0.49560185  0.00000109  0.29520452  1
  O  O27  1  0.70479219  0.20039252  0.70479343  1
  O  O28  1  0.27749355  0.47697483  0.47697557  1
  O  O29  1  0.72250767  0.19948608  0.19948613  1
  O  O30  1  -0.00000317  0.52302793  0.80051362  1
  O  O31  1  0.47697329  0.47697360  0.27748723  1
  O  O32  1  -0.00000106  0.80051658  0.52303041  1
  O  O33  1  0.19948272  0.19948691  0.72251225  1
  O  O34  1  0.52302808  0.80051545  -0.00000223  1
  O  O35  1  0.80051584  0.52302733  -0.00000069  1
  O  O36  1  0.47697282  0.27748455  0.47697211  1
  O  O37  1  0.80052017  0.00000003  0.52302357  1
  O  O38  1  0.52302209  -0.00000158  0.80050933  1
  O  O39  1  0.19948606  0.72251479  0.19948890  1
