# generated using pymatgen
data_KSm2Cl7
_symmetry_space_group_name_H-M   'P 1'
_cell_length_a   12.84053452
_cell_length_b   7.05147382
_cell_length_c   12.93152541
_cell_angle_alpha   92.17266884
_cell_angle_beta   90.00000000
_cell_angle_gamma   90.00000000
_symmetry_Int_Tables_number   1
_chemical_formula_structural   KSm2Cl7
_chemical_formula_sum   'K4 Sm8 Cl28'
_cell_volume   1170.03926818
_cell_formula_units_Z   4
loop_
 _symmetry_equiv_pos_site_id
 _symmetry_equiv_pos_as_xyz
  1  'x, y, z'
loop_
 _atom_site_type_symbol
 _atom_site_label
 _atom_site_symmetry_multiplicity
 _atom_site_fract_x
 _atom_site_fract_y
 _atom_site_fract_z
 _atom_site_occupancy
  K  K0  1  0.21787094  0.80578431  0.03229627  1
  K  K1  1  0.78212906  0.19421569  0.96770373  1
  K  K2  1  0.71787094  0.19421569  0.46770373  1
  K  K3  1  0.28212906  0.80578431  0.53229627  1
  Sm  Sm4  1  0.53580817  0.78514488  0.23854394  1
  Sm  Sm5  1  0.46419183  0.21485512  0.76145606  1
  Sm  Sm6  1  0.03580817  0.21485512  0.26145606  1
  Sm  Sm7  1  0.96419183  0.78514488  0.73854394  1
  Sm  Sm8  1  0.83995414  0.71097608  0.24192560  1
  Sm  Sm9  1  0.16004586  0.28902392  0.75807440  1
  Sm  Sm10  1  0.33995414  0.28902392  0.25807440  1
  Sm  Sm11  1  0.66004586  0.71097608  0.74192560  1
  Cl  Cl12  1  0.98103804  0.91475506  0.12766231  1
  Cl  Cl13  1  0.01896196  0.08524494  0.87233769  1
  Cl  Cl14  1  0.48103804  0.08524494  0.37233769  1
  Cl  Cl15  1  0.51896196  0.91475506  0.62766231  1
  Cl  Cl16  1  0.68598639  0.74925579  0.39455307  1
  Cl  Cl17  1  0.31401361  0.25074421  0.60544693  1
  Cl  Cl18  1  0.18598639  0.25074421  0.10544693  1
  Cl  Cl19  1  0.81401361  0.74925579  0.89455307  1
  Cl  Cl20  1  0.67130227  0.51220427  0.16240161  1
  Cl  Cl21  1  0.32869773  0.48779573  0.83759839  1
  Cl  Cl22  1  0.17130227  0.48779573  0.33759839  1
  Cl  Cl23  1  0.82869773  0.51220427  0.66240161  1
  Cl  Cl24  1  0.92857622  0.96763536  0.38238559  1
  Cl  Cl25  1  0.07142378  0.03236464  0.61761441  1
  Cl  Cl26  1  0.42857622  0.03236464  0.11761441  1
  Cl  Cl27  1  0.57142378  0.96763536  0.88238559  1
  Cl  Cl28  1  0.93443135  0.42909576  0.12000797  1
  Cl  Cl29  1  0.06556865  0.57090424  0.87999203  1
  Cl  Cl30  1  0.43443135  0.57090424  0.37999203  1
  Cl  Cl31  1  0.56556865  0.42909576  0.62000797  1
  Cl  Cl32  1  0.70803711  0.99687733  0.17685705  1
  Cl  Cl33  1  0.29196289  0.00312267  0.82314295  1
  Cl  Cl34  1  0.20803711  0.00312267  0.32314295  1
  Cl  Cl35  1  0.79196289  0.99687733  0.67685705  1
  Cl  Cl36  1  0.90439434  0.44877711  0.37916650  1
  Cl  Cl37  1  0.09560566  0.55122289  0.62083350  1
  Cl  Cl38  1  0.40439434  0.55122289  0.12083350  1
  Cl  Cl39  1  0.59560566  0.44877711  0.87916650  1
