# generated using pymatgen
data_Mn2Te3O8
_symmetry_space_group_name_H-M   'P 1'
_cell_length_a   6.96540129
_cell_length_b   6.96540129
_cell_length_c   11.85064131
_cell_angle_alpha   82.66473711
_cell_angle_beta   82.66473711
_cell_angle_gamma   45.40916687
_symmetry_Int_Tables_number   1
_chemical_formula_structural   Mn2Te3O8
_chemical_formula_sum   'Mn4 Te6 O16'
_cell_volume   405.50742671
_cell_formula_units_Z   2
loop_
 _symmetry_equiv_pos_site_id
 _symmetry_equiv_pos_as_xyz
  1  'x, y, z'
loop_
 _atom_site_type_symbol
 _atom_site_label
 _atom_site_symmetry_multiplicity
 _atom_site_fract_x
 _atom_site_fract_y
 _atom_site_fract_z
 _atom_site_occupancy
  Mn  Mn0  1  0.97034362  0.57026604  0.85114488  1
  Mn  Mn1  1  0.42973396  0.02965638  0.64885512  1
  Mn  Mn2  1  0.02965638  0.42973396  0.14885512  1
  Mn  Mn3  1  0.57026604  0.97034362  0.35114488  1
  Te  Te4  1  0.05265172  0.67379749  0.55642380  1
  Te  Te5  1  0.32620251  0.94734828  0.94357620  1
  Te  Te6  1  0.94734828  0.32620251  0.44357620  1
  Te  Te7  1  0.67379749  0.05265172  0.05642380  1
  Te  Te8  1  0.85478812  0.14521188  0.75000000  1
  Te  Te9  1  0.14521188  0.85478812  0.25000000  1
  O  O10  1  0.16467190  0.44308193  0.68793759  1
  O  O11  1  0.55691807  0.83532810  0.81206241  1
  O  O12  1  0.83532810  0.55691807  0.31206241  1
  O  O13  1  0.44308193  0.16467190  0.18793759  1
  O  O14  1  0.75423595  0.72283413  0.52811752  1
  O  O15  1  0.27716587  0.24576405  0.97188248  1
  O  O16  1  0.24576405  0.27716587  0.47188248  1
  O  O17  1  0.72283413  0.75423595  0.02811752  1
  O  O18  1  0.00036724  0.23054449  0.85923553  1
  O  O19  1  0.76945551  -0.00036724  0.64076447  1
  O  O20  1  0.85065973  0.99453072  0.35292570  1
  O  O21  1  0.00546928  0.14934027  0.14707430  1
  O  O22  1  0.14934027  0.00546928  0.64707430  1
  O  O23  1  0.99453072  0.85065973  0.85292570  1
  O  O24  1  0.23054449  0.00036724  0.35923553  1
  O  O25  1  -0.00036724  0.76945551  0.14076447  1
