# generated using pymatgen
data_Na2PtS2
_symmetry_space_group_name_H-M   'P 1'
_cell_length_a   3.56145915
_cell_length_b   5.45523984
_cell_length_c   10.82806315
_cell_angle_alpha   90.00000000
_cell_angle_beta   90.00000000
_cell_angle_gamma   109.05195739
_symmetry_Int_Tables_number   1
_chemical_formula_structural   Na2PtS2
_chemical_formula_sum   'Na4 Pt2 S4'
_cell_volume   198.85057698
_cell_formula_units_Z   2
loop_
 _symmetry_equiv_pos_site_id
 _symmetry_equiv_pos_as_xyz
  1  'x, y, z'
loop_
 _atom_site_type_symbol
 _atom_site_label
 _atom_site_symmetry_multiplicity
 _atom_site_fract_x
 _atom_site_fract_y
 _atom_site_fract_z
 _atom_site_occupancy
  Na  Na0  1  0.17199074  0.34398148  0.09365227  1
  Na  Na1  1  0.82800926  0.65601852  0.59365227  1
  Na  Na2  1  0.43146065  0.86292030  0.87603595  1
  Na  Na3  1  0.56853935  0.13707970  0.37603595  1
  Pt  Pt4  1  0.86520745  0.73041590  0.25458335  1
  Pt  Pt5  1  0.13479255  0.26958410  0.75458335  1
  S  S6  1  0.55052591  0.10105183  0.63624255  1
  S  S7  1  0.44947409  0.89894817  0.13624255  1
  S  S8  1  0.71885813  0.43771727  0.87348488  1
  S  S9  1  0.28114187  0.56228273  0.37348488  1
