# generated using pymatgen
data_La2CuBiS5
_symmetry_space_group_name_H-M   'P 1'
_cell_length_a   3.99958916
_cell_length_b   12.03047679
_cell_length_c   17.06117363
_cell_angle_alpha   90.00000000
_cell_angle_beta   90.00000000
_cell_angle_gamma   90.00000000
_symmetry_Int_Tables_number   1
_chemical_formula_structural   La2CuBiS5
_chemical_formula_sum   'La8 Cu4 Bi4 S20'
_cell_volume   820.93188689
_cell_formula_units_Z   4
loop_
 _symmetry_equiv_pos_site_id
 _symmetry_equiv_pos_as_xyz
  1  'x, y, z'
loop_
 _atom_site_type_symbol
 _atom_site_label
 _atom_site_symmetry_multiplicity
 _atom_site_fract_x
 _atom_site_fract_y
 _atom_site_fract_z
 _atom_site_occupancy
  La  La0  1  0.25000000  0.03305259  0.67297550  1
  La  La1  1  0.25000000  0.53305259  0.82702450  1
  La  La2  1  0.75000000  0.96694741  0.32702450  1
  La  La3  1  0.75000000  0.46694741  0.17297550  1
  La  La4  1  0.25000000  0.37355980  0.59735014  1
  La  La5  1  0.25000000  0.87355980  0.90264986  1
  La  La6  1  0.75000000  0.62644020  0.40264986  1
  La  La7  1  0.75000000  0.12644020  0.09735014  1
  Cu  Cu8  1  0.25000000  0.40817627  0.99785463  1
  Cu  Cu9  1  0.25000000  0.90817627  0.50214537  1
  Cu  Cu10  1  0.75000000  0.59182373  0.00214537  1
  Cu  Cu11  1  0.75000000  0.09182373  0.49785463  1
  Bi  Bi12  1  0.25000000  0.30014420  0.36321283  1
  Bi  Bi13  1  0.25000000  0.80014420  0.13678717  1
  Bi  Bi14  1  0.75000000  0.69985580  0.63678717  1
  Bi  Bi15  1  0.75000000  0.19985580  0.86321283  1
  S  S16  1  0.25000000  0.01082092  0.20186486  1
  S  S17  1  0.25000000  0.51082092  0.29813514  1
  S  S18  1  0.75000000  0.98917908  0.79813514  1
  S  S19  1  0.75000000  0.48917908  0.70186486  1
  S  S20  1  0.25000000  0.08615379  0.42727667  1
  S  S21  1  0.25000000  0.58615379  0.07272333  1
  S  S22  1  0.75000000  0.91384621  0.57272333  1
  S  S23  1  0.75000000  0.41384621  0.92727667  1
  S  S24  1  0.25000000  0.10611614  0.96882270  1
  S  S25  1  0.25000000  0.60611614  0.53117730  1
  S  S26  1  0.75000000  0.89388386  0.03117730  1
  S  S27  1  0.75000000  0.39388386  0.46882270  1
  S  S28  1  0.25000000  0.26389615  0.76614290  1
  S  S29  1  0.25000000  0.76389615  0.73385710  1
  S  S30  1  0.75000000  0.73610385  0.23385710  1
  S  S31  1  0.75000000  0.23610385  0.26614290  1
  S  S32  1  0.25000000  0.30904600  0.11080431  1
  S  S33  1  0.25000000  0.80904600  0.38919569  1
  S  S34  1  0.75000000  0.69095400  0.88919569  1
  S  S35  1  0.75000000  0.19095400  0.61080431  1
