# generated using pymatgen
data_ThTe3
_symmetry_space_group_name_H-M   'P 1'
_cell_length_a   4.44290231
_cell_length_b   6.29906278
_cell_length_c   10.72928377
_cell_angle_alpha   97.72355422
_cell_angle_beta   90.00000000
_cell_angle_gamma   90.00000000
_symmetry_Int_Tables_number   1
_chemical_formula_structural   ThTe3
_chemical_formula_sum   'Th2 Te6'
_cell_volume   297.54698065
_cell_formula_units_Z   2
loop_
 _symmetry_equiv_pos_site_id
 _symmetry_equiv_pos_as_xyz
  1  'x, y, z'
loop_
 _atom_site_type_symbol
 _atom_site_label
 _atom_site_symmetry_multiplicity
 _atom_site_fract_x
 _atom_site_fract_y
 _atom_site_fract_z
 _atom_site_occupancy
  Th  Th0  1  0.75000000  0.71466281  0.84439478  1
  Th  Th1  1  0.25000000  0.28533719  0.15560522  1
  Te  Te2  1  0.75000000  0.54848152  0.32730977  1
  Te  Te3  1  0.25000000  0.45151848  0.67269023  1
  Te  Te4  1  0.75000000  0.23456054  0.93797831  1
  Te  Te5  1  0.25000000  0.76543946  0.06202169  1
  Te  Te6  1  0.75000000  0.11284834  0.33449226  1
  Te  Te7  1  0.25000000  0.88715166  0.66550774  1
