# generated using pymatgen
data_Y6WO12
_symmetry_space_group_name_H-M   'P 1'
_cell_length_a   6.43976149
_cell_length_b   6.43976149
_cell_length_c   6.43976074
_cell_angle_alpha   98.67333518
_cell_angle_beta   98.67333530
_cell_angle_gamma   98.67333845
_symmetry_Int_Tables_number   1
_chemical_formula_structural   Y6WO12
_chemical_formula_sum   'Y6 W1 O12'
_cell_volume   256.83906041
_cell_formula_units_Z   1
loop_
 _symmetry_equiv_pos_site_id
 _symmetry_equiv_pos_as_xyz
  1  'x, y, z'
loop_
 _atom_site_type_symbol
 _atom_site_label
 _atom_site_symmetry_multiplicity
 _atom_site_fract_x
 _atom_site_fract_y
 _atom_site_fract_z
 _atom_site_occupancy
  Y  Y0  1  0.31445470  0.14348779  0.61012351  1
  Y  Y1  1  0.38987649  0.68554530  0.85651221  1
  Y  Y2  1  0.85651221  0.38987649  0.68554530  1
  Y  Y3  1  0.68554530  0.85651221  0.38987649  1
  Y  Y4  1  0.61012351  0.31445470  0.14348779  1
  Y  Y5  1  0.14348779  0.61012351  0.31445470  1
  W  W6  1  0.00000000  0.00000000  0.00000000  1
  O  O7  1  0.17674445  0.43123122  0.59156995  1
  O  O8  1  0.59156995  0.17674445  0.43123122  1
  O  O9  1  0.43123122  0.59156995  0.17674445  1
  O  O10  1  0.82325555  0.56876878  0.40843005  1
  O  O11  1  0.40843005  0.82325555  0.56876878  1
  O  O12  1  0.56876878  0.40843005  0.82325555  1
  O  O13  1  0.92396325  0.03342650  0.70490807  1
  O  O14  1  0.96657350  0.29509193  0.07603675  1
  O  O15  1  0.29509193  0.07603675  0.96657350  1
  O  O16  1  0.07603675  0.96657350  0.29509193  1
  O  O17  1  0.03342650  0.70490807  0.92396325  1
  O  O18  1  0.70490807  0.92396325  0.03342650  1
