# generated using pymatgen
data_Rb2Nd2Mg(WO4)4
_symmetry_space_group_name_H-M   'P 1'
_cell_length_a   7.60622789
_cell_length_b   8.36620631
_cell_length_c   7.54259997
_cell_angle_alpha   64.37263266
_cell_angle_beta   61.22714186
_cell_angle_gamma   87.71013077
_symmetry_Int_Tables_number   1
_chemical_formula_structural   Rb2Nd2Mg(WO4)4
_chemical_formula_sum   'Rb2 Nd2 Mg1 W4 O16'
_cell_volume   370.63382298
_cell_formula_units_Z   1
loop_
 _symmetry_equiv_pos_site_id
 _symmetry_equiv_pos_as_xyz
  1  'x, y, z'
loop_
 _atom_site_type_symbol
 _atom_site_label
 _atom_site_symmetry_multiplicity
 _atom_site_fract_x
 _atom_site_fract_y
 _atom_site_fract_z
 _atom_site_occupancy
  Rb  Rb0  1  0.79717800  0.20553100  0.75174700  1
  Rb  Rb1  1  0.20957900  0.80287900  0.23890600  1
  Nd  Nd2  1  0.25866600  0.83987900  0.70229000  1
  Nd  Nd3  1  0.73857200  0.16242000  0.28678200  1
  Mg  Mg4  1  0.07657700  0.47184000  0.05455900  1
  W  W5  1  0.68712200  0.68731200  0.80192400  1
  W  W6  1  0.68956000  0.67633900  0.30543700  1
  W  W7  1  0.33416200  0.31739700  0.20325400  1
  W  W8  1  0.31427900  0.32376000  0.70278500  1
  O  O9  1  0.60881100  0.38624600  0.45197900  1
  O  O10  1  0.26206600  0.08164900  0.78095700  1
  O  O11  1  0.04360200  0.33983600  0.90122400  1
  O  O12  1  0.39994600  0.08080000  0.34524800  1
  O  O13  1  0.74622400  0.62024900  0.56800600  1
  O  O14  1  0.38565500  0.27453800  0.92696500  1
  O  O15  1  0.60965000  0.90357100  0.65518200  1
  O  O16  1  0.38150100  0.60591900  0.55940000  1
  O  O17  1  0.03378300  0.24198300  0.30938700  1
  O  O18  1  0.75438200  0.92188400  0.21035600  1
  O  O19  1  0.35374000  0.57957600  0.97174000  1
  O  O20  1  0.97161300  0.67468100  0.08288400  1
  O  O21  1  0.24833500  0.36830700  0.45173800  1
  O  O22  1  0.61077400  0.71920100  0.06965700  1
  O  O23  1  0.95975300  0.77230600  0.68023800  1
  O  O24  1  0.64113300  0.41689600  0.02307200  1
