# generated using pymatgen
data_Te2W
_symmetry_space_group_name_H-M   'P 1'
_cell_length_a   3.56252552
_cell_length_b   3.56252552
_cell_length_c   39.28407496
_cell_angle_alpha   90.00000000
_cell_angle_beta   90.00000000
_cell_angle_gamma   119.99998209
_symmetry_Int_Tables_number   1
_chemical_formula_structural   Te2W
_chemical_formula_sum   'Te8 W4'
_cell_volume   431.78068230
_cell_formula_units_Z   4
loop_
 _symmetry_equiv_pos_site_id
 _symmetry_equiv_pos_as_xyz
  1  'x, y, z'
loop_
 _atom_site_type_symbol
 _atom_site_label
 _atom_site_symmetry_multiplicity
 _atom_site_fract_x
 _atom_site_fract_y
 _atom_site_fract_z
 _atom_site_occupancy
  Te  Te0  1  0.33333300  0.66666700  0.95194934  1
  Te  Te1  1  0.33333300  0.66666700  0.32694477  1
  Te  Te2  1  0.66666700  0.33333300  0.67305523  1
  Te  Te3  1  0.66666700  0.33333300  0.04805066  1
  Te  Te4  1  0.66666700  0.33333300  0.76445599  1
  Te  Te5  1  0.66666700  0.33333300  0.13944843  1
  Te  Te6  1  0.33333300  0.66666700  0.86055157  1
  Te  Te7  1  0.33333300  0.66666700  0.23554401  1
  W  W8  1  0.33333300  0.66666700  0.71874724  1
  W  W9  1  0.33333300  0.66666700  0.09376518  1
  W  W10  1  0.66666700  0.33333300  0.90623482  1
  W  W11  1  0.66666700  0.33333300  0.28125276  1
