# generated using pymatgen
data_Sm9Ga5S21
_symmetry_space_group_name_H-M   'P 1'
_cell_length_a   11.64929813
_cell_length_b   11.64918869
_cell_length_c   11.64926361
_cell_angle_alpha   94.69721999
_cell_angle_beta   85.30221625
_cell_angle_gamma   85.30255563
_symmetry_Int_Tables_number   1
_chemical_formula_structural   Sm9Ga5S21
_chemical_formula_sum   'Sm18 Ga10 S42'
_cell_volume   1563.99996045
_cell_formula_units_Z   2
loop_
 _symmetry_equiv_pos_site_id
 _symmetry_equiv_pos_as_xyz
  1  'x, y, z'
loop_
 _atom_site_type_symbol
 _atom_site_label
 _atom_site_symmetry_multiplicity
 _atom_site_fract_x
 _atom_site_fract_y
 _atom_site_fract_z
 _atom_site_occupancy
  Sm  Sm0  1  0.25944934  0.11528785  0.87875523  1
  Sm  Sm1  1  0.91800111  0.45798197  0.22693663  1
  Sm  Sm2  1  0.60238143  0.77296123  0.55004091  1
  Sm  Sm3  1  0.44996426  0.39761623  0.77296661  1
  Sm  Sm4  1  0.12124439  0.74054312  0.11528916  1
  Sm  Sm5  1  0.77306364  0.08198643  0.45798657  1
  Sm  Sm6  1  0.54201613  0.22693670  0.08199786  1
  Sm  Sm7  1  0.22704140  0.55003706  0.39762171  1
  Sm  Sm8  1  0.88471439  0.87875781  0.74055412  1
  Sm  Sm9  1  0.41680181  0.20851769  0.43808412  1
  Sm  Sm10  1  0.06941877  0.55408686  0.78445445  1
  Sm  Sm11  1  0.75238990  0.87228024  0.10402142  1
  Sm  Sm12  1  0.21554849  0.93058107  0.55407995  1
  Sm  Sm13  1  0.89598168  0.24761290  0.87227643  1
  Sm  Sm14  1  0.56192019  0.58320225  0.20851047  1
  Sm  Sm15  1  0.12771288  0.10402666  0.24761201  1
  Sm  Sm16  1  0.79148152  0.43808443  0.58319626  1
  Sm  Sm17  1  0.44590993  0.78445786  0.93058009  1
  Ga  Ga18  1  0.94985442  0.72381324  0.39077473  1
  Ga  Ga19  1  0.60923391  0.05014292  0.72382704  1
  Ga  Ga20  1  0.27617977  0.39076947  0.05015008  1
  Ga  Ga21  1  0.44869187  0.88641776  0.22691240  1
  Ga  Ga22  1  0.11358721  0.22692280  0.55130555  1
  Ga  Ga23  1  0.77307851  0.55131184  0.88640626  1
  Ga  Ga24  1  0.14396509  0.85603552  0.85603485  1
  Ga  Ga25  1  0.84591327  0.15408665  0.15408212  1
  Ga  Ga26  1  0.34676846  0.65322984  0.65323007  1
  Ga  Ga27  1  0.64377710  0.35622205  0.35622194  1
  S  S28  1  0.98655729  0.54246065  0.44934827  1
  S  S29  1  0.64168389  0.86965292  0.78304718  1
  S  S30  1  0.30395308  0.20579408  0.10549514  1
  S  S31  1  0.89450470  0.69604721  0.20580204  1
  S  S32  1  0.55065252  0.01344139  0.54247617  1
  S  S33  1  0.21695395  0.35832029  0.86966180  1
  S  S34  1  0.13034167  0.78304297  0.35832010  1
  S  S35  1  0.79420421  0.10549509  0.69604872  1
  S  S36  1  0.45752981  0.44934795  0.01344618  1
  S  S37  1  0.52247070  0.96796889  0.06826493  1
  S  S38  1  0.18836308  0.29939936  0.38756250  1
  S  S39  1  0.84096228  0.63103209  0.72199909  1
  S  S40  1  0.61243184  0.81164401  0.29939739  1
  S  S41  1  0.27799478  0.15904326  0.63102628  1
  S  S42  1  0.93172504  0.47753838  0.96796675  1
  S  S43  1  0.36896995  0.72200756  0.15904231  1
  S  S44  1  0.03203039  0.06827395  0.47753552  1
  S  S45  1  0.70060275  0.38756699  0.81163733  1
  S  S46  1  0.82423216  0.84744705  0.50912047  1
  S  S47  1  0.49088548  0.17576862  0.84745229  1
  S  S48  1  0.15254974  0.50911182  0.17577486  1
  S  S49  1  0.65302943  0.67754515  0.00778097  1
  S  S50  1  0.32245394  0.00778615  0.34696568  1
  S  S51  1  0.99221514  0.34696870  0.67754429  1
  S  S52  1  0.69043228  0.55806202  0.40731427  1
  S  S53  1  0.33476741  0.89734682  0.75926365  1
  S  S54  1  0.00574394  0.24019837  0.09474179  1
  S  S55  1  0.90524797  0.99425451  0.24019574  1
  S  S56  1  0.59268067  0.30956569  0.55806120  1
  S  S57  1  0.24072989  0.66523349  0.89734475  1
  S  S58  1  0.10265751  0.75927172  0.66523289  1
  S  S59  1  0.75980361  0.09475078  0.99425071  1
  S  S60  1  0.44194273  0.40732160  0.30956527  1
  S  S61  1  0.61879576  0.15008228  0.28851903  1
  S  S62  1  0.27329793  0.48014259  0.62172048  1
  S  S63  1  0.96006273  0.79144317  0.94497720  1
  S  S64  1  0.37828443  0.72670394  0.48014530  1
  S  S65  1  0.05502649  0.03994141  0.79144519  1
  S  S66  1  0.71148497  0.38120367  0.15008326  1
  S  S67  1  0.20855269  0.94497124  0.03993802  1
  S  S68  1  0.84991406  0.28851027  0.38120488  1
  S  S69  1  0.51985224  0.62171545  0.72670504  1
