# generated using pymatgen
data_NiH7C3NO7
_symmetry_space_group_name_H-M   'P 1'
_cell_length_a   7.54258048
_cell_length_b   7.82715480
_cell_length_c   12.60808175
_cell_angle_alpha   90.00000000
_cell_angle_beta   90.00000000
_cell_angle_gamma   90.00000000
_symmetry_Int_Tables_number   1
_chemical_formula_structural   NiH7C3NO7
_chemical_formula_sum   'Ni4 H28 C12 N4 O28'
_cell_volume   744.34262894
_cell_formula_units_Z   4
loop_
 _symmetry_equiv_pos_site_id
 _symmetry_equiv_pos_as_xyz
  1  'x, y, z'
loop_
 _atom_site_type_symbol
 _atom_site_label
 _atom_site_symmetry_multiplicity
 _atom_site_fract_x
 _atom_site_fract_y
 _atom_site_fract_z
 _atom_site_occupancy
  Ni  Ni0  1  0.46091574  0.99219216  0.42026655  1
  Ni  Ni1  1  0.03908426  0.00780784  0.92026655  1
  Ni  Ni2  1  0.96091574  0.50780784  0.57973345  1
  Ni  Ni3  1  0.53908426  0.49219216  0.07973345  1
  H  H4  1  0.41138730  0.68871732  0.27018660  1
  H  H5  1  0.08861270  0.31128268  0.77018660  1
  H  H6  1  0.91138730  0.81128268  0.72981340  1
  H  H7  1  0.58861270  0.18871732  0.22981340  1
  H  H8  1  0.63278001  0.30241764  0.54165727  1
  H  H9  1  0.86721999  0.69758236  0.04165727  1
  H  H10  1  0.13278001  0.19758236  0.45834273  1
  H  H11  1  0.36721999  0.80241764  0.95834273  1
  H  H12  1  0.77430831  0.78280601  0.46804413  1
  H  H13  1  0.72569169  0.21719399  0.96804413  1
  H  H14  1  0.27430831  0.71719399  0.53195587  1
  H  H15  1  0.22569169  0.28280601  0.03195587  1
  H  H16  1  0.83578130  0.09264149  0.33549398  1
  H  H17  1  0.66421870  0.90735851  0.83549398  1
  H  H18  1  0.33578130  0.40735851  0.66450602  1
  H  H19  1  0.16421870  0.59264149  0.16450602  1
  H  H20  1  0.86073196  0.85291723  0.25241867  1
  H  H21  1  0.63926804  0.14708277  0.75241867  1
  H  H22  1  0.36073196  0.64708277  0.74758133  1
  H  H23  1  0.13926804  0.35291723  0.24758133  1
  H  H24  1  0.06978069  0.88665089  0.30322786  1
  H  H25  1  0.43021931  0.11334911  0.80322786  1
  H  H26  1  0.56978069  0.61334911  0.69677214  1
  H  H27  1  0.93021931  0.38665089  0.19677214  1
  H  H28  1  0.02274539  0.93022305  0.17361195  1
  H  H29  1  0.47725461  0.06977695  0.67361195  1
  H  H30  1  0.52274539  0.56977695  0.82638805  1
  H  H31  1  0.97725461  0.43022305  0.32638805  1
  C  C32  1  0.54734474  0.73399908  0.25589715  1
  C  C33  1  0.95265526  0.26600092  0.75589715  1
  C  C34  1  0.04734474  0.76600092  0.74410285  1
  C  C35  1  0.45265526  0.23399908  0.24410285  1
  C  C36  1  0.72467844  0.26741555  0.47785121  1
  C  C37  1  0.77532156  0.73258445  0.97785121  1
  C  C38  1  0.22467844  0.23258445  0.52214879  1
  C  C39  1  0.27532156  0.76741555  0.02214879  1
  C  C40  1  0.68365676  0.75603462  0.53387775  1
  C  C41  1  0.81634324  0.24396538  0.03387775  1
  C  C42  1  0.18365676  0.74396538  0.46612225  1
  C  C43  1  0.31634324  0.25603462  0.96612225  1
  N  N44  1  0.97234285  0.92948737  0.24976086  1
  N  N45  1  0.52765715  0.07051263  0.74976086  1
  N  N46  1  0.47234285  0.57051263  0.75023914  1
  N  N47  1  0.02765715  0.42948737  0.25023914  1
  O  O48  1  0.60339058  0.85990037  0.30940683  1
  O  O49  1  0.89660942  0.14009963  0.80940683  1
  O  O50  1  0.10339058  0.64009963  0.69059317  1
  O  O51  1  0.39660942  0.35990037  0.19059317  1
  O  O52  1  0.64135549  0.65941078  0.18748114  1
  O  O53  1  0.85864451  0.34058922  0.68748114  1
  O  O54  1  0.14135549  0.84058922  0.81251886  1
  O  O55  1  0.35864451  0.15941078  0.31251886  1
  O  O56  1  0.69300445  0.13209032  0.42570422  1
  O  O57  1  0.80699555  0.86790968  0.92570422  1
  O  O58  1  0.19300445  0.36790968  0.57429578  1
  O  O59  1  0.30699555  0.63209032  0.07429578  1
  O  O60  1  0.85649234  0.36197603  0.45968818  1
  O  O61  1  0.64350766  0.63802397  0.95968818  1
  O  O62  1  0.35649234  0.13802397  0.54031182  1
  O  O63  1  0.14350766  0.86197603  0.04031182  1
  O  O64  1  0.53971994  0.83636254  0.54016114  1
  O  O65  1  0.96028006  0.16363746  0.04016114  1
  O  O66  1  0.03971994  0.66363746  0.45983886  1
  O  O67  1  0.46028006  0.33636254  0.95983886  1
  O  O68  1  0.73052560  0.64255815  0.60041330  1
  O  O69  1  0.76947440  0.35744185  0.10041330  1
  O  O70  1  0.23052560  0.85744185  0.39958670  1
  O  O71  1  0.26947440  0.14255815  0.89958670  1
  O  O72  1  0.92465795  0.09851405  0.27577777  1
  O  O73  1  0.57534205  0.90148595  0.77577777  1
  O  O74  1  0.42465795  0.40148595  0.72422223  1
  O  O75  1  0.07534205  0.59851405  0.22422223  1
