# generated using pymatgen
data_Ba2Y2Mg(Fe2O5)2
_symmetry_space_group_name_H-M   'P 1'
_cell_length_a   3.79257800
_cell_length_b   10.08653766
_cell_length_c   7.68790354
_cell_angle_alpha   89.81916581
_cell_angle_beta   90.00000000
_cell_angle_gamma   90.00000000
_symmetry_Int_Tables_number   1
_chemical_formula_structural   Ba2Y2Mg(Fe2O5)2
_chemical_formula_sum   'Ba2 Y2 Mg1 Fe4 O10'
_cell_volume   294.09144981
_cell_formula_units_Z   1
loop_
 _symmetry_equiv_pos_site_id
 _symmetry_equiv_pos_as_xyz
  1  'x, y, z'
loop_
 _atom_site_type_symbol
 _atom_site_label
 _atom_site_symmetry_multiplicity
 _atom_site_fract_x
 _atom_site_fract_y
 _atom_site_fract_z
 _atom_site_occupancy
  Ba  Ba0  1  0.00000000  0.95869000  0.51887200  1
  Ba  Ba1  1  0.00000000  0.95439800  0.00177800  1
  Y  Y2  1  0.00000000  0.60755300  0.01116300  1
  Y  Y3  1  0.00000000  0.44006300  0.48150400  1
  Mg  Mg4  1  0.00000000  0.30568000  0.01419200  1
  Fe  Fe5  1  0.49999900  0.71394600  0.30386500  1
  Fe  Fe6  1  0.49999900  0.23709000  0.74175900  1
  Fe  Fe7  1  0.49999900  0.18897100  0.27105700  1
  Fe  Fe8  1  0.49999900  0.69851600  0.70454800  1
  O  O9  1  0.49999900  0.58102000  0.49836300  1
  O  O10  1  0.49999900  0.29661500  0.47554600  1
  O  O11  1  0.49999900  0.71040300  0.99103800  1
  O  O12  1  0.49999900  0.22978400  0.02598900  1
  O  O13  1  0.00000000  0.73910300  0.73478900  1
  O  O14  1  0.00000000  0.44169200  0.19028700  1
  O  O15  1  0.00000000  0.74435000  0.25486500  1
  O  O16  1  0.00000000  0.36917400  0.77188300  1
  O  O17  1  0.49999900  0.00071700  0.26872500  1
  O  O18  1  0.49999900  0.04056500  0.73977800  1
