# generated using pymatgen
data_Ba(YSe2)2
_symmetry_space_group_name_H-M   'P 1'
_cell_length_a   4.20570681
_cell_length_b   12.81914896
_cell_length_c   15.18759405
_cell_angle_alpha   90.00000000
_cell_angle_beta   90.00000000
_cell_angle_gamma   90.00000000
_symmetry_Int_Tables_number   1
_chemical_formula_structural   Ba(YSe2)2
_chemical_formula_sum   'Ba4 Y8 Se16'
_cell_volume   818.81759840
_cell_formula_units_Z   4
loop_
 _symmetry_equiv_pos_site_id
 _symmetry_equiv_pos_as_xyz
  1  'x, y, z'
loop_
 _atom_site_type_symbol
 _atom_site_label
 _atom_site_symmetry_multiplicity
 _atom_site_fract_x
 _atom_site_fract_y
 _atom_site_fract_z
 _atom_site_occupancy
  Ba  Ba0  1  0.25000000  0.24073161  0.33550458  1
  Ba  Ba1  1  0.25000000  0.74073161  0.16449542  1
  Ba  Ba2  1  0.75000000  0.75926839  0.66449542  1
  Ba  Ba3  1  0.75000000  0.25926839  0.83550458  1
  Y  Y4  1  0.25000000  0.07936159  0.59998821  1
  Y  Y5  1  0.25000000  0.57936159  0.90001179  1
  Y  Y6  1  0.75000000  0.92063841  0.40001179  1
  Y  Y7  1  0.75000000  0.42063841  0.09998821  1
  Y  Y8  1  0.25000000  0.56438934  0.39103412  1
  Y  Y9  1  0.25000000  0.06438934  0.10896588  1
  Y  Y10  1  0.75000000  0.43561066  0.60896588  1
  Y  Y11  1  0.75000000  0.93561066  0.89103412  1
  Se  Se12  1  0.25000000  0.08464386  0.92357951  1
  Se  Se13  1  0.25000000  0.58464386  0.57642049  1
  Se  Se14  1  0.75000000  0.91535614  0.07642049  1
  Se  Se15  1  0.75000000  0.41535614  0.42357951  1
  Se  Se16  1  0.25000000  0.29357159  0.66273989  1
  Se  Se17  1  0.25000000  0.79357159  0.83726011  1
  Se  Se18  1  0.75000000  0.70642841  0.33726011  1
  Se  Se19  1  0.75000000  0.20642841  0.16273989  1
  Se  Se20  1  0.25000000  0.37463753  0.97522828  1
  Se  Se21  1  0.25000000  0.87463753  0.52477172  1
  Se  Se22  1  0.75000000  0.62536247  0.02477172  1
  Se  Se23  1  0.75000000  0.12536247  0.47522828  1
  Se  Se24  1  0.25000000  0.47594341  0.21676742  1
  Se  Se25  1  0.25000000  0.97594341  0.28323258  1
  Se  Se26  1  0.75000000  0.52405659  0.78323258  1
  Se  Se27  1  0.75000000  0.02405659  0.71676742  1
