# generated using pymatgen
data_Te2MoO7
_symmetry_space_group_name_H-M   'P 1'
_cell_length_a   8.76616445
_cell_length_b   4.27714094
_cell_length_c   15.86613881
_cell_angle_alpha   84.42094248
_cell_angle_beta   90.00000000
_cell_angle_gamma   90.00000000
_symmetry_Int_Tables_number   1
_chemical_formula_structural   Te2MoO7
_chemical_formula_sum   'Te8 Mo4 O28'
_cell_volume   592.06894745
_cell_formula_units_Z   4
loop_
 _symmetry_equiv_pos_site_id
 _symmetry_equiv_pos_as_xyz
  1  'x, y, z'
loop_
 _atom_site_type_symbol
 _atom_site_label
 _atom_site_symmetry_multiplicity
 _atom_site_fract_x
 _atom_site_fract_y
 _atom_site_fract_z
 _atom_site_occupancy
  Te  Te0  1  0.03822175  0.15496300  0.22453824  1
  Te  Te1  1  0.53822175  0.84503700  0.27546176  1
  Te  Te2  1  0.96177825  0.84503700  0.77546176  1
  Te  Te3  1  0.46177825  0.15496300  0.72453824  1
  Te  Te4  1  0.29797930  0.30684957  0.39071647  1
  Te  Te5  1  0.79797930  0.69315043  0.10928353  1
  Te  Te6  1  0.70202070  0.69315043  0.60928353  1
  Te  Te7  1  0.20202070  0.30684957  0.89071647  1
  Mo  Mo8  1  0.36478263  0.87847457  0.06828031  1
  Mo  Mo9  1  0.86478263  0.12152543  0.43171969  1
  Mo  Mo10  1  0.63521737  0.12152543  0.93171969  1
  Mo  Mo11  1  0.13521737  0.87847457  0.56828031  1
  O  O12  1  0.15764890  0.42274617  0.30495849  1
  O  O13  1  0.65764890  0.57725383  0.19504151  1
  O  O14  1  0.84235110  0.57725383  0.69504151  1
  O  O15  1  0.34235110  0.42274617  0.80495849  1
  O  O16  1  0.47416959  0.42750671  0.31058541  1
  O  O17  1  0.97416959  0.57249329  0.18941459  1
  O  O18  1  0.52583041  0.57249329  0.68941459  1
  O  O19  1  0.02583041  0.42750671  0.81058541  1
  O  O20  1  0.35406354  0.90716292  0.35676046  1
  O  O21  1  0.85406354  0.09283708  0.14323954  1
  O  O22  1  0.64593646  0.09283708  0.64323954  1
  O  O23  1  0.14593646  0.90716292  0.85676046  1
  O  O24  1  0.32636483  0.96602478  0.56385871  1
  O  O25  1  0.82636483  0.03397522  0.93614129  1
  O  O26  1  0.67363517  0.03397522  0.43614129  1
  O  O27  1  0.17363517  0.96602478  0.06385871  1
  O  O28  1  0.12597542  0.47926854  0.56832600  1
  O  O29  1  0.62597542  0.52073146  0.93167400  1
  O  O30  1  0.87402458  0.52073146  0.43167400  1
  O  O31  1  0.37402458  0.47926854  0.06832600  1
  O  O32  1  0.39433524  0.03040253  0.94982104  1
  O  O33  1  0.89433524  0.96959747  0.55017896  1
  O  O34  1  0.60566476  0.96959747  0.05017896  1
  O  O35  1  0.10566476  0.03040253  0.44982104  1
  O  O36  1  0.10184155  0.94182971  0.68516748  1
  O  O37  1  0.60184155  0.05817029  0.81483252  1
  O  O38  1  0.89815845  0.05817029  0.31483252  1
  O  O39  1  0.39815845  0.94182971  0.18516748  1
