# generated using pymatgen
data_Ag3PS4
_symmetry_space_group_name_H-M   'P 1'
_cell_length_a   6.57031988
_cell_length_b   6.83933977
_cell_length_c   7.65066102
_cell_angle_alpha   90.00000000
_cell_angle_beta   90.00000000
_cell_angle_gamma   90.00000000
_symmetry_Int_Tables_number   1
_chemical_formula_structural   Ag3PS4
_chemical_formula_sum   'Ag6 P2 S8'
_cell_volume   343.79507696
_cell_formula_units_Z   2
loop_
 _symmetry_equiv_pos_site_id
 _symmetry_equiv_pos_as_xyz
  1  'x, y, z'
loop_
 _atom_site_type_symbol
 _atom_site_label
 _atom_site_symmetry_multiplicity
 _atom_site_fract_x
 _atom_site_fract_y
 _atom_site_fract_z
 _atom_site_occupancy
  Ag  Ag0  1  0.92706194  0.80788331  0.73409926  1
  Ag  Ag1  1  0.42706194  0.19211669  0.76590074  1
  Ag  Ag2  1  0.42706194  0.19211669  0.23409926  1
  Ag  Ag3  1  0.92706194  0.80788331  0.26590074  1
  Ag  Ag4  1  0.39270373  0.63884489  0.50000000  1
  Ag  Ag5  1  0.89270373  0.36115511  0.00000000  1
  P  P6  1  0.40325667  0.68905237  0.00000000  1
  P  P7  1  0.90325667  0.31094763  0.50000000  1
  S  S8  1  0.30328406  0.83453622  0.22062519  1
  S  S9  1  0.80328406  0.16546378  0.27937481  1
  S  S10  1  0.78223337  0.58802204  0.50000000  1
  S  S11  1  0.28223337  0.41197796  0.00000000  1
  S  S12  1  0.80328406  0.16546378  0.72062519  1
  S  S13  1  0.30328406  0.83453622  0.77937481  1
  S  S14  1  0.71401524  0.69168360  0.00000000  1
  S  S15  1  0.21401524  0.30831640  0.50000000  1
