# generated using pymatgen
data_CaFe8(OF)8
_symmetry_space_group_name_H-M   'P 1'
_cell_length_a   5.11209016
_cell_length_b   5.35636774
_cell_length_c   11.92346614
_cell_angle_alpha   88.07793526
_cell_angle_beta   92.09775817
_cell_angle_gamma   91.67034473
_symmetry_Int_Tables_number   1
_chemical_formula_structural   CaFe8(OF)8
_chemical_formula_sum   'Ca1 Fe8 O8 F8'
_cell_volume   325.96132774
_cell_formula_units_Z   1
loop_
 _symmetry_equiv_pos_site_id
 _symmetry_equiv_pos_as_xyz
  1  'x, y, z'
loop_
 _atom_site_type_symbol
 _atom_site_label
 _atom_site_symmetry_multiplicity
 _atom_site_fract_x
 _atom_site_fract_y
 _atom_site_fract_z
 _atom_site_occupancy
  Ca  Ca0  1  0.55348400  0.02285800  0.98699700  1
  Fe  Fe1  1  0.04623100  0.65341200  0.98469500  1
  Fe  Fe2  1  0.04455800  0.07617600  0.24872900  1
  Fe  Fe3  1  0.94338200  0.92928600  0.49719900  1
  Fe  Fe4  1  0.08449800  0.04367600  0.74378100  1
  Fe  Fe5  1  0.55508000  0.44942300  0.14659900  1
  Fe  Fe6  1  0.43865900  0.57174800  0.62065500  1
  Fe  Fe7  1  0.49276500  0.52054800  0.85878900  1
  Fe  Fe8  1  0.41205200  0.58613300  0.37422200  1
  O  O9  1  0.16329800  0.84484600  0.36927500  1
  O  O10  1  0.18837600  0.83384100  0.62000000  1
  O  O11  1  0.23762100  0.83705600  0.86898300  1
  O  O12  1  0.29716800  0.35461500  0.25578300  1
  O  O13  1  0.31795700  0.33267700  0.73766200  1
  O  O14  1  0.67356300  0.62364000  0.00683400  1
  O  O15  1  0.65622300  0.68701500  0.49514200  1
  O  O16  1  0.77746300  0.18040600  0.14081100  1
  F  F17  1  0.21489100  0.85484200  0.12477900  1
  F  F18  1  0.27117300  0.33687400  0.01973200  1
  F  F19  1  0.27139200  0.36716100  0.49687800  1
  F  F20  1  0.68196600  0.69054700  0.25667800  1
  F  F21  1  0.70530800  0.70201300  0.73441300  1
  F  F22  1  0.81783700  0.17373800  0.37655700  1
  F  F23  1  0.83092700  0.15558500  0.61712500  1
  F  F24  1  0.82412800  0.18577300  0.85518200  1
