# generated using pymatgen
data_CsMoAsH2O7
_symmetry_space_group_name_H-M   'P 1'
_cell_length_a   7.78747718
_cell_length_b   9.92379012
_cell_length_c   11.01175018
_cell_angle_alpha   64.37220966
_cell_angle_beta   70.21041483
_cell_angle_gamma   73.76221635
_symmetry_Int_Tables_number   1
_chemical_formula_structural   CsMoAsH2O7
_chemical_formula_sum   'Cs4 Mo4 As4 H8 O28'
_cell_volume   713.01685122
_cell_formula_units_Z   4
loop_
 _symmetry_equiv_pos_site_id
 _symmetry_equiv_pos_as_xyz
  1  'x, y, z'
loop_
 _atom_site_type_symbol
 _atom_site_label
 _atom_site_symmetry_multiplicity
 _atom_site_fract_x
 _atom_site_fract_y
 _atom_site_fract_z
 _atom_site_occupancy
  Cs  Cs0  1  0.67648273  0.69548192  0.33027790  1
  Cs  Cs1  1  0.32351727  0.30451808  0.66972210  1
  Cs  Cs2  1  0.80317396  0.31857570  0.05016255  1
  Cs  Cs3  1  0.19682604  0.68142430  0.94983745  1
  Mo  Mo4  1  0.12605512  0.75755587  0.36720688  1
  Mo  Mo5  1  0.87394488  0.24244413  0.63279312  1
  Mo  Mo6  1  0.86798010  0.68746445  0.69280151  1
  Mo  Mo7  1  0.13201990  0.31253555  0.30719849  1
  As  As8  1  0.20372385  0.95814834  0.55750810  1
  As  As9  1  0.79627615  0.04185166  0.44249190  1
  As  As10  1  0.69311256  0.92306759  0.86584078  1
  As  As11  1  0.30688744  0.07693241  0.13415922  1
  H  H12  1  0.49180949  0.87145467  0.61133897  1
  H  H13  1  0.50819051  0.12854533  0.38866103  1
  H  H14  1  0.67919689  0.00106976  0.03195688  1
  H  H15  1  0.32080311  0.99893024  0.96804312  1
  H  H16  1  0.47210666  0.53726580  0.18097961  1
  H  H17  1  0.52789334  0.46273420  0.81902039  1
  H  H18  1  0.51790821  0.69361945  0.06687954  1
  H  H19  1  0.48209179  0.30638055  0.93312046  1
  O  O20  1  0.08965064  0.84561338  0.54187705  1
  O  O21  1  0.91034936  0.15438662  0.45812295  1
  O  O22  1  0.29942930  0.08978333  0.40426488  1
  O  O23  1  0.70057070  0.91021667  0.59573512  1
  O  O24  1  0.07927414  0.03505728  0.67691507  1
  O  O25  1  0.92072586  0.96494272  0.32308493  1
  O  O26  1  0.38594657  0.82787641  0.61909451  1
  O  O27  1  0.61405343  0.17212359  0.38090549  1
  O  O28  1  0.69178219  0.09944841  0.73910666  1
  O  O29  1  0.30821781  0.90055159  0.26089334  1
  O  O30  1  0.85678765  0.78916224  0.81814656  1
  O  O31  1  0.14321235  0.21083776  0.18185344  1
  O  O32  1  0.48048878  0.87936717  0.92456223  1
  O  O33  1  0.51951122  0.12063283  0.07543777  1
  O  O34  1  0.77095844  0.92336998  0.99528684  1
  O  O35  1  0.22904156  0.07663002  0.00471316  1
  O  O36  1  0.03558670  0.55015554  0.76114382  1
  O  O37  1  0.96441330  0.44984446  0.23885618  1
  O  O38  1  0.67085129  0.60916044  0.77738690  1
  O  O39  1  0.32914871  0.39083956  0.22261310  1
  O  O40  1  0.09882873  0.72406402  0.23648926  1
  O  O41  1  0.90117127  0.27593598  0.76351074  1
  O  O42  1  0.29363438  0.61514429  0.42983678  1
  O  O43  1  0.70636562  0.38485571  0.57016322  1
  O  O44  1  0.92064249  0.67692288  0.51619091  1
  O  O45  1  0.07935751  0.32307712  0.48380909  1
  O  O46  1  0.57036103  0.59867357  0.13056892  1
  O  O47  1  0.42963897  0.40132643  0.86943108  1
