# generated using pymatgen
data_Sc2SiO5
_symmetry_space_group_name_H-M   'P 1'
_cell_length_a   6.43544577
_cell_length_b   7.57688977
_cell_length_c   9.26625867
_cell_angle_alpha   71.72247669
_cell_angle_beta   69.67830123
_cell_angle_gamma   64.86701452
_symmetry_Int_Tables_number   1
_chemical_formula_structural   Sc2SiO5
_chemical_formula_sum   'Sc8 Si4 O20'
_cell_volume   376.17649446
_cell_formula_units_Z   4
loop_
 _symmetry_equiv_pos_site_id
 _symmetry_equiv_pos_as_xyz
  1  'x, y, z'
loop_
 _atom_site_type_symbol
 _atom_site_label
 _atom_site_symmetry_multiplicity
 _atom_site_fract_x
 _atom_site_fract_y
 _atom_site_fract_z
 _atom_site_occupancy
  Sc  Sc0  1  0.70081702  0.60355024  0.48449189  1
  Sc  Sc1  1  0.29918123  0.39644991  0.51550793  1
  Sc  Sc2  1  0.78895577  0.89642429  0.01547208  1
  Sc  Sc3  1  0.21104673  0.10357520  0.98452776  1
  Sc  Sc4  1  0.52274038  0.56225244  0.15627823  1
  Sc  Sc5  1  0.47726529  0.43774703  0.84372264  1
  Sc  Sc6  1  0.24128866  0.93782485  0.34373169  1
  Sc  Sc7  1  0.75870412  0.06218115  0.65627519  1
  Si  Si8  1  0.72114648  0.05486703  0.30851784  1
  Si  Si9  1  0.27885319  0.94513299  0.69148146  1
  Si  Si10  1  0.08450374  0.44519201  0.19148669  1
  Si  Si11  1  0.91549732  0.55480910  0.80851307  1
  O  O12  1  0.57683010  0.90518882  0.35109178  1
  O  O13  1  0.42316807  0.09481096  0.64890929  1
  O  O14  1  0.83302437  0.59484328  0.14893830  1
  O  O15  1  0.16697843  0.40515780  0.85106123  1
  O  O16  1  0.41826384  0.86457618  0.10628102  1
  O  O17  1  0.58173766  0.13542246  0.89371720  1
  O  O18  1  0.38913439  0.63549655  0.39376104  1
  O  O19  1  0.61086620  0.36450126  0.60623982  1
  O  O20  1  0.54598591  0.28364211  0.31348317  1
  O  O21  1  0.45401342  0.71635927  0.68651763  1
  O  O22  1  0.14302049  0.21643491  0.18652327  1
  O  O23  1  0.85697847  0.78356765  0.81347509  1
  O  O24  1  0.28546318  0.52894009  0.06542295  1
  O  O25  1  0.71453767  0.47105858  0.93457560  1
  O  O26  1  0.87981996  0.97106223  0.43457004  1
  O  O27  1  0.12018258  0.02893622  0.56542813  1
  O  O28  1  0.89158250  0.03110233  0.13380832  1
  O  O29  1  0.10841824  0.96889833  0.86618994  1
  O  O30  1  0.05654034  0.46898577  0.36616474  1
  O  O31  1  0.94345422  0.53101193  0.63383696  1
