# generated using pymatgen
data_Tl3SiF7
_symmetry_space_group_name_H-M   'P 1'
_cell_length_a   7.80299710
_cell_length_b   7.80299710
_cell_length_c   6.86498778
_cell_angle_alpha   90.00000000
_cell_angle_beta   90.00000000
_cell_angle_gamma   120.18333638
_symmetry_Int_Tables_number   1
_chemical_formula_structural   Tl3SiF7
_chemical_formula_sum   'Tl6 Si2 F14'
_cell_volume   361.31667063
_cell_formula_units_Z   2
loop_
 _symmetry_equiv_pos_site_id
 _symmetry_equiv_pos_as_xyz
  1  'x, y, z'
loop_
 _atom_site_type_symbol
 _atom_site_label
 _atom_site_symmetry_multiplicity
 _atom_site_fract_x
 _atom_site_fract_y
 _atom_site_fract_z
 _atom_site_occupancy
  Tl  Tl0  1  0.16241984  0.83758016  0.77035266  1
  Tl  Tl1  1  0.67425299  0.83897870  0.76995396  1
  Tl  Tl2  1  0.83897870  0.67425299  0.26995396  1
  Tl  Tl3  1  0.16102130  0.32574701  0.76995396  1
  Tl  Tl4  1  0.32574701  0.16102130  0.26995396  1
  Tl  Tl5  1  0.83758016  0.16241984  0.27035266  1
  Si  Si6  1  0.33476407  0.66523593  0.23626714  1
  Si  Si7  1  0.66523593  0.33476407  0.73626714  1
  F  F8  1  0.00233000  0.99767000  0.52572346  1
  F  F9  1  0.12718147  0.56300574  0.09512652  1
  F  F10  1  0.54281066  0.76745675  0.37621731  1
  F  F11  1  0.99767000  0.00233000  0.02572346  1
  F  F12  1  0.23254325  0.45718934  0.37621731  1
  F  F13  1  0.43643238  0.56356762  0.09015708  1
  F  F14  1  0.76745675  0.54281066  0.87621731  1
  F  F15  1  0.87281853  0.43699426  0.59512652  1
  F  F16  1  0.45718934  0.23254325  0.87621731  1
  F  F17  1  0.56356762  0.43643238  0.59015708  1
  F  F18  1  0.76693274  0.23306726  0.88158010  1
  F  F19  1  0.56300574  0.12718147  0.59512652  1
  F  F20  1  0.43699426  0.87281853  0.09512652  1
  F  F21  1  0.23306726  0.76693274  0.38158010  1
