# generated using pymatgen
data_MgCr4Hg4(H2O9)2
_symmetry_space_group_name_H-M   'P 1'
_cell_length_a   6.45830115
_cell_length_b   6.49924957
_cell_length_c   15.41182966
_cell_angle_alpha   68.97693758
_cell_angle_beta   115.17800911
_cell_angle_gamma   127.38617344
_symmetry_Int_Tables_number   1
_chemical_formula_structural   MgCr4Hg4(H2O9)2
_chemical_formula_sum   'Mg1 Cr4 Hg4 H4 O18'
_cell_volume   460.60588951
_cell_formula_units_Z   1
loop_
 _symmetry_equiv_pos_site_id
 _symmetry_equiv_pos_as_xyz
  1  'x, y, z'
loop_
 _atom_site_type_symbol
 _atom_site_label
 _atom_site_symmetry_multiplicity
 _atom_site_fract_x
 _atom_site_fract_y
 _atom_site_fract_z
 _atom_site_occupancy
  Mg  Mg0  1  0.00000000  0.50000000  0.50000000  1
  Cr  Cr1  1  0.71918300  0.27399300  0.62028500  1
  Cr  Cr2  1  0.34591700  0.72653800  0.90800900  1
  Cr  Cr3  1  0.28081700  0.72600700  0.37971500  1
  Cr  Cr4  1  0.65408300  0.27346200  0.09199100  1
  Hg  Hg5  1  0.95326000  0.89807200  0.62578500  1
  Hg  Hg6  1  0.94082200  0.91109800  0.88684900  1
  Hg  Hg7  1  0.04674000  0.10192800  0.37421500  1
  Hg  Hg8  1  0.05917800  0.08890200  0.11315100  1
  H  H9  1  0.57326200  0.41951000  0.76796200  1
  H  H10  1  0.40211200  0.54309900  0.72968500  1
  H  H11  1  0.42673800  0.58049000  0.23203800  1
  H  H12  1  0.59788800  0.45690100  0.27031500  1
  O  O13  1  0.98560000  0.23100400  0.62733600  1
  O  O14  1  0.20324900  0.91367300  0.84288700  1
  O  O15  1  0.01440000  0.76899600  0.37266400  1
  O  O16  1  0.79675100  0.08632700  0.15711300  1
  O  O17  1  0.57724100  0.14924300  0.70720300  1
  O  O18  1  0.22614300  0.50512000  0.84513000  1
  O  O19  1  0.42275900  0.85075700  0.29279700  1
  O  O20  1  0.77385700  0.49488000  0.15487000  1
  O  O21  1  0.99202400  0.62325700  0.61077400  1
  O  O22  1  0.69751200  0.93072500  0.93332000  1
  O  O23  1  0.00797600  0.37674300  0.38922600  1
  O  O24  1  0.30248800  0.06927500  0.06668000  1
  O  O25  1  0.54541200  0.25317400  0.50383900  1
  O  O26  1  0.27355800  0.58510700  0.01029600  1
  O  O27  1  0.45458800  0.74682600  0.49616100  1
  O  O28  1  0.72644200  0.41489300  0.98970400  1
  O  O29  1  0.58826200  0.58836800  0.74596000  1
  O  O30  1  0.41173800  0.41163200  0.25404000  1
