# generated using pymatgen
data_Rb(Nb2Cl5)3
_symmetry_space_group_name_H-M   'P 1'
_cell_length_a   9.53976658
_cell_length_b   13.61891051
_cell_length_c   18.17021306
_cell_angle_alpha   90.00000000
_cell_angle_beta   90.00000000
_cell_angle_gamma   90.00000000
_symmetry_Int_Tables_number   1
_chemical_formula_structural   Rb(Nb2Cl5)3
_chemical_formula_sum   'Rb4 Nb24 Cl60'
_cell_volume   2360.69638177
_cell_formula_units_Z   4
loop_
 _symmetry_equiv_pos_site_id
 _symmetry_equiv_pos_as_xyz
  1  'x, y, z'
loop_
 _atom_site_type_symbol
 _atom_site_label
 _atom_site_symmetry_multiplicity
 _atom_site_fract_x
 _atom_site_fract_y
 _atom_site_fract_z
 _atom_site_occupancy
  Rb  Rb0  1  0.81494542  0.25340631  0.75000000  1
  Rb  Rb1  1  0.18505458  0.74659369  0.25000000  1
  Rb  Rb2  1  0.81494542  0.74659369  0.75000000  1
  Rb  Rb3  1  0.18505458  0.25340631  0.25000000  1
  Nb  Nb4  1  0.07952368  0.50000000  0.10495263  1
  Nb  Nb5  1  0.92047632  0.50000000  0.89504737  1
  Nb  Nb6  1  0.07952368  0.50000000  0.39504737  1
  Nb  Nb7  1  0.92047632  0.50000000  0.60495263  1
  Nb  Nb8  1  0.14374537  0.39184273  0.52958031  1
  Nb  Nb9  1  0.85625463  0.60815727  0.47041969  1
  Nb  Nb10  1  0.14374537  0.60815727  0.97041969  1
  Nb  Nb11  1  0.85625463  0.39184273  0.47041969  1
  Nb  Nb12  1  0.85625463  0.39184273  0.02958031  1
  Nb  Nb13  1  0.14374537  0.60815727  0.52958031  1
  Nb  Nb14  1  0.85625463  0.60815727  0.02958031  1
  Nb  Nb15  1  0.14374537  0.39184273  0.97041969  1
  Nb  Nb16  1  0.32347689  0.10849414  0.66871982  1
  Nb  Nb17  1  0.67652311  0.89150586  0.33128018  1
  Nb  Nb18  1  0.32347689  0.89150586  0.83128018  1
  Nb  Nb19  1  0.67652311  0.10849414  0.33128018  1
  Nb  Nb20  1  0.67652311  0.10849414  0.16871982  1
  Nb  Nb21  1  0.32347689  0.89150586  0.66871982  1
  Nb  Nb22  1  0.67652311  0.89150586  0.16871982  1
  Nb  Nb23  1  0.32347689  0.10849414  0.83128018  1
  Nb  Nb24  1  0.53803351  0.00000000  0.75000000  1
  Nb  Nb25  1  0.46196649  0.00000000  0.25000000  1
  Nb  Nb26  1  0.11034061  0.00000000  0.75000000  1
  Nb  Nb27  1  0.88965939  0.00000000  0.25000000  1
  Cl  Cl28  1  0.32554686  0.25004981  0.56631887  1
  Cl  Cl29  1  0.67445314  0.74995019  0.43368113  1
  Cl  Cl30  1  0.32554686  0.74995019  0.93368113  1
  Cl  Cl31  1  0.67445314  0.25004981  0.43368113  1
  Cl  Cl32  1  0.67445314  0.25004981  0.06631887  1
  Cl  Cl33  1  0.32554686  0.74995019  0.56631887  1
  Cl  Cl34  1  0.67445314  0.74995019  0.06631887  1
  Cl  Cl35  1  0.32554686  0.25004981  0.93368113  1
  Cl  Cl36  1  0.07582642  0.37593358  0.65959320  1
  Cl  Cl37  1  0.92417358  0.62406642  0.34040680  1
  Cl  Cl38  1  0.07582642  0.62406642  0.84040680  1
  Cl  Cl39  1  0.92417358  0.37593358  0.34040680  1
  Cl  Cl40  1  0.92417358  0.37593358  0.15959320  1
  Cl  Cl41  1  0.07582642  0.62406642  0.65959320  1
  Cl  Cl42  1  0.92417358  0.62406642  0.15959320  1
  Cl  Cl43  1  0.07582642  0.37593358  0.84040680  1
  Cl  Cl44  1  0.58041868  0.12513660  0.65281392  1
  Cl  Cl45  1  0.41958132  0.87486340  0.34718608  1
  Cl  Cl46  1  0.58041868  0.87486340  0.84718608  1
  Cl  Cl47  1  0.41958132  0.12513660  0.34718608  1
  Cl  Cl48  1  0.41958132  0.12513660  0.15281392  1
  Cl  Cl49  1  0.58041868  0.87486340  0.65281392  1
  Cl  Cl50  1  0.41958132  0.87486340  0.15281392  1
  Cl  Cl51  1  0.58041868  0.12513660  0.84718608  1
  Cl  Cl52  1  0.33718199  0.50000000  0.56938820  1
  Cl  Cl53  1  0.66281801  0.50000000  0.43061180  1
  Cl  Cl54  1  0.33718199  0.50000000  0.93061180  1
  Cl  Cl55  1  0.66281801  0.50000000  0.06938820  1
  Cl  Cl56  1  0.33247309  0.25323677  0.75000000  1
  Cl  Cl57  1  0.66752691  0.74676323  0.25000000  1
  Cl  Cl58  1  0.33247309  0.74676323  0.75000000  1
  Cl  Cl59  1  0.66752691  0.25323677  0.25000000  1
  Cl  Cl60  1  0.32281740  0.00000000  0.55987153  1
  Cl  Cl61  1  0.67718260  0.00000000  0.44012847  1
  Cl  Cl62  1  0.32281740  0.00000000  0.94012847  1
  Cl  Cl63  1  0.67718260  0.00000000  0.05987153  1
  Cl  Cl64  1  0.81713842  0.50000000  0.75000000  1
  Cl  Cl65  1  0.18286158  0.50000000  0.25000000  1
  Cl  Cl66  1  0.82272871  0.00000000  0.75000000  1
  Cl  Cl67  1  0.17727129  0.00000000  0.25000000  1
  Cl  Cl68  1  0.26540358  0.37361144  0.09099477  1
  Cl  Cl69  1  0.73459642  0.62638856  0.90900523  1
  Cl  Cl70  1  0.26540358  0.62638856  0.40900523  1
  Cl  Cl71  1  0.73459642  0.37361144  0.90900523  1
  Cl  Cl72  1  0.73459642  0.37361144  0.59099477  1
  Cl  Cl73  1  0.26540358  0.62638856  0.09099477  1
  Cl  Cl74  1  0.73459642  0.62638856  0.59099477  1
  Cl  Cl75  1  0.26540358  0.37361144  0.40900523  1
  Cl  Cl76  1  0.06663222  0.12453301  0.65444154  1
  Cl  Cl77  1  0.93336778  0.87546699  0.34555846  1
  Cl  Cl78  1  0.06663222  0.87546699  0.84555846  1
  Cl  Cl79  1  0.93336778  0.12453301  0.34555846  1
  Cl  Cl80  1  0.93336778  0.12453301  0.15444154  1
  Cl  Cl81  1  0.06663222  0.87546699  0.65444154  1
  Cl  Cl82  1  0.93336778  0.87546699  0.15444154  1
  Cl  Cl83  1  0.06663222  0.12453301  0.84555846  1
  Cl  Cl84  1  0.00000000  0.24733208  0.50000000  1
  Cl  Cl85  1  0.00000000  0.75266792  0.50000000  1
  Cl  Cl86  1  0.00000000  0.75266792  -0.00000000  1
  Cl  Cl87  1  0.00000000  0.24733208  -0.00000000  1
