# generated using pymatgen
data_TbCuTe2
_symmetry_space_group_name_H-M   'P 1'
_cell_length_a   4.35428829
_cell_length_b   4.35327670
_cell_length_c   6.88184850
_cell_angle_alpha   89.99629704
_cell_angle_beta   90.00762355
_cell_angle_gamma   119.99442870
_symmetry_Int_Tables_number   1
_chemical_formula_structural   TbCuTe2
_chemical_formula_sum   'Tb1 Cu1 Te2'
_cell_volume   112.97791767
_cell_formula_units_Z   1
loop_
 _symmetry_equiv_pos_site_id
 _symmetry_equiv_pos_as_xyz
  1  'x, y, z'
loop_
 _atom_site_type_symbol
 _atom_site_label
 _atom_site_symmetry_multiplicity
 _atom_site_fract_x
 _atom_site_fract_y
 _atom_site_fract_z
 _atom_site_occupancy
  Tb  Tb0  1  0.00007127  0.00002593  0.98908842  1
  Cu  Cu1  1  0.33341267  0.66670269  0.36092372  1
  Te  Te2  1  0.33338234  0.66668049  0.74181725  1
  Te  Te3  1  0.66653372  0.33329190  0.26616961  1
