# generated using pymatgen
data_VF4
_symmetry_space_group_name_H-M   'P 1'
_cell_length_a   6.53600592
_cell_length_b   6.53600592
_cell_length_c   5.57211466
_cell_angle_alpha   65.33877668
_cell_angle_beta   65.33877668
_cell_angle_gamma   50.41885461
_symmetry_Int_Tables_number   1
_chemical_formula_structural   VF4
_chemical_formula_sum   'V2 F8'
_cell_volume   162.78634490
_cell_formula_units_Z   2
loop_
 _symmetry_equiv_pos_site_id
 _symmetry_equiv_pos_as_xyz
  1  'x, y, z'
loop_
 _atom_site_type_symbol
 _atom_site_label
 _atom_site_symmetry_multiplicity
 _atom_site_fract_x
 _atom_site_fract_y
 _atom_site_fract_z
 _atom_site_occupancy
  V  V0  1  0.99660400  0.50906400  0.49513700  1
  V  V1  1  0.50906400  0.99660400  0.99513700  1
  F  F2  1  0.71938300  0.55637400  0.78833200  1
  F  F3  1  0.94894200  0.79447800  0.54340000  1
  F  F4  1  0.28412900  0.45498900  0.21830600  1
  F  F5  1  0.45498900  0.28412900  0.71830600  1
  F  F6  1  0.04272500  0.22300400  0.45584000  1
  F  F7  1  0.22300400  0.04272500  0.95584000  1
  F  F8  1  0.55637400  0.71938300  0.28833200  1
  F  F9  1  0.79447800  0.94894200  0.04340000  1
