# generated using pymatgen
data_Sr2SeS
_symmetry_space_group_name_H-M   'P 1'
_cell_length_a   7.55322046
_cell_length_b   7.55322046
_cell_length_c   7.55322090
_cell_angle_alpha   33.52127606
_cell_angle_beta   33.52127606
_cell_angle_gamma   33.52128391
_symmetry_Int_Tables_number   1
_chemical_formula_structural   Sr2SeS
_chemical_formula_sum   'Sr2 Se1 S1'
_cell_volume   117.05228069
_cell_formula_units_Z   1
loop_
 _symmetry_equiv_pos_site_id
 _symmetry_equiv_pos_as_xyz
  1  'x, y, z'
loop_
 _atom_site_type_symbol
 _atom_site_label
 _atom_site_symmetry_multiplicity
 _atom_site_fract_x
 _atom_site_fract_y
 _atom_site_fract_z
 _atom_site_occupancy
  Sr  Sr0  1  0.24718407  0.24718407  0.24718407  1
  Sr  Sr1  1  0.75281593  0.75281593  0.75281593  1
  Se  Se2  1  0.00000000  0.00000000  -0.00000000  1
  S  S3  1  0.50000000  0.50000000  0.50000000  1
