# generated using pymatgen
data_Cs3Tb7Te12
_symmetry_space_group_name_H-M   'P 1'
_cell_length_a   4.46274458
_cell_length_b   13.65049737
_cell_length_c   28.49220559
_cell_angle_alpha   90.00000000
_cell_angle_beta   90.00000000
_cell_angle_gamma   90.00000000
_symmetry_Int_Tables_number   1
_chemical_formula_structural   Cs3Tb7Te12
_chemical_formula_sum   'Cs6 Tb14 Te24'
_cell_volume   1735.70764465
_cell_formula_units_Z   2
loop_
 _symmetry_equiv_pos_site_id
 _symmetry_equiv_pos_as_xyz
  1  'x, y, z'
loop_
 _atom_site_type_symbol
 _atom_site_label
 _atom_site_symmetry_multiplicity
 _atom_site_fract_x
 _atom_site_fract_y
 _atom_site_fract_z
 _atom_site_occupancy
  Cs  Cs0  1  0.50000000  0.02350957  0.37441460  1
  Cs  Cs1  1  0.50000000  0.47089123  0.63160656  1
  Cs  Cs2  1  0.00000000  0.52910877  0.13160656  1
  Cs  Cs3  1  -0.00000000  0.97649043  0.87441460  1
  Cs  Cs4  1  0.50000000  0.30155220  0.02411606  1
  Cs  Cs5  1  0.00000000  0.69844780  0.52411606  1
  Tb  Tb6  1  0.50000000  0.66506296  0.31599951  1
  Tb  Tb7  1  0.50000000  0.83832778  0.68432667  1
  Tb  Tb8  1  0.00000000  0.16167222  0.18432667  1
  Tb  Tb9  1  -0.00000000  0.33493704  0.81599951  1
  Tb  Tb10  1  0.50000000  0.25415032  0.50058419  1
  Tb  Tb11  1  -0.00000000  0.74584968  0.00058419  1
  Tb  Tb12  1  0.50000000  0.53452112  0.91319891  1
  Tb  Tb13  1  0.50000000  0.96021425  0.08529460  1
  Tb  Tb14  1  -0.00000000  0.03978575  0.58529460  1
  Tb  Tb15  1  0.00000000  0.46547888  0.41319891  1
  Tb  Tb16  1  0.50000000  0.33116429  0.28864860  1
  Tb  Tb17  1  0.50000000  0.16799643  0.71175052  1
  Tb  Tb18  1  0.00000000  0.83200357  0.21175052  1
  Tb  Tb19  1  0.00000000  0.66883571  0.78864860  1
  Te  Te20  1  0.50000000  0.62185710  0.42108227  1
  Te  Te21  1  0.50000000  0.88503256  0.57914744  1
  Te  Te22  1  -0.00000000  0.11496744  0.07914744  1
  Te  Te23  1  0.00000000  0.37814290  0.92108227  1
  Te  Te24  1  0.50000000  0.50378587  0.80179348  1
  Te  Te25  1  0.50000000  0.99566185  0.19756893  1
  Te  Te26  1  -0.00000000  0.00433815  0.69756893  1
  Te  Te27  1  0.00000000  0.49621413  0.30179348  1
  Te  Te28  1  0.50000000  0.31623248  0.17924841  1
  Te  Te29  1  0.50000000  0.18217631  0.81952268  1
  Te  Te30  1  -0.00000000  0.81782369  0.31952268  1
  Te  Te31  1  0.00000000  0.68376752  0.67924841  1
  Te  Te32  1  0.50000000  0.31168588  0.39646333  1
  Te  Te33  1  0.50000000  0.19210623  0.60405512  1
  Te  Te34  1  -0.00000000  0.80789377  0.10405512  1
  Te  Te35  1  -0.00000000  0.68831412  0.89646333  1
  Te  Te36  1  0.50000000  0.58869255  0.01792873  1
  Te  Te37  1  0.50000000  0.89933049  0.98291309  1
  Te  Te38  1  0.00000000  0.10066951  0.48291309  1
  Te  Te39  1  -0.00000000  0.41130745  0.51792873  1
  Te  Te40  1  0.50000000  0.68113175  0.20983039  1
  Te  Te41  1  0.50000000  0.81974851  0.79070589  1
  Te  Te42  1  0.00000000  0.18025149  0.29070589  1
  Te  Te43  1  -0.00000000  0.31886825  0.70983039  1
