# generated using pymatgen
data_Sr5V3O13
_symmetry_space_group_name_H-M   'P 1'
_cell_length_a   10.08508809
_cell_length_b   10.08512924
_cell_length_c   7.44003613
_cell_angle_alpha   89.99999855
_cell_angle_beta   90.00002372
_cell_angle_gamma   120.00012584
_symmetry_Int_Tables_number   1
_chemical_formula_structural   Sr5V3O13
_chemical_formula_sum   'Sr10 V6 O26'
_cell_volume   655.33941540
_cell_formula_units_Z   2
loop_
 _symmetry_equiv_pos_site_id
 _symmetry_equiv_pos_as_xyz
  1  'x, y, z'
loop_
 _atom_site_type_symbol
 _atom_site_label
 _atom_site_symmetry_multiplicity
 _atom_site_fract_x
 _atom_site_fract_y
 _atom_site_fract_z
 _atom_site_occupancy
  Sr  Sr0  1  0.33333399  0.66666733  0.49521705  1
  Sr  Sr1  1  0.66666560  0.33333217  0.99521737  1
  Sr  Sr2  1  0.66666607  0.33333218  0.49803795  1
  Sr  Sr3  1  0.33333359  0.66666733  0.99803877  1
  Sr  Sr4  1  0.99009360  0.24604195  0.74596762  1
  Sr  Sr5  1  0.75395939  0.74405184  0.74596774  1
  Sr  Sr6  1  0.25594889  0.00990788  0.74596793  1
  Sr  Sr7  1  0.00990783  0.75395853  0.24596761  1
  Sr  Sr8  1  0.24604032  0.25594914  0.24596711  1
  Sr  Sr9  1  0.74405222  0.99009072  0.24596671  1
  V  V10  1  0.36625710  0.39950114  0.74584024  1
  V  V11  1  0.60049834  0.96675899  0.74583593  1
  V  V12  1  0.03323935  0.63374101  0.74583833  1
  V  V13  1  0.63374658  0.60049989  0.24583907  1
  V  V14  1  0.39950248  0.03324341  0.24583624  1
  V  V15  1  0.96675535  0.36625712  0.24583761  1
  O  O16  1  0.48357924  0.32043009  0.74509972  1
  O  O17  1  0.67956388  0.16313376  0.74509930  1
  O  O18  1  0.83685769  0.51642552  0.74510050  1
  O  O19  1  0.51641994  0.67957097  0.24510007  1
  O  O20  1  0.32043524  0.83686556  0.24510003  1
  O  O21  1  0.16313972  0.48357367  0.24510004  1
  O  O22  1  0.24960869  0.34581251  0.56132634  1
  O  O23  1  0.65418024  0.90379793  0.56133049  1
  O  O24  1  0.09619944  0.75038701  0.56133338  1
  O  O25  1  0.75039093  0.65418767  0.06132653  1
  O  O26  1  0.34582036  0.09620121  0.06133020  1
  O  O27  1  0.90380139  0.24961250  0.06133353  1
  O  O28  1  0.75258415  0.65931478  0.42862360  1
  O  O29  1  0.34068980  0.09326530  0.42861019  1
  O  O30  1  0.90673584  0.24742066  0.42861593  1
  O  O31  1  0.24741517  0.34068525  0.92862357  1
  O  O32  1  0.65931087  0.90673453  0.92860973  1
  O  O33  1  0.09326416  0.75257901  0.92861624  1
  O  O34  1  0.46765753  0.59706907  0.74832243  1
  O  O35  1  0.40294310  0.87059398  0.74832579  1
  O  O36  1  0.12940641  0.53234763  0.74832598  1
  O  O37  1  0.53234302  0.40293185  0.24832284  1
  O  O38  1  0.59705663  0.12940506  0.24832628  1
  O  O39  1  0.87059488  0.46765396  0.24832610  1
  O  O40  1  -0.00000007  0.00000028  0.73930863  1
  O  O41  1  0.00000107  -0.00000039  0.23930926  1
