# generated using pymatgen
data_Rb4MgH12(SeO3)8
_symmetry_space_group_name_H-M   'P 1'
_cell_length_a   6.26116916
_cell_length_b   6.29443436
_cell_length_c   22.01845069
_cell_angle_alpha   90.16814255
_cell_angle_beta   90.95115236
_cell_angle_gamma   90.18343337
_symmetry_Int_Tables_number   1
_chemical_formula_structural   Rb4MgH12(SeO3)8
_chemical_formula_sum   'Rb4 Mg1 H12 Se8 O24'
_cell_volume   867.63066654
_cell_formula_units_Z   1
loop_
 _symmetry_equiv_pos_site_id
 _symmetry_equiv_pos_as_xyz
  1  'x, y, z'
loop_
 _atom_site_type_symbol
 _atom_site_label
 _atom_site_symmetry_multiplicity
 _atom_site_fract_x
 _atom_site_fract_y
 _atom_site_fract_z
 _atom_site_occupancy
  Rb  Rb0  1  0.27982548  0.25280413  0.38226023  1
  Rb  Rb1  1  0.20726403  0.25124106  0.61834697  1
  Rb  Rb2  1  0.77030469  0.77110092  0.12059849  1
  Rb  Rb3  1  0.71891585  0.77231914  0.87959989  1
  Mg  Mg4  1  0.23189300  0.64377813  0.99775560  1
  H  H5  1  0.22014315  0.99655643  0.05025248  1
  H  H6  1  0.24750074  0.99784046  0.94813751  1
  H  H7  1  0.79799494  0.94832650  0.44873987  1
  H  H8  1  0.69797969  0.95123370  0.55245555  1
  H  H9  1  0.97888501  0.46738655  0.26156708  1
  H  H10  1  0.51204224  0.46682072  0.73825484  1
  H  H11  1  0.47946328  0.55314916  0.23987802  1
  H  H12  1  0.01269872  0.55031792  0.76017229  1
  H  H13  1  0.59742210  0.28471698  0.13608695  1
  H  H14  1  0.88610651  0.28748254  0.86230885  1
  H  H15  1  0.10156023  0.72926947  0.36483600  1
  H  H16  1  0.39104678  0.72992229  0.63519598  1
  Se  Se17  1  0.22634668  0.30912380  0.12047715  1
  Se  Se18  1  0.25911043  0.30963262  0.87772882  1
  Se  Se19  1  0.73021326  0.68910620  0.37682717  1
  Se  Se20  1  0.76223144  0.68992314  0.62361064  1
  Se  Se21  1  0.72823192  0.17835081  0.25603815  1
  Se  Se22  1  0.75872513  0.17515389  0.74359016  1
  Se  Se23  1  0.23191139  0.84139762  0.24551798  1
  Se  Se24  1  0.25981756  0.84011699  0.75456482  1
  O  O25  1  0.18435056  0.03896948  0.09477093  1
  O  O26  1  0.29411998  0.04045308  0.90441136  1
  O  O27  1  0.69167020  0.94970225  0.41553943  1
  O  O28  1  0.80400828  0.95115053  0.58568227  1
  O  O29  1  0.51561839  0.33530946  0.27134486  1
  O  O30  1  0.97679332  0.32771537  0.73003323  1
  O  O31  1  0.01911156  0.68133208  0.22944230  1
  O  O32  1  0.47070777  0.67923665  0.77074827  1
  O  O33  1  0.49948609  0.34560192  0.10102107  1
  O  O34  1  0.98599646  0.35166981  0.89671303  1
  O  O35  1  0.00698412  0.66632073  0.39885706  1
  O  O36  1  0.48586324  0.66789129  0.60111040  1
  O  O37  1  0.76143198  0.19580671  0.17920682  1
  O  O38  1  0.72159595  0.19258036  0.82029711  1
  O  O39  1  0.27041813  0.82447676  0.32244795  1
  O  O40  1  0.22233711  0.82330674  0.67760610  1
  O  O41  1  0.11627081  0.46498056  0.06590033  1
  O  O42  1  0.36942260  0.46739481  0.93226150  1
  O  O43  1  0.62036582  0.51655875  0.42240284  1
  O  O44  1  0.87193635  0.51798165  0.57773501  1
  O  O45  1  0.95389232  0.32812345  0.28556660  1
  O  O46  1  0.53839525  0.32910763  0.71345540  1
  O  O47  1  0.45694697  0.69451709  0.21680053  1
  O  O48  1  0.03297550  0.69357466  0.78258510  1
