# generated using pymatgen
data_K3Er7S12
_symmetry_space_group_name_H-M   'P 1'
_cell_length_a   3.93759441
_cell_length_b   11.85030171
_cell_length_c   24.52391152
_cell_angle_alpha   90.00000000
_cell_angle_beta   90.00000000
_cell_angle_gamma   90.00000000
_symmetry_Int_Tables_number   1
_chemical_formula_structural   K3Er7S12
_chemical_formula_sum   'K6 Er14 S24'
_cell_volume   1144.32695510
_cell_formula_units_Z   2
loop_
 _symmetry_equiv_pos_site_id
 _symmetry_equiv_pos_as_xyz
  1  'x, y, z'
loop_
 _atom_site_type_symbol
 _atom_site_label
 _atom_site_symmetry_multiplicity
 _atom_site_fract_x
 _atom_site_fract_y
 _atom_site_fract_z
 _atom_site_occupancy
  K  K0  1  0.50000000  0.54874065  0.13127094  1
  K  K1  1  0.50000000  0.94326913  0.86104961  1
  K  K2  1  -0.00000000  0.05673087  0.36104961  1
  K  K3  1  -0.00000000  0.45125935  0.63127094  1
  K  K4  1  0.50000000  0.81032877  0.47199052  1
  K  K5  1  -0.00000000  0.18967123  0.97199052  1
  Er  Er6  1  0.50000000  0.31258574  0.81994651  1
  Er  Er7  1  0.50000000  0.19202702  0.17868322  1
  Er  Er8  1  -0.00000000  0.80797298  0.67868322  1
  Er  Er9  1  0.00000000  0.68741426  0.31994651  1
  Er  Er10  1  -0.00000000  0.24498975  0.49921294  1
  Er  Er11  1  0.50000000  0.75501025  0.99921294  1
  Er  Er12  1  0.50000000  0.47821244  0.42240865  1
  Er  Er13  1  0.50000000  0.02005560  0.58129361  1
  Er  Er14  1  0.00000000  0.97994440  0.08129361  1
  Er  Er15  1  0.00000000  0.52178756  0.92240865  1
  Er  Er16  1  0.50000000  0.64452858  0.78877934  1
  Er  Er17  1  0.50000000  0.85431731  0.21114040  1
  Er  Er18  1  -0.00000000  0.14568269  0.71114040  1
  Er  Er19  1  0.00000000  0.35547142  0.28877934  1
  S  S20  1  0.50000000  0.51888327  0.30811715  1
  S  S21  1  0.50000000  0.98040404  0.69346767  1
  S  S22  1  -0.00000000  0.01959596  0.19346767  1
  S  S23  1  0.00000000  0.48111673  0.80811715  1
  S  S24  1  0.50000000  0.65676427  0.67871807  1
  S  S25  1  0.50000000  0.84133840  0.32324089  1
  S  S26  1  0.00000000  0.15866160  0.82324089  1
  S  S27  1  -0.00000000  0.34323573  0.17871807  1
  S  S28  1  0.50000000  0.39486858  0.52212082  1
  S  S29  1  0.50000000  0.08919171  0.47728433  1
  S  S30  1  0.00000000  0.91080829  0.97728433  1
  S  S31  1  -0.00000000  0.60513142  0.02212082  1
  S  S32  1  0.50000000  0.36690981  0.92616382  1
  S  S33  1  0.50000000  0.13433147  0.07325749  1
  S  S34  1  0.00000000  0.86566853  0.57325749  1
  S  S35  1  -0.00000000  0.63309019  0.42616382  1
  S  S36  1  0.50000000  0.29467147  0.71226093  1
  S  S37  1  0.50000000  0.20644556  0.28704448  1
  S  S38  1  -0.00000000  0.79355444  0.78704448  1
  S  S39  1  -0.00000000  0.70532853  0.21226093  1
  S  S40  1  0.50000000  0.67101708  0.89812500  1
  S  S41  1  0.50000000  0.82955506  0.10232062  1
  S  S42  1  -0.00000000  0.17044494  0.60232062  1
  S  S43  1  -0.00000000  0.32898292  0.39812500  1
