# generated using pymatgen
data_Li7V3P8O29
_symmetry_space_group_name_H-M   'P 1'
_cell_length_a   9.87130816
_cell_length_b   9.84361787
_cell_length_c   13.95911855
_cell_angle_alpha   90.77521410
_cell_angle_beta   90.81567152
_cell_angle_gamma   60.23476252
_symmetry_Int_Tables_number   1
_chemical_formula_structural   Li7V3P8O29
_chemical_formula_sum   'Li14 V6 P16 O58'
_cell_volume   1177.29299427
_cell_formula_units_Z   2
loop_
 _symmetry_equiv_pos_site_id
 _symmetry_equiv_pos_as_xyz
  1  'x, y, z'
loop_
 _atom_site_type_symbol
 _atom_site_label
 _atom_site_symmetry_multiplicity
 _atom_site_fract_x
 _atom_site_fract_y
 _atom_site_fract_z
 _atom_site_occupancy
  Li  Li0  1  0.90980653  0.31898438  0.56497971  1
  Li  Li1  1  0.67892859  0.67371594  0.38688703  1
  Li  Li2  1  0.67904297  0.67551690  0.88913497  1
  Li  Li3  1  0.76921769  0.31498527  0.06405253  1
  Li  Li4  1  0.32366161  0.90733416  0.06295451  1
  Li  Li5  1  0.65049653  0.24580628  0.44053159  1
  Li  Li6  1  0.31862412  0.76563687  0.56343104  1
  Li  Li7  1  0.66548914  0.10544168  0.93539034  1
  Li  Li8  1  0.24338224  0.65669252  0.94019997  1
  Li  Li9  1  0.10284126  0.67043053  0.43336493  1
  Li  Li10  1  0.22703322  0.09195971  0.44568827  1
  Li  Li11  1  0.09479595  0.22902916  0.94168967  1
  Li  Li12  1  0.99109774  0.91338215  0.02534460  1
  Li  Li13  1  0.91017116  0.99063668  0.52303743  1
  V  V14  1  0.56585365  0.43695728  0.24816165  1
  V  V15  1  0.43497111  0.56486282  0.74893532  1
  V  V16  1  0.56746340  0.99695945  0.74704449  1
  V  V17  1  0.43803340  0.00215770  0.24808447  1
  V  V18  1  0.99796652  0.56817247  0.24699319  1
  V  V19  1  0.00029466  0.43788331  0.74904292  1
  P  P20  1  0.91399046  0.78203123  0.83672887  1
  P  P21  1  0.77908726  0.91615793  0.33710953  1
  P  P22  1  0.90791588  0.32134971  0.34464552  1
  P  P23  1  0.66093570  0.66839734  0.12834550  1
  P  P24  1  0.66020053  0.66647013  0.62746244  1
  P  P25  1  0.77000171  0.32597268  0.84413940  1
  P  P26  1  0.68520334  0.22753947  0.65977685  1
  P  P27  1  0.32299889  0.90806171  0.84465026  1
  P  P28  1  0.68689149  0.08379053  0.15092086  1
  P  P29  1  0.32675803  0.77274371  0.34276976  1
  P  P30  1  0.22811134  0.68704617  0.15898885  1
  P  P31  1  0.33912156  0.33254286  0.37038689  1
  P  P32  1  0.33801427  0.33192525  0.87062724  1
  P  P33  1  0.08489344  0.68614392  0.65058234  1
  P  P34  1  0.22889997  0.08370575  0.65965663  1
  P  P35  1  0.08575506  0.22575358  0.15959031  1
  O  O36  1  0.01487845  0.77270412  0.55816901  1
  O  O37  1  0.92092054  0.75200380  0.34478847  1
  O  O38  1  0.77102726  0.01187932  0.05856161  1
  O  O39  1  0.74826164  0.92639684  0.84213088  1
  O  O40  1  0.89665202  0.63464743  0.83284341  1
  O  O41  1  0.80248524  0.67561637  0.16700766  1
  O  O42  1  0.88544972  0.48631298  0.33135523  1
  O  O43  1  0.99699687  0.22067815  0.07098782  1
  O  O44  1  0.91839330  0.33855463  0.84869437  1
  O  O45  1  0.66464039  0.81167081  0.67412327  1
  O  O46  1  0.62912181  0.90110144  0.32807099  1
  O  O47  1  0.80510359  0.51432333  0.66306538  1
  O  O48  1  0.64040377  0.67277147  0.02114473  1
  O  O49  1  0.64784878  0.67509973  0.52024553  1
  O  O50  1  0.67008328  0.51172088  0.16654785  1
  O  O51  1  0.48735310  0.88892195  0.83020288  1
  O  O52  1  0.50801940  0.81220307  0.17271160  1
  O  O53  1  0.74495643  0.33430720  0.34429763  1
  O  O54  1  0.79077322  0.21626398  0.75224032  1
  O  O55  1  0.77884697  0.21542273  0.57081983  1
  O  O56  1  0.74832738  0.25064557  0.93154554  1
  O  O57  1  0.62729308  0.49147847  0.82563757  1
  O  O58  1  0.50692176  0.67538297  0.66850073  1
  O  O59  1  0.66292187  0.25058387  0.16093387  1
  O  O60  1  0.49180370  0.62888898  0.32608744  1
  O  O61  1  0.34163617  0.92150535  0.34770642  1
  O  O62  1  0.80030238  0.98547082  0.23798619  1
  O  O63  1  0.77237225  0.02316235  0.41706326  1
  O  O64  1  0.23420422  0.99095847  0.57101186  1
  O  O65  1  0.66111246  0.08651119  0.66410354  1
  O  O66  1  0.53285352  0.38500303  0.66502393  1
  O  O67  1  0.33814823  0.74444625  0.84585550  1
  O  O68  1  0.48340351  0.33911169  0.32575301  1
  O  O69  1  0.38397353  0.53312446  0.16745341  1
  O  O70  1  0.22125187  0.77793990  0.06914550  1
  O  O71  1  0.24937388  0.75427239  0.43002606  1
  O  O72  1  0.21879860  0.79518724  0.25048250  1
  O  O73  1  0.24997583  0.66738413  0.66255941  1
  O  O74  1  0.48693995  0.17963248  0.83211642  1
  O  O75  1  0.53317524  0.08108173  0.16169455  1
  O  O76  1  0.34042347  0.47858365  0.82323973  1
  O  O77  1  0.34645658  0.34781940  0.97673290  1
  O  O78  1  0.36894020  0.30346999  0.47532190  1
  O  O79  1  0.18785613  0.48194861  0.34142726  1
  O  O80  1  0.37959437  0.09287692  0.67251134  1
  O  O81  1  0.33795051  0.18606236  0.32032078  1
  O  O82  1  0.08564238  0.66827964  0.16296100  1
  O  O83  1  0.98190253  0.80137333  0.73664158  1
  O  O84  1  0.01924549  0.78338309  0.91569650  1
  O  O85  1  0.08803554  0.53128685  0.66114759  1
  O  O86  1  0.19125719  0.32860273  0.83348284  1
  O  O87  1  0.09676796  0.37336254  0.17045972  1
  O  O88  1  0.24897182  0.07684089  0.16166794  1
  O  O89  1  0.24426076  0.00150890  0.93372311  1
  O  O90  1  0.21475012  0.99516786  0.75320704  1
  O  O91  1  0.08229119  0.24477435  0.65979405  1
  O  O92  1  0.00026864  0.23958385  0.43398354  1
  O  O93  1  0.99724950  0.21172127  0.25354218  1
