# generated using pymatgen
data_NaLiMg6O7
_symmetry_space_group_name_H-M   'P 1'
_cell_length_a   8.65372950
_cell_length_b   4.30587279
_cell_length_c   4.30587279
_cell_angle_alpha   90.00000000
_cell_angle_beta   90.00000000
_cell_angle_gamma   90.00000000
_symmetry_Int_Tables_number   1
_chemical_formula_structural   NaLiMg6O7
_chemical_formula_sum   'Na1 Li1 Mg6 O7'
_cell_volume   160.44482213
_cell_formula_units_Z   1
loop_
 _symmetry_equiv_pos_site_id
 _symmetry_equiv_pos_as_xyz
  1  'x, y, z'
loop_
 _atom_site_type_symbol
 _atom_site_label
 _atom_site_symmetry_multiplicity
 _atom_site_fract_x
 _atom_site_fract_y
 _atom_site_fract_z
 _atom_site_occupancy
  Na  Na0  1  0.00140746  0.50000000  0.50000000  1
  Li  Li1  1  0.98199293  -0.00000000  -0.00000000  1
  Mg  Mg2  1  0.52293725  -0.00000000  -0.00000000  1
  Mg  Mg3  1  0.49695480  0.50000000  0.50000000  1
  Mg  Mg4  1  0.23544665  0.00000000  0.50000000  1
  Mg  Mg5  1  0.77763337  -0.00000000  0.50000000  1
  Mg  Mg6  1  0.23544665  0.50000000  -0.00000000  1
  Mg  Mg7  1  0.77763337  0.50000000  -0.00000000  1
  O  O8  1  0.74984228  -0.00000000  -0.00000000  1
  O  O9  1  0.26172069  0.50000000  0.50000000  1
  O  O10  1  0.73253144  0.50000000  0.50000000  1
  O  O11  1  0.01291208  0.00000000  0.50000000  1
  O  O12  1  0.47531447  0.00000000  0.50000000  1
  O  O13  1  0.01291208  0.50000000  -0.00000000  1
  O  O14  1  0.47531447  0.50000000  -0.00000000  1
