# generated using pymatgen
data_Li9Mn2Co5O16
_symmetry_space_group_name_H-M   'P 1'
_cell_length_a   5.62053603
_cell_length_b   6.33827644
_cell_length_c   7.51711265
_cell_angle_alpha   86.22007827
_cell_angle_beta   79.31055494
_cell_angle_gamma   77.11723967
_symmetry_Int_Tables_number   1
_chemical_formula_structural   Li9Mn2Co5O16
_chemical_formula_sum   'Li9 Mn2 Co5 O16'
_cell_volume   256.43821178
_cell_formula_units_Z   1
loop_
 _symmetry_equiv_pos_site_id
 _symmetry_equiv_pos_as_xyz
  1  'x, y, z'
loop_
 _atom_site_type_symbol
 _atom_site_label
 _atom_site_symmetry_multiplicity
 _atom_site_fract_x
 _atom_site_fract_y
 _atom_site_fract_z
 _atom_site_occupancy
  Li  Li0  1  0.81968646  0.60629340  0.13692598  1
  Li  Li1  1  0.93965190  0.88311711  0.37533334  1
  Li  Li2  1  0.68593271  0.36832372  0.87925093  1
  Li  Li3  1  0.56684718  0.13440075  0.61498288  1
  Li  Li4  1  0.42637668  0.89101867  0.36654907  1
  Li  Li5  1  0.30678095  0.60643251  0.13834225  1
  Li  Li6  1  0.19024034  0.37087138  0.88669528  1
  Li  Li7  1  0.06328113  0.13893005  0.60415160  1
  Li  Li8  1  0.12627832  0.25423434  0.25392241  1
  Mn  Mn9  1  0.99815009  0.00537397  0.00703543  1
  Mn  Mn10  1  0.37791526  0.74730989  0.74786441  1
  Co  Co11  1  0.24884836  0.49923486  0.49662110  1
  Co  Co12  1  0.49799234  0.00080496  0.00138625  1
  Co  Co13  1  0.62372983  0.24932969  0.25120184  1
  Co  Co14  1  0.75297025  0.49886509  0.49682858  1
  Co  Co15  1  0.87554368  0.74948288  0.74895671  1
  O  O16  1  0.71886882  0.95088576  0.17357052  1
  O  O17  1  0.83038071  0.20561595  0.43218613  1
  O  O18  1  0.59416729  0.70145294  0.92068393  1
  O  O19  1  0.46532373  0.45816577  0.67840721  1
  O  O20  1  0.35313638  0.20598220  0.43236237  1
  O  O21  1  0.21980536  0.93624933  0.16730713  1
  O  O22  1  0.09422744  0.70179452  0.92309333  1
  O  O23  1  0.96810201  0.45854536  0.67196819  1
  O  O24  1  0.90223051  0.29167517  0.06300027  1
  O  O25  1  0.02490069  0.56240979  0.33193363  1
  O  O26  1  0.78372313  0.04229392  0.82658181  1
  O  O27  1  0.65217612  0.79952688  0.57802320  1
  O  O28  1  0.53305589  0.54315884  0.32527901  1
  O  O29  1  0.42129928  0.29241945  0.06653304  1
  O  O30  1  0.27928886  0.04508207  0.82594343  1
  O  O31  1  0.15908631  0.80071981  0.57707875  1
