# generated using pymatgen
data_Tb(CuS)3
_symmetry_space_group_name_H-M   'P 1'
_cell_length_a   7.43859833
_cell_length_b   7.43859833
_cell_length_c   7.43859735
_cell_angle_alpha   53.17841786
_cell_angle_beta   53.17841787
_cell_angle_gamma   53.17842295
_symmetry_Int_Tables_number   1
_chemical_formula_structural   Tb(CuS)3
_chemical_formula_sum   'Tb2 Cu6 S6'
_cell_volume   244.53635201
_cell_formula_units_Z   2
loop_
 _symmetry_equiv_pos_site_id
 _symmetry_equiv_pos_as_xyz
  1  'x, y, z'
loop_
 _atom_site_type_symbol
 _atom_site_label
 _atom_site_symmetry_multiplicity
 _atom_site_fract_x
 _atom_site_fract_y
 _atom_site_fract_z
 _atom_site_occupancy
  Tb  Tb0  1  0.83345548  0.83345548  0.83345548  1
  Tb  Tb1  1  0.16654452  0.16654452  0.16654452  1
  Cu  Cu2  1  0.62377787  0.28231131  0.96350041  1
  Cu  Cu3  1  0.96350041  0.62377787  0.28231131  1
  Cu  Cu4  1  0.28231131  0.96350041  0.62377787  1
  Cu  Cu5  1  0.71768869  0.03649959  0.37622213  1
  Cu  Cu6  1  0.03649959  0.37622213  0.71768869  1
  Cu  Cu7  1  0.37622213  0.71768869  0.03649959  1
  S  S8  1  0.41643285  0.08323931  0.74652647  1
  S  S9  1  0.08323931  0.74652647  0.41643285  1
  S  S10  1  0.74652647  0.41643285  0.08323931  1
  S  S11  1  0.25347353  0.58356715  0.91676069  1
  S  S12  1  0.91676069  0.25347353  0.58356715  1
  S  S13  1  0.58356715  0.91676069  0.25347353  1
