# generated using pymatgen
data_Na4FeO3
_symmetry_space_group_name_H-M   'P 1'
_cell_length_a   5.74596162
_cell_length_b   6.13155938
_cell_length_c   8.18141414
_cell_angle_alpha   111.03869343
_cell_angle_beta   89.97635209
_cell_angle_gamma   117.97057643
_symmetry_Int_Tables_number   1
_chemical_formula_structural   Na4FeO3
_chemical_formula_sum   'Na8 Fe2 O6'
_cell_volume   232.61957635
_cell_formula_units_Z   2
loop_
 _symmetry_equiv_pos_site_id
 _symmetry_equiv_pos_as_xyz
  1  'x, y, z'
loop_
 _atom_site_type_symbol
 _atom_site_label
 _atom_site_symmetry_multiplicity
 _atom_site_fract_x
 _atom_site_fract_y
 _atom_site_fract_z
 _atom_site_occupancy
  Na  Na0  1  0.27749562  0.22304429  0.94927889  1
  Na  Na1  1  0.72751500  0.76638814  0.03131838  1
  Na  Na2  1  0.94646206  0.22329870  0.44914378  1
  Na  Na3  1  0.09920169  0.61739693  0.84917106  1
  Na  Na4  1  0.51748089  0.61689763  0.34907960  1
  Na  Na5  1  0.86714011  0.41334124  0.13035789  1
  Na  Na6  1  0.03914317  0.76626474  0.53105040  1
  Na  Na7  1  0.54549748  0.41349660  0.63034192  1
  Fe  Fe8  1  0.62973333  0.96075167  0.74570905  1
  Fe  Fe9  1  0.33133548  0.96088287  0.24574371  1
  O  O10  1  0.88311386  0.87113665  0.79373018  1
  O  O11  1  0.31563358  0.63240625  0.60818532  1
  O  O12  1  0.31651685  0.63231993  0.10819568  1
  O  O13  1  0.98800190  0.87103013  0.29366728  1
  O  O14  1  0.63895166  0.29934451  0.34374165  1
  O  O15  1  0.66037534  0.29919471  0.84348622  1
