# generated using pymatgen
data_CsTlO
_symmetry_space_group_name_H-M   'P 1'
_cell_length_a   7.37926902
_cell_length_b   7.37926902
_cell_length_c   6.62657856
_cell_angle_alpha   74.28027260
_cell_angle_beta   74.28027260
_cell_angle_gamma   29.76472330
_symmetry_Int_Tables_number   1
_chemical_formula_structural   CsTlO
_chemical_formula_sum   'Cs2 Tl2 O2'
_cell_volume   171.95283958
_cell_formula_units_Z   2
loop_
 _symmetry_equiv_pos_site_id
 _symmetry_equiv_pos_as_xyz
  1  'x, y, z'
loop_
 _atom_site_type_symbol
 _atom_site_label
 _atom_site_symmetry_multiplicity
 _atom_site_fract_x
 _atom_site_fract_y
 _atom_site_fract_z
 _atom_site_occupancy
  Cs  Cs0  1  0.87842620  0.87842620  0.34355911  1
  Cs  Cs1  1  0.12157380  0.12157380  0.65644089  1
  Tl  Tl2  1  0.64980993  0.64980993  0.14021445  1
  Tl  Tl3  1  0.35019107  0.35019107  0.85978555  1
  O  O4  1  0.24792806  0.24792806  0.20372020  1
  O  O5  1  0.75207194  0.75207194  0.79627980  1
