# generated using pymatgen
data_Sm2ZrS5
_symmetry_space_group_name_H-M   'P 1'
_cell_length_a   7.34364462
_cell_length_b   7.89967865
_cell_length_c   11.63391152
_cell_angle_alpha   90.00000000
_cell_angle_beta   90.00000000
_cell_angle_gamma   90.00000000
_symmetry_Int_Tables_number   1
_chemical_formula_structural   Sm2ZrS5
_chemical_formula_sum   'Sm8 Zr4 S20'
_cell_volume   674.91150814
_cell_formula_units_Z   4
loop_
 _symmetry_equiv_pos_site_id
 _symmetry_equiv_pos_as_xyz
  1  'x, y, z'
loop_
 _atom_site_type_symbol
 _atom_site_label
 _atom_site_symmetry_multiplicity
 _atom_site_fract_x
 _atom_site_fract_y
 _atom_site_fract_z
 _atom_site_occupancy
  Sm  Sm0  1  0.52864505  0.49838007  0.32255259  1
  Sm  Sm1  1  0.97135495  0.00161993  0.82255259  1
  Sm  Sm2  1  0.47135495  0.99838007  0.67744741  1
  Sm  Sm3  1  0.02864505  0.50161993  0.17744741  1
  Sm  Sm4  1  0.47135495  0.50161993  0.67744741  1
  Sm  Sm5  1  0.02864505  0.99838007  0.17744741  1
  Sm  Sm6  1  0.52864505  0.00161993  0.32255259  1
  Sm  Sm7  1  0.97135495  0.49838007  0.82255259  1
  Zr  Zr8  1  0.07636397  0.75000000  0.49267797  1
  Zr  Zr9  1  0.42363603  0.75000000  0.99267797  1
  Zr  Zr10  1  0.92363603  0.25000000  0.50732203  1
  Zr  Zr11  1  0.57636397  0.25000000  0.00732203  1
  S  S12  1  0.83687634  0.96384665  0.58938736  1
  S  S13  1  0.66312366  0.53615335  0.08938736  1
  S  S14  1  0.16312366  0.46384665  0.41061264  1
  S  S15  1  0.33687634  0.03615335  0.91061264  1
  S  S16  1  0.16312366  0.03615335  0.41061264  1
  S  S17  1  0.33687634  0.46384665  0.91061264  1
  S  S18  1  0.83687634  0.53615335  0.58938736  1
  S  S19  1  0.66312366  0.96384665  0.08938736  1
  S  S20  1  0.83832133  0.75000000  0.31674882  1
  S  S21  1  0.66167867  0.75000000  0.81674882  1
  S  S22  1  0.16167867  0.25000000  0.68325118  1
  S  S23  1  0.33832133  0.25000000  0.18325118  1
  S  S24  1  0.44637839  0.75000000  0.49615208  1
  S  S25  1  0.05362161  0.75000000  0.99615208  1
  S  S26  1  0.55362161  0.25000000  0.50384792  1
  S  S27  1  0.94637839  0.25000000  0.00384792  1
  S  S28  1  0.18409769  0.75000000  0.70708596  1
  S  S29  1  0.31590231  0.75000000  0.20708596  1
  S  S30  1  0.81590231  0.25000000  0.29291404  1
  S  S31  1  0.68409769  0.25000000  0.79291404  1
