# generated using pymatgen
data_Mg14CdCO16
_symmetry_space_group_name_H-M   'P 1'
_cell_length_a   8.61376048
_cell_length_b   8.56975923
_cell_length_c   4.28578288
_cell_angle_alpha   90.00000000
_cell_angle_beta   90.00000000
_cell_angle_gamma   90.00000000
_symmetry_Int_Tables_number   1
_chemical_formula_structural   Mg14CdCO16
_chemical_formula_sum   'Mg14 Cd1 C1 O16'
_cell_volume   316.36729225
_cell_formula_units_Z   1
loop_
 _symmetry_equiv_pos_site_id
 _symmetry_equiv_pos_as_xyz
  1  'x, y, z'
loop_
 _atom_site_type_symbol
 _atom_site_label
 _atom_site_symmetry_multiplicity
 _atom_site_fract_x
 _atom_site_fract_y
 _atom_site_fract_z
 _atom_site_occupancy
  Mg  Mg0  1  0.50000000  0.00000000  -0.00000000  1
  Mg  Mg1  1  0.50000000  0.50000000  -0.00000000  1
  Mg  Mg2  1  0.00000000  0.25864380  0.50000000  1
  Mg  Mg3  1  0.00000000  0.74135620  0.50000000  1
  Mg  Mg4  1  0.50000000  0.25106245  0.50000000  1
  Mg  Mg5  1  0.50000000  0.74893755  0.50000000  1
  Mg  Mg6  1  0.25474110  0.00000000  0.50000000  1
  Mg  Mg7  1  0.24674707  0.50000000  0.50000000  1
  Mg  Mg8  1  0.74525890  0.00000000  0.50000000  1
  Mg  Mg9  1  0.75325293  0.50000000  0.50000000  1
  Mg  Mg10  1  0.25029002  0.25460803  0.00000000  1
  Mg  Mg11  1  0.25029002  0.74539197  -0.00000000  1
  Mg  Mg12  1  0.74970998  0.25460803  0.00000000  1
  Mg  Mg13  1  0.74970998  0.74539197  0.00000000  1
  Cd  Cd14  1  0.00000000  0.00000000  -0.00000000  1
  C  C15  1  0.00000000  0.50000000  -0.00000000  1
  O  O16  1  0.26500748  0.00000000  0.00000000  1
  O  O17  1  0.25428452  0.50000000  -0.00000000  1
  O  O18  1  0.73499252  0.00000000  -0.00000000  1
  O  O19  1  0.74571548  0.50000000  0.00000000  1
  O  O20  1  0.24817120  0.25018935  0.50000000  1
  O  O21  1  0.24817120  0.74981065  0.50000000  1
  O  O22  1  0.75182880  0.25018935  0.50000000  1
  O  O23  1  0.75182880  0.74981065  0.50000000  1
  O  O24  1  0.00000000  0.00000000  0.50000000  1
  O  O25  1  0.00000000  0.50000000  0.50000000  1
  O  O26  1  0.50000000  0.00000000  0.50000000  1
  O  O27  1  0.50000000  0.50000000  0.50000000  1
  O  O28  1  0.00000000  0.26678503  0.00000000  1
  O  O29  1  0.00000000  0.73321497  -0.00000000  1
  O  O30  1  0.50000000  0.25299333  0.00000000  1
  O  O31  1  0.50000000  0.74700667  -0.00000000  1
