# generated using pymatgen
data_CaV8(OF)8
_symmetry_space_group_name_H-M   'P 1'
_cell_length_a   4.91646993
_cell_length_b   10.68121738
_cell_length_c   5.79684389
_cell_angle_alpha   84.63060964
_cell_angle_beta   93.77665349
_cell_angle_gamma   88.90301872
_symmetry_Int_Tables_number   1
_chemical_formula_structural   CaV8(OF)8
_chemical_formula_sum   'Ca1 V8 O8 F8'
_cell_volume   302.32272679
_cell_formula_units_Z   1
loop_
 _symmetry_equiv_pos_site_id
 _symmetry_equiv_pos_as_xyz
  1  'x, y, z'
loop_
 _atom_site_type_symbol
 _atom_site_label
 _atom_site_symmetry_multiplicity
 _atom_site_fract_x
 _atom_site_fract_y
 _atom_site_fract_z
 _atom_site_occupancy
  Ca  Ca0  1  0.00061500  0.89344700  0.36058900  1
  V  V1  1  0.48352300  0.26953500  0.74369200  1
  V  V2  1  0.50451200  0.01312800  0.48896900  1
  V  V3  1  0.52332600  0.72354200  0.26792900  1
  V  V4  1  0.49420300  0.49268100  0.00942000  1
  V  V5  1  0.98537100  0.24520300  0.25570400  1
  V  V6  1  0.01507600  0.74359600  0.78794100  1
  V  V7  1  0.99553300  0.49721200  0.51338300  1
  V  V8  1  0.03242600  0.02442200  0.93900800  1
  O  O9  1  0.83303600  0.08257400  0.25994200  1
  O  O10  1  0.67275400  0.80677000  0.53661900  1
  O  O11  1  0.69631300  0.56147100  0.29012900  1
  O  O12  1  0.69353800  0.33168800  0.01955700  1
  O  O13  1  0.29050100  0.43992300  0.73046300  1
  O  O14  1  0.29672800  0.66797900  0.00581600  1
  O  O15  1  0.30081600  0.19157700  0.48484600  1
  O  O16  1  0.17174100  0.91016300  0.71144900  1
  F  F17  1  0.80541500  0.57338800  0.78519000  1
  F  F18  1  0.80155100  0.32620300  0.53461900  1
  F  F19  1  0.80687800  0.81000900  0.04667800  1
  F  F20  1  0.67428800  0.09011800  0.77707600  1
  F  F21  1  0.36852300  0.92775000  0.17286600  1
  F  F22  1  0.17963800  0.67578200  0.48380300  1
  F  F23  1  0.20614100  0.19617000  0.97114700  1
  F  F24  1  0.18144200  0.42441900  0.23983000  1
