# generated using pymatgen
data_LaFeO3
_symmetry_space_group_name_H-M   'P 1'
_cell_length_a   5.42751155
_cell_length_b   5.42307109
_cell_length_c   5.43455366
_cell_angle_alpha   61.10598371
_cell_angle_beta   60.84843943
_cell_angle_gamma   60.80417810
_symmetry_Int_Tables_number   1
_chemical_formula_structural   LaFeO3
_chemical_formula_sum   'La2 Fe2 O6'
_cell_volume   115.45061727
_cell_formula_units_Z   2
loop_
 _symmetry_equiv_pos_site_id
 _symmetry_equiv_pos_as_xyz
  1  'x, y, z'
loop_
 _atom_site_type_symbol
 _atom_site_label
 _atom_site_symmetry_multiplicity
 _atom_site_fract_x
 _atom_site_fract_y
 _atom_site_fract_z
 _atom_site_occupancy
  La  La0  1  0.24916956  0.25002433  0.24826512  1
  La  La1  1  0.75085776  0.74996144  0.75177131  1
  Fe  Fe2  1  0.49999915  0.50001404  0.50000760  1
  Fe  Fe3  1  0.00002164  -0.00001457  0.00000940  1
  O  O4  1  0.30371986  0.18800723  0.75462022  1
  O  O5  1  0.18813756  0.75545186  0.30298385  1
  O  O6  1  0.75471522  0.30393149  0.18906007  1
  O  O7  1  0.81186541  0.24457828  0.69701651  1
  O  O8  1  0.24528570  0.69609930  0.81096799  1
  O  O9  1  0.69629513  0.81201361  0.24536393  1
