# generated using pymatgen
data_Y3ErTi4(SiO9)2
_symmetry_space_group_name_H-M   'P 1'
_cell_length_a   11.13130214
_cell_length_b   4.86013830
_cell_length_c   12.30049815
_cell_angle_alpha   84.34033922
_cell_angle_beta   90.00000000
_cell_angle_gamma   90.00000000
_symmetry_Int_Tables_number   1
_chemical_formula_structural   Y3ErTi4(SiO9)2
_chemical_formula_sum   'Y6 Er2 Ti8 Si4 O36'
_cell_volume   662.20894776
_cell_formula_units_Z   2
loop_
 _symmetry_equiv_pos_site_id
 _symmetry_equiv_pos_as_xyz
  1  'x, y, z'
loop_
 _atom_site_type_symbol
 _atom_site_label
 _atom_site_symmetry_multiplicity
 _atom_site_fract_x
 _atom_site_fract_y
 _atom_site_fract_z
 _atom_site_occupancy
  Y  Y0  1  0.35898233  0.69747213  0.93140183  1
  Y  Y1  1  0.85898233  0.30252787  0.06859817  1
  Y  Y2  1  0.63754502  0.73645864  0.42136128  1
  Y  Y3  1  0.13754502  0.26354136  0.57863872  1
  Y  Y4  1  0.36234082  0.76358717  0.57780520  1
  Y  Y5  1  0.86234082  0.23641283  0.42219480  1
  Er  Er6  1  0.64101794  0.80611685  0.06873666  1
  Er  Er7  1  0.14101794  0.19388315  0.93126334  1
  Ti  Ti8  1  0.83737969  0.94806069  0.84992665  1
  Ti  Ti9  1  0.33737969  0.05193931  0.15007335  1
  Ti  Ti10  1  0.16283682  0.55168113  0.14938049  1
  Ti  Ti11  1  0.66283682  0.44831887  0.85061951  1
  Ti  Ti12  1  0.83599100  0.58541504  0.64004119  1
  Ti  Ti13  1  0.33599100  0.41458496  0.35995881  1
  Ti  Ti14  1  0.16349784  0.91457839  0.36005048  1
  Ti  Ti15  1  0.66349784  0.08542161  0.63994952  1
  Si  Si16  1  0.59512472  0.32163492  0.24651792  1
  Si  Si17  1  0.09512472  0.67836508  0.75348208  1
  Si  Si18  1  0.40456800  0.17803109  0.75286495  1
  Si  Si19  1  0.90456800  0.82196891  0.24713505  1
  O  O20  1  0.83950857  0.75523340  0.13406845  1
  O  O21  1  0.33950857  0.24476660  0.86593155  1
  O  O22  1  0.15897127  0.75093574  0.86611054  1
  O  O23  1  0.65897127  0.24906426  0.13388946  1
  O  O24  1  0.78847554  0.91760951  0.55358745  1
  O  O25  1  0.28847554  0.08239049  0.44641255  1
  O  O26  1  0.21119521  0.58233989  0.44651028  1
  O  O27  1  0.71119521  0.41766011  0.55348972  1
  O  O28  1  0.95034144  0.07837989  0.93336614  1
  O  O29  1  0.45034144  0.92162011  0.06663386  1
  O  O30  1  0.05203616  0.41909386  0.06434461  1
  O  O31  1  0.55203616  0.58090614  0.93565539  1
  O  O32  1  0.60011227  0.65743618  0.24426425  1
  O  O33  1  0.10011227  0.34256382  0.75573575  1
  O  O34  1  0.40101420  0.84243744  0.75373390  1
  O  O35  1  0.90101420  0.15756256  0.24626610  1
  O  O36  1  0.95019145  0.76949536  0.74623382  1
  O  O37  1  0.45019145  0.23050464  0.25376618  1
  O  O38  1  0.04932501  0.72937590  0.25324005  1
  O  O39  1  0.54932501  0.27062410  0.74675995  1
  O  O40  1  0.78879851  0.61646567  0.93542525  1
  O  O41  1  0.28879851  0.38353433  0.06457475  1
  O  O42  1  0.21140130  0.88485375  0.06394264  1
  O  O43  1  0.71140130  0.11514625  0.93605736  1
  O  O44  1  0.95255313  0.44556227  0.56271705  1
  O  O45  1  0.45255313  0.55443773  0.43728295  1
  O  O46  1  0.04744849  0.05382231  0.43797780  1
  O  O47  1  0.54744849  0.94617769  0.56202220  1
  O  O48  1  0.83584068  0.68752961  0.35636680  1
  O  O49  1  0.33584068  0.31247039  0.64363320  1
  O  O50  1  0.16389392  0.81166442  0.64396373  1
  O  O51  1  0.66389392  0.18833558  0.35603627  1
  O  O52  1  0.70767007  0.76729217  0.74489190  1
  O  O53  1  0.20767007  0.23270783  0.25510810  1
  O  O54  1  0.29193862  0.73259766  0.25496185  1
  O  O55  1  0.79193862  0.26740234  0.74503815  1
