# generated using pymatgen
data_Ba4TiAs4
_symmetry_space_group_name_H-M   'P 1'
_cell_length_a   13.56933044
_cell_length_b   13.56933044
_cell_length_c   13.56933044
_cell_angle_alpha   90.00000000
_cell_angle_beta   90.00000000
_cell_angle_gamma   90.00000000
_symmetry_Int_Tables_number   1
_chemical_formula_structural   Ba4TiAs4
_chemical_formula_sum   'Ba32 Ti8 As32'
_cell_volume   2498.47642307
_cell_formula_units_Z   8
loop_
 _symmetry_equiv_pos_site_id
 _symmetry_equiv_pos_as_xyz
  1  'x, y, z'
loop_
 _atom_site_type_symbol
 _atom_site_label
 _atom_site_symmetry_multiplicity
 _atom_site_fract_x
 _atom_site_fract_y
 _atom_site_fract_z
 _atom_site_occupancy
  Ba  Ba0  1  0.14837818  0.14837818  0.14837818  1
  Ba  Ba1  1  0.35162182  0.64837818  0.35162182  1
  Ba  Ba2  1  0.64837818  0.35162182  0.35162182  1
  Ba  Ba3  1  0.35162182  0.35162182  0.64837818  1
  Ba  Ba4  1  0.14837818  0.85162182  0.85162182  1
  Ba  Ba5  1  0.85162182  0.85162182  0.14837818  1
  Ba  Ba6  1  0.85162182  0.14837818  0.85162182  1
  Ba  Ba7  1  0.64837818  0.64837818  0.64837818  1
  Ba  Ba8  1  0.90742197  0.86347189  0.64831481  1
  Ba  Ba9  1  0.90742197  0.13652811  0.35168519  1
  Ba  Ba10  1  0.86347189  0.64831481  0.90742197  1
  Ba  Ba11  1  0.13652811  0.64831481  0.09257803  1
  Ba  Ba12  1  0.64831481  0.90742197  0.86347189  1
  Ba  Ba13  1  0.35168519  0.09257803  0.86347189  1
  Ba  Ba14  1  0.59257803  0.85168519  0.36347189  1
  Ba  Ba15  1  0.59257803  0.14831481  0.63652811  1
  Ba  Ba16  1  0.40742197  0.85168519  0.63652811  1
  Ba  Ba17  1  0.14831481  0.63652811  0.59257803  1
  Ba  Ba18  1  0.63652811  0.40742197  0.85168519  1
  Ba  Ba19  1  0.63652811  0.59257803  0.14831481  1
  Ba  Ba20  1  0.85168519  0.36347189  0.59257803  1
  Ba  Ba21  1  0.36347189  0.59257803  0.85168519  1
  Ba  Ba22  1  0.85168519  0.63652811  0.40742197  1
  Ba  Ba23  1  0.14831481  0.36347189  0.40742197  1
  Ba  Ba24  1  0.36347189  0.40742197  0.14831481  1
  Ba  Ba25  1  0.35168519  0.90742197  0.13652811  1
  Ba  Ba26  1  0.64831481  0.09257803  0.13652811  1
  Ba  Ba27  1  0.86347189  0.35168519  0.09257803  1
  Ba  Ba28  1  0.13652811  0.35168519  0.90742197  1
  Ba  Ba29  1  0.09257803  0.13652811  0.64831481  1
  Ba  Ba30  1  0.09257803  0.86347189  0.35168519  1
  Ba  Ba31  1  0.40742197  0.14831481  0.36347189  1
  Ti  Ti32  1  -0.00000000  0.00000000  0.00000000  1
  Ti  Ti33  1  0.75000000  0.00000000  0.50000000  1
  Ti  Ti34  1  0.50000000  0.75000000  0.00000000  1
  Ti  Ti35  1  0.50000000  0.25000000  0.00000000  1
  Ti  Ti36  1  -0.00000000  0.50000000  0.25000000  1
  Ti  Ti37  1  -0.00000000  0.50000000  0.75000000  1
  Ti  Ti38  1  0.25000000  0.00000000  0.50000000  1
  Ti  Ti39  1  0.50000000  0.50000000  0.50000000  1
  As  As40  1  0.60457590  0.85099454  0.11131446  1
  As  As41  1  0.64900546  0.10457590  0.38868554  1
  As  As42  1  0.89542410  0.61131446  0.64900546  1
  As  As43  1  0.10457590  0.61131446  0.35099454  1
  As  As44  1  0.61131446  0.64900546  0.89542410  1
  As  As45  1  0.38868554  0.35099454  0.89542410  1
  As  As46  1  0.85099454  0.88868554  0.39542410  1
  As  As47  1  0.85099454  0.11131446  0.60457590  1
  As  As48  1  0.14900546  0.88868554  0.60457590  1
  As  As49  1  0.39461104  0.39461104  0.39461104  1
  As  As50  1  0.60457590  0.14900546  0.88868554  1
  As  As51  1  0.64900546  0.89542410  0.61131446  1
  As  As52  1  0.88868554  0.39542410  0.85099454  1
  As  As53  1  0.39542410  0.85099454  0.88868554  1
  As  As54  1  0.88868554  0.60457590  0.14900546  1
  As  As55  1  0.11131446  0.39542410  0.14900546  1
  As  As56  1  0.39542410  0.14900546  0.11131446  1
  As  As57  1  0.38868554  0.64900546  0.10457590  1
  As  As58  1  0.61131446  0.35099454  0.10457590  1
  As  As59  1  0.89542410  0.38868554  0.35099454  1
  As  As60  1  0.10457590  0.38868554  0.64900546  1
  As  As61  1  0.35099454  0.10457590  0.61131446  1
  As  As62  1  0.35099454  0.89542410  0.38868554  1
  As  As63  1  0.14900546  0.11131446  0.39542410  1
  As  As64  1  0.10538896  0.89461104  0.10538896  1
  As  As65  1  0.10538896  0.10538896  0.89461104  1
  As  As66  1  0.89461104  0.10538896  0.10538896  1
  As  As67  1  0.60538896  0.60538896  0.39461104  1
  As  As68  1  0.39461104  0.60538896  0.60538896  1
  As  As69  1  0.60538896  0.39461104  0.60538896  1
  As  As70  1  0.89461104  0.89461104  0.89461104  1
  As  As71  1  0.11131446  0.60457590  0.85099454  1
