# generated using pymatgen
data_SbTeRu
_symmetry_space_group_name_H-M   'P 1'
_cell_length_a   6.56301599
_cell_length_b   6.64626426
_cell_length_c   6.70802933
_cell_angle_alpha   66.05813050
_cell_angle_beta   90.00000000
_cell_angle_gamma   90.00000000
_symmetry_Int_Tables_number   1
_chemical_formula_structural   SbTeRu
_chemical_formula_sum   'Sb4 Te4 Ru4'
_cell_volume   267.42505422
_cell_formula_units_Z   4
loop_
 _symmetry_equiv_pos_site_id
 _symmetry_equiv_pos_as_xyz
  1  'x, y, z'
loop_
 _atom_site_type_symbol
 _atom_site_label
 _atom_site_symmetry_multiplicity
 _atom_site_fract_x
 _atom_site_fract_y
 _atom_site_fract_z
 _atom_site_occupancy
  Sb  Sb0  1  0.63955683  0.85925228  0.38186975  1
  Sb  Sb1  1  0.13955683  0.14074772  0.11813025  1
  Sb  Sb2  1  0.36044317  0.14074772  0.61813025  1
  Sb  Sb3  1  0.86044317  0.85925228  0.88186975  1
  Te  Te4  1  0.36465657  0.65358119  0.17979669  1
  Te  Te5  1  0.86465657  0.34641881  0.32020331  1
  Te  Te6  1  0.63534343  0.34641881  0.82020331  1
  Te  Te7  1  0.13534343  0.65358119  0.67979669  1
  Ru  Ru8  1  0.99958114  0.72330935  0.29374482  1
  Ru  Ru9  1  0.49958114  0.27669065  0.20625518  1
  Ru  Ru10  1  0.00041886  0.27669065  0.70625518  1
  Ru  Ru11  1  0.50041886  0.72330935  0.79374482  1
