# generated using pymatgen
data_BaGaB4H3O10
_symmetry_space_group_name_H-M   'P 1'
_cell_length_a   7.19957400
_cell_length_b   7.25047003
_cell_length_c   10.03610722
_cell_angle_alpha   107.41846257
_cell_angle_beta   90.25272526
_cell_angle_gamma   119.51803100
_symmetry_Int_Tables_number   1
_chemical_formula_structural   BaGaB4H3O10
_chemical_formula_sum   'Ba2 Ga2 B8 H6 O20'
_cell_volume   427.64111007
_cell_formula_units_Z   2
loop_
 _symmetry_equiv_pos_site_id
 _symmetry_equiv_pos_as_xyz
  1  'x, y, z'
loop_
 _atom_site_type_symbol
 _atom_site_label
 _atom_site_symmetry_multiplicity
 _atom_site_fract_x
 _atom_site_fract_y
 _atom_site_fract_z
 _atom_site_occupancy
  Ba  Ba0  1  0.37367200  0.59344900  0.70646700  1
  Ba  Ba1  1  0.62632800  0.40655100  0.29353300  1
  Ga  Ga2  1  0.77282600  0.29123200  0.62012500  1
  Ga  Ga3  1  0.22717400  0.70876800  0.37987500  1
  B  B4  1  0.99399400  0.69658100  0.70424700  1
  B  B5  1  0.00600600  0.30341900  0.29575300  1
  B  B6  1  0.90754300  0.98226700  0.65393700  1
  B  B7  1  0.09245700  0.01773300  0.34606300  1
  B  B8  1  0.29450700  0.10393700  0.64239200  1
  B  B9  1  0.70549300  0.89606300  0.35760800  1
  B  B10  1  0.71599000  0.33372300  0.90769200  1
  B  B11  1  0.28401000  0.66627700  0.09230800  1
  H  H12  1  0.53308500  0.08565700  0.08960400  1
  H  H13  1  0.46691500  0.91434300  0.91039600  1
  H  H14  1  0.14350000  0.29487100  0.02287200  1
  H  H15  1  0.85650000  0.70512900  0.97712800  1
  H  H16  1  0.24893000  0.16813600  0.93724100  1
  H  H17  1  0.75107000  0.83186400  0.06275900  1
  O  O18  1  0.83672700  0.76478300  0.69296300  1
  O  O19  1  0.16327300  0.23521700  0.30703700  1
  O  O20  1  0.76139800  0.02568900  0.62348700  1
  O  O21  1  0.23860200  0.97431100  0.37651300  1
  O  O22  1  0.12689500  0.15254200  0.64318200  1
  O  O23  1  0.87310500  0.84745800  0.35681800  1
  O  O24  1  0.51775500  0.28667900  0.60095700  1
  O  O25  1  0.48224500  0.71332100  0.39904300  1
  O  O26  1  0.23259000  0.89051700  0.67628200  1
  O  O27  1  0.76741000  0.10948300  0.32371800  1
  O  O28  1  0.03138000  0.57463300  0.60147400  1
  O  O29  1  0.96862000  0.42536700  0.39852600  1
  O  O30  1  0.89445100  0.55861900  0.85100600  1
  O  O31  1  0.10554900  0.44138100  0.14899400  1
  O  O32  1  0.63458500  0.25091200  0.05348200  1
  O  O33  1  0.36541500  0.74908800  0.94651800  1
  O  O34  1  0.62633400  0.20041000  0.83054700  1
  O  O35  1  0.37366700  0.79959000  0.16945300  1
  O  O36  1  0.17890800  0.25309100  0.93313200  1
  O  O37  1  0.82109200  0.74690900  0.06686800  1
