# generated using pymatgen
data_Sr4CaMn2Ga2O11
_symmetry_space_group_name_H-M   'P 1'
_cell_length_a   5.77782256
_cell_length_b   5.79644936
_cell_length_c   8.85360412
_cell_angle_alpha   71.99900998
_cell_angle_beta   73.78662571
_cell_angle_gamma   89.13301903
_symmetry_Int_Tables_number   1
_chemical_formula_structural   Sr4CaMn2Ga2O11
_chemical_formula_sum   'Sr4 Ca1 Mn2 Ga2 O11'
_cell_volume   269.96192324
_cell_formula_units_Z   1
loop_
 _symmetry_equiv_pos_site_id
 _symmetry_equiv_pos_as_xyz
  1  'x, y, z'
loop_
 _atom_site_type_symbol
 _atom_site_label
 _atom_site_symmetry_multiplicity
 _atom_site_fract_x
 _atom_site_fract_y
 _atom_site_fract_z
 _atom_site_occupancy
  Sr  Sr0  1  0.06762800  0.57898100  0.83658900  1
  Sr  Sr1  1  0.63097400  0.12996900  0.72907000  1
  Sr  Sr2  1  0.43237200  0.92101900  0.16341100  1
  Sr  Sr3  1  0.86902600  0.37003100  0.27093000  1
  Ca  Ca4  1  0.25000000  0.75000000  0.50000000  1
  Mn  Mn5  1  0.25000000  0.25000000  0.50000000  1
  Mn  Mn6  1  0.75000000  0.75000000  0.50000000  1
  Ga  Ga7  1  0.50975900  0.48647800  0.99936500  1
  Ga  Ga8  1  0.99024100  0.01352200  0.00063500  1
  O  O9  1  0.16481100  0.04418100  0.77136600  1
  O  O10  1  0.53929300  0.66993500  0.76826900  1
  O  O11  1  0.33518900  0.45581900  0.22863400  1
  O  O12  1  0.96070700  0.83006500  0.23173100  1
  O  O13  1  0.54633800  0.01510200  0.43109000  1
  O  O14  1  0.95366200  0.48489800  0.56891000  1
  O  O15  1  0.99136000  0.03245800  0.49872400  1
  O  O16  1  0.50864000  0.46754200  0.50127600  1
  O  O17  1  0.75000000  0.25000000  0.00000000  1
  O  O18  1  0.75000000  0.75000000  0.00000000  1
  O  O19  1  0.25000000  0.25000000  0.00000000  1
