# generated using pymatgen
data_Ag2PSe3
_symmetry_space_group_name_H-M   'P 1'
_cell_length_a   6.57937153
_cell_length_b   11.65986353
_cell_length_c   14.45464378
_cell_angle_alpha   90.00000000
_cell_angle_beta   90.00000000
_cell_angle_gamma   90.00000000
_symmetry_Int_Tables_number   1
_chemical_formula_structural   Ag2PSe3
_chemical_formula_sum   'Ag16 P8 Se24'
_cell_volume   1108.88184212
_cell_formula_units_Z   8
loop_
 _symmetry_equiv_pos_site_id
 _symmetry_equiv_pos_as_xyz
  1  'x, y, z'
loop_
 _atom_site_type_symbol
 _atom_site_label
 _atom_site_symmetry_multiplicity
 _atom_site_fract_x
 _atom_site_fract_y
 _atom_site_fract_z
 _atom_site_occupancy
  Ag  Ag0  1  0.76911548  0.28752496  0.62814877  1
  Ag  Ag1  1  0.26911548  0.21247504  0.37185123  1
  Ag  Ag2  1  0.23088452  0.78752496  0.87185123  1
  Ag  Ag3  1  0.73088452  0.71247504  0.12814877  1
  Ag  Ag4  1  0.46410237  0.30351228  0.10698093  1
  Ag  Ag5  1  0.96410237  0.19648772  0.89301907  1
  Ag  Ag6  1  0.53589763  0.80351228  0.39301907  1
  Ag  Ag7  1  0.03589763  0.69648772  0.60698093  1
  Ag  Ag8  1  0.58102152  0.61565239  0.87314007  1
  Ag  Ag9  1  0.08102152  0.88434761  0.12685993  1
  Ag  Ag10  1  0.41897848  0.11565239  0.62685993  1
  Ag  Ag11  1  0.91897848  0.38434761  0.37314007  1
  Ag  Ag12  1  0.58656924  0.36054190  0.88865928  1
  Ag  Ag13  1  0.08656924  0.13945810  0.11134072  1
  Ag  Ag14  1  0.41343076  0.86054190  0.61134072  1
  Ag  Ag15  1  0.91343076  0.63945810  0.38865928  1
  P  P16  1  0.10903163  0.47030446  0.79927501  1
  P  P17  1  0.60903163  0.02969554  0.20072499  1
  P  P18  1  0.89096837  0.97030446  0.70072499  1
  P  P19  1  0.39096837  0.52969554  0.29927501  1
  P  P20  1  0.06808363  0.50572899  0.95564899  1
  P  P21  1  0.56808363  0.99427101  0.04435101  1
  P  P22  1  0.93191637  0.00572899  0.54435101  1
  P  P23  1  0.43191637  0.49427101  0.45564899  1
  Se  Se24  1  0.26168130  0.30350606  0.78816523  1
  Se  Se25  1  0.76168130  0.19649394  0.21183477  1
  Se  Se26  1  0.73831870  0.80350606  0.71183477  1
  Se  Se27  1  0.23831870  0.69649394  0.28816523  1
  Se  Se28  1  0.80458799  0.47149597  0.73794237  1
  Se  Se29  1  0.30458799  0.02850403  0.26205763  1
  Se  Se30  1  0.19541201  0.97149597  0.76205763  1
  Se  Se31  1  0.69541201  0.52850403  0.23794237  1
  Se  Se32  1  0.13106111  0.48527968  0.51881875  1
  Se  Se33  1  0.63106111  0.01472032  0.48118125  1
  Se  Se34  1  0.86893889  0.98527968  0.98118125  1
  Se  Se35  1  0.36893889  0.51472032  0.01881875  1
  Se  Se36  1  0.61233056  0.63553543  0.51488553  1
  Se  Se37  1  0.11233056  0.86446457  0.48511447  1
  Se  Se38  1  0.38766944  0.13553543  0.98511447  1
  Se  Se39  1  0.88766944  0.36446457  0.01488553  1
  Se  Se40  1  0.58502756  0.32398474  0.46241249  1
  Se  Se41  1  0.08502756  0.17601526  0.53758751  1
  Se  Se42  1  0.41497244  0.82398474  0.03758751  1
  Se  Se43  1  0.91497244  0.67601526  0.96241249  1
  Se  Se44  1  0.20781710  0.38367985  0.24479921  1
  Se  Se45  1  0.70781710  0.11632015  0.75520079  1
  Se  Se46  1  0.79218290  0.88367985  0.25520079  1
  Se  Se47  1  0.29218290  0.61632015  0.74479921  1
