# generated using pymatgen
data_Ba2MgMo4(Se2O11)2
_symmetry_space_group_name_H-M   'P 1'
_cell_length_a   7.97484725
_cell_length_b   8.35720026
_cell_length_c   9.04405081
_cell_angle_alpha   117.51801551
_cell_angle_beta   88.29691127
_cell_angle_gamma   93.68811943
_symmetry_Int_Tables_number   1
_chemical_formula_structural   Ba2MgMo4(Se2O11)2
_chemical_formula_sum   'Ba2 Mg1 Mo4 Se4 O22'
_cell_volume   533.46216161
_cell_formula_units_Z   1
loop_
 _symmetry_equiv_pos_site_id
 _symmetry_equiv_pos_as_xyz
  1  'x, y, z'
loop_
 _atom_site_type_symbol
 _atom_site_label
 _atom_site_symmetry_multiplicity
 _atom_site_fract_x
 _atom_site_fract_y
 _atom_site_fract_z
 _atom_site_occupancy
  Ba  Ba0  1  0.69311800  0.17142300  0.00000000  1
  Ba  Ba1  1  0.14462500  0.79396100  0.00000000  1
  Mg  Mg2  1  0.39322200  0.44561200  0.00000000  1
  Mo  Mo3  1  0.65107400  0.84932100  0.21650400  1
  Mo  Mo4  1  0.16623000  0.15202900  0.78362500  1
  Mo  Mo5  1  0.65107400  0.63281800  0.78349600  1
  Mo  Mo6  1  0.16623000  0.36840400  0.21637500  1
  Se  Se7  1  0.81687900  0.31076500  0.43012900  1
  Se  Se8  1  0.31238200  0.13827100  0.41390500  1
  Se  Se9  1  0.81687900  0.88063400  0.56987100  1
  Se  Se10  1  0.31238200  0.72436500  0.58609500  1
  O  O11  1  0.17193500  0.55018700  0.16124400  1
  O  O12  1  0.60022700  0.84561000  0.00000000  1
  O  O13  1  0.38734200  0.93662200  0.26980800  1
  O  O14  1  0.68100300  0.85143400  0.70948200  1
  O  O15  1  0.38734200  0.66681400  0.73019200  1
  O  O16  1  0.86831100  0.82344900  0.18422600  1
  O  O17  1  0.38291700  0.31355400  0.16207300  1
  O  O18  1  0.90170300  0.37938400  0.28738700  1
  O  O19  1  0.19273500  0.05433600  0.53204000  1
  O  O20  1  0.90170300  0.09199700  0.71261300  1
  O  O21  1  0.55923700  0.46280400  0.83610700  1
  O  O22  1  0.67020000  0.47482100  0.52692800  1
  O  O23  1  0.68100300  0.14195200  0.29051800  1
  O  O24  1  0.55923700  0.62669600  0.16389300  1
  O  O25  1  0.38291700  0.15148100  0.83792700  1
  O  O26  1  0.06992300  0.17510400  0.00000000  1
  O  O27  1  0.15156000  0.14820600  0.29299300  1
  O  O28  1  0.15156000  0.85521300  0.70700700  1
  O  O29  1  0.67020000  0.94789200  0.47307200  1
  O  O30  1  0.86831100  0.63922400  0.81577400  1
  O  O31  1  0.19273500  0.52229500  0.46796000  1
  O  O32  1  0.17193500  0.38894400  0.83875600  1
