# generated using pymatgen
data_Sr8MgP4(IO4)4
_symmetry_space_group_name_H-M   'P 1'
_cell_length_a   8.59320025
_cell_length_b   9.28664527
_cell_length_c   9.65654622
_cell_angle_alpha   83.29781395
_cell_angle_beta   109.03700034
_cell_angle_gamma   89.34065175
_symmetry_Int_Tables_number   1
_chemical_formula_structural   Sr8MgP4(IO4)4
_chemical_formula_sum   'Sr8 Mg1 P4 I4 O16'
_cell_volume   722.47798247
_cell_formula_units_Z   1
loop_
 _symmetry_equiv_pos_site_id
 _symmetry_equiv_pos_as_xyz
  1  'x, y, z'
loop_
 _atom_site_type_symbol
 _atom_site_label
 _atom_site_symmetry_multiplicity
 _atom_site_fract_x
 _atom_site_fract_y
 _atom_site_fract_z
 _atom_site_occupancy
  Sr  Sr0  1  0.98122562  0.82112882  0.87402322  1
  Sr  Sr1  1  0.53718104  0.27959030  0.12989734  1
  Sr  Sr2  1  0.02357402  0.18406020  0.13123738  1
  Sr  Sr3  1  0.48469467  0.71184023  0.89708022  1
  Sr  Sr4  1  0.45749626  0.80821566  0.26130176  1
  Sr  Sr5  1  0.08638768  0.37086421  0.78442175  1
  Sr  Sr6  1  0.44996724  0.08865940  0.68932085  1
  Sr  Sr7  1  0.94859890  0.64882169  0.24784773  1
  Mg  Mg8  1  0.61245133  0.39738898  0.68891720  1
  P  P9  1  0.26040369  0.54875129  0.06858174  1
  P  P10  1  0.25807115  0.06143516  0.95452279  1
  P  P11  1  0.77795299  0.46992079  0.97639364  1
  P  P12  1  0.74564184  0.94486556  0.05187014  1
  I  I13  1  0.12988706  0.30204299  0.46737779  1
  I  I14  1  0.27390951  0.79653834  0.52393139  1
  I  I15  1  0.81632245  0.64200072  0.54843659  1
  I  I16  1  0.67349037  0.06400904  0.46452121  1
  O  O17  1  0.19510580  0.59980946  0.89714926  1
  O  O18  1  0.32463361  0.05388786  0.12608884  1
  O  O19  1  0.82654700  0.40832310  0.14226311  1
  O  O20  1  0.66906726  0.93292362  0.88229495  1
  O  O21  1  0.81220960  0.63362159  0.96437338  1
  O  O22  1  0.72479642  0.10034992  0.08522841  1
  O  O23  1  0.23100322  0.38438589  0.09137651  1
  O  O24  1  0.28535735  0.91184224  0.90674252  1
  O  O25  1  0.34431822  0.18317510  0.88481828  1
  O  O26  1  0.17782693  0.65025506  0.14459998  1
  O  O27  1  0.66617662  0.82771585  0.13416874  1
  O  O28  1  0.86962626  0.38114776  0.89749004  1
  O  O29  1  0.93518384  0.90412530  0.10299947  1
  O  O30  1  0.58887117  0.45580556  0.89777179  1
  O  O31  1  0.06952811  0.10413009  0.89838355  1
  O  O32  1  0.44999279  0.57122519  0.12742543  1
