# generated using pymatgen
data_RbPr(WO4)2
_symmetry_space_group_name_H-M   'P 1'
_cell_length_a   7.65467511
_cell_length_b   7.65467511
_cell_length_c   7.66410162
_cell_angle_alpha   62.51964082
_cell_angle_beta   62.51964082
_cell_angle_gamma   89.46681458
_symmetry_Int_Tables_number   1
_chemical_formula_structural   RbPr(WO4)2
_chemical_formula_sum   'Rb2 Pr2 W4 O16'
_cell_volume   341.41614595
_cell_formula_units_Z   2
loop_
 _symmetry_equiv_pos_site_id
 _symmetry_equiv_pos_as_xyz
  1  'x, y, z'
loop_
 _atom_site_type_symbol
 _atom_site_label
 _atom_site_symmetry_multiplicity
 _atom_site_fract_x
 _atom_site_fract_y
 _atom_site_fract_z
 _atom_site_occupancy
  Rb  Rb0  1  0.19986788  0.80013212  0.75000000  1
  Rb  Rb1  1  0.80013212  0.19986788  0.25000000  1
  Pr  Pr2  1  0.77312259  0.22687741  0.75000000  1
  Pr  Pr3  1  0.22687741  0.77312259  0.25000000  1
  W  W4  1  0.69374010  0.69034050  0.76933733  1
  W  W5  1  0.30625990  0.30965950  0.23066267  1
  W  W6  1  0.30965950  0.30625990  0.73066267  1
  W  W7  1  0.69034050  0.69374010  0.26933733  1
  O  O8  1  0.61933018  0.75400139  0.56163581  1
  O  O9  1  0.38066982  0.24599861  0.43836419  1
  O  O10  1  0.24599861  0.38066982  0.93836419  1
  O  O11  1  0.75400139  0.61933018  0.06163581  1
  O  O12  1  0.38819956  0.07531718  0.86149430  1
  O  O13  1  0.61180044  0.92468282  0.13850570  1
  O  O14  1  0.92468282  0.61180044  0.63850570  1
  O  O15  1  0.07531718  0.38819956  0.36149430  1
  O  O16  1  0.58089757  0.37050468  0.97614570  1
  O  O17  1  0.41910243  0.62949532  0.02385430  1
  O  O18  1  0.62949532  0.41910243  0.52385430  1
  O  O19  1  0.37050468  0.58089757  0.47614570  1
  O  O20  1  0.79127765  0.94372020  0.69110629  1
  O  O21  1  0.20872235  0.05627980  0.30889371  1
  O  O22  1  0.05627980  0.20872235  0.80889371  1
  O  O23  1  0.94372020  0.79127765  0.19110629  1
