# generated using pymatgen
data_NaCO3
_symmetry_space_group_name_H-M   'P 1'
_cell_length_a   6.32628154
_cell_length_b   6.32628182
_cell_length_c   6.32628419
_cell_angle_alpha   47.00053274
_cell_angle_beta   47.00033762
_cell_angle_gamma   47.00040900
_symmetry_Int_Tables_number   1
_chemical_formula_structural   NaCO3
_chemical_formula_sum   'Na2 C2 O6'
_cell_volume   123.79553349
_cell_formula_units_Z   2
loop_
 _symmetry_equiv_pos_site_id
 _symmetry_equiv_pos_as_xyz
  1  'x, y, z'
loop_
 _atom_site_type_symbol
 _atom_site_label
 _atom_site_symmetry_multiplicity
 _atom_site_fract_x
 _atom_site_fract_y
 _atom_site_fract_z
 _atom_site_occupancy
  Na  Na0  1  0.50000000  0.50000000  0.50000000  1
  Na  Na1  1  -0.00000000  -0.00000000  0.00000000  1
  C  C2  1  0.74999900  0.74999760  0.75000409  1
  C  C3  1  0.25000100  0.25000240  0.24999591  1
  O  O4  1  0.49802698  0.74999984  0.00197259  1
  O  O5  1  0.75000006  0.00196717  0.49803184  1
  O  O6  1  -0.00197163  0.50197088  0.25000135  1
  O  O7  1  0.50197302  0.25000016  -0.00197259  1
  O  O8  1  0.24999994  -0.00196717  0.50196816  1
  O  O9  1  0.00197163  0.49802912  0.74999865  1
