# generated using pymatgen
data_BaPb3O4
_symmetry_space_group_name_H-M   'P 1'
_cell_length_a   7.88598080
_cell_length_b   7.88598080
_cell_length_c   6.25971655
_cell_angle_alpha   90.00000000
_cell_angle_beta   90.00000000
_cell_angle_gamma   119.99999813
_symmetry_Int_Tables_number   1
_chemical_formula_structural   BaPb3O4
_chemical_formula_sum   'Ba2 Pb6 O8'
_cell_volume   337.12948599
_cell_formula_units_Z   2
loop_
 _symmetry_equiv_pos_site_id
 _symmetry_equiv_pos_as_xyz
  1  'x, y, z'
loop_
 _atom_site_type_symbol
 _atom_site_label
 _atom_site_symmetry_multiplicity
 _atom_site_fract_x
 _atom_site_fract_y
 _atom_site_fract_z
 _atom_site_occupancy
  Ba  Ba0  1  0.66666700  0.33333300  0.25000000  1
  Ba  Ba1  1  0.33333300  0.66666700  0.75000000  1
  Pb  Pb2  1  0.16651259  0.34477420  0.25000000  1
  Pb  Pb3  1  0.65522580  0.82173839  0.25000000  1
  Pb  Pb4  1  0.34477420  0.16651259  0.75000000  1
  Pb  Pb5  1  0.17826161  0.83348741  0.25000000  1
  Pb  Pb6  1  0.82173839  0.65522580  0.75000000  1
  Pb  Pb7  1  0.83348741  0.17826161  0.75000000  1
  O  O8  1  0.33333300  0.66666700  0.25000000  1
  O  O9  1  0.66666700  0.33333300  0.75000000  1
  O  O10  1  0.39346713  0.00000000  -0.00000000  1
  O  O11  1  0.00000000  0.39346713  0.00000000  1
  O  O12  1  0.39346713  0.00000000  0.50000000  1
  O  O13  1  0.60653287  0.60653287  0.00000000  1
  O  O14  1  0.00000000  0.39346713  0.50000000  1
  O  O15  1  0.60653287  0.60653287  0.50000000  1
