# generated using pymatgen
data_Sr2MgZn2Sn2(PO4)4
_symmetry_space_group_name_H-M   'P 1'
_cell_length_a   5.26541473
_cell_length_b   8.38863855
_cell_length_c   9.83111807
_cell_angle_alpha   106.74883096
_cell_angle_beta   99.10417809
_cell_angle_gamma   88.12021501
_symmetry_Int_Tables_number   1
_chemical_formula_structural   Sr2MgZn2Sn2(PO4)4
_chemical_formula_sum   'Sr2 Mg1 Zn2 Sn2 P4 O16'
_cell_volume   410.53968290
_cell_formula_units_Z   1
loop_
 _symmetry_equiv_pos_site_id
 _symmetry_equiv_pos_as_xyz
  1  'x, y, z'
loop_
 _atom_site_type_symbol
 _atom_site_label
 _atom_site_symmetry_multiplicity
 _atom_site_fract_x
 _atom_site_fract_y
 _atom_site_fract_z
 _atom_site_occupancy
  Sr  Sr0  1  0.09579316  0.74164157  0.00383715  1
  Sr  Sr1  1  0.88487117  0.25120114  0.99315083  1
  Mg  Mg2  1  0.26522048  0.83473873  0.37102898  1
  Zn  Zn3  1  0.04775191  0.40424589  0.62973452  1
  Zn  Zn4  1  0.95322795  0.40188802  0.38264300  1
  Sn  Sn5  1  0.74358032  0.85988118  0.65126949  1
  Sn  Sn6  1  0.42048198  0.21264111  0.45149660  1
  P  P7  1  0.40871581  0.46423947  0.23120768  1
  P  P8  1  0.58865391  0.54402073  0.78568718  1
  P  P9  1  0.73288599  0.96824624  0.22687600  1
  P  P10  1  0.24844698  0.05266635  0.73017415  1
  O  O11  1  0.73544127  0.50085740  0.91686194  1
  O  O12  1  0.69554353  0.41803149  0.21742036  1
  O  O13  1  0.71604909  0.71357695  0.79081480  1
  O  O14  1  0.12229282  0.22091413  0.73235438  1
  O  O15  1  0.29643753  0.56739831  0.78605615  1
  O  O16  1  0.22974702  0.92717354  0.57721607  1
  O  O17  1  0.77837577  0.13572741  0.35495105  1
  O  O18  1  0.09205827  0.97420509  0.82031675  1
  O  O19  1  0.27490324  0.31043822  0.26099656  1
  O  O20  1  0.77334811  0.99849789  0.08533285  1
  O  O21  1  0.25642290  0.48422602  0.09136364  1
  O  O22  1  0.39341740  0.61462952  0.36333833  1
  O  O23  1  0.64310496  0.41105593  0.64315828  1
  O  O24  1  0.45416576  0.90552392  0.22613873  1
  O  O25  1  0.93035249  0.83637247  0.25741700  1
  O  O26  1  0.54013919  0.07003430  0.79415754  1
