# generated using pymatgen
data_Sm2ReO5
_symmetry_space_group_name_H-M   'P 1'
_cell_length_a   8.64928294
_cell_length_b   8.64928294
_cell_length_c   5.76058773
_cell_angle_alpha   90.00000000
_cell_angle_beta   90.00000000
_cell_angle_gamma   90.00000000
_symmetry_Int_Tables_number   1
_chemical_formula_structural   Sm2ReO5
_chemical_formula_sum   'Sm8 Re4 O20'
_cell_volume   430.95011750
_cell_formula_units_Z   4
loop_
 _symmetry_equiv_pos_site_id
 _symmetry_equiv_pos_as_xyz
  1  'x, y, z'
loop_
 _atom_site_type_symbol
 _atom_site_label
 _atom_site_symmetry_multiplicity
 _atom_site_fract_x
 _atom_site_fract_y
 _atom_site_fract_z
 _atom_site_occupancy
  Sm  Sm0  1  0.35773047  0.64995217  0.24934591  1
  Sm  Sm1  1  0.14995217  0.14226953  0.24934591  1
  Sm  Sm2  1  0.85004783  0.85773047  0.24934591  1
  Sm  Sm3  1  0.64226953  0.35004783  0.24934591  1
  Sm  Sm4  1  0.85773047  0.14995217  0.75065409  1
  Sm  Sm5  1  0.64995217  0.64226953  0.75065409  1
  Sm  Sm6  1  0.35004783  0.35773047  0.75065409  1
  Sm  Sm7  1  0.14226953  0.85004783  0.75065409  1
  Re  Re8  1  0.00000000  0.50000000  0.15281665  1
  Re  Re9  1  0.50000000  0.00000000  0.84718335  1
  Re  Re10  1  0.00000000  0.50000000  0.54275689  1
  Re  Re11  1  0.50000000  0.00000000  0.45724311  1
  O  O12  1  0.70026687  0.08951735  0.39558483  1
  O  O13  1  0.58951735  0.79973313  0.39558483  1
  O  O14  1  0.41048265  0.20026687  0.39558483  1
  O  O15  1  0.29973313  0.91048265  0.39558483  1
  O  O16  1  0.79973313  0.41048265  0.60441517  1
  O  O17  1  0.91048265  0.70026687  0.60441517  1
  O  O18  1  0.08951735  0.29973313  0.60441517  1
  O  O19  1  0.20026687  0.58951735  0.60441517  1
  O  O20  1  0.70063627  0.90905985  0.89987395  1
  O  O21  1  0.40905985  0.79936373  0.89987395  1
  O  O22  1  0.59094015  0.20063627  0.89987395  1
  O  O23  1  0.29936373  0.09094015  0.89987395  1
  O  O24  1  0.50000000  0.50000000  0.00000000  1
  O  O25  1  0.00000000  0.00000000  0.00000000  1
  O  O26  1  0.50000000  0.50000000  0.50000000  1
  O  O27  1  0.00000000  0.00000000  0.50000000  1
  O  O28  1  0.20063627  0.40905985  0.10012605  1
  O  O29  1  0.90905985  0.29936373  0.10012605  1
  O  O30  1  0.09094015  0.70063627  0.10012605  1
  O  O31  1  0.79936373  0.59094015  0.10012605  1
