# generated using pymatgen
data_CsCrAs2O7
_symmetry_space_group_name_H-M   'P 1'
_cell_length_a   10.11550405
_cell_length_b   7.93735248
_cell_length_c   8.69185421
_cell_angle_alpha   74.10170330
_cell_angle_beta   90.00000000
_cell_angle_gamma   90.00000000
_symmetry_Int_Tables_number   1
_chemical_formula_structural   CsCrAs2O7
_chemical_formula_sum   'Cs4 Cr4 As8 O28'
_cell_volume   671.17778995
_cell_formula_units_Z   4
loop_
 _symmetry_equiv_pos_site_id
 _symmetry_equiv_pos_as_xyz
  1  'x, y, z'
loop_
 _atom_site_type_symbol
 _atom_site_label
 _atom_site_symmetry_multiplicity
 _atom_site_fract_x
 _atom_site_fract_y
 _atom_site_fract_z
 _atom_site_occupancy
  Cs  Cs0  1  0.19628968  0.67880853  0.45588100  1
  Cs  Cs1  1  0.69628968  0.32119147  0.04411900  1
  Cs  Cs2  1  0.80371032  0.32119147  0.54411900  1
  Cs  Cs3  1  0.30371032  0.67880853  0.95588100  1
  Cr  Cr4  1  0.39942803  0.26105192  0.76699200  1
  Cr  Cr5  1  0.89942803  0.73894808  0.73300800  1
  Cr  Cr6  1  0.60057197  0.73894808  0.23300800  1
  Cr  Cr7  1  0.10057197  0.26105192  0.26699200  1
  As  As8  1  0.13191841  0.06917237  0.68582170  1
  As  As9  1  0.63191841  0.93082763  0.81417830  1
  As  As10  1  0.86808159  0.93082763  0.31417830  1
  As  As11  1  0.36808159  0.06917237  0.18582170  1
  As  As12  1  0.08945952  0.36390990  0.84124710  1
  As  As13  1  0.58945952  0.63609010  0.65875290  1
  As  As14  1  0.91054048  0.63609010  0.15875290  1
  As  As15  1  0.41054048  0.36390990  0.34124710  1
  O  O16  1  0.10513892  0.20548598  0.50443409  1
  O  O17  1  0.60513892  0.79451402  0.99556591  1
  O  O18  1  0.89486108  0.79451402  0.49556591  1
  O  O19  1  0.39486108  0.20548598  0.00443409  1
  O  O20  1  0.07574872  0.86357405  0.71830448  1
  O  O21  1  0.57574872  0.13642595  0.78169552  1
  O  O22  1  0.92425128  0.13642595  0.28169552  1
  O  O23  1  0.42425128  0.86357405  0.21830448  1
  O  O24  1  0.28968430  0.05838963  0.75328092  1
  O  O25  1  0.78968430  0.94161037  0.74671908  1
  O  O26  1  0.71031570  0.94161037  0.24671908  1
  O  O27  1  0.21031570  0.05838963  0.25328092  1
  O  O28  1  0.03613713  0.16163821  0.81417748  1
  O  O29  1  0.53613713  0.83836179  0.68582252  1
  O  O30  1  0.96386287  0.83836179  0.18582252  1
  O  O31  1  0.46386287  0.16163821  0.31417748  1
  O  O32  1  0.08005234  0.34830588  0.03454459  1
  O  O33  1  0.58005234  0.65169412  0.46545541  1
  O  O34  1  0.91994766  0.65169412  0.96545541  1
  O  O35  1  0.41994766  0.34830588  0.53454459  1
  O  O36  1  0.99215380  0.51707600  0.72322893  1
  O  O37  1  0.49215380  0.48292400  0.77677107  1
  O  O38  1  0.00784620  0.48292400  0.27677107  1
  O  O39  1  0.50784620  0.51707600  0.22322893  1
  O  O40  1  0.24094230  0.40348860  0.75844516  1
  O  O41  1  0.74094230  0.59651140  0.74155484  1
  O  O42  1  0.75905770  0.59651140  0.24155484  1
  O  O43  1  0.25905770  0.40348860  0.25844516  1
