# generated using pymatgen
data_Cs2CdBr4
_symmetry_space_group_name_H-M   'P 1'
_cell_length_a   7.96809333
_cell_length_b   10.35631303
_cell_length_c   14.16778374
_cell_angle_alpha   89.98958424
_cell_angle_beta   90.00263965
_cell_angle_gamma   90.00191859
_symmetry_Int_Tables_number   1
_chemical_formula_structural   Cs2CdBr4
_chemical_formula_sum   'Cs8 Cd4 Br16'
_cell_volume   1169.12646858
_cell_formula_units_Z   4
loop_
 _symmetry_equiv_pos_site_id
 _symmetry_equiv_pos_as_xyz
  1  'x, y, z'
loop_
 _atom_site_type_symbol
 _atom_site_label
 _atom_site_symmetry_multiplicity
 _atom_site_fract_x
 _atom_site_fract_y
 _atom_site_fract_z
 _atom_site_occupancy
  Cs  Cs0  1  0.75001188  0.38168052  0.57841066  1
  Cs  Cs1  1  0.75000817  0.88166840  0.92158860  1
  Cs  Cs2  1  0.25001107  0.61832612  0.42151751  1
  Cs  Cs3  1  0.25000564  0.11828548  0.07850084  1
  Cs  Cs4  1  0.75000882  0.51828977  0.17329373  1
  Cs  Cs5  1  0.75001326  0.01833706  0.32668921  1
  Cs  Cs6  1  0.25000520  0.48172597  0.82671183  1
  Cs  Cs7  1  0.25001587  0.98169567  0.67327984  1
  Cd  Cd8  1  0.75002669  0.27812672  0.92462581  1
  Cd  Cd9  1  0.75001674  0.77804429  0.57532888  1
  Cd  Cd10  1  0.25001279  0.72200752  0.07538622  1
  Cd  Cd11  1  0.24999116  0.22194017  0.42463574  1
  Br  Br12  1  0.74998727  0.52731294  0.90869123  1
  Br  Br13  1  0.75000423  0.02721127  0.59131603  1
  Br  Br14  1  0.24994772  0.47292072  0.09126893  1
  Br  Br15  1  0.24994956  0.97288504  0.40858975  1
  Br  Br16  1  0.75008931  0.18073108  0.09566502  1
  Br  Br17  1  0.74999949  0.68056066  0.40433108  1
  Br  Br18  1  0.24997920  0.81931339  0.90445287  1
  Br  Br19  1  0.25000447  0.31923726  0.59553367  1
  Br  Br20  1  0.01314235  0.17416592  0.84676833  1
  Br  Br21  1  0.48689604  0.67416691  0.65324039  1
  Br  Br22  1  0.51318501  0.82571383  0.15330155  1
  Br  Br23  1  0.98692604  0.32579935  0.34673292  1
  Br  Br24  1  0.98687758  0.82571763  0.15332772  1
  Br  Br25  1  0.51304770  0.32570966  0.34668759  1
  Br  Br26  1  0.48672736  0.17425688  0.84688757  1
  Br  Br27  1  0.01310839  0.67416977  0.65323749  1
