# generated using pymatgen
data_NdTa7O19
_symmetry_space_group_name_H-M   'P 1'
_cell_length_a   6.23938141
_cell_length_b   6.23938365
_cell_length_c   20.00213331
_cell_angle_alpha   90.00000090
_cell_angle_beta   89.99999841
_cell_angle_gamma   119.99989748
_symmetry_Int_Tables_number   1
_chemical_formula_structural   NdTa7O19
_chemical_formula_sum   'Nd2 Ta14 O38'
_cell_volume   674.35816954
_cell_formula_units_Z   2
loop_
 _symmetry_equiv_pos_site_id
 _symmetry_equiv_pos_as_xyz
  1  'x, y, z'
loop_
 _atom_site_type_symbol
 _atom_site_label
 _atom_site_symmetry_multiplicity
 _atom_site_fract_x
 _atom_site_fract_y
 _atom_site_fract_z
 _atom_site_occupancy
  Nd  Nd0  1  -0.00000064  0.00000027  0.00000102  1
  Nd  Nd1  1  -0.00000006  0.00000003  0.50000022  1
  Ta  Ta2  1  0.02664428  0.33442097  0.65604292  1
  Ta  Ta3  1  0.66557956  0.69222354  0.65604306  1
  Ta  Ta4  1  0.02664050  0.33442101  0.84396231  1
  Ta  Ta5  1  0.66557862  0.69221982  0.84396237  1
  Ta  Ta6  1  0.30778071  0.97336041  0.84396249  1
  Ta  Ta7  1  0.66557544  0.97336409  0.15603443  1
  Ta  Ta8  1  0.30778859  0.33442373  0.15603466  1
  Ta  Ta9  1  0.30778602  0.33441987  0.34395981  1
  Ta  Ta10  1  0.66557992  0.97336576  0.34395966  1
  Ta  Ta11  1  0.02663780  0.69221080  0.15603470  1
  Ta  Ta12  1  0.33333370  0.66666711  0.50000120  1
  Ta  Ta13  1  0.33333279  0.66666638  -0.00000161  1
  Ta  Ta14  1  0.02663307  0.69221321  0.34395973  1
  Ta  Ta15  1  0.30777839  0.97335767  0.65604325  1
  O  O16  1  -0.00000008  -0.00000014  0.63163845  1
  O  O17  1  0.00000026  0.00000011  0.86836804  1
  O  O18  1  0.00000009  0.00000012  0.36836006  1
  O  O19  1  -0.00000000  -0.00000003  0.13163573  1
  O  O20  1  0.33333308  0.66666660  0.66776387  1
  O  O21  1  0.33333292  0.66666625  0.83224054  1
  O  O22  1  0.33333355  0.66666706  0.33223818  1
  O  O23  1  0.33333312  0.66666703  0.16775832  1
  O  O24  1  0.04227125  0.28904021  0.75000460  1
  O  O25  1  0.71095917  0.75323061  0.75000468  1
  O  O26  1  0.24676948  0.95772864  0.75000463  1
  O  O27  1  0.24676922  0.28904593  0.24999607  1
  O  O28  1  0.71095437  0.95772318  0.24999600  1
  O  O29  1  0.04227654  0.75323063  0.24999601  1
  O  O30  1  0.61484011  0.90264841  0.44308250  1
  O  O31  1  0.09736052  0.38516472  0.55691982  1
  O  O32  1  0.91294881  0.33318149  0.15348648  1
  O  O33  1  0.42022951  0.08704458  0.34650953  1
  O  O34  1  0.66681477  0.57977134  0.34650953  1
  O  O35  1  0.66681745  0.57976816  0.15348649  1
  O  O36  1  0.42023342  0.08705175  0.15348648  1
  O  O37  1  0.66681770  0.08704786  0.84651435  1
  O  O38  1  0.42022847  0.33318276  0.84651454  1
  O  O39  1  0.91295085  0.57976923  0.84651439  1
  O  O40  1  0.42023335  0.33318431  0.65348931  1
  O  O41  1  0.91294952  0.57976568  0.65348926  1
  O  O42  1  0.91295598  0.33318484  0.34650955  1
  O  O43  1  0.66681658  0.08704919  0.65348922  1
  O  O44  1  0.09735886  0.38516206  0.94308562  1
  O  O45  1  0.28780442  0.90263980  0.55691985  1
  O  O46  1  0.61483551  0.71219569  0.55691986  1
  O  O47  1  0.61483746  0.71219664  0.94308565  1
  O  O48  1  0.28780271  0.90264138  0.94308565  1
  O  O49  1  0.61484173  0.90265153  0.05691218  1
  O  O50  1  0.28780945  0.38515811  0.05691221  1
  O  O51  1  0.09734808  0.71219045  0.05691226  1
  O  O52  1  0.28780823  0.38516024  0.44308245  1
  O  O53  1  0.09735189  0.71219190  0.44308245  1
