# generated using pymatgen
data_KMg6BO7
_symmetry_space_group_name_H-M   'P 1'
_cell_length_a   7.85516686
_cell_length_b   4.78614032
_cell_length_c   4.78614032
_cell_angle_alpha   90.00000000
_cell_angle_beta   90.00000000
_cell_angle_gamma   90.00000000
_symmetry_Int_Tables_number   1
_chemical_formula_structural   KMg6BO7
_chemical_formula_sum   'K1 Mg6 B1 O7'
_cell_volume   179.93940041
_cell_formula_units_Z   1
loop_
 _symmetry_equiv_pos_site_id
 _symmetry_equiv_pos_as_xyz
  1  'x, y, z'
loop_
 _atom_site_type_symbol
 _atom_site_label
 _atom_site_symmetry_multiplicity
 _atom_site_fract_x
 _atom_site_fract_y
 _atom_site_fract_z
 _atom_site_occupancy
  K  K0  1  0.00129484  -0.00000000  0.00000000  1
  Mg  Mg1  1  0.00413752  0.50000000  0.50000000  1
  Mg  Mg2  1  0.49621955  0.50000000  0.50000000  1
  Mg  Mg3  1  0.25555515  0.00000000  0.50000000  1
  Mg  Mg4  1  0.74346660  -0.00000000  0.50000000  1
  Mg  Mg5  1  0.25555515  0.50000000  -0.00000000  1
  Mg  Mg6  1  0.74346660  0.50000000  0.00000000  1
  B  B7  1  0.50064464  -0.00000000  0.00000000  1
  O  O8  1  0.33060869  -0.00000000  -0.00000000  1
  O  O9  1  0.67149074  -0.00000000  -0.00000000  1
  O  O10  1  0.75024691  0.50000000  0.50000000  1
  O  O11  1  0.99922649  0.00000000  0.50000000  1
  O  O12  1  0.49943031  0.00000000  0.50000000  1
  O  O13  1  0.99922649  0.50000000  0.00000000  1
  O  O14  1  0.49943031  0.50000000  -0.00000000  1
