# generated using pymatgen
data_Sr2UO5
_symmetry_space_group_name_H-M   'P 1'
_cell_length_a   5.68778583
_cell_length_b   8.08989526
_cell_length_c   11.92607877
_cell_angle_alpha   71.56425489
_cell_angle_beta   90.00000000
_cell_angle_gamma   90.00000000
_symmetry_Int_Tables_number   1
_chemical_formula_structural   Sr2UO5
_chemical_formula_sum   'Sr8 U4 O20'
_cell_volume   520.59866507
_cell_formula_units_Z   4
loop_
 _symmetry_equiv_pos_site_id
 _symmetry_equiv_pos_as_xyz
  1  'x, y, z'
loop_
 _atom_site_type_symbol
 _atom_site_label
 _atom_site_symmetry_multiplicity
 _atom_site_fract_x
 _atom_site_fract_y
 _atom_site_fract_z
 _atom_site_occupancy
  Sr  Sr0  1  0.93249876  0.15660803  0.68121565  1
  Sr  Sr1  1  0.43249876  0.84339197  0.81878435  1
  Sr  Sr2  1  0.06750124  0.84339197  0.31878435  1
  Sr  Sr3  1  0.56750124  0.15660803  0.18121565  1
  Sr  Sr4  1  0.50018928  0.33881098  0.86221702  1
  Sr  Sr5  1  0.00018928  0.66118902  0.63778298  1
  Sr  Sr6  1  0.49981072  0.66118902  0.13778298  1
  Sr  Sr7  1  0.99981072  0.33881098  0.36221702  1
  U  U8  1  0.00000000  -0.00000000  -0.00000000  1
  U  U9  1  0.50000000  -0.00000000  0.50000000  1
  U  U10  1  0.00000000  0.50000000  -0.00000000  1
  U  U11  1  0.50000000  0.50000000  0.50000000  1
  O  O12  1  0.65218752  0.25063627  0.50165076  1
  O  O13  1  0.15218752  0.74936373  0.99834924  1
  O  O14  1  0.34781248  0.74936373  0.49834924  1
  O  O15  1  0.84781248  0.25063627  0.00165076  1
  O  O16  1  0.75938903  0.01939641  0.37894186  1
  O  O17  1  0.25938903  0.98060359  0.12105814  1
  O  O18  1  0.24061097  0.98060359  0.62105814  1
  O  O19  1  0.74061097  0.01939641  0.87894186  1
  O  O20  1  0.79856294  0.60476020  0.42556700  1
  O  O21  1  0.29856294  0.39523980  0.07443300  1
  O  O22  1  0.20143706  0.39523980  0.57443300  1
  O  O23  1  0.70143706  0.60476020  0.92556700  1
  O  O24  1  0.66994104  0.44566112  0.66447502  1
  O  O25  1  0.16994104  0.55433888  0.83552498  1
  O  O26  1  0.33005896  0.55433888  0.33552498  1
  O  O27  1  0.83005896  0.44566112  0.16447502  1
  O  O28  1  0.70948678  0.89211993  0.64139489  1
  O  O29  1  0.20948678  0.10788007  0.85860511  1
  O  O30  1  0.29051322  0.10788007  0.35860511  1
  O  O31  1  0.79051322  0.89211993  0.14139489  1
