# generated using pymatgen
data_RbBa2I5
_symmetry_space_group_name_H-M   'P 1'
_cell_length_a   9.36097071
_cell_length_b   10.51322500
_cell_length_c   14.98083859
_cell_angle_alpha   90.05000317
_cell_angle_beta   90.00000000
_cell_angle_gamma   90.00000000
_symmetry_Int_Tables_number   1
_chemical_formula_structural   RbBa2I5
_chemical_formula_sum   'Rb4 Ba8 I20'
_cell_volume   1474.32355792
_cell_formula_units_Z   4
loop_
 _symmetry_equiv_pos_site_id
 _symmetry_equiv_pos_as_xyz
  1  'x, y, z'
loop_
 _atom_site_type_symbol
 _atom_site_label
 _atom_site_symmetry_multiplicity
 _atom_site_fract_x
 _atom_site_fract_y
 _atom_site_fract_z
 _atom_site_occupancy
  Rb  Rb0  1  0.46090042  0.49364636  0.82829430  1
  Rb  Rb1  1  0.53909958  0.50635364  0.17170570  1
  Rb  Rb2  1  0.96090042  0.50635364  0.67170570  1
  Rb  Rb3  1  0.03909958  0.49364636  0.32829430  1
  Ba  Ba4  1  0.47377429  0.99909164  0.82197320  1
  Ba  Ba5  1  0.52622571  0.00090836  0.17802680  1
  Ba  Ba6  1  0.97377429  0.00090836  0.67802680  1
  Ba  Ba7  1  0.02622571  0.99909164  0.32197320  1
  Ba  Ba8  1  0.42433222  0.74832553  0.50763439  1
  Ba  Ba9  1  0.57566778  0.25167447  0.49236561  1
  Ba  Ba10  1  0.92433222  0.25167447  0.99236561  1
  Ba  Ba11  1  0.07566778  0.74832553  0.00763439  1
  I  I12  1  0.33030203  0.45900800  0.59335757  1
  I  I13  1  0.66969797  0.54099200  0.40664243  1
  I  I14  1  0.83030203  0.54099200  0.90664243  1
  I  I15  1  0.16969797  0.45900800  0.09335757  1
  I  I16  1  0.66922379  0.77909198  0.68430715  1
  I  I17  1  0.33077621  0.22090802  0.31569285  1
  I  I18  1  0.16922379  0.22090802  0.81569285  1
  I  I19  1  0.83077621  0.77909198  0.18430715  1
  I  I20  1  0.19515493  0.76584480  0.78116011  1
  I  I21  1  0.80484507  0.23415520  0.21883989  1
  I  I22  1  0.69515493  0.23415520  0.71883989  1
  I  I23  1  0.30484507  0.76584480  0.28116011  1
  I  I24  1  0.04040627  0.77425657  0.50213387  1
  I  I25  1  0.95959373  0.22574343  0.49786613  1
  I  I26  1  0.54040627  0.22574343  0.99786613  1
  I  I27  1  0.45959373  0.77425657  0.00213387  1
  I  I28  1  0.83590523  0.95766789  0.90160833  1
  I  I29  1  0.16409477  0.04233211  0.09839167  1
  I  I30  1  0.33590523  0.04233211  0.59839167  1
  I  I31  1  0.66409477  0.95766789  0.40160833  1
