# generated using pymatgen
data_CoSO4
_symmetry_space_group_name_H-M   'P 1'
_cell_length_a   4.70239698
_cell_length_b   4.70251826
_cell_length_c   6.49649056
_cell_angle_alpha   90.00000000
_cell_angle_beta   90.00000000
_cell_angle_gamma   113.17619689
_symmetry_Int_Tables_number   1
_chemical_formula_structural   CoSO4
_chemical_formula_sum   'Co2 S2 O8'
_cell_volume   132.06427215
_cell_formula_units_Z   2
loop_
 _symmetry_equiv_pos_site_id
 _symmetry_equiv_pos_as_xyz
  1  'x, y, z'
loop_
 _atom_site_type_symbol
 _atom_site_label
 _atom_site_symmetry_multiplicity
 _atom_site_fract_x
 _atom_site_fract_y
 _atom_site_fract_z
 _atom_site_occupancy
  Co  Co0  1  -0.00000000  0.00000000  0.50000000  1
  Co  Co1  1  -0.00000000  0.00000000  -0.00000000  1
  S  S2  1  0.65001042  0.35023961  0.25000000  1
  S  S3  1  0.34998958  0.64976039  0.75000000  1
  O  O4  1  0.22596764  0.30402487  0.75000000  1
  O  O5  1  0.77403236  0.69597513  0.25000000  1
  O  O6  1  0.30437641  0.22688943  0.25000000  1
  O  O7  1  0.69562359  0.77311057  0.75000000  1
  O  O8  1  0.24886814  0.75113804  0.93808363  1
  O  O9  1  0.75113186  0.24886196  0.43808363  1
  O  O10  1  0.75113186  0.24886196  0.06191637  1
  O  O11  1  0.24886814  0.75113804  0.56191637  1
