# generated using pymatgen
data_KMg14BiO16
_symmetry_space_group_name_H-M   'P 1'
_cell_length_a   8.72028155
_cell_length_b   8.93740147
_cell_length_c   4.47048991
_cell_angle_alpha   90.00000000
_cell_angle_beta   90.00000000
_cell_angle_gamma   90.00000000
_symmetry_Int_Tables_number   1
_chemical_formula_structural   KMg14BiO16
_chemical_formula_sum   'K1 Mg14 Bi1 O16'
_cell_volume   348.41503938
_cell_formula_units_Z   1
loop_
 _symmetry_equiv_pos_site_id
 _symmetry_equiv_pos_as_xyz
  1  'x, y, z'
loop_
 _atom_site_type_symbol
 _atom_site_label
 _atom_site_symmetry_multiplicity
 _atom_site_fract_x
 _atom_site_fract_y
 _atom_site_fract_z
 _atom_site_occupancy
  K  K0  1  -0.00000000  0.00000000  0.00000000  1
  Mg  Mg1  1  0.50000000  0.00000000  0.00000000  1
  Mg  Mg2  1  0.50000000  0.50000000  0.00000000  1
  Mg  Mg3  1  -0.00000000  0.23247483  0.50000000  1
  Mg  Mg4  1  -0.00000000  0.76752517  0.50000000  1
  Mg  Mg5  1  0.50000000  0.24652328  0.50000000  1
  Mg  Mg6  1  0.50000000  0.75347672  0.50000000  1
  Mg  Mg7  1  0.25377479  0.00000000  0.50000000  1
  Mg  Mg8  1  0.26392313  0.50000000  0.50000000  1
  Mg  Mg9  1  0.74622521  0.00000000  0.50000000  1
  Mg  Mg10  1  0.73607687  0.50000000  0.50000000  1
  Mg  Mg11  1  0.25896184  0.24014724  0.00000000  1
  Mg  Mg12  1  0.25896184  0.75985276  -0.00000000  1
  Mg  Mg13  1  0.74103816  0.24014724  0.00000000  1
  Mg  Mg14  1  0.74103816  0.75985276  -0.00000000  1
  Bi  Bi15  1  -0.00000000  0.50000000  0.00000000  1
  O  O16  1  0.27651354  0.00000000  -0.00000000  1
  O  O17  1  0.26912104  0.50000000  -0.00000000  1
  O  O18  1  0.72348646  0.00000000  0.00000000  1
  O  O19  1  0.73087896  0.50000000  0.00000000  1
  O  O20  1  0.25012731  0.25135232  0.50000000  1
  O  O21  1  0.25012731  0.74864768  0.50000000  1
  O  O22  1  0.74987269  0.25135232  0.50000000  1
  O  O23  1  0.74987269  0.74864768  0.50000000  1
  O  O24  1  -0.00000000  0.00000000  0.50000000  1
  O  O25  1  -0.00000000  0.50000000  0.50000000  1
  O  O26  1  0.50000000  0.00000000  0.50000000  1
  O  O27  1  0.50000000  0.50000000  0.50000000  1
  O  O28  1  -0.00000000  0.25352794  0.00000000  1
  O  O29  1  -0.00000000  0.74647206  0.00000000  1
  O  O30  1  0.50000000  0.25328168  -0.00000000  1
  O  O31  1  0.50000000  0.74671832  0.00000000  1
