# generated using pymatgen
data_Na2CaZr2Si10HO26
_symmetry_space_group_name_H-M   'P 1'
_cell_length_a   9.49199971
_cell_length_b   9.49199971
_cell_length_c   18.90366091
_cell_angle_alpha   98.05393236
_cell_angle_beta   98.05393236
_cell_angle_gamma   113.37634533
_symmetry_Int_Tables_number   1
_chemical_formula_structural   Na2CaZr2Si10HO26
_chemical_formula_sum   'Na4 Ca2 Zr4 Si20 H2 O52'
_cell_volume   1511.65420269
_cell_formula_units_Z   2
loop_
 _symmetry_equiv_pos_site_id
 _symmetry_equiv_pos_as_xyz
  1  'x, y, z'
loop_
 _atom_site_type_symbol
 _atom_site_label
 _atom_site_symmetry_multiplicity
 _atom_site_fract_x
 _atom_site_fract_y
 _atom_site_fract_z
 _atom_site_occupancy
  Na  Na0  1  0.89708040  0.96303250  0.80623626  1
  Na  Na1  1  0.96303250  0.89708040  0.30623626  1
  Na  Na2  1  0.73952247  0.67851016  0.98324253  1
  Na  Na3  1  0.67851016  0.73952247  0.48324253  1
  Ca  Ca4  1  0.27444470  0.50378551  0.89584066  1
  Ca  Ca5  1  0.50378551  0.27444470  0.39584066  1
  Zr  Zr6  1  0.39530154  0.89358902  0.88610278  1
  Zr  Zr7  1  0.89358902  0.39530154  0.38610278  1
  Zr  Zr8  1  0.36645614  0.85368733  0.38578281  1
  Zr  Zr9  1  0.85368733  0.36645614  0.88578281  1
  Si  Si10  1  0.02590808  0.60539825  0.77154019  1
  Si  Si11  1  0.60539825  0.02590808  0.27154019  1
  Si  Si12  1  0.73089388  0.12570070  0.00197565  1
  Si  Si13  1  0.12570070  0.73089388  0.50197565  1
  Si  Si14  1  0.57870328  0.17767218  0.62979691  1
  Si  Si15  1  0.17767218  0.57870328  0.12979691  1
  Si  Si16  1  0.72270547  0.11707255  0.49246805  1
  Si  Si17  1  0.11707255  0.72270547  0.99246805  1
  Si  Si18  1  0.26761482  0.06962909  0.51280098  1
  Si  Si19  1  0.06962909  0.26761482  0.01280098  1
  Si  Si20  1  0.06490749  0.26172116  0.50866975  1
  Si  Si21  1  0.26172116  0.06490749  0.00866975  1
  Si  Si22  1  0.61474560  0.02468819  0.76577895  1
  Si  Si23  1  0.02468819  0.61474560  0.26577895  1
  Si  Si24  1  0.16915187  0.57455258  0.63168740  1
  Si  Si25  1  0.57455258  0.16915187  0.13168740  1
  Si  Si26  1  0.47613782  0.67839488  0.75131897  1
  Si  Si27  1  0.67839488  0.47613782  0.25131897  1
  Si  Si28  1  0.48049595  0.68085534  0.25136604  1
  Si  Si29  1  0.68085534  0.48049595  0.75136604  1
  H  H30  1  0.49904508  0.40690636  0.94873981  1
  H  H31  1  0.40690636  0.49904508  0.44873981  1
  O  O32  1  0.39567337  0.11267702  0.58867882  1
  O  O33  1  0.11267702  0.39567337  0.08867882  1
  O  O34  1  0.24891390  0.73083326  0.94294963  1
  O  O35  1  0.73083326  0.24891390  0.44294963  1
  O  O36  1  0.68679800  0.17308127  0.57111606  1
  O  O37  1  0.17308127  0.68679800  0.07111606  1
  O  O38  1  0.05630508  0.56305039  0.69006883  1
  O  O39  1  0.56305039  0.05630508  0.19006883  1
  O  O40  1  0.62930526  0.85876896  0.26070821  1
  O  O41  1  0.85876896  0.62930526  0.76070821  1
  O  O42  1  0.20405056  0.20462601  0.51557242  1
  O  O43  1  0.20462601  0.20405056  0.01557242  1
  O  O44  1  0.47404879  0.02304075  0.31838857  1
  O  O45  1  0.02304075  0.47404879  0.81838857  1
  O  O46  1  0.15882027  0.70139647  0.58460180  1
  O  O47  1  0.70139647  0.15882027  0.08460180  1
  O  O48  1  0.68398906  0.39639876  0.81949306  1
  O  O49  1  0.39639876  0.68398906  0.31949306  1
  O  O50  1  0.10721907  0.40236471  0.57914906  1
  O  O51  1  0.40236471  0.10721907  0.07914906  1
  O  O52  1  0.89794844  0.11478347  0.50980369  1
  O  O53  1  0.11478347  0.89794844  0.00980369  1
  O  O54  1  0.59000093  0.06484419  0.68526877  1
  O  O55  1  0.06484419  0.59000093  0.18526877  1
  O  O56  1  0.78765428  0.14208349  0.81593044  1
  O  O57  1  0.14208349  0.78765428  0.31593044  1
  O  O58  1  0.31673423  0.04725531  0.93139225  1
  O  O59  1  0.04725531  0.31673423  0.43139225  1
  O  O60  1  0.62371906  0.84912614  0.75383380  1
  O  O61  1  0.84912614  0.62371906  0.25383380  1
  O  O62  1  0.59783157  0.95309384  0.95553430  1
  O  O63  1  0.95309384  0.59783157  0.45553430  1
  O  O64  1  0.90241108  0.11648732  0.00958696  1
  O  O65  1  0.11648732  0.90241108  0.50958696  1
  O  O66  1  0.73405608  0.26436166  0.96021713  1
  O  O67  1  0.26436166  0.73405608  0.46021713  1
  O  O68  1  0.34954005  0.63158586  0.67471637  1
  O  O69  1  0.63158586  0.34954005  0.17471637  1
  O  O70  1  0.06091234  0.34216533  0.94040136  1
  O  O71  1  0.34216533  0.06091234  0.44040136  1
  O  O72  1  0.35986462  0.64181882  0.17335044  1
  O  O73  1  0.64181882  0.35986462  0.67335044  1
  O  O74  1  0.50665690  0.49186170  0.45075147  1
  O  O75  1  0.49186170  0.50665690  0.95075147  1
  O  O76  1  0.39456678  0.68402016  0.82184138  1
  O  O77  1  0.68402016  0.39456678  0.32184138  1
  O  O78  1  0.46571682  0.00161541  0.80369191  1
  O  O79  1  0.00161541  0.46571682  0.30369191  1
  O  O80  1  0.55161640  0.55201130  0.75002022  1
  O  O81  1  0.55201130  0.55161640  0.25002022  1
  O  O82  1  0.59692557  0.93905951  0.45258531  1
  O  O83  1  0.93905951  0.59692557  0.95258531  1
