# generated using pymatgen
data_Rb6Ge2O7
_symmetry_space_group_name_H-M   'P 1'
_cell_length_a   9.43984599
_cell_length_b   6.84180546
_cell_length_c   11.55949380
_cell_angle_alpha   55.17761022
_cell_angle_beta   90.00000000
_cell_angle_gamma   90.00000000
_symmetry_Int_Tables_number   1
_chemical_formula_structural   Rb6Ge2O7
_chemical_formula_sum   'Rb12 Ge4 O14'
_cell_volume   612.88433874
_cell_formula_units_Z   2
loop_
 _symmetry_equiv_pos_site_id
 _symmetry_equiv_pos_as_xyz
  1  'x, y, z'
loop_
 _atom_site_type_symbol
 _atom_site_label
 _atom_site_symmetry_multiplicity
 _atom_site_fract_x
 _atom_site_fract_y
 _atom_site_fract_z
 _atom_site_occupancy
  Rb  Rb0  1  0.78528273  0.60073317  0.27913241  1
  Rb  Rb1  1  0.71471727  0.60073317  0.77913241  1
  Rb  Rb2  1  0.21471727  0.39926683  0.72086759  1
  Rb  Rb3  1  0.35250302  0.03541785  0.08348563  1
  Rb  Rb4  1  0.85250302  0.96458215  0.41651437  1
  Rb  Rb5  1  0.64749698  0.96458215  0.91651437  1
  Rb  Rb6  1  0.14749698  0.03541785  0.58348563  1
  Rb  Rb7  1  0.47365598  0.79226784  0.45625568  1
  Rb  Rb8  1  0.97365598  0.20773216  0.04374432  1
  Rb  Rb9  1  0.52634402  0.20773216  0.54374432  1
  Rb  Rb10  1  0.02634402  0.79226784  0.95625568  1
  Rb  Rb11  1  0.28528273  0.39926683  0.22086759  1
  Ge  Ge12  1  0.36159713  0.67789244  0.87200922  1
  Ge  Ge13  1  0.13840287  0.67789244  0.37200922  1
  Ge  Ge14  1  0.63840287  0.32210756  0.12799078  1
  Ge  Ge15  1  0.86159713  0.32210756  0.62799078  1
  O  O16  1  0.28818725  0.49216946  0.43541969  1
  O  O17  1  0.00000000  0.50000000  0.50000000  1
  O  O18  1  0.50000000  0.50000000  -0.00000000  1
  O  O19  1  0.08319541  0.74346645  0.20864807  1
  O  O20  1  0.78818725  0.50783054  0.06458031  1
  O  O21  1  0.71181275  0.50783054  0.56458031  1
  O  O22  1  0.21181275  0.49216946  0.93541969  1
  O  O23  1  0.33924162  0.93303708  0.87231372  1
  O  O24  1  0.83924162  0.06696292  0.62768628  1
  O  O25  1  0.66075838  0.06696292  0.12768628  1
  O  O26  1  0.16075838  0.93303708  0.37231372  1
  O  O27  1  0.41680459  0.74346645  0.70864807  1
  O  O28  1  0.91680459  0.25653355  0.79135193  1
  O  O29  1  0.58319541  0.25653355  0.29135193  1
