# generated using pymatgen
data_RbHf2Br9
_symmetry_space_group_name_H-M   'P 1'
_cell_length_a   6.86799214
_cell_length_b   10.12146590
_cell_length_c   13.02970400
_cell_angle_alpha   66.49827321
_cell_angle_beta   90.00000000
_cell_angle_gamma   90.00000000
_symmetry_Int_Tables_number   1
_chemical_formula_structural   RbHf2Br9
_chemical_formula_sum   'Rb2 Hf4 Br18'
_cell_volume   830.61515422
_cell_formula_units_Z   2
loop_
 _symmetry_equiv_pos_site_id
 _symmetry_equiv_pos_as_xyz
  1  'x, y, z'
loop_
 _atom_site_type_symbol
 _atom_site_label
 _atom_site_symmetry_multiplicity
 _atom_site_fract_x
 _atom_site_fract_y
 _atom_site_fract_z
 _atom_site_occupancy
  Rb  Rb0  1  0.58604805  0.50000000  0.75000000  1
  Rb  Rb1  1  0.41395195  0.50000000  0.25000000  1
  Hf  Hf2  1  0.26125997  0.82229934  0.86686838  1
  Hf  Hf3  1  0.73874003  0.17770066  0.13313162  1
  Hf  Hf4  1  0.26125997  0.17770066  0.63313162  1
  Hf  Hf5  1  0.73874003  0.82229934  0.36686838  1
  Br  Br6  1  0.10820432  0.78597111  0.04968462  1
  Br  Br7  1  0.89179568  0.21402889  0.95031538  1
  Br  Br8  1  0.10820432  0.21402889  0.45031538  1
  Br  Br9  1  0.89179568  0.78597111  0.54968462  1
  Br  Br10  1  0.11210431  0.61024555  0.84241048  1
  Br  Br11  1  0.88789569  0.38975445  0.15758952  1
  Br  Br12  1  0.11210431  0.38975445  0.65758952  1
  Br  Br13  1  0.88789569  0.61024555  0.34241048  1
  Br  Br14  1  0.96853821  0.00000000  0.75000000  1
  Br  Br15  1  0.03146179  0.00000000  0.25000000  1
  Br  Br16  1  0.41093787  0.08199794  0.84606940  1
  Br  Br17  1  0.58906213  0.91800206  0.15393060  1
  Br  Br18  1  0.41093787  0.91800206  0.65393060  1
  Br  Br19  1  0.58906213  0.08199794  0.34606940  1
  Br  Br20  1  0.58198670  0.70175473  0.94236329  1
  Br  Br21  1  0.41801330  0.29824527  0.05763671  1
  Br  Br22  1  0.58198670  0.29824527  0.55763671  1
  Br  Br23  1  0.41801330  0.70175473  0.44236329  1
