# generated using pymatgen
data_Sm2ThS5
_symmetry_space_group_name_H-M   'P 1'
_cell_length_a   7.53312751
_cell_length_b   8.17078611
_cell_length_c   12.03223938
_cell_angle_alpha   90.00000000
_cell_angle_beta   90.00000000
_cell_angle_gamma   90.00000000
_symmetry_Int_Tables_number   1
_chemical_formula_structural   Sm2ThS5
_chemical_formula_sum   'Sm8 Th4 S20'
_cell_volume   740.60326805
_cell_formula_units_Z   4
loop_
 _symmetry_equiv_pos_site_id
 _symmetry_equiv_pos_as_xyz
  1  'x, y, z'
loop_
 _atom_site_type_symbol
 _atom_site_label
 _atom_site_symmetry_multiplicity
 _atom_site_fract_x
 _atom_site_fract_y
 _atom_site_fract_z
 _atom_site_occupancy
  Sm  Sm0  1  0.51448988  0.49856887  0.32095782  1
  Sm  Sm1  1  0.98551012  0.00143113  0.82095782  1
  Sm  Sm2  1  0.48551012  0.99856887  0.67904218  1
  Sm  Sm3  1  0.01448988  0.50143113  0.17904218  1
  Sm  Sm4  1  0.48551012  0.50143113  0.67904218  1
  Sm  Sm5  1  0.01448988  0.99856887  0.17904218  1
  Sm  Sm6  1  0.51448988  0.00143113  0.32095782  1
  Sm  Sm7  1  0.98551012  0.49856887  0.82095782  1
  Th  Th8  1  0.07735215  0.75000000  0.49132196  1
  Th  Th9  1  0.42264785  0.75000000  0.99132196  1
  Th  Th10  1  0.92264785  0.25000000  0.50867804  1
  Th  Th11  1  0.57735215  0.25000000  0.00867804  1
  S  S12  1  0.83915546  0.95676130  0.60310398  1
  S  S13  1  0.66084454  0.54323870  0.10310398  1
  S  S14  1  0.16084454  0.45676130  0.39689602  1
  S  S15  1  0.33915546  0.04323870  0.89689602  1
  S  S16  1  0.16084454  0.04323870  0.39689602  1
  S  S17  1  0.33915546  0.45676130  0.89689602  1
  S  S18  1  0.83915546  0.54323870  0.60310398  1
  S  S19  1  0.66084454  0.95676130  0.10310398  1
  S  S20  1  0.82564590  0.75000000  0.31412698  1
  S  S21  1  0.67435410  0.75000000  0.81412698  1
  S  S22  1  0.17435410  0.25000000  0.68587302  1
  S  S23  1  0.32564590  0.25000000  0.18587302  1
  S  S24  1  0.46105015  0.75000000  0.49948520  1
  S  S25  1  0.03894985  0.75000000  -0.00051480  1
  S  S26  1  0.53894985  0.25000000  0.50051480  1
  S  S27  1  0.96105015  0.25000000  0.00051480  1
  S  S28  1  0.20309221  0.75000000  0.71783672  1
  S  S29  1  0.29690779  0.75000000  0.21783672  1
  S  S30  1  0.79690779  0.25000000  0.28216328  1
  S  S31  1  0.70309221  0.25000000  0.78216328  1
