# generated using pymatgen
data_NaFePH2(CO3)2
_symmetry_space_group_name_H-M   'P 1'
_cell_length_a   9.81980743
_cell_length_b   10.37344121
_cell_length_c   11.18132992
_cell_angle_alpha   90.00000000
_cell_angle_beta   90.00000000
_cell_angle_gamma   90.00000000
_symmetry_Int_Tables_number   1
_chemical_formula_structural   NaFePH2(CO3)2
_chemical_formula_sum   'Na8 Fe8 P8 H16 C16 O48'
_cell_volume   1138.98835343
_cell_formula_units_Z   8
loop_
 _symmetry_equiv_pos_site_id
 _symmetry_equiv_pos_as_xyz
  1  'x, y, z'
loop_
 _atom_site_type_symbol
 _atom_site_label
 _atom_site_symmetry_multiplicity
 _atom_site_fract_x
 _atom_site_fract_y
 _atom_site_fract_z
 _atom_site_occupancy
  Na  Na0  1  0.08487776  0.62337006  0.92559392  1
  Na  Na1  1  0.41512224  0.12337006  0.07440608  1
  Na  Na2  1  0.58487776  0.37662994  0.57440608  1
  Na  Na3  1  0.91512224  0.87662994  0.42559392  1
  Na  Na4  1  0.91512224  0.37662994  0.07440608  1
  Na  Na5  1  0.58487776  0.87662994  0.92559392  1
  Na  Na6  1  0.41512224  0.62337006  0.42559392  1
  Na  Na7  1  0.08487776  0.12337006  0.57440608  1
  Fe  Fe8  1  0.91572327  0.82306564  0.10830204  1
  Fe  Fe9  1  0.58427673  0.32306564  0.89169796  1
  Fe  Fe10  1  0.41572327  0.17693436  0.39169796  1
  Fe  Fe11  1  0.08427673  0.67693436  0.60830204  1
  Fe  Fe12  1  0.08427673  0.17693436  0.89169796  1
  Fe  Fe13  1  0.41572327  0.67693436  0.10830204  1
  Fe  Fe14  1  0.58427673  0.82306564  0.60830204  1
  Fe  Fe15  1  0.91572327  0.32306564  0.39169796  1
  P  P16  1  0.22029716  0.90139462  0.95932829  1
  P  P17  1  0.27970284  0.40139462  0.04067171  1
  P  P18  1  0.72029716  0.09860538  0.54067171  1
  P  P19  1  0.77970284  0.59860538  0.45932829  1
  P  P20  1  0.77970284  0.09860538  0.04067171  1
  P  P21  1  0.72029716  0.59860538  0.95932829  1
  P  P22  1  0.27970284  0.90139462  0.45932829  1
  P  P23  1  0.22029716  0.40139462  0.54067171  1
  H  H24  1  0.31929318  0.71591049  0.75520016  1
  H  H25  1  0.18070682  0.21591049  0.24479984  1
  H  H26  1  0.81929318  0.28408951  0.74479984  1
  H  H27  1  0.68070682  0.78408951  0.25520016  1
  H  H28  1  0.68070682  0.28408951  0.24479984  1
  H  H29  1  0.81929318  0.78408951  0.75520016  1
  H  H30  1  0.18070682  0.71591049  0.25520016  1
  H  H31  1  0.31929318  0.21591049  0.74479984  1
  H  H32  1  0.27532474  0.93023586  0.74729401  1
  H  H33  1  0.22467526  0.43023586  0.25270599  1
  H  H34  1  0.77532474  0.06976414  0.75270599  1
  H  H35  1  0.72467526  0.56976414  0.24729401  1
  H  H36  1  0.72467526  0.06976414  0.25270599  1
  H  H37  1  0.77532474  0.56976414  0.74729401  1
  H  H38  1  0.22467526  0.93023586  0.24729401  1
  H  H39  1  0.27532474  0.43023586  0.75270599  1
  C  C40  1  0.94328815  0.09360301  0.24067472  1
  C  C41  1  0.55671185  0.59360301  0.75932528  1
  C  C42  1  0.44328815  0.90639699  0.25932528  1
  C  C43  1  0.05671185  0.40639699  0.74067472  1
  C  C44  1  0.05671185  0.90639699  0.75932528  1
  C  C45  1  0.44328815  0.40639699  0.24067472  1
  C  C46  1  0.55671185  0.09360301  0.74067472  1
  C  C47  1  0.94328815  0.59360301  0.25932528  1
  C  C48  1  0.20108093  0.86981083  0.79544562  1
  C  C49  1  0.29891907  0.36981083  0.20455438  1
  C  C50  1  0.70108093  0.13018917  0.70455438  1
  C  C51  1  0.79891907  0.63018917  0.29544562  1
  C  C52  1  0.79891907  0.13018917  0.20455438  1
  C  C53  1  0.70108093  0.63018917  0.79544562  1
  C  C54  1  0.29891907  0.86981083  0.29544562  1
  C  C55  1  0.20108093  0.36981083  0.70455438  1
  O  O56  1  0.21551417  0.04963007  0.97344068  1
  O  O57  1  0.28448583  0.54963007  0.02655932  1
  O  O58  1  0.71551417  0.95036993  0.52655932  1
  O  O59  1  0.78448583  0.45036993  0.47344068  1
  O  O60  1  0.78448583  0.95036993  0.02655932  1
  O  O61  1  0.71551417  0.45036993  0.97344068  1
  O  O62  1  0.28448583  0.04963007  0.47344068  1
  O  O63  1  0.21551417  0.54963007  0.52655932  1
  O  O64  1  0.35973139  0.84868561  0.99910019  1
  O  O65  1  0.14026861  0.34868561  0.00089981  1
  O  O66  1  0.85973139  0.15131439  0.50089981  1
  O  O67  1  0.64026861  0.65131439  0.49910019  1
  O  O68  1  0.64026861  0.15131439  0.00089981  1
  O  O69  1  0.85973139  0.65131439  0.99910019  1
  O  O70  1  0.14026861  0.84868561  0.49910019  1
  O  O71  1  0.35973139  0.34868561  0.50089981  1
  O  O72  1  0.10065578  0.82851077  0.01470266  1
  O  O73  1  0.39934422  0.32851077  0.98529734  1
  O  O74  1  0.60065578  0.17148923  0.48529734  1
  O  O75  1  0.89934422  0.67148923  0.51470266  1
  O  O76  1  0.89934422  0.17148923  0.98529734  1
  O  O77  1  0.60065578  0.67148923  0.01470266  1
  O  O78  1  0.39934422  0.82851077  0.51470266  1
  O  O79  1  0.10065578  0.32851077  0.48529734  1
  O  O80  1  0.22017894  0.73533106  0.76824172  1
  O  O81  1  0.27982106  0.23533106  0.23175828  1
  O  O82  1  0.72017894  0.26466894  0.73175828  1
  O  O83  1  0.77982106  0.76466894  0.26824172  1
  O  O84  1  0.77982106  0.26466894  0.23175828  1
  O  O85  1  0.72017894  0.76466894  0.76824172  1
  O  O86  1  0.27982106  0.73533106  0.26824172  1
  O  O87  1  0.22017894  0.23533106  0.73175828  1
  O  O88  1  0.98064089  0.97706646  0.23242413  1
  O  O89  1  0.51935911  0.47706646  0.76757587  1
  O  O90  1  0.48064089  0.02293354  0.26757587  1
  O  O91  1  0.01935911  0.52293354  0.73242413  1
  O  O92  1  0.01935911  0.02293354  0.76757587  1
  O  O93  1  0.48064089  0.52293354  0.23242413  1
  O  O94  1  0.51935911  0.97706646  0.73242413  1
  O  O95  1  0.98064089  0.47706646  0.26757587  1
  O  O96  1  0.02043220  0.68468065  0.22227313  1
  O  O97  1  0.47956780  0.18468065  0.77772687  1
  O  O98  1  0.52043220  0.31531935  0.27772687  1
  O  O99  1  0.97956780  0.81531935  0.72227313  1
  O  O100  1  0.97956780  0.31531935  0.77772687  1
  O  O101  1  0.52043220  0.81531935  0.22227313  1
  O  O102  1  0.47956780  0.68468065  0.72227313  1
  O  O103  1  0.02043220  0.18468065  0.27772687  1
