# generated using pymatgen
data_MgTi3V5O16
_symmetry_space_group_name_H-M   'P 1'
_cell_length_a   5.93945831
_cell_length_b   5.97046316
_cell_length_c   9.32010235
_cell_angle_alpha   89.13097899
_cell_angle_beta   89.95794589
_cell_angle_gamma   120.50083751
_symmetry_Int_Tables_number   1
_chemical_formula_structural   MgTi3V5O16
_chemical_formula_sum   'Mg1 Ti3 V5 O16'
_cell_volume   284.72226841
_cell_formula_units_Z   1
loop_
 _symmetry_equiv_pos_site_id
 _symmetry_equiv_pos_as_xyz
  1  'x, y, z'
loop_
 _atom_site_type_symbol
 _atom_site_label
 _atom_site_symmetry_multiplicity
 _atom_site_fract_x
 _atom_site_fract_y
 _atom_site_fract_z
 _atom_site_occupancy
  Mg  Mg0  1  0.18360700  0.35381200  0.95024800  1
  Ti  Ti1  1  0.18489900  0.85795200  0.21056400  1
  Ti  Ti2  1  0.12314800  0.32907700  0.25505800  1
  Ti  Ti3  1  0.35238100  0.15825600  0.69419500  1
  V  V4  1  0.36117700  0.69008400  0.49057100  1
  V  V5  1  0.65990600  0.80123800  0.19978600  1
  V  V6  1  0.66392900  0.31411400  0.98323500  1
  V  V7  1  0.84945500  0.18670900  0.69719400  1
  V  V8  1  0.83769100  0.67557100  0.71957800  1
  O  O9  1  0.18379900  0.84554600  0.59780100  1
  O  O10  1  0.03292600  0.52632400  0.35476900  1
  O  O11  1  0.30063500  0.63246300  0.10804700  1
  O  O12  1  0.98201200  0.97434800  0.31718900  1
  O  O13  1  0.01848900  0.02787500  0.80968300  1
  O  O14  1  0.17100800  0.35024300  0.59735400  1
  O  O15  1  0.47882700  0.94834600  0.32578900  1
  O  O16  1  0.45939000  0.51458200  0.34332000  1
  O  O17  1  0.31438400  0.15618600  0.09704300  1
  O  O18  1  0.65442700  0.84053700  0.59720000  1
  O  O19  1  0.51604500  0.46608600  0.84202700  1
  O  O20  1  0.53821900  0.04711700  0.82235000  1
  O  O21  1  0.67894700  0.35556100  0.59943100  1
  O  O22  1  0.81219700  0.65112800  0.10604200  1
  O  O23  1  0.96932200  0.47000400  0.83853800  1
  O  O24  1  0.83984700  0.16036900  0.10156600  1
