# generated using pymatgen
data_ZnFeF6
_symmetry_space_group_name_H-M   'P 1'
_cell_length_a   5.32329602
_cell_length_b   5.32329602
_cell_length_c   5.32329613
_cell_angle_alpha   58.29151472
_cell_angle_beta   58.29152468
_cell_angle_gamma   58.29153231
_symmetry_Int_Tables_number   1
_chemical_formula_structural   ZnFeF6
_chemical_formula_sum   'Zn1 Fe1 F6'
_cell_volume   102.49254955
_cell_formula_units_Z   1
loop_
 _symmetry_equiv_pos_site_id
 _symmetry_equiv_pos_as_xyz
  1  'x, y, z'
loop_
 _atom_site_type_symbol
 _atom_site_label
 _atom_site_symmetry_multiplicity
 _atom_site_fract_x
 _atom_site_fract_y
 _atom_site_fract_z
 _atom_site_occupancy
  Zn  Zn0  1  0.50000000  0.50000000  0.50000000  1
  Fe  Fe1  1  -0.00000000  0.00000000  0.00000000  1
  F  F2  1  0.67328033  0.84478481  0.24004321  1
  F  F3  1  0.84478481  0.24004321  0.67328033  1
  F  F4  1  0.75995679  0.32671967  0.15521519  1
  F  F5  1  0.15521519  0.75995679  0.32671967  1
  F  F6  1  0.32671967  0.15521519  0.75995679  1
  F  F7  1  0.24004321  0.67328033  0.84478481  1
