# generated using pymatgen
data_Pr(LuS2)3
_symmetry_space_group_name_H-M   'P 1'
_cell_length_a   3.92094057
_cell_length_b   10.91632952
_cell_length_c   11.16310196
_cell_angle_alpha   70.95291477
_cell_angle_beta   90.00000000
_cell_angle_gamma   90.00000000
_symmetry_Int_Tables_number   1
_chemical_formula_structural   Pr(LuS2)3
_chemical_formula_sum   'Pr2 Lu6 S12'
_cell_volume   451.64665544
_cell_formula_units_Z   2
loop_
 _symmetry_equiv_pos_site_id
 _symmetry_equiv_pos_as_xyz
  1  'x, y, z'
loop_
 _atom_site_type_symbol
 _atom_site_label
 _atom_site_symmetry_multiplicity
 _atom_site_fract_x
 _atom_site_fract_y
 _atom_site_fract_z
 _atom_site_occupancy
  Pr  Pr0  1  0.75000000  0.55110081  0.80272309  1
  Pr  Pr1  1  0.25000000  0.44889919  0.19727691  1
  Lu  Lu2  1  0.75000000  0.17880001  0.99910746  1
  Lu  Lu3  1  0.25000000  0.82119999  0.00089254  1
  Lu  Lu4  1  0.75000000  0.94437655  0.66629632  1
  Lu  Lu5  1  0.25000000  0.05562345  0.33370368  1
  Lu  Lu6  1  0.75000000  0.66173847  0.41160602  1
  Lu  Lu7  1  0.25000000  0.33826153  0.58839398  1
  S  S8  1  0.75000000  0.97743010  0.88829542  1
  S  S9  1  0.25000000  0.02256990  0.11170458  1
  S  S10  1  0.75000000  0.29966806  0.74862825  1
  S  S11  1  0.25000000  0.70033194  0.25137175  1
  S  S12  1  0.75000000  0.89271069  0.44322483  1
  S  S13  1  0.25000000  0.10728931  0.55677517  1
  S  S14  1  0.75000000  0.41847930  0.40969527  1
  S  S15  1  0.25000000  0.58152070  0.59030473  1
  S  S16  1  0.75000000  0.22940432  0.23029742  1
  S  S17  1  0.25000000  0.77059568  0.76970258  1
  S  S18  1  0.75000000  0.62196514  0.03602512  1
  S  S19  1  0.25000000  0.37803486  0.96397488  1
