# generated using pymatgen
data_Mg14FeBO16
_symmetry_space_group_name_H-M   'P 1'
_cell_length_a   8.56344580
_cell_length_b   8.45767746
_cell_length_c   4.28693825
_cell_angle_alpha   90.00000000
_cell_angle_beta   90.00000000
_cell_angle_gamma   90.00000000
_symmetry_Int_Tables_number   1
_chemical_formula_structural   Mg14FeBO16
_chemical_formula_sum   'Mg14 Fe1 B1 O16'
_cell_volume   310.48948728
_cell_formula_units_Z   1
loop_
 _symmetry_equiv_pos_site_id
 _symmetry_equiv_pos_as_xyz
  1  'x, y, z'
loop_
 _atom_site_type_symbol
 _atom_site_label
 _atom_site_symmetry_multiplicity
 _atom_site_fract_x
 _atom_site_fract_y
 _atom_site_fract_z
 _atom_site_occupancy
  Mg  Mg0  1  0.50000000  0.00000000  0.00000000  1
  Mg  Mg1  1  0.50000000  0.50000000  0.00000000  1
  Mg  Mg2  1  0.00000000  0.25868415  0.50000000  1
  Mg  Mg3  1  0.00000000  0.74131585  0.50000000  1
  Mg  Mg4  1  0.50000000  0.25002014  0.50000000  1
  Mg  Mg5  1  0.50000000  0.74997986  0.50000000  1
  Mg  Mg6  1  0.24507715  0.00000000  0.50000000  1
  Mg  Mg7  1  0.24755843  0.50000000  0.50000000  1
  Mg  Mg8  1  0.75492285  0.00000000  0.50000000  1
  Mg  Mg9  1  0.75244157  0.50000000  0.50000000  1
  Mg  Mg10  1  0.25220873  0.25682236  0.00000000  1
  Mg  Mg11  1  0.25220873  0.74317764  0.00000000  1
  Mg  Mg12  1  0.74779127  0.25682236  0.00000000  1
  Mg  Mg13  1  0.74779127  0.74317764  0.00000000  1
  Fe  Fe14  1  0.00000000  0.00000000  0.00000000  1
  B  B15  1  0.00000000  0.50000000  0.00000000  1
  O  O16  1  0.24593624  0.00000000  0.00000000  1
  O  O17  1  0.26416496  0.50000000  0.00000000  1
  O  O18  1  0.75406376  0.00000000  0.00000000  1
  O  O19  1  0.73583504  0.50000000  0.00000000  1
  O  O20  1  0.24615710  0.24974287  0.50000000  1
  O  O21  1  0.24615710  0.75025713  0.50000000  1
  O  O22  1  0.75384290  0.24974287  0.50000000  1
  O  O23  1  0.75384290  0.75025713  0.50000000  1
  O  O24  1  0.00000000  0.00000000  0.50000000  1
  O  O25  1  0.00000000  0.50000000  0.50000000  1
  O  O26  1  0.50000000  0.00000000  0.50000000  1
  O  O27  1  0.50000000  0.50000000  0.50000000  1
  O  O28  1  0.00000000  0.33671543  0.00000000  1
  O  O29  1  0.00000000  0.66328457  0.00000000  1
  O  O30  1  0.50000000  0.24589904  0.00000000  1
  O  O31  1  0.50000000  0.75410096  0.00000000  1
