# generated using pymatgen
data_Zr2Te4Cl2O11
_symmetry_space_group_name_H-M   'P 1'
_cell_length_a   7.83160959
_cell_length_b   9.52398646
_cell_length_c   10.38555492
_cell_angle_alpha   111.19062987
_cell_angle_beta   108.05681127
_cell_angle_gamma   98.31428086
_symmetry_Int_Tables_number   1
_chemical_formula_structural   Zr2Te4Cl2O11
_chemical_formula_sum   'Zr4 Te8 Cl4 O22'
_cell_volume   657.28024973
_cell_formula_units_Z   2
loop_
 _symmetry_equiv_pos_site_id
 _symmetry_equiv_pos_as_xyz
  1  'x, y, z'
loop_
 _atom_site_type_symbol
 _atom_site_label
 _atom_site_symmetry_multiplicity
 _atom_site_fract_x
 _atom_site_fract_y
 _atom_site_fract_z
 _atom_site_occupancy
  Zr  Zr0  1  0.62433366  0.89072261  0.89075747  1
  Zr  Zr1  1  0.37566634  0.10927739  0.10924253  1
  Zr  Zr2  1  0.88672258  0.61165519  0.61815310  1
  Zr  Zr3  1  0.11327742  0.38834481  0.38184690  1
  Te  Te4  1  0.25932664  0.50937948  0.79445517  1
  Te  Te5  1  0.74067336  0.49062052  0.20554483  1
  Te  Te6  1  0.98849208  0.73580885  -0.00206565  1
  Te  Te7  1  0.01150792  0.26419115  0.00206565  1
  Te  Te8  1  0.78698548  0.97697950  0.26313542  1
  Te  Te9  1  0.21301452  0.02302050  0.73686458  1
  Te  Te10  1  0.47721466  0.76234117  0.46862423  1
  Te  Te11  1  0.52278534  0.23765883  0.53137577  1
  Cl  Cl12  1  0.10297312  0.88341123  0.37107282  1
  Cl  Cl13  1  0.89702688  0.11658877  0.62892718  1
  Cl  Cl14  1  0.63423678  0.39314677  0.89476000  1
  Cl  Cl15  1  0.36576322  0.60685323  0.10524000  1
  O  O16  1  0.50603087  0.85645721  0.66857298  1
  O  O17  1  0.49396913  0.14354279  0.33142702  1
  O  O18  1  0.66812776  0.66564392  0.48794476  1
  O  O19  1  0.33187224  0.33435608  0.51205524  1
  O  O20  1  0.59091819  0.99487702  0.10928402  1
  O  O21  1  0.40908181  0.00512298  0.89071598  1
  O  O22  1  0.83015922  0.87073752  0.08313413  1
  O  O23  1  0.16984078  0.12926248  0.91686587  1
  O  O24  1  0.07521161  0.61572604  0.83214969  1
  O  O25  1  0.92478839  0.38427396  0.16785031  1
  O  O26  1  0.81880655  0.74404277  0.82313200  1
  O  O27  1  0.18119345  0.25595723  0.17686800  1
  O  O28  1  0.11413427  0.49695092  0.60170190  1
  O  O29  1  0.88586573  0.50304908  0.39829810  1
  O  O30  1  0.28344500  0.58652328  0.40883680  1
  O  O31  1  0.71655500  0.41347672  0.59116320  1
  O  O32  1  0.44836622  0.68035911  0.84361485  1
  O  O33  1  0.55163378  0.31964089  0.15638515  1
  O  O34  1  0.17769983  0.91385119  0.05867595  1
  O  O35  1  0.82230017  0.08614881  0.94132405  1
  O  O36  1  0.93767996  0.17470627  0.32797361  1
  O  O37  1  0.06232004  0.82529373  0.67202639  1
