# generated using pymatgen
data_Pm2MgS4
_symmetry_space_group_name_H-M   'P 1'
_cell_length_a   13.81104641
_cell_length_b   8.12423363
_cell_length_c   6.61350139
_cell_angle_alpha   90.00000000
_cell_angle_beta   90.00000000
_cell_angle_gamma   90.00000000
_symmetry_Int_Tables_number   1
_chemical_formula_structural   Pm2MgS4
_chemical_formula_sum   'Pm8 Mg4 S16'
_cell_volume   742.06241911
_cell_formula_units_Z   4
loop_
 _symmetry_equiv_pos_site_id
 _symmetry_equiv_pos_as_xyz
  1  'x, y, z'
loop_
 _atom_site_type_symbol
 _atom_site_label
 _atom_site_symmetry_multiplicity
 _atom_site_fract_x
 _atom_site_fract_y
 _atom_site_fract_z
 _atom_site_occupancy
  Pm  Pm0  1  -0.00000000  -0.00000000  0.50000000  1
  Pm  Pm1  1  0.50000000  -0.00000000  -0.00000000  1
  Pm  Pm2  1  0.50000000  0.50000000  0.00000000  1
  Pm  Pm3  1  -0.00000000  0.50000000  0.50000000  1
  Pm  Pm4  1  0.22949085  0.75000000  0.99033930  1
  Pm  Pm5  1  0.77050915  0.25000000  0.00966070  1
  Pm  Pm6  1  0.27050915  0.25000000  0.49033930  1
  Pm  Pm7  1  0.72949085  0.75000000  0.50966070  1
  Mg  Mg8  1  0.09526801  0.25000000  0.91931108  1
  Mg  Mg9  1  0.90473199  0.75000000  0.08068892  1
  Mg  Mg10  1  0.40473199  0.75000000  0.41931108  1
  Mg  Mg11  1  0.59526801  0.25000000  0.58068892  1
  S  S12  1  0.16965129  0.01580274  0.74176676  1
  S  S13  1  0.83034871  0.98419726  0.25823324  1
  S  S14  1  0.33034871  0.98419726  0.24176676  1
  S  S15  1  0.66965129  0.01580274  0.75823324  1
  S  S16  1  0.66965129  0.48419726  0.75823324  1
  S  S17  1  0.33034871  0.51580274  0.24176676  1
  S  S18  1  0.83034871  0.51580274  0.25823324  1
  S  S19  1  0.16965129  0.48419726  0.74176676  1
  S  S20  1  0.06650460  0.75000000  0.24104336  1
  S  S21  1  0.93349540  0.25000000  0.75895664  1
  S  S22  1  0.43349540  0.25000000  0.74104336  1
  S  S23  1  0.56650460  0.75000000  0.25895664  1
  S  S24  1  0.09085108  0.25000000  0.28145926  1
  S  S25  1  0.90914892  0.75000000  0.71854074  1
  S  S26  1  0.40914892  0.75000000  0.78145926  1
  S  S27  1  0.59085108  0.25000000  0.21854074  1
