# generated using pymatgen
data_TmRhO3
_symmetry_space_group_name_H-M   'P 1'
_cell_length_a   5.17444652
_cell_length_b   5.70187168
_cell_length_c   7.51159096
_cell_angle_alpha   90.00000000
_cell_angle_beta   90.00000000
_cell_angle_gamma   90.00000000
_symmetry_Int_Tables_number   1
_chemical_formula_structural   TmRhO3
_chemical_formula_sum   'Tm4 Rh4 O12'
_cell_volume   221.62220557
_cell_formula_units_Z   4
loop_
 _symmetry_equiv_pos_site_id
 _symmetry_equiv_pos_as_xyz
  1  'x, y, z'
loop_
 _atom_site_type_symbol
 _atom_site_label
 _atom_site_symmetry_multiplicity
 _atom_site_fract_x
 _atom_site_fract_y
 _atom_site_fract_z
 _atom_site_occupancy
  Tm  Tm0  1  0.03114374  0.41474281  0.25000000  1
  Tm  Tm1  1  0.96885626  0.58525719  0.75000000  1
  Tm  Tm2  1  0.53114374  0.08525719  0.75000000  1
  Tm  Tm3  1  0.46885626  0.91474281  0.25000000  1
  Rh  Rh4  1  0.00000000  0.00000000  -0.00000000  1
  Rh  Rh5  1  0.50000000  0.50000000  -0.00000000  1
  Rh  Rh6  1  0.00000000  0.00000000  0.50000000  1
  Rh  Rh7  1  0.50000000  0.50000000  0.50000000  1
  O  O8  1  0.32532882  0.18820317  0.06491703  1
  O  O9  1  0.67467118  0.81179683  0.93508297  1
  O  O10  1  0.82532882  0.31179683  0.93508297  1
  O  O11  1  0.67467118  0.81179683  0.56491703  1
  O  O12  1  0.17467118  0.68820317  0.06491703  1
  O  O13  1  0.32532882  0.18820317  0.43508297  1
  O  O14  1  0.17467118  0.68820317  0.43508297  1
  O  O15  1  0.82532882  0.31179683  0.56491703  1
  O  O16  1  0.64085112  0.55705614  0.25000000  1
  O  O17  1  0.35914888  0.44294386  0.75000000  1
  O  O18  1  0.14085112  0.94294386  0.75000000  1
  O  O19  1  0.85914888  0.05705614  0.25000000  1
