# generated using pymatgen
data_Ta2Mn4O9
_symmetry_space_group_name_H-M   'P 1'
_cell_length_a   5.29409560
_cell_length_b   5.29409822
_cell_length_c   14.34459484
_cell_angle_alpha   89.99985760
_cell_angle_beta   90.00000380
_cell_angle_gamma   119.99953110
_symmetry_Int_Tables_number   1
_chemical_formula_structural   Ta2Mn4O9
_chemical_formula_sum   'Ta4 Mn8 O18'
_cell_volume   348.18074008
_cell_formula_units_Z   2
loop_
 _symmetry_equiv_pos_site_id
 _symmetry_equiv_pos_as_xyz
  1  'x, y, z'
loop_
 _atom_site_type_symbol
 _atom_site_label
 _atom_site_symmetry_multiplicity
 _atom_site_fract_x
 _atom_site_fract_y
 _atom_site_fract_z
 _atom_site_occupancy
  Ta  Ta0  1  0.00000299  0.00000385  0.35704126  1
  Ta  Ta1  1  0.00000790  0.00000802  0.14295992  1
  Ta  Ta2  1  0.99999095  0.99999052  0.64295351  1
  Ta  Ta3  1  -0.00000172  -0.00000210  0.85703975  1
  Mn  Mn4  1  0.66666116  0.33332676  0.48258497  1
  Mn  Mn5  1  0.66667211  0.33333901  0.98259431  1
  Mn  Mn6  1  0.66666134  0.33332717  0.69623897  1
  Mn  Mn7  1  0.66666940  0.33333660  0.19624731  1
  Mn  Mn8  1  0.33333534  0.66666675  0.01741427  1
  Mn  Mn9  1  0.33333173  0.66666474  0.51740915  1
  Mn  Mn10  1  0.33333170  0.66666271  0.80376444  1
  Mn  Mn11  1  0.33333713  0.66666909  0.30376167  1
  O  O12  1  0.27897228  0.00000345  0.25000029  1
  O  O13  1  0.00000642  0.27897346  0.25000045  1
  O  O14  1  0.72103602  0.72103837  0.24999978  1
  O  O15  1  0.72102106  0.99999174  0.74999837  1
  O  O16  1  -0.00000691  0.72102094  0.74999853  1
  O  O17  1  0.27896476  0.27896659  0.74999789  1
  O  O18  1  0.68879570  0.66232057  0.58557247  1
  O  O19  1  0.33766218  0.02646416  0.58557271  1
  O  O20  1  0.97351636  0.31118878  0.58557294  1
  O  O21  1  0.02646836  0.33767382  0.91442145  1
  O  O22  1  0.31120778  0.97353575  0.91441995  1
  O  O23  1  0.66233682  0.68880737  0.91442765  1
  O  O24  1  0.31121250  0.33767328  0.41441896  1
  O  O25  1  0.66232694  0.97354247  0.41441767  1
  O  O26  1  0.02646001  0.68878545  0.41441789  1
  O  O27  1  0.97354922  0.66233195  0.08558353  1
  O  O28  1  0.68878911  0.02646567  0.08558373  1
  O  O29  1  0.33768235  0.31122204  0.08558320  1
