# generated using pymatgen
data_La3Sb5O12
_symmetry_space_group_name_H-M   'P 1'
_cell_length_a   9.66701825
_cell_length_b   9.66701825
_cell_length_c   9.66701825
_cell_angle_alpha   109.47122063
_cell_angle_beta   109.47122063
_cell_angle_gamma   109.47122063
_symmetry_Int_Tables_number   1
_chemical_formula_structural   La3Sb5O12
_chemical_formula_sum   'La6 Sb10 O24'
_cell_volume   695.43368820
_cell_formula_units_Z   2
loop_
 _symmetry_equiv_pos_site_id
 _symmetry_equiv_pos_as_xyz
  1  'x, y, z'
loop_
 _atom_site_type_symbol
 _atom_site_label
 _atom_site_symmetry_multiplicity
 _atom_site_fract_x
 _atom_site_fract_y
 _atom_site_fract_z
 _atom_site_occupancy
  La  La0  1  0.25000000  0.75000000  0.50000000  1
  La  La1  1  0.75000000  0.25000000  0.50000000  1
  La  La2  1  0.75000000  0.50000000  0.25000000  1
  La  La3  1  0.25000000  0.50000000  0.75000000  1
  La  La4  1  0.50000000  0.25000000  0.75000000  1
  La  La5  1  0.50000000  0.75000000  0.25000000  1
  Sb  Sb6  1  0.50156932  0.50156932  0.50156932  1
  Sb  Sb7  1  0.49843068  -0.00000000  0.00000000  1
  Sb  Sb8  1  -0.00000000  0.49843068  0.00000000  1
  Sb  Sb9  1  -0.00000000  -0.00000000  0.49843068  1
  Sb  Sb10  1  0.72147262  0.72147262  -0.00000000  1
  Sb  Sb11  1  0.27852738  0.27852738  0.00000000  1
  Sb  Sb12  1  0.72147262  -0.00000000  0.72147262  1
  Sb  Sb13  1  0.27852738  0.00000000  0.27852738  1
  Sb  Sb14  1  0.00000000  0.72147262  0.72147262  1
  Sb  Sb15  1  0.00000000  0.27852738  0.27852738  1
  O  O16  1  0.80613553  0.51422845  0.51422845  1
  O  O17  1  0.19386447  0.70809292  0.70809292  1
  O  O18  1  0.00000000  0.48577155  0.29190708  1
  O  O19  1  0.51422845  0.51422845  0.80613553  1
  O  O20  1  0.00000000  0.29190708  0.48577155  1
  O  O21  1  0.70809292  0.70809292  0.19386447  1
  O  O22  1  0.48577155  0.29190708  -0.00000000  1
  O  O23  1  0.29190708  0.48577155  0.00000000  1
  O  O24  1  0.51422845  0.80613553  0.51422845  1
  O  O25  1  0.29190708  -0.00000000  0.48577155  1
  O  O26  1  0.48577155  -0.00000000  0.29190708  1
  O  O27  1  0.70809292  0.19386447  0.70809292  1
  O  O28  1  0.27335360  0.46706369  0.46706369  1
  O  O29  1  0.72664640  0.19371009  0.19371009  1
  O  O30  1  -0.00000000  0.53293631  0.80628991  1
  O  O31  1  0.46706369  0.46706369  0.27335360  1
  O  O32  1  -0.00000000  0.80628991  0.53293631  1
  O  O33  1  0.19371009  0.19371009  0.72664640  1
  O  O34  1  0.53293631  0.80628991  -0.00000000  1
  O  O35  1  0.80628991  0.53293631  0.00000000  1
  O  O36  1  0.46706369  0.27335360  0.46706369  1
  O  O37  1  0.80628991  0.00000000  0.53293631  1
  O  O38  1  0.53293631  0.00000000  0.80628991  1
  O  O39  1  0.19371009  0.72664640  0.19371009  1
