# generated using pymatgen
data_ZrTiO4
_symmetry_space_group_name_H-M   'P 1'
_cell_length_a   4.74274337
_cell_length_b   5.10380047
_cell_length_c   5.65073233
_cell_angle_alpha   90.00000000
_cell_angle_beta   90.00000000
_cell_angle_gamma   90.00000000
_symmetry_Int_Tables_number   1
_chemical_formula_structural   ZrTiO4
_chemical_formula_sum   'Zr2 Ti2 O8'
_cell_volume   136.78171629
_cell_formula_units_Z   2
loop_
 _symmetry_equiv_pos_site_id
 _symmetry_equiv_pos_as_xyz
  1  'x, y, z'
loop_
 _atom_site_type_symbol
 _atom_site_label
 _atom_site_symmetry_multiplicity
 _atom_site_fract_x
 _atom_site_fract_y
 _atom_site_fract_z
 _atom_site_occupancy
  Zr  Zr0  1  0.00000000  0.50000000  0.42203222  1
  Zr  Zr1  1  0.50000000  0.00000000  0.57796778  1
  Ti  Ti2  1  0.00000000  0.00000000  0.07107427  1
  Ti  Ti3  1  0.50000000  0.50000000  0.92892573  1
  O  O4  1  0.73671485  0.17688986  0.87517424  1
  O  O5  1  0.76328515  0.67688986  0.12482576  1
  O  O6  1  0.23671485  0.32311014  0.12482576  1
  O  O7  1  0.26328515  0.82311014  0.87517424  1
  O  O8  1  0.28320287  0.33981253  0.64871139  1
  O  O9  1  0.21679713  0.83981253  0.35128861  1
  O  O10  1  0.78320287  0.16018747  0.35128861  1
  O  O11  1  0.71679713  0.66018747  0.64871139  1
