# generated using pymatgen
data_V2Bi4O11
_symmetry_space_group_name_H-M   'P 1'
_cell_length_a   5.65368257
_cell_length_b   5.57609156
_cell_length_c   8.07219292
_cell_angle_alpha   90.12455373
_cell_angle_beta   69.39660468
_cell_angle_gamma   91.41300254
_symmetry_Int_Tables_number   1
_chemical_formula_structural   V2Bi4O11
_chemical_formula_sum   'V2 Bi4 O11'
_cell_volume   238.12449824
_cell_formula_units_Z   1
loop_
 _symmetry_equiv_pos_site_id
 _symmetry_equiv_pos_as_xyz
  1  'x, y, z'
loop_
 _atom_site_type_symbol
 _atom_site_label
 _atom_site_symmetry_multiplicity
 _atom_site_fract_x
 _atom_site_fract_y
 _atom_site_fract_z
 _atom_site_occupancy
  V  V0  1  0.49740534  0.47272848  0.98687176  1
  V  V1  1  0.07058103  0.03569688  0.98339392  1
  Bi  Bi2  1  0.74331210  0.99616720  0.63782700  1
  Bi  Bi3  1  0.39629182  0.00522858  0.33532221  1
  Bi  Bi4  1  0.16498961  0.51922538  0.66076374  1
  Bi  Bi5  1  0.84205684  0.52141398  0.31096819  1
  O  O6  1  0.05132249  0.74988871  0.47589892  1
  O  O7  1  0.56082647  0.23686726  0.48970068  1
  O  O8  1  0.54351017  0.74910970  0.49369674  1
  O  O9  1  0.06177952  0.23808047  0.48489802  1
  O  O10  1  0.26827468  0.65620690  -0.00889614  1
  O  O11  1  0.37199703  0.17052882  0.98395576  1
  O  O12  1  0.87794446  0.91139506  0.18178128  1
  O  O13  1  0.91913681  0.28649346  0.97900548  1
  O  O14  1  0.72721322  0.53921076  0.78355931  1
  O  O15  1  0.52465005  0.51906586  0.19124103  1
  O  O16  1  0.08750836  0.91009350  0.78480911  1
