# generated using pymatgen
data_BaHo2O4
_symmetry_space_group_name_H-M   'P 1'
_cell_length_a   3.43864023
_cell_length_b   10.40092596
_cell_length_c   12.06641302
_cell_angle_alpha   90.00000000
_cell_angle_beta   90.00000000
_cell_angle_gamma   90.00000000
_symmetry_Int_Tables_number   1
_chemical_formula_structural   BaHo2O4
_chemical_formula_sum   'Ba4 Ho8 O16'
_cell_volume   431.55577370
_cell_formula_units_Z   4
loop_
 _symmetry_equiv_pos_site_id
 _symmetry_equiv_pos_as_xyz
  1  'x, y, z'
loop_
 _atom_site_type_symbol
 _atom_site_label
 _atom_site_symmetry_multiplicity
 _atom_site_fract_x
 _atom_site_fract_y
 _atom_site_fract_z
 _atom_site_occupancy
  Ba  Ba0  1  0.75000000  0.74678612  0.85053321  1
  Ba  Ba1  1  0.25000000  0.25321388  0.14946679  1
  Ba  Ba2  1  0.75000000  0.24678612  0.64946679  1
  Ba  Ba3  1  0.25000000  0.75321388  0.35053321  1
  Ho  Ho4  1  0.25000000  0.42232617  0.89120671  1
  Ho  Ho5  1  0.75000000  0.57767383  0.10879329  1
  Ho  Ho6  1  0.25000000  0.92232617  0.60879329  1
  Ho  Ho7  1  0.75000000  0.07767383  0.39120671  1
  Ho  Ho8  1  0.75000000  0.07345130  0.88932997  1
  Ho  Ho9  1  0.25000000  0.92654870  0.11067003  1
  Ho  Ho10  1  0.75000000  0.57345130  0.61067003  1
  Ho  Ho11  1  0.25000000  0.42654870  0.38932997  1
  O  O12  1  0.25000000  0.43058320  0.57386361  1
  O  O13  1  0.75000000  0.56941680  0.42613639  1
  O  O14  1  0.25000000  0.93058320  0.92613639  1
  O  O15  1  0.75000000  0.06941680  0.07386361  1
  O  O16  1  0.25000000  0.51894701  0.21731438  1
  O  O17  1  0.75000000  0.48105299  0.78268562  1
  O  O18  1  0.25000000  0.01894701  0.28268562  1
  O  O19  1  0.75000000  0.98105299  0.71731438  1
  O  O20  1  0.25000000  0.11433778  0.51753832  1
  O  O21  1  0.75000000  0.88566222  0.48246168  1
  O  O22  1  0.25000000  0.61433778  0.98246168  1
  O  O23  1  0.75000000  0.38566222  0.01753832  1
  O  O24  1  0.75000000  0.29045674  0.34286678  1
  O  O25  1  0.25000000  0.70954326  0.65713322  1
  O  O26  1  0.75000000  0.79045674  0.15713322  1
  O  O27  1  0.25000000  0.20954326  0.84286678  1
