# generated using pymatgen
data_K2ZnSe2
_symmetry_space_group_name_H-M   'P 1'
_cell_length_a   8.11360043
_cell_length_b   8.11360043
_cell_length_c   8.11360043
_cell_angle_alpha   133.13966974
_cell_angle_beta   129.36069822
_cell_angle_gamma   71.45922480
_symmetry_Int_Tables_number   1
_chemical_formula_structural   K2ZnSe2
_chemical_formula_sum   'K4 Zn2 Se4'
_cell_volume   294.93552338
_cell_formula_units_Z   2
loop_
 _symmetry_equiv_pos_site_id
 _symmetry_equiv_pos_as_xyz
  1  'x, y, z'
loop_
 _atom_site_type_symbol
 _atom_site_label
 _atom_site_symmetry_multiplicity
 _atom_site_fract_x
 _atom_site_fract_y
 _atom_site_fract_z
 _atom_site_occupancy
  K  K0  1  0.81529688  0.64303151  0.17226637  1
  K  K1  1  0.18470312  0.35696849  0.82773363  1
  K  K2  1  0.47076515  0.14303151  0.32773363  1
  K  K3  1  0.52923485  0.85696849  0.67226637  1
  Zn  Zn4  1  -0.00000000  0.75000000  0.75000000  1
  Zn  Zn5  1  -0.00000000  0.25000000  0.25000000  1
  Se  Se6  1  0.70562101  0.39550284  0.31011817  1
  Se  Se7  1  0.29437899  0.60449716  0.68988183  1
  Se  Se8  1  0.08538367  0.89550284  0.18988183  1
  Se  Se9  1  0.91461633  0.10449716  0.81011817  1
