# generated using pymatgen
data_K2Ti(Si2O5)3
_symmetry_space_group_name_H-M   'P 1'
_cell_length_a   7.25070031
_cell_length_b   7.25070031
_cell_length_c   15.15851915
_cell_angle_alpha   75.76229833
_cell_angle_beta   75.76229833
_cell_angle_gamma   59.89458750
_symmetry_Int_Tables_number   1
_chemical_formula_structural   K2Ti(Si2O5)3
_chemical_formula_sum   'K4 Ti2 Si12 O30'
_cell_volume   661.06654252
_cell_formula_units_Z   2
loop_
 _symmetry_equiv_pos_site_id
 _symmetry_equiv_pos_as_xyz
  1  'x, y, z'
loop_
 _atom_site_type_symbol
 _atom_site_label
 _atom_site_symmetry_multiplicity
 _atom_site_fract_x
 _atom_site_fract_y
 _atom_site_fract_z
 _atom_site_occupancy
  K  K0  1  0.82128312  0.69182439  0.51811216  1
  K  K1  1  0.69182439  0.82128312  0.01811216  1
  K  K2  1  0.47228883  0.11271974  0.70621015  1
  K  K3  1  0.11271974  0.47228883  0.20621015  1
  Ti  Ti4  1  0.29951826  0.79566962  0.63339151  1
  Ti  Ti5  1  0.79566962  0.29951826  0.13339151  1
  Si  Si6  1  0.49690838  0.46490713  0.47201594  1
  Si  Si7  1  0.46490713  0.49690838  0.97201594  1
  Si  Si8  1  0.58930928  0.03575898  0.28770882  1
  Si  Si9  1  0.03575898  0.58930928  0.78770882  1
  Si  Si10  1  0.29806237  0.20033224  0.47662333  1
  Si  Si11  1  0.20033224  0.29806237  0.97662333  1
  Si  Si12  1  0.49637039  0.67707519  0.26769427  1
  Si  Si13  1  0.67707519  0.49637039  0.76769427  1
  Si  Si14  1  0.09170545  0.95406011  0.98968396  1
  Si  Si15  1  0.95406011  0.09170545  0.48968396  1
  Si  Si16  1  0.02333766  0.93741794  0.30030797  1
  Si  Si17  1  0.93741794  0.02333766  0.80030797  1
  O  O18  1  0.02377991  0.37413554  0.06446745  1
  O  O19  1  0.37413554  0.02377991  0.56446745  1
  O  O20  1  0.66403472  0.57266283  0.18188842  1
  O  O21  1  0.57266283  0.66403472  0.68188842  1
  O  O22  1  0.97163548  0.15867390  0.23347980  1
  O  O23  1  0.15867390  0.97163548  0.73347980  1
  O  O24  1  0.63840940  0.45686914  0.03039745  1
  O  O25  1  0.45686914  0.63840940  0.53039745  1
  O  O26  1  0.69274121  0.22978568  0.50582856  1
  O  O27  1  0.22978568  0.69274121  0.00582856  1
  O  O28  1  0.57236434  0.23212224  0.20791418  1
  O  O29  1  0.23212224  0.57236434  0.70791418  1
  O  O30  1  0.83890772  0.86399208  0.30508865  1
  O  O31  1  0.86399208  0.83890772  0.80508865  1
  O  O32  1  0.28590431  0.42629119  0.48632098  1
  O  O33  1  0.42629119  0.28590431  0.98632098  1
  O  O34  1  0.46217370  0.12168596  0.38447922  1
  O  O35  1  0.12168596  0.46217370  0.88447922  1
  O  O36  1  0.92882082  0.03140827  0.08112408  1
  O  O37  1  0.03140827  0.92882082  0.58112408  1
  O  O38  1  0.73089677  0.24844533  0.76712657  1
  O  O39  1  0.24844533  0.73089677  0.26712657  1
  O  O40  1  0.52731343  0.57143338  0.86400787  1
  O  O41  1  0.57143338  0.52731343  0.36400787  1
  O  O42  1  0.95503782  0.02593639  0.90531155  1
  O  O43  1  0.02593639  0.95503782  0.40531155  1
  O  O44  1  0.05519241  0.26073631  0.46251671  1
  O  O45  1  0.26073631  0.05519241  0.96251671  1
  O  O46  1  0.91055988  0.48089779  0.76379739  1
  O  O47  1  0.48089779  0.91055988  0.26379739  1
