# generated using pymatgen
data_Rb5V3O10
_symmetry_space_group_name_H-M   'P 1'
_cell_length_a   8.41962413
_cell_length_b   8.41962413
_cell_length_c   19.44672557
_cell_angle_alpha   90.00000000
_cell_angle_beta   90.00000000
_cell_angle_gamma   90.00000000
_symmetry_Int_Tables_number   1
_chemical_formula_structural   Rb5V3O10
_chemical_formula_sum   'Rb20 V12 O40'
_cell_volume   1378.57974647
_cell_formula_units_Z   4
loop_
 _symmetry_equiv_pos_site_id
 _symmetry_equiv_pos_as_xyz
  1  'x, y, z'
loop_
 _atom_site_type_symbol
 _atom_site_label
 _atom_site_symmetry_multiplicity
 _atom_site_fract_x
 _atom_site_fract_y
 _atom_site_fract_z
 _atom_site_occupancy
  Rb  Rb0  1  0.47740444  0.01291550  0.13463271  1
  Rb  Rb1  1  0.52259556  0.98708450  0.63463271  1
  Rb  Rb2  1  0.48708450  0.97740444  0.38463271  1
  Rb  Rb3  1  0.02259556  0.51291550  0.11536729  1
  Rb  Rb4  1  0.51291550  0.02259556  0.88463271  1
  Rb  Rb5  1  0.97740444  0.48708450  0.61536729  1
  Rb  Rb6  1  0.01291550  0.47740444  0.86536729  1
  Rb  Rb7  1  0.98708450  0.52259556  0.36536729  1
  Rb  Rb8  1  0.00123178  0.02723877  0.11222702  1
  Rb  Rb9  1  -0.00123178  0.97276123  0.61222702  1
  Rb  Rb10  1  0.47276123  0.50123178  0.36222702  1
  Rb  Rb11  1  0.49876822  0.52723877  0.13777298  1
  Rb  Rb12  1  0.52723877  0.49876822  0.86222702  1
  Rb  Rb13  1  0.50123178  0.47276123  0.63777298  1
  Rb  Rb14  1  0.02723877  0.00123178  0.88777298  1
  Rb  Rb15  1  0.97276123  -0.00123178  0.38777298  1
  Rb  Rb16  1  0.76059152  0.76059152  0.00000000  1
  Rb  Rb17  1  0.23940848  0.23940848  0.50000000  1
  Rb  Rb18  1  0.73940848  0.26059152  0.25000000  1
  Rb  Rb19  1  0.26059152  0.73940848  0.75000000  1
  V  V20  1  0.23043970  0.23246467  0.26771279  1
  V  V21  1  0.76956030  0.76753533  0.76771279  1
  V  V22  1  0.26753533  0.73043970  0.51771279  1
  V  V23  1  0.26956030  0.73246467  0.98228721  1
  V  V24  1  0.73246467  0.26956030  0.01771279  1
  V  V25  1  0.73043970  0.26753533  0.48228721  1
  V  V26  1  0.23246467  0.23043970  0.73228721  1
  V  V27  1  0.76753533  0.76956030  0.23228721  1
  V  V28  1  0.31344455  0.31344455  0.00000000  1
  V  V29  1  0.68655545  0.68655545  0.50000000  1
  V  V30  1  0.18655545  0.81344455  0.25000000  1
  V  V31  1  0.81344455  0.18655545  0.75000000  1
  O  O32  1  0.06894288  0.32780422  0.23705886  1
  O  O33  1  0.93105712  0.67219578  0.73705886  1
  O  O34  1  0.17219578  0.56894288  0.48705886  1
  O  O35  1  0.43105712  0.82780422  0.01294114  1
  O  O36  1  0.82780422  0.43105712  0.98705886  1
  O  O37  1  0.56894288  0.17219578  0.51294114  1
  O  O38  1  0.32780422  0.06894288  0.76294114  1
  O  O39  1  0.67219578  0.93105712  0.26294114  1
  O  O40  1  0.24312357  0.22951590  0.07117409  1
  O  O41  1  0.75687643  0.77048410  0.57117409  1
  O  O42  1  0.27048410  0.74312357  0.32117409  1
  O  O43  1  0.25687643  0.72951590  0.17882591  1
  O  O44  1  0.72951590  0.25687643  0.82117409  1
  O  O45  1  0.74312357  0.27048410  0.67882591  1
  O  O46  1  0.22951590  0.24312357  0.92882591  1
  O  O47  1  0.77048410  0.75687643  0.42882591  1
  O  O48  1  0.23141848  0.24494538  0.35490750  1
  O  O49  1  0.76858152  0.75505462  0.85490750  1
  O  O50  1  0.25505462  0.73141848  0.60490750  1
  O  O51  1  0.26858152  0.74494538  0.89509250  1
  O  O52  1  0.74494538  0.26858152  0.10490750  1
  O  O53  1  0.73141848  0.25505462  0.39509250  1
  O  O54  1  0.24494538  0.23141848  0.64509250  1
  O  O55  1  0.75505462  0.76858152  0.14509250  1
  O  O56  1  0.21798606  0.02193259  0.24252400  1
  O  O57  1  0.78201394  0.97806741  0.74252400  1
  O  O58  1  0.47806741  0.71798606  0.49252400  1
  O  O59  1  0.28201394  0.52193259  0.00747600  1
  O  O60  1  0.52193259  0.28201394  0.99252400  1
  O  O61  1  0.71798606  0.47806741  0.50747600  1
  O  O62  1  0.02193259  0.21798606  0.75747600  1
  O  O63  1  0.97806741  0.78201394  0.25747600  1
  O  O64  1  0.40279184  0.30592815  0.23695458  1
  O  O65  1  0.59720816  0.69407185  0.73695458  1
  O  O66  1  0.19407185  0.90279184  0.48695458  1
  O  O67  1  0.09720816  0.80592815  0.01304542  1
  O  O68  1  0.80592815  0.09720816  0.98695458  1
  O  O69  1  0.90279184  0.19407185  0.51304542  1
  O  O70  1  0.30592815  0.40279184  0.76304542  1
  O  O71  1  0.69407185  0.59720816  0.26304542  1
