# generated using pymatgen
data_Ba2Y2Mg(Fe2O5)2
_symmetry_space_group_name_H-M   'P 1'
_cell_length_a   3.89961793
_cell_length_b   7.78678798
_cell_length_c   9.66829486
_cell_angle_alpha   89.96178362
_cell_angle_beta   100.46471674
_cell_angle_gamma   89.99762084
_symmetry_Int_Tables_number   1
_chemical_formula_structural   Ba2Y2Mg(Fe2O5)2
_chemical_formula_sum   'Ba2 Y2 Mg1 Fe4 O10'
_cell_volume   288.69934475
_cell_formula_units_Z   1
loop_
 _symmetry_equiv_pos_site_id
 _symmetry_equiv_pos_as_xyz
  1  'x, y, z'
loop_
 _atom_site_type_symbol
 _atom_site_label
 _atom_site_symmetry_multiplicity
 _atom_site_fract_x
 _atom_site_fract_y
 _atom_site_fract_z
 _atom_site_occupancy
  Ba  Ba0  1  0.76704200  0.00472600  0.54181400  1
  Ba  Ba1  1  0.97421400  0.98404500  0.05375600  1
  Y  Y2  1  0.97287700  0.50274500  0.00617500  1
  Y  Y3  1  0.16197400  0.49536300  0.39489800  1
  Mg  Mg4  1  0.78304500  0.49850700  0.64495500  1
  Fe  Fe5  1  0.57872100  0.74655100  0.24196900  1
  Fe  Fe6  1  0.38311900  0.23402000  0.81087200  1
  Fe  Fe7  1  0.57176400  0.25654500  0.22386300  1
  Fe  Fe8  1  0.37774000  0.76515800  0.80705800  1
  O  O9  1  0.69467300  0.66503500  0.46777100  1
  O  O10  1  0.69475100  0.33506300  0.47060800  1
  O  O11  1  0.47195200  0.70396900  0.01101400  1
  O  O12  1  0.47360900  0.32766800  0.00802000  1
  O  O13  1  0.87191800  0.68145100  0.79044100  1
  O  O14  1  0.06550400  0.31435000  0.21725600  1
  O  O15  1  0.06221600  0.66678800  0.21492300  1
  O  O16  1  0.87451400  0.31179900  0.78971800  1
  O  O17  1  0.55254000  0.99744000  0.24776600  1
  O  O18  1  0.35115000  0.00044300  0.72379000  1
