# generated using pymatgen
data_MgVBiO5
_symmetry_space_group_name_H-M   'P 1'
_cell_length_a   5.18127524
_cell_length_b   10.43078516
_cell_length_c   15.48113850
_cell_angle_alpha   90.00000000
_cell_angle_beta   90.00000000
_cell_angle_gamma   90.00000000
_symmetry_Int_Tables_number   1
_chemical_formula_structural   MgVBiO5
_chemical_formula_sum   'Mg8 V8 Bi8 O40'
_cell_volume   836.67455228
_cell_formula_units_Z   8
loop_
 _symmetry_equiv_pos_site_id
 _symmetry_equiv_pos_as_xyz
  1  'x, y, z'
loop_
 _atom_site_type_symbol
 _atom_site_label
 _atom_site_symmetry_multiplicity
 _atom_site_fract_x
 _atom_site_fract_y
 _atom_site_fract_z
 _atom_site_occupancy
  Mg  Mg0  1  0.49877716  0.36575111  0.54891319  1
  Mg  Mg1  1  -0.00122284  0.13424889  0.54891319  1
  Mg  Mg2  1  -0.00122284  0.63424889  0.95108681  1
  Mg  Mg3  1  0.00122284  0.36575111  0.04891319  1
  Mg  Mg4  1  0.50122284  0.13424889  0.04891319  1
  Mg  Mg5  1  0.00122284  0.86575111  0.45108681  1
  Mg  Mg6  1  0.50122284  0.63424889  0.45108681  1
  Mg  Mg7  1  0.49877716  0.86575111  0.95108681  1
  V  V8  1  0.98589237  0.39664261  0.41123539  1
  V  V9  1  0.51410763  0.89664261  0.58876461  1
  V  V10  1  0.01410763  0.60335739  0.58876461  1
  V  V11  1  0.48589237  0.10335739  0.41123539  1
  V  V12  1  0.01410763  0.10335739  0.91123539  1
  V  V13  1  0.98589237  0.89664261  0.08876461  1
  V  V14  1  0.51410763  0.39664261  0.91123539  1
  V  V15  1  0.48589237  0.60335739  0.08876461  1
  Bi  Bi16  1  0.99315705  0.85746888  0.77020242  1
  Bi  Bi17  1  0.00684295  0.14253112  0.22979758  1
  Bi  Bi18  1  0.50684295  0.35746888  0.22979758  1
  Bi  Bi19  1  0.00684295  0.64253112  0.27020242  1
  Bi  Bi20  1  0.49315705  0.14253112  0.72979758  1
  Bi  Bi21  1  0.49315705  0.64253112  0.77020242  1
  Bi  Bi22  1  0.50684295  0.85746888  0.27020242  1
  Bi  Bi23  1  0.99315705  0.35746888  0.72979758  1
  O  O24  1  0.91563052  0.32032145  0.31377771  1
  O  O25  1  0.30335666  0.04269098  0.94611947  1
  O  O26  1  0.19664334  0.54269098  0.05388053  1
  O  O27  1  0.32333247  0.79223543  0.84297935  1
  O  O28  1  0.17666753  0.29223543  0.15702065  1
  O  O29  1  0.91563052  0.82032145  0.18622229  1
  O  O30  1  0.17666753  0.79223543  0.34297935  1
  O  O31  1  0.58436948  0.82032145  0.68622229  1
  O  O32  1  0.30335666  0.54269098  0.55388053  1
  O  O33  1  0.08436948  0.67967855  0.68622229  1
  O  O34  1  0.58436948  0.32032145  0.81377771  1
  O  O35  1  0.64177646  0.19746779  0.48477578  1
  O  O36  1  0.80335666  0.95730902  0.55388053  1
  O  O37  1  0.67666753  0.70776457  0.34297935  1
  O  O38  1  0.18441077  0.02469650  0.11813417  1
  O  O39  1  0.80335666  0.45730902  0.94611947  1
  O  O40  1  0.08436948  0.17967855  0.81377771  1
  O  O41  1  0.82333247  0.20776457  0.65702065  1
  O  O42  1  0.14177646  0.80253221  0.01522422  1
  O  O43  1  0.19664334  0.04269098  0.44611947  1
  O  O44  1  0.35822354  0.80253221  0.51522422  1
  O  O45  1  0.81558923  0.97530350  0.88186583  1
  O  O46  1  0.67666753  0.20776457  0.15702065  1
  O  O47  1  0.68441077  0.97530350  0.38186583  1
  O  O48  1  0.35822354  0.30253221  0.98477578  1
  O  O49  1  0.14177646  0.30253221  0.48477578  1
  O  O50  1  0.69664334  0.45730902  0.44611947  1
  O  O51  1  0.69664334  0.95730902  0.05388053  1
  O  O52  1  0.68441077  0.47530350  0.11813417  1
  O  O53  1  0.85822354  0.69746779  0.51522422  1
  O  O54  1  0.85822354  0.19746779  0.98477578  1
  O  O55  1  0.64177646  0.69746779  0.01522422  1
  O  O56  1  0.81558923  0.47530350  0.61813417  1
  O  O57  1  0.82333247  0.70776457  0.84297935  1
  O  O58  1  0.32333247  0.29223543  0.65702065  1
  O  O59  1  0.18441077  0.52469650  0.38186583  1
  O  O60  1  0.31558923  0.52469650  0.88186583  1
  O  O61  1  0.41563052  0.17967855  0.31377771  1
  O  O62  1  0.31558923  0.02469650  0.61813417  1
  O  O63  1  0.41563052  0.67967855  0.18622229  1
