# generated using pymatgen
data_RbLa2C6N6ClO6
_symmetry_space_group_name_H-M   'P 1'
_cell_length_a   6.78591474
_cell_length_b   6.78591474
_cell_length_c   14.58869300
_cell_angle_alpha   90.00000000
_cell_angle_beta   90.00000000
_cell_angle_gamma   120.00000100
_symmetry_Int_Tables_number   1
_chemical_formula_structural   RbLa2C6N6ClO6
_chemical_formula_sum   'Rb2 La4 C12 N12 Cl2 O12'
_cell_volume   581.78672897
_cell_formula_units_Z   2
loop_
 _symmetry_equiv_pos_site_id
 _symmetry_equiv_pos_as_xyz
  1  'x, y, z'
loop_
 _atom_site_type_symbol
 _atom_site_label
 _atom_site_symmetry_multiplicity
 _atom_site_fract_x
 _atom_site_fract_y
 _atom_site_fract_z
 _atom_site_occupancy
  Rb  Rb0  1  0.66666700  0.33333300  0.25000000  1
  Rb  Rb1  1  0.33333300  0.66666700  0.75000000  1
  La  La2  1  0.33333300  0.66666700  0.05126316  1
  La  La3  1  0.66666700  0.33333300  0.55126316  1
  La  La4  1  0.66666700  0.33333300  0.94873684  1
  La  La5  1  0.33333300  0.66666700  0.44873684  1
  C  C6  1  0.95481851  0.16781117  0.09654202  1
  C  C7  1  0.83218883  0.78700734  0.09654202  1
  C  C8  1  0.21299266  0.04518149  0.09654202  1
  C  C9  1  0.04518149  0.83218883  0.59654202  1
  C  C10  1  0.16781117  0.21299266  0.59654202  1
  C  C11  1  0.78700734  0.95481851  0.59654202  1
  C  C12  1  0.04518149  0.83218883  0.90345798  1
  C  C13  1  0.16781117  0.21299266  0.90345798  1
  C  C14  1  0.78700734  0.95481851  0.90345798  1
  C  C15  1  0.95481851  0.16781117  0.40345798  1
  C  C16  1  0.83218883  0.78700734  0.40345798  1
  C  C17  1  0.21299266  0.04518149  0.40345798  1
  N  N18  1  0.17558902  0.22170278  0.09982865  1
  N  N19  1  0.77829722  0.95388624  0.09982865  1
  N  N20  1  0.04611376  0.82441098  0.09982865  1
  N  N21  1  0.82441098  0.77829722  0.59982865  1
  N  N22  1  0.22170278  0.04611376  0.59982865  1
  N  N23  1  0.95388624  0.17558902  0.59982865  1
  N  N24  1  0.82441098  0.77829722  0.90017135  1
  N  N25  1  0.22170278  0.04611376  0.90017135  1
  N  N26  1  0.95388624  0.17558902  0.90017135  1
  N  N27  1  0.17558902  0.22170278  0.40017135  1
  N  N28  1  0.77829722  0.95388624  0.40017135  1
  N  N29  1  0.04611376  0.82441098  0.40017135  1
  Cl  Cl30  1  0.33333300  0.66666700  0.25000000  1
  Cl  Cl31  1  0.66666700  0.33333300  0.75000000  1
  O  O32  1  0.92032943  0.33678753  0.08362326  1
  O  O33  1  0.66321247  0.58354290  0.08362326  1
  O  O34  1  0.41645710  0.07967057  0.08362326  1
  O  O35  1  0.07967057  0.66321247  0.58362326  1
  O  O36  1  0.33678753  0.41645710  0.58362326  1
  O  O37  1  0.58354290  0.92032943  0.58362326  1
  O  O38  1  0.07967057  0.66321247  0.91637674  1
  O  O39  1  0.33678753  0.41645710  0.91637674  1
  O  O40  1  0.58354290  0.92032943  0.91637674  1
  O  O41  1  0.92032943  0.33678753  0.41637674  1
  O  O42  1  0.66321247  0.58354290  0.41637674  1
  O  O43  1  0.41645710  0.07967057  0.41637674  1
