# generated using pymatgen
data_Ba6Nd2Al4O15
_symmetry_space_group_name_H-M   'P 1'
_cell_length_a   5.99095875
_cell_length_b   7.96238133
_cell_length_c   18.62672453
_cell_angle_alpha   91.43502205
_cell_angle_beta   90.00000000
_cell_angle_gamma   90.00000000
_symmetry_Int_Tables_number   1
_chemical_formula_structural   Ba6Nd2Al4O15
_chemical_formula_sum   'Ba12 Nd4 Al8 O30'
_cell_volume   888.25889255
_cell_formula_units_Z   2
loop_
 _symmetry_equiv_pos_site_id
 _symmetry_equiv_pos_as_xyz
  1  'x, y, z'
loop_
 _atom_site_type_symbol
 _atom_site_label
 _atom_site_symmetry_multiplicity
 _atom_site_fract_x
 _atom_site_fract_y
 _atom_site_fract_z
 _atom_site_occupancy
  Ba  Ba0  1  0.75637418  0.50359221  0.41678447  1
  Ba  Ba1  1  0.24362582  0.49640779  0.58321553  1
  Ba  Ba2  1  0.75637418  0.49640779  0.08321553  1
  Ba  Ba3  1  0.24362582  0.50359221  0.91678447  1
  Ba  Ba4  1  0.74957961  0.96878174  0.40872930  1
  Ba  Ba5  1  0.25042039  0.03121826  0.59127070  1
  Ba  Ba6  1  0.74957961  0.03121826  0.09127070  1
  Ba  Ba7  1  0.25042039  0.96878174  0.90872930  1
  Ba  Ba8  1  0.72023318  -0.00000000  0.75000000  1
  Ba  Ba9  1  0.27976682  -0.00000000  0.25000000  1
  Ba  Ba10  1  0.67045540  0.50000000  0.75000000  1
  Ba  Ba11  1  0.32954460  0.50000000  0.25000000  1
  Nd  Nd12  1  0.74854872  0.75385034  0.58981053  1
  Nd  Nd13  1  0.25145128  0.24614966  0.41018947  1
  Nd  Nd14  1  0.74854872  0.24614966  0.91018947  1
  Nd  Nd15  1  0.25145128  0.75385034  0.08981053  1
  Al  Al16  1  0.74742165  0.75249642  0.94180795  1
  Al  Al17  1  0.25257835  0.24750358  0.05819205  1
  Al  Al18  1  0.74742165  0.24750358  0.55819205  1
  Al  Al19  1  0.25257835  0.75249642  0.44180795  1
  Al  Al20  1  0.77456713  0.78068395  0.23410517  1
  Al  Al21  1  0.22543287  0.21931605  0.76589483  1
  Al  Al22  1  0.77456713  0.21931605  0.26589483  1
  Al  Al23  1  0.22543287  0.78068395  0.73410517  1
  O  O24  1  0.20664199  -0.00000000  0.75000000  1
  O  O25  1  0.79335801  -0.00000000  0.25000000  1
  O  O26  1  0.50020336  0.76331594  0.49415443  1
  O  O27  1  0.49979664  0.23668406  0.50584557  1
  O  O28  1  0.50020336  0.23668406  0.00584557  1
  O  O29  1  0.49979664  0.76331594  0.99415443  1
  O  O30  1  0.76435087  0.93932540  0.89157050  1
  O  O31  1  0.23564913  0.06067460  0.10842950  1
  O  O32  1  0.76435087  0.06067460  0.60842950  1
  O  O33  1  0.23564913  0.93932540  0.39157050  1
  O  O34  1  0.02213563  0.76349268  0.50254394  1
  O  O35  1  0.97786437  0.23650732  0.49745606  1
  O  O36  1  0.02213563  0.23650732  0.99745606  1
  O  O37  1  0.97786437  0.76349268  0.00254394  1
  O  O38  1  0.32085177  0.69665344  0.81350692  1
  O  O39  1  0.67914823  0.30334656  0.18649308  1
  O  O40  1  0.32085177  0.30334656  0.68649308  1
  O  O41  1  0.67914823  0.69665344  0.31350692  1
  O  O42  1  0.43511641  0.75426948  0.66683865  1
  O  O43  1  0.56488359  0.24573052  0.33316135  1
  O  O44  1  0.43511641  0.24573052  0.83316135  1
  O  O45  1  0.56488359  0.75426948  0.16683865  1
  O  O46  1  0.96650588  0.72829869  0.69519027  1
  O  O47  1  0.03349412  0.27170131  0.30480973  1
  O  O48  1  0.96650588  0.27170131  0.80480973  1
  O  O49  1  0.03349412  0.72829869  0.19519027  1
  O  O50  1  0.75629951  0.54427336  0.90535592  1
  O  O51  1  0.24370149  0.45572664  0.09464408  1
  O  O52  1  0.75629951  0.45572664  0.59464408  1
  O  O53  1  0.24370149  0.54427336  0.40535592  1
