# generated using pymatgen
data_Pr2(MoO4)3
_symmetry_space_group_name_H-M   'P 1'
_cell_length_a   7.58734278
_cell_length_b   7.58734278
_cell_length_c   10.89590812
_cell_angle_alpha   90.00000000
_cell_angle_beta   90.00000000
_cell_angle_gamma   90.00000000
_symmetry_Int_Tables_number   1
_chemical_formula_structural   Pr2(MoO4)3
_chemical_formula_sum   'Pr4 Mo6 O24'
_cell_volume   627.25313762
_cell_formula_units_Z   2
loop_
 _symmetry_equiv_pos_site_id
 _symmetry_equiv_pos_as_xyz
  1  'x, y, z'
loop_
 _atom_site_type_symbol
 _atom_site_label
 _atom_site_symmetry_multiplicity
 _atom_site_fract_x
 _atom_site_fract_y
 _atom_site_fract_z
 _atom_site_occupancy
  Pr  Pr0  1  0.18939307  0.68939307  0.73834406  1
  Pr  Pr1  1  0.81060693  0.31060693  0.73834406  1
  Pr  Pr2  1  0.68939307  0.81060693  0.26165594  1
  Pr  Pr3  1  0.31060693  0.18939307  0.26165594  1
  Mo  Mo4  1  0.20933230  0.70933230  0.35554784  1
  Mo  Mo5  1  0.79066770  0.29066770  0.35554784  1
  Mo  Mo6  1  0.70933230  0.79066770  0.64445216  1
  Mo  Mo7  1  0.29066770  0.20933230  0.64445216  1
  Mo  Mo8  1  -0.00000000  0.00000000  -0.00000000  1
  Mo  Mo9  1  0.50000000  0.50000000  -0.00000000  1
  O  O10  1  0.99589088  0.22569043  0.29726950  1
  O  O11  1  0.00410912  0.77430957  0.29726950  1
  O  O12  1  0.22569043  0.00410912  0.70273050  1
  O  O13  1  0.50410912  0.72569043  0.70273050  1
  O  O14  1  0.77430957  0.99589088  0.70273050  1
  O  O15  1  0.49589088  0.27430957  0.70273050  1
  O  O16  1  0.27430957  0.50410912  0.29726950  1
  O  O17  1  0.72569043  0.49589088  0.29726950  1
  O  O18  1  0.18499607  0.03948887  0.09364022  1
  O  O19  1  0.81500393  0.96051113  0.09364022  1
  O  O20  1  0.03948887  0.81500393  0.90635978  1
  O  O21  1  0.31500393  0.53948887  0.90635978  1
  O  O22  1  0.96051113  0.18499607  0.90635978  1
  O  O23  1  0.68499607  0.46051113  0.90635978  1
  O  O24  1  0.46051113  0.31500393  0.09364022  1
  O  O25  1  0.53948887  0.68499607  0.09364022  1
  O  O26  1  0.62872604  0.12872604  0.31169079  1
  O  O27  1  0.37127396  0.87127396  0.31169079  1
  O  O28  1  0.12872604  0.37127396  0.68830921  1
  O  O29  1  0.87127396  0.62872604  0.68830921  1
  O  O30  1  0.19713415  0.69713415  0.51575496  1
  O  O31  1  0.80286585  0.30286585  0.51575496  1
  O  O32  1  0.69713415  0.80286585  0.48424504  1
  O  O33  1  0.30286585  0.19713415  0.48424504  1
