# generated using pymatgen
data_Sr8MgP4(IO4)4
_symmetry_space_group_name_H-M   'P 1'
_cell_length_a   8.90825080
_cell_length_b   8.96150965
_cell_length_c   9.72303129
_cell_angle_alpha   89.57935890
_cell_angle_beta   115.82020369
_cell_angle_gamma   89.12195607
_symmetry_Int_Tables_number   1
_chemical_formula_structural   Sr8MgP4(IO4)4
_chemical_formula_sum   'Sr8 Mg1 P4 I4 O16'
_cell_volume   698.54417289
_cell_formula_units_Z   1
loop_
 _symmetry_equiv_pos_site_id
 _symmetry_equiv_pos_as_xyz
  1  'x, y, z'
loop_
 _atom_site_type_symbol
 _atom_site_label
 _atom_site_symmetry_multiplicity
 _atom_site_fract_x
 _atom_site_fract_y
 _atom_site_fract_z
 _atom_site_occupancy
  Sr  Sr0  1  0.94254875  0.83175488  0.86883076  1
  Sr  Sr1  1  0.54201897  0.31573942  0.13903821  1
  Sr  Sr2  1  0.05564105  0.20220660  0.14712093  1
  Sr  Sr3  1  0.47964114  0.71027730  0.85811354  1
  Sr  Sr4  1  0.47717134  0.82040596  0.23827384  1
  Sr  Sr5  1  0.02394364  0.31393117  0.75601400  1
  Sr  Sr6  1  0.53753407  0.18034419  0.75919800  1
  Sr  Sr7  1  0.98718033  0.67361211  0.24268087  1
  Mg  Mg8  1  0.03621303  0.68136766  0.60671508  1
  P  P9  1  0.22722761  0.56249006  0.01949668  1
  P  P10  1  0.27806412  0.05781520  0.96712830  1
  P  P11  1  0.76556473  0.45061451  0.95701483  1
  P  P12  1  0.75197677  0.95648528  0.06169510  1
  I  I13  1  0.19779525  0.36189377  0.49733659  1
  I  I14  1  0.32012630  0.89106142  0.49371191  1
  I  I15  1  0.65992550  0.50590977  0.47423793  1
  I  I16  1  0.75686974  0.05235111  0.53828821  1
  O  O17  1  0.12037096  0.58821863  0.84137854  1
  O  O18  1  0.37028719  0.08558001  0.14295526  1
  O  O19  1  0.85918319  0.42767942  0.13405549  1
  O  O20  1  0.66606677  0.93407363  0.88345027  1
  O  O21  1  0.78748821  0.61461984  0.91815603  1
  O  O22  1  0.71889189  0.11747882  0.09522589  1
  O  O23  1  0.20682730  0.39849530  0.05787679  1
  O  O24  1  0.31139794  0.89524756  0.93577814  1
  O  O25  1  0.33135861  0.17614382  0.87955454  1
  O  O26  1  0.17029161  0.67926351  0.10567769  1
  O  O27  1  0.69282618  0.83027232  0.13664396  1
  O  O28  1  0.82994766  0.32871058  0.88069740  1
  O  O29  1  0.94403524  0.93145530  0.11558777  1
  O  O30  1  0.57498823  0.42482733  0.90215837  1
  O  O31  1  0.08654234  0.08253291  0.91811705  1
  O  O32  1  0.41505435  0.58856958  0.06350600  1
