# generated using pymatgen
data_K2TiGe(PO5)2
_symmetry_space_group_name_H-M   'P 1'
_cell_length_a   6.49447724
_cell_length_b   12.79715842
_cell_length_c   10.44862706
_cell_angle_alpha   90.00000000
_cell_angle_beta   90.00000000
_cell_angle_gamma   90.00000000
_symmetry_Int_Tables_number   1
_chemical_formula_structural   K2TiGe(PO5)2
_chemical_formula_sum   'K8 Ti4 Ge4 P8 O40'
_cell_volume   868.39431908
_cell_formula_units_Z   4
loop_
 _symmetry_equiv_pos_site_id
 _symmetry_equiv_pos_as_xyz
  1  'x, y, z'
loop_
 _atom_site_type_symbol
 _atom_site_label
 _atom_site_symmetry_multiplicity
 _atom_site_fract_x
 _atom_site_fract_y
 _atom_site_fract_z
 _atom_site_occupancy
  K  K0  1  0.80206816  0.89450045  0.41747351  1
  K  K1  1  0.19793184  0.10549955  0.91747351  1
  K  K2  1  0.69793184  0.39450045  0.41747351  1
  K  K3  1  0.30206816  0.60549955  0.91747351  1
  K  K4  1  0.22037104  0.87869450  0.67152255  1
  K  K5  1  0.77962896  0.12130550  0.17152255  1
  K  K6  1  0.27962896  0.37869450  0.67152255  1
  K  K7  1  0.72037104  0.62130550  0.17152255  1
  Ti  Ti8  1  0.50181256  0.86836296  0.97681531  1
  Ti  Ti9  1  0.49818744  0.13163704  0.47681531  1
  Ti  Ti10  1  0.99818744  0.36836296  0.97681531  1
  Ti  Ti11  1  0.00181256  0.63163704  0.47681531  1
  Ge  Ge12  1  0.74377339  0.74572164  0.72768250  1
  Ge  Ge13  1  0.25622661  0.25427836  0.22768250  1
  Ge  Ge14  1  0.75622661  0.24572164  0.72768250  1
  Ge  Ge15  1  0.24377339  0.75427836  0.22768250  1
  P  P16  1  0.99632024  0.81862524  0.97405137  1
  P  P17  1  0.00367976  0.18137476  0.47405137  1
  P  P18  1  0.50367976  0.31862524  0.97405137  1
  P  P19  1  0.49632024  0.68137476  0.47405137  1
  P  P20  1  0.66334292  0.99950466  0.72459355  1
  P  P21  1  0.33665708  0.00049534  0.22459355  1
  P  P22  1  0.83665708  0.49950466  0.72459355  1
  P  P23  1  0.16334292  0.50049534  0.22459355  1
  O  O24  1  0.80625135  0.88720695  0.00221394  1
  O  O25  1  0.19374865  0.11279305  0.50221394  1
  O  O26  1  0.69374865  0.38720695  0.00221394  1
  O  O27  1  0.30625135  0.61279305  0.50221394  1
  O  O28  1  0.80451665  0.90155405  0.70598821  1
  O  O29  1  0.19548335  0.09844595  0.20598821  1
  O  O30  1  0.69548335  0.40155405  0.70598821  1
  O  O31  1  0.30451665  0.59844595  0.20598821  1
  O  O32  1  0.95863623  0.74401579  0.85746276  1
  O  O33  1  0.04136377  0.25598421  0.35746276  1
  O  O34  1  0.54136377  0.24401579  0.85746276  1
  O  O35  1  0.45863623  0.75598421  0.35746276  1
  O  O36  1  0.68628712  0.61302589  0.44359517  1
  O  O37  1  0.31371288  0.38697411  0.94359517  1
  O  O38  1  0.81371288  0.11302589  0.44359517  1
  O  O39  1  0.18628712  0.88697411  0.94359517  1
  O  O40  1  0.69057325  0.59496598  0.74737027  1
  O  O41  1  0.30942675  0.40503402  0.24737027  1
  O  O42  1  0.80942675  0.09496598  0.74737027  1
  O  O43  1  0.19057325  0.90503402  0.24737027  1
  O  O44  1  0.54256727  0.77259625  0.84536515  1
  O  O45  1  0.45743273  0.22740375  0.34536515  1
  O  O46  1  0.95743273  0.27259625  0.84536515  1
  O  O47  1  0.04256727  0.72740375  0.34536515  1
  O  O48  1  0.53885364  0.75526240  0.59020999  1
  O  O49  1  0.46114636  0.24473760  0.09020999  1
  O  O50  1  0.96114636  0.25526240  0.59020999  1
  O  O51  1  0.03885364  0.74473760  0.09020999  1
  O  O52  1  0.51351059  0.98602137  0.83827671  1
  O  O53  1  0.48648941  0.01397863  0.33827671  1
  O  O54  1  0.98648941  0.48602137  0.83827671  1
  O  O55  1  0.01351059  0.51397863  0.33827671  1
  O  O56  1  0.96711769  0.51134883  0.60134053  1
  O  O57  1  0.03288231  0.48865117  0.10134053  1
  O  O58  1  0.53288231  0.01134883  0.60134053  1
  O  O59  1  0.46711769  0.98865117  0.10134053  1
  O  O60  1  0.94332371  0.72588132  0.60393847  1
  O  O61  1  0.05667629  0.27411868  0.10393847  1
  O  O62  1  0.55667629  0.22588132  0.60393847  1
  O  O63  1  0.44332371  0.77411868  0.10393847  1
