# generated using pymatgen
data_Ge(SeO3)2
_symmetry_space_group_name_H-M   'P 1'
_cell_length_a   5.07662735
_cell_length_b   6.81856921
_cell_length_c   7.32353347
_cell_angle_alpha   90.00000000
_cell_angle_beta   91.04042686
_cell_angle_gamma   90.00000000
_symmetry_Int_Tables_number   1
_chemical_formula_structural   Ge(SeO3)2
_chemical_formula_sum   'Ge2 Se4 O12'
_cell_volume   253.46476872
_cell_formula_units_Z   2
loop_
 _symmetry_equiv_pos_site_id
 _symmetry_equiv_pos_as_xyz
  1  'x, y, z'
loop_
 _atom_site_type_symbol
 _atom_site_label
 _atom_site_symmetry_multiplicity
 _atom_site_fract_x
 _atom_site_fract_y
 _atom_site_fract_z
 _atom_site_occupancy
  Ge  Ge0  1  0.00000000  -0.00000000  0.00000000  1
  Ge  Ge1  1  0.50000000  0.50000000  0.50000000  1
  Se  Se2  1  0.48447748  0.82571687  0.79904753  1
  Se  Se3  1  0.98447748  0.67428313  0.29904753  1
  Se  Se4  1  0.51552252  0.17428313  0.20095247  1
  Se  Se5  1  0.01552252  0.32571687  0.70095247  1
  O  O6  1  0.69836302  0.83821098  0.98580429  1
  O  O7  1  0.19836302  0.66178902  0.48580429  1
  O  O8  1  0.30163698  0.16178902  0.01419571  1
  O  O9  1  0.80163698  0.33821098  0.51419571  1
  O  O10  1  0.54759001  0.58519265  0.74355623  1
  O  O11  1  0.04759001  0.91480735  0.24355623  1
  O  O12  1  0.45240999  0.41480735  0.25644377  1
  O  O13  1  0.95240999  0.08519265  0.75644377  1
  O  O14  1  0.20087331  0.78333710  0.91655687  1
  O  O15  1  0.70087331  0.71666290  0.41655687  1
  O  O16  1  0.79912669  0.21666290  0.08344313  1
  O  O17  1  0.29912669  0.28333710  0.58344313  1
