# generated using pymatgen
data_Sm2Mo4O15
_symmetry_space_group_name_H-M   'P 1'
_cell_length_a   9.39211358
_cell_length_b   10.96523730
_cell_length_c   11.50792807
_cell_angle_alpha   104.33866004
_cell_angle_beta   109.47016427
_cell_angle_gamma   108.92879086
_symmetry_Int_Tables_number   1
_chemical_formula_structural   Sm2Mo4O15
_chemical_formula_sum   'Sm6 Mo12 O45'
_cell_volume   969.21710036
_cell_formula_units_Z   3
loop_
 _symmetry_equiv_pos_site_id
 _symmetry_equiv_pos_as_xyz
  1  'x, y, z'
loop_
 _atom_site_type_symbol
 _atom_site_label
 _atom_site_symmetry_multiplicity
 _atom_site_fract_x
 _atom_site_fract_y
 _atom_site_fract_z
 _atom_site_occupancy
  Sm  Sm0  1  0.33500764  0.65924560  0.79862793  1
  Sm  Sm1  1  0.66499236  0.34075440  0.20137207  1
  Sm  Sm2  1  0.23445947  0.22312661  0.17523550  1
  Sm  Sm3  1  0.76554053  0.77687339  0.82476450  1
  Sm  Sm4  1  0.78454075  0.94346921  0.40935530  1
  Sm  Sm5  1  0.21545925  0.05653079  0.59064470  1
  Mo  Mo6  1  0.47387308  0.56584889  0.13298241  1
  Mo  Mo7  1  0.52612692  0.43415111  0.86701759  1
  Mo  Mo8  1  0.26742865  0.98172125  0.92066289  1
  Mo  Mo9  1  0.73257135  0.01827875  0.07933711  1
  Mo  Mo10  1  0.08943731  0.53296197  0.18193415  1
  Mo  Mo11  1  0.91056269  0.46703803  0.81806585  1
  Mo  Mo12  1  0.08492650  0.31115188  0.44697734  1
  Mo  Mo13  1  0.91507350  0.68884812  0.55302266  1
  Mo  Mo14  1  0.93378233  0.13168566  0.79677805  1
  Mo  Mo15  1  0.06621767  0.86831434  0.20322195  1
  Mo  Mo16  1  0.41582750  0.77651206  0.51896976  1
  Mo  Mo17  1  0.58417250  0.22348794  0.48103024  1
  O  O18  1  0.45189093  0.42627240  0.19454879  1
  O  O19  1  0.54810907  0.57372760  0.80545121  1
  O  O20  1  0.32688319  0.61242711  0.16722661  1
  O  O21  1  0.67311681  0.38757289  0.83277339  1
  O  O22  1  0.38458843  0.14361146  0.06641904  1
  O  O23  1  0.61541157  0.85638854  0.93358096  1
  O  O24  1  0.05510388  0.92161177  0.88881106  1
  O  O25  1  0.94489612  0.07838823  0.11118894  1
  O  O26  1  0.33475526  0.85470969  0.94755140  1
  O  O27  1  0.66524474  0.14529031  0.05244860  1
  O  O28  1  0.41050765  0.55649423  0.95965403  1
  O  O29  1  0.58949235  0.44350577  0.04034597  1
  O  O30  1  0.09225971  0.50296881  0.80051745  1
  O  O31  1  0.90774029  0.49703119  0.19948255  1
  O  O32  1  0.18661732  0.46435380  0.59283970  1
  O  O33  1  0.10870152  0.37999390  0.16733241  1
  O  O34  1  0.22604641  0.30862087  0.37838256  1
  O  O35  1  0.89129848  0.62000610  0.83266759  1
  O  O36  1  0.41671316  0.16509617  0.52070885  1
  O  O37  1  0.58328684  0.83490383  0.47929115  1
  O  O38  1  0.33428572  0.28714666  0.75486959  1
  O  O39  1  0.66571428  0.71285334  0.24513041  1
  O  O40  1  0.29014163  0.01542576  0.78464951  1
  O  O41  1  0.70985837  0.98457424  0.21535049  1
  O  O42  1  0.96593321  0.84018413  0.51221411  1
  O  O43  1  0.03406679  0.15981587  0.48778589  1
  O  O44  1  0.02930095  0.93424070  0.34181785  1
  O  O45  1  0.97069905  0.06575930  0.65818215  1
  O  O46  1  0.65736017  0.09737254  0.45118479  1
  O  O47  1  0.34263983  0.90262746  0.54881521  1
  O  O48  1  0.52517669  0.26643343  0.33889250  1
  O  O49  1  0.47482331  0.73356657  0.66110750  1
  O  O50  1  0.75387619  0.38130612  0.61918906  1
  O  O51  1  0.24612381  0.61869388  0.38081094  1
  O  O52  1  -0.00000000  0.50000000  0.00000000  1
  O  O53  1  0.21888314  0.00894565  0.19971670  1
  O  O54  1  0.78111686  0.99105435  0.80028330  1
  O  O55  1  0.14802486  0.74533745  0.22541820  1
  O  O56  1  0.85197514  0.25466255  0.77458180  1
  O  O57  1  0.88105750  0.78716828  0.05199154  1
  O  O58  1  0.11894250  0.21283172  0.94800846  1
  O  O59  1  0.10343639  0.70022465  0.66712068  1
  O  O60  1  0.89656361  0.29977535  0.33287932  1
  O  O61  1  0.77395359  0.69137913  0.62161744  1
  O  O62  1  0.81338268  0.53564620  0.40716030  1
