# generated using pymatgen
data_ZnFe(Si2O5)2
_symmetry_space_group_name_H-M   'P 1'
_cell_length_a   7.20981156
_cell_length_b   7.20981116
_cell_length_c   14.78192446
_cell_angle_alpha   90.00000000
_cell_angle_beta   90.00000000
_cell_angle_gamma   90.00000000
_symmetry_Int_Tables_number   1
_chemical_formula_structural   ZnFe(Si2O5)2
_chemical_formula_sum   'Zn4 Fe4 Si16 O40'
_cell_volume   768.38483022
_cell_formula_units_Z   4
loop_
 _symmetry_equiv_pos_site_id
 _symmetry_equiv_pos_as_xyz
  1  'x, y, z'
loop_
 _atom_site_type_symbol
 _atom_site_label
 _atom_site_symmetry_multiplicity
 _atom_site_fract_x
 _atom_site_fract_y
 _atom_site_fract_z
 _atom_site_occupancy
  Zn  Zn0  1  0.50000000  0.50000000  0.50000000  1
  Zn  Zn1  1  -0.00000000  0.00000000  0.50000000  1
  Zn  Zn2  1  -0.00000000  0.00000000  1.00000000  1
  Zn  Zn3  1  0.50000000  0.50000000  0.00000000  1
  Fe  Fe4  1  0.50000000  0.00000000  0.56692122  1
  Fe  Fe5  1  -0.00000000  0.50000000  0.93307878  1
  Fe  Fe6  1  -0.00000000  0.50000000  0.43307878  1
  Fe  Fe7  1  0.50000000  0.00000000  0.06692122  1
  Si  Si8  1  0.15764926  0.23686240  0.64495726  1
  Si  Si9  1  0.84235074  0.76313760  0.64495726  1
  Si  Si10  1  0.23686241  0.15764925  0.85504273  1
  Si  Si11  1  0.73686241  0.34235075  0.64495727  1
  Si  Si12  1  0.26313759  0.65764925  0.64495727  1
  Si  Si13  1  0.34235074  0.73686240  0.85504274  1
  Si  Si14  1  0.65764926  0.26313760  0.85504274  1
  Si  Si15  1  0.76313759  0.84235075  0.85504273  1
  Si  Si16  1  0.34235074  0.26313760  0.35504274  1
  Si  Si17  1  0.65764926  0.73686240  0.35504274  1
  Si  Si18  1  0.26313759  0.34235075  0.14495727  1
  Si  Si19  1  0.76313759  0.15764925  0.35504273  1
  Si  Si20  1  0.23686241  0.84235075  0.35504273  1
  Si  Si21  1  0.15764926  0.76313760  0.14495726  1
  Si  Si22  1  0.84235074  0.23686240  0.14495726  1
  Si  Si23  1  0.73686241  0.65764925  0.14495727  1
  O  O24  1  0.23115326  0.08329989  0.57428848  1
  O  O25  1  0.76884674  0.91670011  0.57428848  1
  O  O26  1  0.08329987  0.23115327  0.92571153  1
  O  O27  1  0.58329987  0.26884673  0.57428847  1
  O  O28  1  0.41670013  0.73115327  0.57428847  1
  O  O29  1  0.26884674  0.58329989  0.92571152  1
  O  O30  1  0.73115326  0.41670011  0.92571152  1
  O  O31  1  0.91670013  0.76884673  0.92571153  1
  O  O32  1  0.26884674  0.41670011  0.42571152  1
  O  O33  1  0.73115326  0.58329989  0.42571152  1
  O  O34  1  0.41670013  0.26884673  0.07428847  1
  O  O35  1  0.91670013  0.23115327  0.42571153  1
  O  O36  1  0.08329987  0.76884673  0.42571153  1
  O  O37  1  0.23115326  0.91670011  0.07428848  1
  O  O38  1  0.76884674  0.08329989  0.07428848  1
  O  O39  1  0.25090511  0.06277107  0.37385815  1
  O  O40  1  0.58329987  0.73115327  0.07428847  1
  O  O41  1  0.75090511  0.56277107  0.62614185  1
  O  O42  1  0.43722892  0.24909487  0.87385815  1
  O  O43  1  0.93722892  0.25090513  0.62614185  1
  O  O44  1  0.06277108  0.74909487  0.62614185  1
  O  O45  1  0.25090511  0.93722893  0.87385815  1
  O  O46  1  0.74909489  0.06277107  0.87385815  1
  O  O47  1  0.56277108  0.75090513  0.87385815  1
  O  O48  1  0.68615977  0.68615978  0.24999999  1
  O  O49  1  0.81384023  0.18615978  0.25000001  1
  O  O50  1  0.18615977  0.81384022  0.25000001  1
  O  O51  1  0.31384023  0.31384022  0.24999999  1
  O  O52  1  0.81384023  0.81384022  0.75000001  1
  O  O53  1  0.68615977  0.31384022  0.74999999  1
  O  O54  1  0.31384023  0.68615978  0.74999999  1
  O  O55  1  0.18615977  0.18615978  0.75000001  1
  O  O56  1  0.93722892  0.74909487  0.12614185  1
  O  O57  1  0.75090511  0.43722893  0.12614185  1
  O  O58  1  0.24909489  0.56277107  0.12614185  1
  O  O59  1  0.43722892  0.75090513  0.37385815  1
  O  O60  1  0.56277108  0.24909487  0.37385815  1
  O  O61  1  0.06277108  0.25090513  0.12614185  1
  O  O62  1  0.74909489  0.93722893  0.37385815  1
  O  O63  1  0.24909489  0.43722893  0.62614185  1
