# generated using pymatgen
data_Zr6GeI14
_symmetry_space_group_name_H-M   'P 1'
_cell_length_a   10.96460490
_cell_length_b   10.96460490
_cell_length_c   13.25705765
_cell_angle_alpha   90.00000000
_cell_angle_beta   90.00000000
_cell_angle_gamma   95.93984905
_symmetry_Int_Tables_number   1
_chemical_formula_structural   Zr6GeI14
_chemical_formula_sum   'Zr12 Ge2 I28'
_cell_volume   1585.24045235
_cell_formula_units_Z   2
loop_
 _symmetry_equiv_pos_site_id
 _symmetry_equiv_pos_as_xyz
  1  'x, y, z'
loop_
 _atom_site_type_symbol
 _atom_site_label
 _atom_site_symmetry_multiplicity
 _atom_site_fract_x
 _atom_site_fract_y
 _atom_site_fract_z
 _atom_site_occupancy
  Zr  Zr0  1  0.18199634  0.95322477  0.11638585  1
  Zr  Zr1  1  0.81800366  0.04677523  0.88361415  1
  Zr  Zr2  1  0.31800366  0.54677523  0.61638585  1
  Zr  Zr3  1  0.45322477  0.68199634  0.38361415  1
  Zr  Zr4  1  0.68199634  0.45322477  0.38361415  1
  Zr  Zr5  1  0.54677523  0.31800366  0.61638585  1
  Zr  Zr6  1  0.04677523  0.81800366  0.88361415  1
  Zr  Zr7  1  0.95322477  0.18199634  0.11638585  1
  Zr  Zr8  1  0.35480830  0.35480830  0.39381132  1
  Zr  Zr9  1  0.64519170  0.64519170  0.60618868  1
  Zr  Zr10  1  0.14519170  0.14519170  0.89381132  1
  Zr  Zr11  1  0.85480830  0.85480830  0.10618868  1
  Ge  Ge12  1  -0.00000000  0.00000000  -0.00000000  1
  Ge  Ge13  1  0.50000000  0.50000000  0.50000000  1
  I  I14  1  0.53582392  0.28361737  0.25199101  1
  I  I15  1  0.46417608  0.71638263  0.74800899  1
  I  I16  1  0.96417608  0.21638263  0.75199101  1
  I  I17  1  0.78361737  0.03582392  0.24800899  1
  I  I18  1  0.03582392  0.78361737  0.24800899  1
  I  I19  1  0.21638263  0.96417608  0.75199101  1
  I  I20  1  0.71638263  0.46417608  0.74800899  1
  I  I21  1  0.28361737  0.53582392  0.25199101  1
  I  I22  1  0.36552932  0.11667511  0.00929951  1
  I  I23  1  0.63447068  0.88332489  0.99070049  1
  I  I24  1  0.13447068  0.38332489  0.50929951  1
  I  I25  1  0.61667511  0.86552932  0.49070049  1
  I  I26  1  0.86552932  0.61667511  0.49070049  1
  I  I27  1  0.38332489  0.13447068  0.50929951  1
  I  I28  1  0.88332489  0.63447068  0.99070049  1
  I  I29  1  0.11667511  0.36552932  0.00929951  1
  I  I30  1  0.40192866  0.90192866  0.25000000  1
  I  I31  1  0.59807134  0.09807134  0.75000000  1
  I  I32  1  0.09807134  0.59807134  0.75000000  1
  I  I33  1  0.90192866  0.40192866  0.25000000  1
  I  I34  1  0.25126634  0.74873366  -0.00000000  1
  I  I35  1  0.74873366  0.25126634  -0.00000000  1
  I  I36  1  0.24873366  0.75126634  0.50000000  1
  I  I37  1  0.75126634  0.24873366  0.50000000  1
  I  I38  1  0.15291780  0.15291780  0.26540965  1
  I  I39  1  0.84708220  0.84708220  0.73459035  1
  I  I40  1  0.34708220  0.34708220  0.76540965  1
  I  I41  1  0.65291780  0.65291780  0.23459035  1
