# generated using pymatgen
data_Ba3ThSe7
_symmetry_space_group_name_H-M   'P 1'
_cell_length_a   5.86729716
_cell_length_b   8.45987506
_cell_length_c   8.45987506
_cell_angle_alpha   69.34336509
_cell_angle_beta   69.70999527
_cell_angle_gamma   69.70999527
_symmetry_Int_Tables_number   1
_chemical_formula_structural   Ba3ThSe7
_chemical_formula_sum   'Ba3 Th1 Se7'
_cell_volume   356.28746512
_cell_formula_units_Z   1
loop_
 _symmetry_equiv_pos_site_id
 _symmetry_equiv_pos_as_xyz
  1  'x, y, z'
loop_
 _atom_site_type_symbol
 _atom_site_label
 _atom_site_symmetry_multiplicity
 _atom_site_fract_x
 _atom_site_fract_y
 _atom_site_fract_z
 _atom_site_occupancy
  Ba  Ba0  1  0.76061800  0.85516441  0.62359760  1
  Ba  Ba1  1  0.23938200  0.37640240  0.14483559  1
  Ba  Ba2  1  0.50000000  0.40830447  0.59169553  1
  Th  Th3  1  0.00000000  -0.00022747  0.00022747  1
  Se  Se4  1  0.90565029  0.38864592  0.80005250  1
  Se  Se5  1  0.09434971  0.19994750  0.61135408  1
  Se  Se6  1  0.20307352  0.70978525  0.29021475  1
  Se  Se7  1  0.79692648  0.70978525  0.29021475  1
  Se  Se8  1  0.76795423  0.19163725  0.27245329  1
  Se  Se9  1  0.23204577  0.72754671  0.80836275  1
  Se  Se10  1  0.50000000  0.05833031  0.94166969  1
