# generated using pymatgen
data_Rb4Tc6S13
_symmetry_space_group_name_H-M   'P 1'
_cell_length_a   9.72573351
_cell_length_b   9.72573351
_cell_length_c   14.08910541
_cell_angle_alpha   85.46280863
_cell_angle_beta   85.46280863
_cell_angle_gamma   119.70968849
_symmetry_Int_Tables_number   1
_chemical_formula_structural   Rb4Tc6S13
_chemical_formula_sum   'Rb8 Tc12 S26'
_cell_volume   1143.05142379
_cell_formula_units_Z   2
loop_
 _symmetry_equiv_pos_site_id
 _symmetry_equiv_pos_as_xyz
  1  'x, y, z'
loop_
 _atom_site_type_symbol
 _atom_site_label
 _atom_site_symmetry_multiplicity
 _atom_site_fract_x
 _atom_site_fract_y
 _atom_site_fract_z
 _atom_site_occupancy
  Rb  Rb0  1  0.09433934  0.37769241  0.61949919  1
  Rb  Rb1  1  0.62230759  0.90566066  0.88050081  1
  Rb  Rb2  1  0.90566066  0.62230759  0.38050081  1
  Rb  Rb3  1  0.37769241  0.09433934  0.11949919  1
  Rb  Rb4  1  0.29709036  0.23552835  0.84062003  1
  Rb  Rb5  1  0.76447165  0.70290964  0.65937997  1
  Rb  Rb6  1  0.70290964  0.76447165  0.15937997  1
  Rb  Rb7  1  0.23552835  0.29709036  0.34062003  1
  Tc  Tc8  1  0.98299013  0.67943229  0.98084112  1
  Tc  Tc9  1  0.32056771  0.01700987  0.51915888  1
  Tc  Tc10  1  0.01700987  0.32056771  0.01915888  1
  Tc  Tc11  1  0.67943229  0.98299013  0.48084112  1
  Tc  Tc12  1  0.15191848  0.57492164  0.89237782  1
  Tc  Tc13  1  0.42507836  0.84808152  0.60762218  1
  Tc  Tc14  1  0.84808152  0.42507836  0.10762218  1
  Tc  Tc15  1  0.57492164  0.15191848  0.39237782  1
  Tc  Tc16  1  0.59936264  0.15585390  0.57522631  1
  Tc  Tc17  1  0.84414610  0.40063736  0.92477369  1
  Tc  Tc18  1  0.40063736  0.84414610  0.42477369  1
  Tc  Tc19  1  0.15585390  0.59936264  0.07522631  1
  S  S20  1  0.64630232  0.35369768  0.25000000  1
  S  S21  1  0.35369768  0.64630232  0.75000000  1
  S  S22  1  0.35826758  0.73899424  0.17866029  1
  S  S23  1  0.26100576  0.64173242  0.32133971  1
  S  S24  1  0.64173242  0.26100576  0.82133971  1
  S  S25  1  0.73899424  0.35826758  0.67866029  1
  S  S26  1  0.04980639  0.08079536  0.04970528  1
  S  S27  1  0.91920464  0.95019361  0.45029472  1
  S  S28  1  0.95019361  0.91920464  0.95029472  1
  S  S29  1  0.08079536  0.04980639  0.54970528  1
  S  S30  1  0.01991491  0.35646255  0.18440074  1
  S  S31  1  0.64353745  0.98008509  0.31559926  1
  S  S32  1  0.98008509  0.64353745  0.81559926  1
  S  S33  1  0.35646255  0.01991491  0.68440074  1
  S  S34  1  0.73175368  0.17062601  0.04700214  1
  S  S35  1  0.82937399  0.26824632  0.45299786  1
  S  S36  1  0.26824632  0.82937399  0.95299786  1
  S  S37  1  0.17062601  0.73175368  0.54700214  1
  S  S38  1  0.69781516  0.50113684  0.01056958  1
  S  S39  1  0.49886316  0.30218484  0.48943042  1
  S  S40  1  0.69190661  0.99438517  0.64814711  1
  S  S41  1  0.00561483  0.30809339  0.85185289  1
  S  S42  1  0.30809339  0.00561483  0.35185289  1
  S  S43  1  0.99438517  0.69190661  0.14814711  1
  S  S44  1  0.50113684  0.69781516  0.51056958  1
  S  S45  1  0.30218484  0.49886316  0.98943042  1
