# generated using pymatgen
data_Na2ZrSi6(HO3)6
_symmetry_space_group_name_H-M   'P 1'
_cell_length_a   7.20704822
_cell_length_b   14.84859969
_cell_length_c   14.86344445
_cell_angle_alpha   90.00000000
_cell_angle_beta   90.00000000
_cell_angle_gamma   90.00000000
_symmetry_Int_Tables_number   1
_chemical_formula_structural   Na2ZrSi6(HO3)6
_chemical_formula_sum   'Na8 Zr4 Si24 H24 O72'
_cell_volume   1590.60517547
_cell_formula_units_Z   4
loop_
 _symmetry_equiv_pos_site_id
 _symmetry_equiv_pos_as_xyz
  1  'x, y, z'
loop_
 _atom_site_type_symbol
 _atom_site_label
 _atom_site_symmetry_multiplicity
 _atom_site_fract_x
 _atom_site_fract_y
 _atom_site_fract_z
 _atom_site_occupancy
  Na  Na0  1  0.56089363  0.75000000  0.73104779  1
  Na  Na1  1  0.43910637  0.25000000  0.26895221  1
  Na  Na2  1  0.56089363  0.25000000  0.76895221  1
  Na  Na3  1  0.43910637  0.75000000  0.23104779  1
  Na  Na4  1  0.00450483  -0.00000000  0.75000000  1
  Na  Na5  1  0.99549517  0.50000000  0.25000000  1
  Na  Na6  1  0.99549517  -0.00000000  0.25000000  1
  Na  Na7  1  0.00450483  0.50000000  0.75000000  1
  Zr  Zr8  1  0.50404636  -0.00000000  0.75000000  1
  Zr  Zr9  1  0.49595364  0.50000000  0.25000000  1
  Zr  Zr10  1  0.49595364  -0.00000000  0.25000000  1
  Zr  Zr11  1  0.50404636  0.50000000  0.75000000  1
  Si  Si12  1  0.22729073  0.85363305  0.88604462  1
  Si  Si13  1  0.77270927  0.35363305  0.11395538  1
  Si  Si14  1  0.22729073  0.14636695  0.61395538  1
  Si  Si15  1  0.77270927  0.64636695  0.38604462  1
  Si  Si16  1  0.77270927  0.14636695  0.11395538  1
  Si  Si17  1  0.22729073  0.64636695  0.88604462  1
  Si  Si18  1  0.77270927  0.85363305  0.38604462  1
  Si  Si19  1  0.22729073  0.35363305  0.61395538  1
  Si  Si20  1  0.49257770  0.85772540  0.54735817  1
  Si  Si21  1  0.50742230  0.35772540  0.45264183  1
  Si  Si22  1  0.49257770  0.14227460  0.95264183  1
  Si  Si23  1  0.50742230  0.64227460  0.04735817  1
  Si  Si24  1  0.50742230  0.14227460  0.45264183  1
  Si  Si25  1  0.49257770  0.64227460  0.54735817  1
  Si  Si26  1  0.50742230  0.85772540  0.04735817  1
  Si  Si27  1  0.49257770  0.35772540  0.95264183  1
  Si  Si28  1  0.78163817  0.85549304  0.89196979  1
  Si  Si29  1  0.21836183  0.35549304  0.10803021  1
  Si  Si30  1  0.78163817  0.14450696  0.60803021  1
  Si  Si31  1  0.21836183  0.64450696  0.39196979  1
  Si  Si32  1  0.21836183  0.14450696  0.10803021  1
  Si  Si33  1  0.78163817  0.64450696  0.89196979  1
  Si  Si34  1  0.21836183  0.85549304  0.39196979  1
  Si  Si35  1  0.78163817  0.35549304  0.60803021  1
  H  H36  1  0.09948994  0.91777580  0.57412966  1
  H  H37  1  0.90051006  0.41777580  0.42587034  1
  H  H38  1  0.09948994  0.08222420  0.92587034  1
  H  H39  1  0.90051006  0.58222420  0.07412966  1
  H  H40  1  0.90051006  0.08222420  0.42587034  1
  H  H41  1  0.09948994  0.58222420  0.57412966  1
  H  H42  1  0.90051006  0.91777580  0.07412966  1
  H  H43  1  0.09948994  0.41777580  0.92587034  1
  H  H44  1  0.94259753  0.69647296  0.66585635  1
  H  H45  1  0.05740247  0.19647296  0.33414365  1
  H  H46  1  0.94259753  0.30352704  0.83414365  1
  H  H47  1  0.05740247  0.80352704  0.16585635  1
  H  H48  1  0.05740247  0.30352704  0.33414365  1
  H  H49  1  0.94259753  0.80352704  0.66585635  1
  H  H50  1  0.05740247  0.69647296  0.16585635  1
  H  H51  1  0.94259753  0.19647296  0.83414365  1
  H  H52  1  0.88273238  0.91784650  0.57621126  1
  H  H53  1  0.11726762  0.41784650  0.42378874  1
  H  H54  1  0.88273238  0.08215350  0.92378874  1
  H  H55  1  0.11726762  0.58215350  0.07621126  1
  H  H56  1  0.11726762  0.08215350  0.42378874  1
  H  H57  1  0.88273238  0.58215350  0.57621126  1
  H  H58  1  0.11726762  0.91784650  0.07621126  1
  H  H59  1  0.88273238  0.41784650  0.92378874  1
  O  O60  1  0.00508831  0.86174244  0.90397577  1
  O  O61  1  0.99491169  0.36174244  0.09602423  1
  O  O62  1  0.00508831  0.13825756  0.59602423  1
  O  O63  1  0.99491169  0.63825756  0.40397577  1
  O  O64  1  0.99491169  0.13825756  0.09602423  1
  O  O65  1  0.00508831  0.63825756  0.90397577  1
  O  O66  1  0.99491169  0.86174244  0.40397577  1
  O  O67  1  0.00508831  0.36174244  0.59602423  1
  O  O68  1  0.28009499  0.75000000  0.85478285  1
  O  O69  1  0.71990501  0.25000000  0.14521715  1
  O  O70  1  0.28009499  0.25000000  0.64521715  1
  O  O71  1  0.71990501  0.75000000  0.35478285  1
  O  O72  1  0.29259086  0.92252822  0.80935860  1
  O  O73  1  0.70740914  0.42252822  0.19064140  1
  O  O74  1  0.29259086  0.07747178  0.69064140  1
  O  O75  1  0.70740914  0.57747178  0.30935860  1
  O  O76  1  0.70740914  0.07747178  0.19064140  1
  O  O77  1  0.29259086  0.57747178  0.80935860  1
  O  O78  1  0.70740914  0.92252822  0.30935860  1
  O  O79  1  0.29259086  0.42252822  0.69064140  1
  O  O80  1  0.32191675  0.87432674  0.98494274  1
  O  O81  1  0.67808325  0.37432674  0.01505726  1
  O  O82  1  0.32191675  0.12567326  0.51505726  1
  O  O83  1  0.67808325  0.62567326  0.48494274  1
  O  O84  1  0.67808325  0.12567326  0.01505726  1
  O  O85  1  0.32191675  0.62567326  0.98494274  1
  O  O86  1  0.67808325  0.87432674  0.48494274  1
  O  O87  1  0.32191675  0.37432674  0.51505726  1
  O  O88  1  0.47673357  0.75000000  0.57179816  1
  O  O89  1  0.52326643  0.25000000  0.42820184  1
  O  O90  1  0.47673357  0.25000000  0.92820184  1
  O  O91  1  0.52326643  0.75000000  0.07179816  1
  O  O92  1  0.50800768  0.91130009  0.64023364  1
  O  O93  1  0.49199232  0.41130009  0.35976636  1
  O  O94  1  0.50800768  0.08869991  0.85976636  1
  O  O95  1  0.49199232  0.58869991  0.14023364  1
  O  O96  1  0.49199232  0.08869991  0.35976636  1
  O  O97  1  0.50800768  0.58869991  0.64023364  1
  O  O98  1  0.49199232  0.91130009  0.14023364  1
  O  O99  1  0.50800768  0.41130009  0.85976636  1
  O  O100  1  0.69568769  0.88661138  0.99066341  1
  O  O101  1  0.30431231  0.38661138  0.00933659  1
  O  O102  1  0.69568769  0.11338862  0.50933659  1
  O  O103  1  0.30431231  0.61338862  0.49066341  1
  O  O104  1  0.30431231  0.11338862  0.00933659  1
  O  O105  1  0.69568769  0.61338862  0.99066341  1
  O  O106  1  0.30431231  0.88661138  0.49066341  1
  O  O107  1  0.69568769  0.38661138  0.50933659  1
  O  O108  1  0.71787671  0.75000000  0.87531753  1
  O  O109  1  0.28212329  0.25000000  0.12468247  1
  O  O110  1  0.71787671  0.25000000  0.62468247  1
  O  O111  1  0.28212329  0.75000000  0.37531753  1
  O  O112  1  0.70875607  0.91723324  0.81057934  1
  O  O113  1  0.29124393  0.41723324  0.18942066  1
  O  O114  1  0.70875607  0.08276676  0.68942066  1
  O  O115  1  0.29124393  0.58276676  0.31057934  1
  O  O116  1  0.29124393  0.08276676  0.18942066  1
  O  O117  1  0.70875607  0.58276676  0.81057934  1
  O  O118  1  0.29124393  0.91723324  0.31057934  1
  O  O119  1  0.70875607  0.41723324  0.68942066  1
  O  O120  1  0.99240383  0.91831059  0.61520520  1
  O  O121  1  0.00759617  0.41831059  0.38479480  1
  O  O122  1  0.99240383  0.08168941  0.88479480  1
  O  O123  1  0.00759617  0.58168941  0.11520520  1
  O  O124  1  0.00759617  0.08168941  0.38479480  1
  O  O125  1  0.99240383  0.58168941  0.61520520  1
  O  O126  1  0.00759617  0.91831059  0.11520520  1
  O  O127  1  0.99240383  0.41831059  0.88479480  1
  O  O128  1  0.87934259  0.75000000  0.69009214  1
  O  O129  1  0.12065741  0.25000000  0.30990786  1
  O  O130  1  0.87934259  0.25000000  0.80990786  1
  O  O131  1  0.12065741  0.75000000  0.19009214  1
