# generated using pymatgen
data_RbNO3
_symmetry_space_group_name_H-M   'P 1'
_cell_length_a   4.89023250
_cell_length_b   5.31012834
_cell_length_c   5.77135798
_cell_angle_alpha   90.00000000
_cell_angle_beta   90.00000000
_cell_angle_gamma   90.00000000
_symmetry_Int_Tables_number   1
_chemical_formula_structural   RbNO3
_chemical_formula_sum   'Rb2 N2 O6'
_cell_volume   149.86925152
_cell_formula_units_Z   2
loop_
 _symmetry_equiv_pos_site_id
 _symmetry_equiv_pos_as_xyz
  1  'x, y, z'
loop_
 _atom_site_type_symbol
 _atom_site_label
 _atom_site_symmetry_multiplicity
 _atom_site_fract_x
 _atom_site_fract_y
 _atom_site_fract_z
 _atom_site_occupancy
  Rb  Rb0  1  0.59879445  0.75000000  0.25000000  1
  Rb  Rb1  1  0.40120555  0.25000000  0.75000000  1
  N  N2  1  0.00971686  0.25000000  0.25000000  1
  N  N3  1  0.99028314  0.75000000  0.75000000  1
  O  O4  1  0.88112721  0.25000000  0.43924206  1
  O  O5  1  0.88112721  0.25000000  0.06075794  1
  O  O6  1  0.73171328  0.75000000  0.75000000  1
  O  O7  1  0.26828672  0.25000000  0.25000000  1
  O  O8  1  0.11887279  0.75000000  0.56075794  1
  O  O9  1  0.11887279  0.75000000  0.93924206  1
