# generated using pymatgen
data_Pr2(MoO4)3
_symmetry_space_group_name_H-M   'P 1'
_cell_length_a   6.98125916
_cell_length_b   6.98125916
_cell_length_c   11.91221050
_cell_angle_alpha   80.24828877
_cell_angle_beta   80.24828877
_cell_angle_gamma   114.63991206
_symmetry_Int_Tables_number   1
_chemical_formula_structural   Pr2(MoO4)3
_chemical_formula_sum   'Pr4 Mo6 O24'
_cell_volume   501.07613308
_cell_formula_units_Z   2
loop_
 _symmetry_equiv_pos_site_id
 _symmetry_equiv_pos_as_xyz
  1  'x, y, z'
loop_
 _atom_site_type_symbol
 _atom_site_label
 _atom_site_symmetry_multiplicity
 _atom_site_fract_x
 _atom_site_fract_y
 _atom_site_fract_z
 _atom_site_occupancy
  Pr  Pr0  1  0.20670467  0.45417735  0.58984353  1
  Pr  Pr1  1  0.54582265  0.79329533  0.91015647  1
  Pr  Pr2  1  0.45417735  0.20670467  0.08984353  1
  Pr  Pr3  1  0.79329533  0.54582265  0.41015647  1
  Mo  Mo4  1  0.70961948  0.96329693  0.57457092  1
  Mo  Mo5  1  0.03670307  0.29038052  0.92542908  1
  Mo  Mo6  1  0.37429812  0.62570188  0.25000000  1
  Mo  Mo7  1  0.29038052  0.03670307  0.42542908  1
  Mo  Mo8  1  0.62570188  0.37429812  0.75000000  1
  Mo  Mo9  1  0.96329693  0.70961948  0.07457092  1
  O  O10  1  0.06601036  0.46195952  0.79037825  1
  O  O11  1  0.41732808  0.82608745  0.11796150  1
  O  O12  1  0.71621939  0.16301812  0.46021760  1
  O  O13  1  0.53804048  0.93398964  0.70962175  1
  O  O14  1  0.83698188  0.28378061  0.03978240  1
  O  O15  1  0.17391255  0.58267192  0.38203850  1
  O  O16  1  0.70179902  0.62540137  0.78258801  1
  O  O17  1  0.07072582  0.97088457  0.09942490  1
  O  O18  1  0.39011072  0.30330380  0.45658225  1
  O  O19  1  0.37459863  0.29820098  0.71741199  1
  O  O20  1  0.69669620  0.60988928  0.04341775  1
  O  O21  1  0.02911543  0.92927418  0.40057510  1
  O  O22  1  0.58267192  0.17391255  0.88203850  1
  O  O23  1  0.93398964  0.53804048  0.20962175  1
  O  O24  1  0.28378061  0.83698188  0.53978240  1
  O  O25  1  0.16301812  0.71621939  0.96021760  1
  O  O26  1  0.46195952  0.06601036  0.29037825  1
  O  O27  1  0.82608745  0.41732808  0.61796150  1
  O  O28  1  0.92927418  0.02911543  0.90057510  1
  O  O29  1  0.29820098  0.37459863  0.21741199  1
  O  O30  1  0.60988928  0.69669620  0.54341775  1
  O  O31  1  0.30330380  0.39011072  0.95658225  1
  O  O32  1  0.62540137  0.70179902  0.28258801  1
  O  O33  1  0.97088457  0.07072582  0.59942490  1
