# generated using pymatgen
data_SrCoP2O7
_symmetry_space_group_name_H-M   'P 1'
_cell_length_a   8.20436280
_cell_length_b   5.33280806
_cell_length_c   13.72563347
_cell_angle_alpha   67.19931449
_cell_angle_beta   90.00000000
_cell_angle_gamma   90.00000000
_symmetry_Int_Tables_number   1
_chemical_formula_structural   SrCoP2O7
_chemical_formula_sum   'Sr4 Co4 P8 O28'
_cell_volume   553.60178021
_cell_formula_units_Z   4
loop_
 _symmetry_equiv_pos_site_id
 _symmetry_equiv_pos_as_xyz
  1  'x, y, z'
loop_
 _atom_site_type_symbol
 _atom_site_label
 _atom_site_symmetry_multiplicity
 _atom_site_fract_x
 _atom_site_fract_y
 _atom_site_fract_z
 _atom_site_occupancy
  Sr  Sr0  1  0.16024432  0.99292455  0.22123377  1
  Sr  Sr1  1  0.66024432  0.00707545  0.27876623  1
  Sr  Sr2  1  0.83975568  0.00707545  0.77876623  1
  Sr  Sr3  1  0.33975568  0.99292455  0.72123377  1
  Co  Co4  1  0.35133428  0.28293283  0.39489257  1
  Co  Co5  1  0.85133428  0.71706717  0.10510743  1
  Co  Co6  1  0.64866572  0.71706717  0.60510743  1
  Co  Co7  1  0.14866572  0.28293283  0.89489257  1
  P  P8  1  0.30117579  0.66667176  0.51833030  1
  P  P9  1  0.80117579  0.33332824  0.98166970  1
  P  P10  1  0.69882421  0.33332824  0.48166970  1
  P  P11  1  0.19882421  0.66667176  0.01833030  1
  P  P12  1  0.96510466  0.41531597  0.33560343  1
  P  P13  1  0.46510466  0.58468403  0.16439657  1
  P  P14  1  0.03489534  0.58468403  0.66439657  1
  P  P15  1  0.53489534  0.41531597  0.83560343  1
  O  O16  1  0.31710876  0.88799218  0.40840616  1
  O  O17  1  0.81710876  0.11200782  0.09159384  1
  O  O18  1  0.68289124  0.11200782  0.59159384  1
  O  O19  1  0.18289124  0.88799218  0.90840616  1
  O  O20  1  0.16576481  0.37894022  0.02584344  1
  O  O21  1  0.66576481  0.62105978  0.47415656  1
  O  O22  1  0.83423519  0.62105978  0.97415656  1
  O  O23  1  0.33423519  0.37894022  0.52584344  1
  O  O24  1  0.43987010  0.80944886  0.20351272  1
  O  O25  1  0.93987010  0.19055114  0.29648728  1
  O  O26  1  0.56012990  0.19055114  0.79648728  1
  O  O27  1  0.06012990  0.80944886  0.70351272  1
  O  O28  1  0.38624647  0.68104048  0.04874422  1
  O  O29  1  0.88624647  0.31895952  0.45125578  1
  O  O30  1  0.61375353  0.31895952  0.95125578  1
  O  O31  1  0.11375353  0.68104048  0.54874422  1
  O  O32  1  0.35778597  0.47543594  0.84859225  1
  O  O33  1  0.85778597  0.52456406  0.65140775  1
  O  O34  1  0.64221403  0.52456406  0.15140775  1
  O  O35  1  0.14221403  0.47543594  0.34859225  1
  O  O36  1  0.40186926  0.73164861  0.59962735  1
  O  O37  1  0.90186926  0.26835139  0.90037265  1
  O  O38  1  0.59813074  0.26835139  0.40037265  1
  O  O39  1  0.09813074  0.73164861  0.09962735  1
  O  O40  1  0.11873747  0.32014922  0.73380483  1
  O  O41  1  0.61873747  0.67985078  0.76619517  1
  O  O42  1  0.88126253  0.67985078  0.26619517  1
  O  O43  1  0.38126253  0.32014922  0.23380483  1
