# generated using pymatgen
data_AlH12(NO5)3
_symmetry_space_group_name_H-M   'P 1'
_cell_length_a   8.30434206
_cell_length_b   8.30434206
_cell_length_c   8.38033044
_cell_angle_alpha   94.41235038
_cell_angle_beta   94.41235038
_cell_angle_gamma   92.36547895
_symmetry_Int_Tables_number   1
_chemical_formula_structural   AlH12(NO5)3
_chemical_formula_sum   'Al2 H24 N6 O30'
_cell_volume   573.85676475
_cell_formula_units_Z   2
loop_
 _symmetry_equiv_pos_site_id
 _symmetry_equiv_pos_as_xyz
  1  'x, y, z'
loop_
 _atom_site_type_symbol
 _atom_site_label
 _atom_site_symmetry_multiplicity
 _atom_site_fract_x
 _atom_site_fract_y
 _atom_site_fract_z
 _atom_site_occupancy
  Al  Al0  1  0.00000000  0.50000000  0.50000000  1
  Al  Al1  1  0.50000000  0.00000000  -0.00000000  1
  H  H2  1  0.13412393  0.47255539  0.23144289  1
  H  H3  1  0.52744461  0.86587607  0.26855711  1
  H  H4  1  0.86587607  0.52744461  0.76855711  1
  H  H5  1  0.47255539  0.13412393  0.73144289  1
  H  H6  1  0.07271845  0.65323388  0.25727295  1
  H  H7  1  0.34676612  0.92728155  0.24272705  1
  H  H8  1  0.92728155  0.34676612  0.74272705  1
  H  H9  1  0.65323388  0.07271845  0.75727295  1
  H  H10  1  0.17203527  0.25468516  0.50302081  1
  H  H11  1  0.74531484  0.82796473  -0.00302081  1
  H  H12  1  0.82796473  0.74531484  0.49697919  1
  H  H13  1  0.25468516  0.17203527  0.00302081  1
  H  H14  1  0.01019293  0.20785332  0.38562029  1
  H  H15  1  0.79214668  0.98980707  0.11437971  1
  H  H16  1  0.98980707  0.79214668  0.61437971  1
  H  H17  1  0.20785332  0.01019293  0.88562029  1
  H  H18  1  0.72081613  0.36181874  0.43636052  1
  H  H19  1  0.63818126  0.27918387  0.06363948  1
  H  H20  1  0.27918387  0.63818126  0.56363948  1
  H  H21  1  0.36181874  0.72081613  0.93636052  1
  H  H22  1  0.74791362  0.48675031  0.29725700  1
  H  H23  1  0.51324969  0.25208638  0.20274300  1
  H  H24  1  0.25208638  0.51324969  0.70274300  1
  H  H25  1  0.48675031  0.74791362  0.79725700  1
  N  N26  1  0.26150356  0.46305611  0.98636059  1
  N  N27  1  0.53694389  0.73849644  0.51363941  1
  N  N28  1  0.73849644  0.53694389  0.01363941  1
  N  N29  1  0.46305611  0.26150356  0.48636059  1
  N  N30  1  0.04294725  0.95705275  0.25000000  1
  N  N31  1  0.95705275  0.04294725  0.75000000  1
  O  O32  1  0.07953807  0.54794577  0.30385850  1
  O  O33  1  0.45205423  0.92046193  0.19614150  1
  O  O34  1  0.92046193  0.45205423  0.69614150  1
  O  O35  1  0.54794577  0.07953807  0.80385850  1
  O  O36  1  0.06068779  0.28609355  0.47274649  1
  O  O37  1  0.71390645  0.93931221  0.02725351  1
  O  O38  1  0.93931221  0.71390645  0.52725351  1
  O  O39  1  0.28609355  0.06068779  0.97274649  1
  O  O40  1  0.79868407  0.43678331  0.39040586  1
  O  O41  1  0.56321669  0.20131593  0.10959414  1
  O  O42  1  0.20131593  0.56321669  0.60959414  1
  O  O43  1  0.43678331  0.79868407  0.89040586  1
  O  O44  1  0.21676906  0.35976509  0.07942677  1
  O  O45  1  0.64023491  0.78323094  0.42057323  1
  O  O46  1  0.78323094  0.64023491  0.92057323  1
  O  O47  1  0.35976509  0.21676906  0.57942677  1
  O  O48  1  0.41792307  0.32758195  0.36171786  1
  O  O49  1  0.67241805  0.58207693  0.13828214  1
  O  O50  1  0.58207693  0.67241805  0.63828214  1
  O  O51  1  0.32758195  0.41792307  0.86171786  1
  O  O52  1  0.23852079  0.60974200  0.02123267  1
  O  O53  1  0.39025800  0.76147921  0.47876733  1
  O  O54  1  0.76147921  0.39025800  0.97876733  1
  O  O55  1  0.60974200  0.23852079  0.52123267  1
  O  O56  1  0.93593066  0.06406934  0.25000000  1
  O  O57  1  0.06406934  0.93593066  0.75000000  1
  O  O58  1  0.00872595  0.82272627  0.17506598  1
  O  O59  1  0.17727373  0.99127405  0.32493402  1
  O  O60  1  0.99127405  0.17727373  0.82493402  1
  O  O61  1  0.82272627  0.00872595  0.67506598  1
