# generated using pymatgen
data_Rb6HgS4
_symmetry_space_group_name_H-M   'P 1'
_cell_length_a   10.40068525
_cell_length_b   10.40068464
_cell_length_c   8.03712992
_cell_angle_alpha   90.00001406
_cell_angle_beta   89.99998287
_cell_angle_gamma   119.99998665
_symmetry_Int_Tables_number   1
_chemical_formula_structural   Rb6HgS4
_chemical_formula_sum   'Rb12 Hg2 S8'
_cell_volume   752.93166252
_cell_formula_units_Z   2
loop_
 _symmetry_equiv_pos_site_id
 _symmetry_equiv_pos_as_xyz
  1  'x, y, z'
loop_
 _atom_site_type_symbol
 _atom_site_label
 _atom_site_symmetry_multiplicity
 _atom_site_fract_x
 _atom_site_fract_y
 _atom_site_fract_z
 _atom_site_occupancy
  Rb  Rb0  1  0.14863973  0.29727951  0.20645323  1
  Rb  Rb1  1  0.14863960  0.85136034  0.20645313  1
  Rb  Rb2  1  0.70272051  0.85136029  0.20645321  1
  Rb  Rb3  1  0.85136161  0.70272287  0.70645081  1
  Rb  Rb4  1  0.85136187  0.14863806  0.70645052  1
  Rb  Rb5  1  0.29727715  0.14863836  0.70645134  1
  Rb  Rb6  1  0.52861861  0.05723787  0.37879244  1
  Rb  Rb7  1  0.52861863  0.47138135  0.37879257  1
  Rb  Rb8  1  0.94276214  0.47138134  0.37879242  1
  Rb  Rb9  1  0.47137771  0.94275470  0.87879271  1
  Rb  Rb10  1  0.47137771  0.52862234  0.87879284  1
  Rb  Rb11  1  0.05724538  0.52862228  0.87879270  1
  Hg  Hg12  1  0.33333312  0.66666699  0.49994240  1
  Hg  Hg13  1  0.66666685  0.33333308  -0.00005994  1
  S  S14  1  0.33333330  0.66666676  0.16845042  1
  S  S15  1  0.66666678  0.33333313  0.66845370  1
  S  S16  1  0.80621078  0.61242161  0.09961683  1
  S  S17  1  0.80621093  0.19378904  0.09961692  1
  S  S18  1  0.38757837  0.19378921  0.09961697  1
  S  S19  1  0.19378795  0.38757550  0.59961892  1
  S  S20  1  0.19378781  0.80621228  0.59961900  1
  S  S21  1  0.61242446  0.80621209  0.59961889  1
