# generated using pymatgen
data_MoSe2
_symmetry_space_group_name_H-M   'P 1'
_cell_length_a   3.32135061
_cell_length_b   3.32135012
_cell_length_c   29.38758443
_cell_angle_alpha   90.00000000
_cell_angle_beta   90.00000000
_cell_angle_gamma   120.00001531
_symmetry_Int_Tables_number   1
_chemical_formula_structural   MoSe2
_chemical_formula_sum   'Mo3 Se6'
_cell_volume   280.75263235
_cell_formula_units_Z   3
loop_
 _symmetry_equiv_pos_site_id
 _symmetry_equiv_pos_as_xyz
  1  'x, y, z'
loop_
 _atom_site_type_symbol
 _atom_site_label
 _atom_site_symmetry_multiplicity
 _atom_site_fract_x
 _atom_site_fract_y
 _atom_site_fract_z
 _atom_site_occupancy
  Mo  Mo0  1  0.66666700  0.33333300  0.34929400  1
  Mo  Mo1  1  0.33333300  0.66666700  0.11816760  1
  Mo  Mo2  1  0.33333300  0.66666700  0.58041940  1
  Se  Se3  1  0.33333300  0.66666700  0.40559932  1
  Se  Se4  1  0.66666700  0.33333300  0.17447242  1
  Se  Se5  1  0.66666700  0.33333300  0.63667940  1
  Se  Se6  1  0.33333300  0.66666700  0.29298868  1
  Se  Se7  1  0.66666700  0.33333300  0.06190860  1
  Se  Se8  1  0.66666700  0.33333300  0.52411558  1
