# generated using pymatgen
data_MgAg4Te8(MoO12)2
_symmetry_space_group_name_H-M   'P 1'
_cell_length_a   5.83690500
_cell_length_b   9.55743366
_cell_length_c   12.00548064
_cell_angle_alpha   102.06379198
_cell_angle_beta   89.28298771
_cell_angle_gamma   107.64404984
_symmetry_Int_Tables_number   1
_chemical_formula_structural   MgAg4Te8(MoO12)2
_chemical_formula_sum   'Mg1 Ag4 Te8 Mo2 O24'
_cell_volume   623.20571193
_cell_formula_units_Z   1
loop_
 _symmetry_equiv_pos_site_id
 _symmetry_equiv_pos_as_xyz
  1  'x, y, z'
loop_
 _atom_site_type_symbol
 _atom_site_label
 _atom_site_symmetry_multiplicity
 _atom_site_fract_x
 _atom_site_fract_y
 _atom_site_fract_z
 _atom_site_occupancy
  Mg  Mg0  1  0.03196363  0.93106086  0.96475618  1
  Ag  Ag1  1  0.93067780  0.45369778  0.31936368  1
  Ag  Ag2  1  0.53098018  0.57820488  0.25619395  1
  Ag  Ag3  1  0.01525224  0.57198477  0.74755898  1
  Ag  Ag4  1  0.48895352  0.43638462  0.76333611  1
  Te  Te5  1  0.98500438  0.66738257  0.07929224  1
  Te  Te6  1  0.31285262  0.29874871  0.42614789  1
  Te  Te7  1  0.00133362  0.30305392  0.91971263  1
  Te  Te8  1  0.69718339  0.67539312  0.55593308  1
  Te  Te9  1  0.51185169  0.81938782  0.88265940  1
  Te  Te10  1  0.81482270  0.19561880  0.59780792  1
  Te  Te11  1  0.42710813  0.21738349  0.10076622  1
  Te  Te12  1  0.27849238  0.83931661  0.38755578  1
  Mo  Mo13  1  0.13730052  0.99417673  0.72116838  1
  Mo  Mo14  1  0.86628867  0.99708267  0.24727407  1
  O  O15  1  0.80779472  0.96794195  0.86219128  1
  O  O16  1  0.87808346  0.02017121  0.62569814  1
  O  O17  1  0.17807758  0.03624302  0.11764057  1
  O  O18  1  0.14776879  0.98392803  0.34802417  1
  O  O19  1  0.80229712  0.77388368  0.18511173  1
  O  O20  1  0.99897935  0.21984790  0.34521076  1
  O  O21  1  0.20440405  0.20096062  0.82960568  1
  O  O22  1  0.97860450  0.77668595  0.66952670  1
  O  O23  1  0.77943464  0.47517105  0.08135731  1
  O  O24  1  0.33239767  0.49908837  0.42694958  1
  O  O25  1  0.18529443  0.49498106  0.90428949  1
  O  O26  1  0.70002379  0.48670915  0.58178054  1
  O  O27  1  0.29973482  0.94409774  0.85813208  1
  O  O28  1  0.37634079  0.03047978  0.63308757  1
  O  O29  1  0.71700112  0.03854995  0.13774184  1
  O  O30  1  0.61573099  0.95854622  0.35765544  1
  O  O31  1  0.84395971  0.71894492  0.95085505  1
  O  O32  1  0.14943165  0.30312860  0.58243424  1
  O  O33  1  0.19787334  0.31574636  0.06852129  1
  O  O34  1  0.89443224  0.68442275  0.42614344  1
  O  O35  1  0.45999447  0.68819324  0.74042660  1
  O  O36  1  0.80164618  0.29560476  0.75170134  1
  O  O37  1  0.49434691  0.30944374  0.25691728  1
  O  O38  1  0.22003322  0.69120961  0.25058336  1
