# generated using pymatgen
data_NaLiMg6O7
_symmetry_space_group_name_H-M   'P 1'
_cell_length_a   8.66805032
_cell_length_b   4.27510446
_cell_length_c   4.27510446
_cell_angle_alpha   90.00000000
_cell_angle_beta   90.00000000
_cell_angle_gamma   90.00000000
_symmetry_Int_Tables_number   1
_chemical_formula_structural   NaLiMg6O7
_chemical_formula_sum   'Na1 Li1 Mg6 O7'
_cell_volume   158.42177895
_cell_formula_units_Z   1
loop_
 _symmetry_equiv_pos_site_id
 _symmetry_equiv_pos_as_xyz
  1  'x, y, z'
loop_
 _atom_site_type_symbol
 _atom_site_label
 _atom_site_symmetry_multiplicity
 _atom_site_fract_x
 _atom_site_fract_y
 _atom_site_fract_z
 _atom_site_occupancy
  Na  Na0  1  0.50127771  -0.00000000  -0.00000000  1
  Li  Li1  1  0.00380462  0.00000000  -0.00000000  1
  Mg  Mg2  1  0.98280772  0.50000000  0.50000000  1
  Mg  Mg3  1  0.51669099  0.50000000  0.50000000  1
  Mg  Mg4  1  0.24634823  0.00000000  0.50000000  1
  Mg  Mg5  1  0.75920906  0.00000000  0.50000000  1
  Mg  Mg6  1  0.24634823  0.50000000  -0.00000000  1
  Mg  Mg7  1  0.75920906  0.50000000  0.00000000  1
  O  O8  1  0.23785294  -0.00000000  -0.00000000  1
  O  O9  1  0.76203880  0.00000000  -0.00000000  1
  O  O10  1  0.75028246  0.50000000  0.50000000  1
  O  O11  1  0.01302824  -0.00000000  0.50000000  1
  O  O12  1  0.47903686  -0.00000000  0.50000000  1
  O  O13  1  0.01302824  0.50000000  -0.00000000  1
  O  O14  1  0.47903686  0.50000000  -0.00000000  1
