# generated using pymatgen
data_CaMn9CdO10
_symmetry_space_group_name_H-M   'P 1'
_cell_length_a   5.82598996
_cell_length_b   9.16523817
_cell_length_c   5.97054732
_cell_angle_alpha   89.13333944
_cell_angle_beta   106.01943143
_cell_angle_gamma   91.37101913
_symmetry_Int_Tables_number   1
_chemical_formula_structural   CaMn9CdO10
_chemical_formula_sum   'Ca1 Mn9 Cd1 O10'
_cell_volume   306.32721099
_cell_formula_units_Z   1
loop_
 _symmetry_equiv_pos_site_id
 _symmetry_equiv_pos_as_xyz
  1  'x, y, z'
loop_
 _atom_site_type_symbol
 _atom_site_label
 _atom_site_symmetry_multiplicity
 _atom_site_fract_x
 _atom_site_fract_y
 _atom_site_fract_z
 _atom_site_occupancy
  Ca  Ca0  1  0.61466000  0.29835900  0.33398900  1
  Mn  Mn1  1  0.46372300  0.61814600  0.22875800  1
  Mn  Mn2  1  0.01709900  0.04086300  0.88054900  1
  Mn  Mn3  1  0.47308500  0.83925100  0.61591600  1
  Mn  Mn4  1  0.93022800  0.67095600  0.12011200  1
  Mn  Mn5  1  0.12995500  0.14275800  0.38085100  1
  Mn  Mn6  1  0.50573000  0.16651300  0.83311400  1
  Mn  Mn7  1  0.40427900  0.50955400  0.71289800  1
  Mn  Mn8  1  0.90888800  0.39724500  0.84042600  1
  Mn  Mn9  1  0.96152500  0.70764800  0.63309100  1
  Cd  Cd10  1  0.61264800  0.93114900  0.20906400  1
  O  O11  1  0.80917800  0.12926100  0.13496800  1
  O  O12  1  0.67963500  0.49156500  0.04558800  1
  O  O13  1  0.81542300  0.20373900  0.67753500  1
  O  O14  1  0.69557500  0.53847500  0.54415200  1
  O  O15  1  0.32515700  0.13254000  0.12114900  1
  O  O16  1  0.21280300  0.67695000  0.44380500  1
  O  O17  1  0.81612000  0.83199400  0.84971600  1
  O  O18  1  0.25623800  0.99276600  0.66519400  1
  O  O19  1  0.32415900  0.31101800  0.56808400  1
  O  O20  1  0.16293900  0.57237500  0.93485000  1
