# generated using pymatgen
data_Sr2Ge(S2O7)4
_symmetry_space_group_name_H-M   'P 1'
_cell_length_a   13.05124702
_cell_length_b   6.96242171
_cell_length_c   13.32544505
_cell_angle_alpha   65.88775535
_cell_angle_beta   90.00000000
_cell_angle_gamma   90.00000000
_symmetry_Int_Tables_number   1
_chemical_formula_structural   Sr2Ge(S2O7)4
_chemical_formula_sum   'Sr4 Ge2 S16 O56'
_cell_volume   1105.20901791
_cell_formula_units_Z   2
loop_
 _symmetry_equiv_pos_site_id
 _symmetry_equiv_pos_as_xyz
  1  'x, y, z'
loop_
 _atom_site_type_symbol
 _atom_site_label
 _atom_site_symmetry_multiplicity
 _atom_site_fract_x
 _atom_site_fract_y
 _atom_site_fract_z
 _atom_site_occupancy
  Sr  Sr0  1  0.86395681  0.14218959  0.15948132  1
  Sr  Sr1  1  0.63604319  0.14218959  0.65948132  1
  Sr  Sr2  1  0.13604319  0.85781041  0.84051868  1
  Sr  Sr3  1  0.36395681  0.85781041  0.34051868  1
  Ge  Ge4  1  0.50000000  0.50000000  0.00000000  1
  Ge  Ge5  1  0.00000000  0.50000000  0.50000000  1
  S  S6  1  0.65026101  0.21524210  0.94048500  1
  S  S7  1  0.84973899  0.21524210  0.44048500  1
  S  S8  1  0.34973899  0.78475790  0.05951500  1
  S  S9  1  0.15026101  0.78475790  0.55951500  1
  S  S10  1  0.97154937  0.68331786  0.10453918  1
  S  S11  1  0.52845063  0.68331786  0.60453918  1
  S  S12  1  0.02845063  0.31668214  0.89546082  1
  S  S13  1  0.47154937  0.31668214  0.39546082  1
  S  S14  1  0.72118508  0.62291913  0.91078412  1
  S  S15  1  0.77881492  0.62291913  0.41078412  1
  S  S16  1  0.27881492  0.37708087  0.08921588  1
  S  S17  1  0.22118508  0.37708087  0.58921588  1
  S  S18  1  0.58443965  0.23514808  0.22984807  1
  S  S19  1  0.91556035  0.23514808  0.72984807  1
  S  S20  1  0.41556035  0.76485192  0.77015193  1
  S  S21  1  0.08443965  0.76485192  0.27015193  1
  O  O22  1  0.61915489  0.13187210  0.86473303  1
  O  O23  1  0.88084511  0.13187210  0.36473303  1
  O  O24  1  0.38084511  0.86812790  0.13526697  1
  O  O25  1  0.11915489  0.86812790  0.63526697  1
  O  O26  1  0.58302366  0.28145585  0.33472350  1
  O  O27  1  0.91697634  0.28145585  0.83472350  1
  O  O28  1  0.41697634  0.71854415  0.66527650  1
  O  O29  1  0.08302366  0.71854415  0.16527650  1
  O  O30  1  0.53380140  0.04148058  0.24989206  1
  O  O31  1  0.96619860  0.04148058  0.74989206  1
  O  O32  1  0.46619860  0.95851942  0.75010794  1
  O  O33  1  0.03380140  0.95851942  0.25010794  1
  O  O34  1  0.56036337  0.25180329  0.00179292  1
  O  O35  1  0.93963663  0.25180329  0.50179292  1
  O  O36  1  0.43963663  0.74819671  0.99820708  1
  O  O37  1  0.06036337  0.74819671  0.49820708  1
  O  O38  1  0.89637826  0.80648806  0.13003675  1
  O  O39  1  0.60362174  0.80648806  0.63003675  1
  O  O40  1  0.10362174  0.19351194  0.86996325  1
  O  O41  1  0.39637826  0.19351194  0.36996325  1
  O  O42  1  0.68697020  0.45229393  0.86152438  1
  O  O43  1  0.81302980  0.45229393  0.36152438  1
  O  O44  1  0.31302980  0.54770607  0.13847562  1
  O  O45  1  0.18697020  0.54770607  0.63847562  1
  O  O46  1  0.52312750  0.41994576  0.14966675  1
  O  O47  1  0.97687250  0.41994576  0.64966675  1
  O  O48  1  0.47687250  0.58005424  0.85033325  1
  O  O49  1  0.02312750  0.58005424  0.35033325  1
  O  O50  1  0.73084162  0.11273048  0.01500757  1
  O  O51  1  0.76915838  0.11273048  0.51500757  1
  O  O52  1  0.26915838  0.88726952  0.98499243  1
  O  O53  1  0.23084162  0.88726952  0.48499243  1
  O  O54  1  0.62666434  0.64217865  0.97093678  1
  O  O55  1  0.87333566  0.64217865  0.47093678  1
  O  O56  1  0.37333566  0.35782135  0.02906322  1
  O  O57  1  0.12666434  0.35782135  0.52906322  1
  O  O58  1  0.73794084  0.80866094  0.81472178  1
  O  O59  1  0.76205916  0.80866094  0.31472178  1
  O  O60  1  0.26205916  0.19133906  0.18527822  1
  O  O61  1  0.23794084  0.19133906  0.68527822  1
  O  O62  1  0.80346871  0.53329580  0.98492672  1
  O  O63  1  0.69653129  0.53329580  0.48492672  1
  O  O64  1  0.19653129  0.46670420  0.01507328  1
  O  O65  1  0.30346871  0.46670420  0.51507328  1
  O  O66  1  0.95731658  0.46072822  0.15852683  1
  O  O67  1  0.54268342  0.46072822  0.65852683  1
  O  O68  1  0.04268342  0.53927178  0.84147317  1
  O  O69  1  0.45731658  0.53927178  0.34147317  1
  O  O70  1  0.00572918  0.76355627  0.99320686  1
  O  O71  1  0.49427082  0.76355627  0.49320686  1
  O  O72  1  0.99427082  0.23644373  0.00679314  1
  O  O73  1  0.50572918  0.23644373  0.50679314  1
  O  O74  1  0.68951986  0.25301703  0.19838982  1
  O  O75  1  0.81048014  0.25301703  0.69838982  1
  O  O76  1  0.31048014  0.74698297  0.80161018  1
  O  O77  1  0.18951986  0.74698297  0.30161018  1
