# generated using pymatgen
data_Cs3BO3
_symmetry_space_group_name_H-M   'P 1'
_cell_length_a   10.47207171
_cell_length_b   11.01671258
_cell_length_c   11.07122685
_cell_angle_alpha   90.00000000
_cell_angle_beta   90.00000000
_cell_angle_gamma   90.00000000
_symmetry_Int_Tables_number   1
_chemical_formula_structural   Cs3BO3
_chemical_formula_sum   'Cs24 B8 O24'
_cell_volume   1277.26313089
_cell_formula_units_Z   8
loop_
 _symmetry_equiv_pos_site_id
 _symmetry_equiv_pos_as_xyz
  1  'x, y, z'
loop_
 _atom_site_type_symbol
 _atom_site_label
 _atom_site_symmetry_multiplicity
 _atom_site_fract_x
 _atom_site_fract_y
 _atom_site_fract_z
 _atom_site_occupancy
  Cs  Cs0  1  0.24934723  0.75332918  0.25600052  1
  Cs  Cs1  1  0.24934723  0.24667082  0.74399948  1
  Cs  Cs2  1  0.75065277  0.25332918  0.24399948  1
  Cs  Cs3  1  0.75065277  0.74667082  0.75600052  1
  Cs  Cs4  1  0.75065277  0.24667082  0.74399948  1
  Cs  Cs5  1  0.75065277  0.75332918  0.25600052  1
  Cs  Cs6  1  0.24934723  0.74667082  0.75600052  1
  Cs  Cs7  1  0.24934723  0.25332918  0.24399948  1
  Cs  Cs8  1  0.50000000  0.66958297  0.48495677  1
  Cs  Cs9  1  0.50000000  0.33041703  0.51504323  1
  Cs  Cs10  1  0.50000000  0.16958297  0.01504323  1
  Cs  Cs11  1  0.50000000  0.83041703  0.98495677  1
  Cs  Cs12  1  -0.00000000  0.51881225  0.16967499  1
  Cs  Cs13  1  -0.00000000  0.48118775  0.83032501  1
  Cs  Cs14  1  -0.00000000  0.01881225  0.33032501  1
  Cs  Cs15  1  -0.00000000  0.98118775  0.66967499  1
  Cs  Cs16  1  0.31548805  0.50000000  -0.00000000  1
  Cs  Cs17  1  0.68451195  -0.00000000  0.50000000  1
  Cs  Cs18  1  0.68451195  0.50000000  -0.00000000  1
  Cs  Cs19  1  0.31548805  -0.00000000  0.50000000  1
  Cs  Cs20  1  0.18400582  0.50000000  0.50000000  1
  Cs  Cs21  1  0.81599418  -0.00000000  -0.00000000  1
  Cs  Cs22  1  0.81599418  0.50000000  0.50000000  1
  Cs  Cs23  1  0.18400582  -0.00000000  -0.00000000  1
  B  B24  1  -0.00000000  0.75591243  0.46659140  1
  B  B25  1  -0.00000000  0.24408757  0.53340860  1
  B  B26  1  -0.00000000  0.25591243  0.03340860  1
  B  B27  1  -0.00000000  0.74408757  0.96659140  1
  B  B28  1  0.50000000  0.96603337  0.24442981  1
  B  B29  1  0.50000000  0.03396663  0.75557019  1
  B  B30  1  0.50000000  0.46603337  0.25557019  1
  B  B31  1  0.50000000  0.53396663  0.74442981  1
  O  O32  1  0.11640718  0.69766248  0.00849747  1
  O  O33  1  0.11640718  0.30233752  0.99150253  1
  O  O34  1  0.88359282  0.19766248  0.49150253  1
  O  O35  1  0.88359282  0.80233752  0.50849747  1
  O  O36  1  0.88359282  0.30233752  0.99150253  1
  O  O37  1  0.88359282  0.69766248  0.00849747  1
  O  O38  1  0.11640718  0.80233752  0.50849747  1
  O  O39  1  0.11640718  0.19766248  0.49150253  1
  O  O40  1  -0.00000000  0.66551032  0.37877143  1
  O  O41  1  -0.00000000  0.33448968  0.62122857  1
  O  O42  1  -0.00000000  0.16551032  0.12122857  1
  O  O43  1  -0.00000000  0.83448968  0.87877143  1
  O  O44  1  0.50000000  0.87965591  0.33618456  1
  O  O45  1  0.50000000  0.12034409  0.66381544  1
  O  O46  1  0.50000000  0.37965591  0.16381544  1
  O  O47  1  0.50000000  0.62034409  0.83618456  1
  O  O48  1  0.38376995  0.50728582  0.30290422  1
  O  O49  1  0.38376995  0.49271418  0.69709578  1
  O  O50  1  0.61623005  0.00728582  0.19709578  1
  O  O51  1  0.61623005  0.99271418  0.80290422  1
  O  O52  1  0.61623005  0.49271418  0.69709578  1
  O  O53  1  0.61623005  0.50728582  0.30290422  1
  O  O54  1  0.38376995  0.99271418  0.80290422  1
  O  O55  1  0.38376995  0.00728582  0.19709578  1
