# generated using pymatgen
data_CaCoP2O7
_symmetry_space_group_name_H-M   'P 1'
_cell_length_a   6.51933600
_cell_length_b   6.59127590
_cell_length_c   6.71795323
_cell_angle_alpha   113.72205552
_cell_angle_beta   87.24241620
_cell_angle_gamma   97.45140220
_symmetry_Int_Tables_number   1
_chemical_formula_structural   CaCoP2O7
_chemical_formula_sum   'Ca2 Co2 P4 O14'
_cell_volume   262.05016372
_cell_formula_units_Z   2
loop_
 _symmetry_equiv_pos_site_id
 _symmetry_equiv_pos_as_xyz
  1  'x, y, z'
loop_
 _atom_site_type_symbol
 _atom_site_label
 _atom_site_symmetry_multiplicity
 _atom_site_fract_x
 _atom_site_fract_y
 _atom_site_fract_z
 _atom_site_occupancy
  Ca  Ca0  1  0.14265100  0.27107800  0.82628500  1
  Ca  Ca1  1  0.85734900  0.72892200  0.17371500  1
  Co  Co2  1  0.35162700  0.09918300  0.22420400  1
  Co  Co3  1  0.64837300  0.90081700  0.77579600  1
  P  P4  1  0.85658900  0.22843000  0.24873600  1
  P  P5  1  0.14341100  0.77157000  0.75126400  1
  P  P6  1  0.37335900  0.64250900  0.33222300  1
  P  P7  1  0.62664100  0.35749100  0.66777700  1
  O  O8  1  0.22264600  0.61053500  0.52036600  1
  O  O9  1  0.77735400  0.38946500  0.47963400  1
  O  O10  1  0.02554800  0.10116800  0.28033300  1
  O  O11  1  0.97445200  0.89883200  0.71966700  1
  O  O12  1  0.41180600  0.25412000  0.56288600  1
  O  O13  1  0.58819400  0.74588000  0.43711400  1
  O  O14  1  0.62504300  0.59751600  0.83820300  1
  O  O15  1  0.37495700  0.40248400  0.16179700  1
  O  O16  1  0.06819400  0.61632700  0.86216200  1
  O  O17  1  0.93180600  0.38367300  0.13783800  1
  O  O18  1  0.32877200  0.94917300  0.86690500  1
  O  O19  1  0.67122800  0.05082700  0.13309500  1
  O  O20  1  0.72708700  0.20588700  0.74576800  1
  O  O21  1  0.27291300  0.79411300  0.25423200  1
