# generated using pymatgen
data_NdScS3
_symmetry_space_group_name_H-M   'P 1'
_cell_length_a   6.50541219
_cell_length_b   7.15932821
_cell_length_c   9.58212900
_cell_angle_alpha   90.00000000
_cell_angle_beta   90.00000000
_cell_angle_gamma   90.00000000
_symmetry_Int_Tables_number   1
_chemical_formula_structural   NdScS3
_chemical_formula_sum   'Nd4 Sc4 S12'
_cell_volume   446.28172693
_cell_formula_units_Z   4
loop_
 _symmetry_equiv_pos_site_id
 _symmetry_equiv_pos_as_xyz
  1  'x, y, z'
loop_
 _atom_site_type_symbol
 _atom_site_label
 _atom_site_symmetry_multiplicity
 _atom_site_fract_x
 _atom_site_fract_y
 _atom_site_fract_z
 _atom_site_occupancy
  Nd  Nd0  1  0.53629420  0.40296638  0.75000000  1
  Nd  Nd1  1  0.46370580  0.59703362  0.25000000  1
  Nd  Nd2  1  0.03629420  0.09703362  0.25000000  1
  Nd  Nd3  1  0.96370580  0.90296638  0.75000000  1
  Sc  Sc4  1  0.00000000  0.50000000  0.00000000  1
  Sc  Sc5  1  0.00000000  0.50000000  0.50000000  1
  Sc  Sc6  1  0.50000000  -0.00000000  0.50000000  1
  Sc  Sc7  1  0.50000000  -0.00000000  0.00000000  1
  S  S8  1  0.82143224  0.18737596  0.56256217  1
  S  S9  1  0.17856776  0.81262404  0.06256217  1
  S  S10  1  0.32143224  0.31262404  0.06256217  1
  S  S11  1  0.67856776  0.68737596  0.56256217  1
  S  S12  1  0.82143224  0.18737596  0.93743783  1
  S  S13  1  0.17856776  0.81262404  0.43743783  1
  S  S14  1  0.32143224  0.31262404  0.43743783  1
  S  S15  1  0.67856776  0.68737596  0.93743783  1
  S  S16  1  0.87167187  0.46290085  0.25000000  1
  S  S17  1  0.12832813  0.53709915  0.75000000  1
  S  S18  1  0.37167187  0.03709915  0.75000000  1
  S  S19  1  0.62832813  0.96290085  0.25000000  1
