# generated using pymatgen
data_Sr2SnH18(SeO3)4
_symmetry_space_group_name_H-M   'P 1'
_cell_length_a   5.92822618
_cell_length_b   8.43767108
_cell_length_c   9.37467861
_cell_angle_alpha   96.95687537
_cell_angle_beta   104.17466562
_cell_angle_gamma   110.19255747
_symmetry_Int_Tables_number   1
_chemical_formula_structural   Sr2SnH18(SeO3)4
_chemical_formula_sum   'Sr2 Sn1 H18 Se4 O12'
_cell_volume   415.66502438
_cell_formula_units_Z   1
loop_
 _symmetry_equiv_pos_site_id
 _symmetry_equiv_pos_as_xyz
  1  'x, y, z'
loop_
 _atom_site_type_symbol
 _atom_site_label
 _atom_site_symmetry_multiplicity
 _atom_site_fract_x
 _atom_site_fract_y
 _atom_site_fract_z
 _atom_site_occupancy
  Sr  Sr0  1  0.66376829  0.79691012  0.03807937  1
  Sr  Sr1  1  0.33623171  0.20308988  0.96192063  1
  Sn  Sn2  1  0.00000000  0.50000000  -0.00000000  1
  H  H3  1  0.78747255  0.51660254  0.21407042  1
  H  H4  1  0.21252745  0.48339746  0.78592958  1
  H  H5  1  0.30926426  0.73024751  0.24999709  1
  H  H6  1  0.69073574  0.26975249  0.75000291  1
  H  H7  1  0.79093232  0.59537171  0.76671501  1
  H  H8  1  0.20906768  0.40462829  0.23328499  1
  H  H9  1  0.21987601  0.89765247  0.13796639  1
  H  H10  1  0.78012399  0.10234753  0.86203361  1
  H  H11  1  0.23377830  0.06150185  0.24223623  1
  H  H12  1  0.76622170  0.93849815  0.75776377  1
  H  H13  1  0.13649266  0.79988948  0.85515442  1
  H  H14  1  0.86350734  0.20011052  0.14484558  1
  H  H15  1  0.31342692  0.86823579  0.75473198  1
  H  H16  1  0.68657308  0.13176421  0.24526802  1
  H  H17  1  0.00431222  0.85085609  0.39370568  1
  H  H18  1  0.99568778  0.14914391  0.60629432  1
  H  H19  1  0.73914878  0.83931015  0.40062240  1
  H  H20  1  0.26085122  0.16068985  0.59937760  1
  Se  Se21  1  0.78425453  0.48739982  0.48285433  1
  Se  Se22  1  0.21574547  0.51260018  0.51714567  1
  Se  Se23  1  0.59729897  0.19188911  0.47707433  1
  Se  Se24  1  0.40270103  0.80811089  0.52292567  1
  O  O25  1  0.73852865  0.50957857  0.10594329  1
  O  O26  1  0.26147135  0.49042143  0.89405671  1
  O  O27  1  0.28402061  0.72504218  0.14212434  1
  O  O28  1  0.71597939  0.27495782  0.85787566  1
  O  O29  1  0.87747162  0.65583289  0.87185069  1
  O  O30  1  0.12252838  0.34416711  0.12814931  1
  O  O31  1  0.15795863  0.99396298  0.13823301  1
  O  O32  1  0.84204137  0.00603702  0.86176699  1
  O  O33  1  0.30641295  0.88274899  0.85864227  1
  O  O34  1  0.69358705  0.11725101  0.14135773  1
  O  O35  1  0.84755221  0.85664475  0.33573423  1
  O  O36  1  0.15244779  0.14335525  0.66426577  1
