# generated using pymatgen
data_K2Pt(I2O)2
_symmetry_space_group_name_H-M   'P 1'
_cell_length_a   7.47026000
_cell_length_b   11.81024089
_cell_length_c   14.13793473
_cell_angle_alpha   90.10931928
_cell_angle_beta   90.12362144
_cell_angle_gamma   90.08465634
_symmetry_Int_Tables_number   1
_chemical_formula_structural   K2Pt(I2O)2
_chemical_formula_sum   'K8 Pt4 I16 O8'
_cell_volume   1247.32080890
_cell_formula_units_Z   4
loop_
 _symmetry_equiv_pos_site_id
 _symmetry_equiv_pos_as_xyz
  1  'x, y, z'
loop_
 _atom_site_type_symbol
 _atom_site_label
 _atom_site_symmetry_multiplicity
 _atom_site_fract_x
 _atom_site_fract_y
 _atom_site_fract_z
 _atom_site_occupancy
  K  K0  1  0.73150300  0.35537300  0.31405700  1
  K  K1  1  0.76905000  0.85128900  0.68495500  1
  K  K2  1  0.23046400  0.64585600  0.18604000  1
  K  K3  1  0.27180100  0.14370900  0.81481400  1
  K  K4  1  0.26849700  0.64462700  0.68594300  1
  K  K5  1  0.23095000  0.14871100  0.31504500  1
  K  K6  1  0.76953600  0.35414400  0.81396000  1
  K  K7  1  0.72819900  0.85629100  0.18518600  1
  Pt  Pt8  1  0.00000000  0.50000000  0.50000000  1
  Pt  Pt9  1  0.50000000  0.00000000  0.50000000  1
  Pt  Pt10  1  0.50000000  0.50000000  0.00000000  1
  Pt  Pt11  1  0.00000000  0.00000000  0.00000000  1
  I  I12  1  0.76625600  0.55905800  0.63043900  1
  I  I13  1  0.72857000  0.06333900  0.36898500  1
  I  I14  1  0.27307400  0.43597700  0.86933100  1
  I  I15  1  0.22833600  0.93763400  0.13068300  1
  I  I16  1  0.23374400  0.44094200  0.36956100  1
  I  I17  1  0.27143000  0.93666100  0.63101500  1
  I  I18  1  0.72692600  0.56402300  0.13066900  1
  I  I19  1  0.77166400  0.06236600  0.86931700  1
  I  I20  1  0.15074200  0.33134700  0.59223200  1
  I  I21  1  0.34627200  0.83327800  0.40701600  1
  I  I22  1  0.65247500  0.66807600  0.90858100  1
  I  I23  1  0.85017600  0.16857800  0.09034700  1
  I  I24  1  0.84925800  0.66865300  0.40776800  1
  I  I25  1  0.65372800  0.16672200  0.59298400  1
  I  I26  1  0.34752500  0.33192400  0.09141900  1
  I  I27  1  0.14982400  0.83142200  0.90965300  1
  O  O28  1  0.55138200  0.20089700  0.71356100  1
  O  O29  1  0.95265600  0.70369200  0.28883700  1
  O  O30  1  0.04952000  0.79541600  0.78700700  1
  O  O31  1  0.44942800  0.29979300  0.21348600  1
  O  O32  1  0.44861800  0.79910300  0.28643900  1
  O  O33  1  0.04734400  0.29630800  0.71116300  1
  O  O34  1  0.95048000  0.20458400  0.21299300  1
  O  O35  1  0.55057200  0.70020700  0.78651400  1
