# generated using pymatgen
data_SrCdB2O5
_symmetry_space_group_name_H-M   'P 1'
_cell_length_a   5.76671848
_cell_length_b   11.98703551
_cell_length_c   12.69437340
_cell_angle_alpha   90.00000000
_cell_angle_beta   90.00000000
_cell_angle_gamma   90.00000000
_symmetry_Int_Tables_number   1
_chemical_formula_structural   SrCdB2O5
_chemical_formula_sum   'Sr8 Cd8 B16 O40'
_cell_volume   877.50946823
_cell_formula_units_Z   8
loop_
 _symmetry_equiv_pos_site_id
 _symmetry_equiv_pos_as_xyz
  1  'x, y, z'
loop_
 _atom_site_type_symbol
 _atom_site_label
 _atom_site_symmetry_multiplicity
 _atom_site_fract_x
 _atom_site_fract_y
 _atom_site_fract_z
 _atom_site_occupancy
  Sr  Sr0  1  0.88384272  0.61892327  0.58862890  1
  Sr  Sr1  1  0.61615728  0.11892327  0.41137110  1
  Sr  Sr2  1  0.38384272  0.38107673  0.91137110  1
  Sr  Sr3  1  0.11615728  0.88107673  0.08862890  1
  Sr  Sr4  1  0.11615728  0.38107673  0.41137110  1
  Sr  Sr5  1  0.38384272  0.88107673  0.58862890  1
  Sr  Sr6  1  0.61615728  0.61892327  0.08862890  1
  Sr  Sr7  1  0.88384272  0.11892327  0.91137110  1
  Cd  Cd8  1  0.12814464  0.63262279  0.26469871  1
  Cd  Cd9  1  0.37185536  0.13262279  0.73530129  1
  Cd  Cd10  1  0.62814464  0.36737721  0.23530129  1
  Cd  Cd11  1  0.87185536  0.86737721  0.76469871  1
  Cd  Cd12  1  0.87185536  0.36737721  0.73530129  1
  Cd  Cd13  1  0.62814464  0.86737721  0.26469871  1
  Cd  Cd14  1  0.37185536  0.63262279  0.76469871  1
  Cd  Cd15  1  0.12814464  0.13262279  0.23530129  1
  B  B16  1  0.62645976  0.61115030  0.32666272  1
  B  B17  1  0.87354024  0.11115030  0.67333728  1
  B  B18  1  0.12645976  0.38884970  0.17333728  1
  B  B19  1  0.37354024  0.88884970  0.82666272  1
  B  B20  1  0.37354024  0.38884970  0.67333728  1
  B  B21  1  0.12645976  0.88884970  0.32666272  1
  B  B22  1  0.87354024  0.61115030  0.82666272  1
  B  B23  1  0.62645976  0.11115030  0.17333728  1
  B  B24  1  0.37747599  0.62149455  0.48874169  1
  B  B25  1  0.12252401  0.12149455  0.51125831  1
  B  B26  1  0.87747599  0.37850545  0.01125831  1
  B  B27  1  0.62252401  0.87850545  0.98874169  1
  B  B28  1  0.62252401  0.37850545  0.51125831  1
  B  B29  1  0.87747599  0.87850545  0.48874169  1
  B  B30  1  0.12252401  0.62149455  0.98874169  1
  B  B31  1  0.37747599  0.12149455  0.01125831  1
  O  O32  1  0.17451528  0.59194984  0.44226340  1
  O  O33  1  0.32548472  0.09194984  0.55773660  1
  O  O34  1  0.67451528  0.40805016  0.05773660  1
  O  O35  1  0.82548472  0.90805016  0.94226340  1
  O  O36  1  0.82548472  0.40805016  0.55773660  1
  O  O37  1  0.67451528  0.90805016  0.44226340  1
  O  O38  1  0.32548472  0.59194984  0.94226340  1
  O  O39  1  0.17451528  0.09194984  0.05773660  1
  O  O40  1  0.59067732  0.60133761  0.43493143  1
  O  O41  1  0.90932268  0.10133761  0.56506857  1
  O  O42  1  0.09067732  0.39866239  0.06506857  1
  O  O43  1  0.40932268  0.89866239  0.93493143  1
  O  O44  1  0.40932268  0.39866239  0.56506857  1
  O  O45  1  0.09067732  0.89866239  0.43493143  1
  O  O46  1  0.90932268  0.60133761  0.93493143  1
  O  O47  1  0.59067732  0.10133761  0.06506857  1
  O  O48  1  0.50267155  0.68835977  0.27075439  1
  O  O49  1  0.99732845  0.18835977  0.72924561  1
  O  O50  1  0.00267155  0.31164023  0.22924561  1
  O  O51  1  0.49732845  0.81164023  0.77075439  1
  O  O52  1  0.49732845  0.31164023  0.72924561  1
  O  O53  1  0.00267155  0.81164023  0.27075439  1
  O  O54  1  0.99732845  0.68835977  0.77075439  1
  O  O55  1  0.50267155  0.18835977  0.22924561  1
  O  O56  1  0.78440698  0.54419592  0.27748812  1
  O  O57  1  0.71559302  0.04419592  0.72251188  1
  O  O58  1  0.28440698  0.45580408  0.22251188  1
  O  O59  1  0.21559302  0.95580408  0.77748812  1
  O  O60  1  0.21559302  0.45580408  0.72251188  1
  O  O61  1  0.28440698  0.95580408  0.27748812  1
  O  O62  1  0.71559302  0.54419592  0.77748812  1
  O  O63  1  0.78440698  0.04419592  0.22251188  1
  O  O64  1  0.10180758  0.66899798  0.08523167  1
  O  O65  1  0.39819242  0.16899798  0.91476833  1
  O  O66  1  0.60180758  0.33100202  0.41476833  1
  O  O67  1  0.89819242  0.83100202  0.58523167  1
  O  O68  1  0.89819242  0.33100202  0.91476833  1
  O  O69  1  0.60180758  0.83100202  0.08523167  1
  O  O70  1  0.39819242  0.66899798  0.58523167  1
  O  O71  1  0.10180758  0.16899798  0.41476833  1
