# generated using pymatgen
data_SiSe2
_symmetry_space_group_name_H-M   'P 1'
_cell_length_a   6.50278059
_cell_length_b   17.33355763
_cell_length_c   6.25396543
_cell_angle_alpha   90.00000000
_cell_angle_beta   101.40616526
_cell_angle_gamma   90.00000000
_symmetry_Int_Tables_number   1
_chemical_formula_structural   SiSe2
_chemical_formula_sum   'Si8 Se16'
_cell_volume   691.00166229
_cell_formula_units_Z   8
loop_
 _symmetry_equiv_pos_site_id
 _symmetry_equiv_pos_as_xyz
  1  'x, y, z'
loop_
 _atom_site_type_symbol
 _atom_site_label
 _atom_site_symmetry_multiplicity
 _atom_site_fract_x
 _atom_site_fract_y
 _atom_site_fract_z
 _atom_site_occupancy
  Si  Si0  1  0.11865794  0.06454223  0.12076090  1
  Si  Si1  1  0.88134206  0.56454223  0.37923910  1
  Si  Si2  1  0.88134206  0.93545777  0.87923910  1
  Si  Si3  1  0.11865794  0.43545777  0.62076090  1
  Si  Si4  1  0.35109133  0.19541899  0.35169000  1
  Si  Si5  1  0.64890867  0.69541899  0.14831000  1
  Si  Si6  1  0.64890867  0.80458101  0.64831000  1
  Si  Si7  1  0.35109133  0.30458101  0.85169000  1
  Se  Se8  1  0.99862430  0.17874045  0.23341202  1
  Se  Se9  1  0.00137570  0.67874045  0.26658798  1
  Se  Se10  1  0.00137570  0.82125955  0.76658798  1
  Se  Se11  1  0.99862430  0.32125955  0.73341202  1
  Se  Se12  1  0.47566319  0.30554803  0.22185840  1
  Se  Se13  1  0.52433681  0.80554803  0.27814160  1
  Se  Se14  1  0.52433681  0.69445197  0.77814160  1
  Se  Se15  1  0.47566319  0.19445197  0.72185840  1
  Se  Se16  1  0.47133100  0.08066145  0.24424678  1
  Se  Se17  1  0.52866900  0.58066145  0.25575322  1
  Se  Se18  1  0.52866900  0.91933855  0.75575322  1
  Se  Se19  1  0.47133100  0.41933855  0.74424678  1
  Se  Se20  1  0.00902098  0.45411290  0.25432733  1
  Se  Se21  1  0.99097902  0.95411290  0.24567267  1
  Se  Se22  1  0.99097902  0.54588710  0.74567267  1
  Se  Se23  1  0.00902098  0.04588710  0.75432733  1
