# generated using pymatgen
data_Sr4TiP4
_symmetry_space_group_name_H-M   'P 1'
_cell_length_a   12.62971237
_cell_length_b   12.62971237
_cell_length_c   12.62971237
_cell_angle_alpha   90.00000000
_cell_angle_beta   90.00000000
_cell_angle_gamma   90.00000000
_symmetry_Int_Tables_number   1
_chemical_formula_structural   Sr4TiP4
_chemical_formula_sum   'Sr32 Ti8 P32'
_cell_volume   2014.56080460
_cell_formula_units_Z   8
loop_
 _symmetry_equiv_pos_site_id
 _symmetry_equiv_pos_as_xyz
  1  'x, y, z'
loop_
 _atom_site_type_symbol
 _atom_site_label
 _atom_site_symmetry_multiplicity
 _atom_site_fract_x
 _atom_site_fract_y
 _atom_site_fract_z
 _atom_site_occupancy
  Sr  Sr0  1  0.14824703  0.14824703  0.14824703  1
  Sr  Sr1  1  0.35175297  0.64824703  0.35175297  1
  Sr  Sr2  1  0.64824703  0.35175297  0.35175297  1
  Sr  Sr3  1  0.35175297  0.35175297  0.64824703  1
  Sr  Sr4  1  0.14824703  0.85175297  0.85175297  1
  Sr  Sr5  1  0.85175297  0.85175297  0.14824703  1
  Sr  Sr6  1  0.85175297  0.14824703  0.85175297  1
  Sr  Sr7  1  0.64824703  0.64824703  0.64824703  1
  Sr  Sr8  1  0.90614496  0.86264301  0.64797182  1
  Sr  Sr9  1  0.90614496  0.13735699  0.35202818  1
  Sr  Sr10  1  0.86264301  0.64797182  0.90614496  1
  Sr  Sr11  1  0.13735699  0.64797182  0.09385504  1
  Sr  Sr12  1  0.64797182  0.90614496  0.86264301  1
  Sr  Sr13  1  0.35202818  0.09385504  0.86264301  1
  Sr  Sr14  1  0.59385504  0.85202818  0.36264301  1
  Sr  Sr15  1  0.59385504  0.14797182  0.63735699  1
  Sr  Sr16  1  0.40614496  0.85202818  0.63735699  1
  Sr  Sr17  1  0.14797182  0.63735699  0.59385504  1
  Sr  Sr18  1  0.63735699  0.40614496  0.85202818  1
  Sr  Sr19  1  0.63735699  0.59385504  0.14797182  1
  Sr  Sr20  1  0.85202818  0.36264301  0.59385504  1
  Sr  Sr21  1  0.36264301  0.59385504  0.85202818  1
  Sr  Sr22  1  0.85202818  0.63735699  0.40614496  1
  Sr  Sr23  1  0.14797182  0.36264301  0.40614496  1
  Sr  Sr24  1  0.36264301  0.40614496  0.14797182  1
  Sr  Sr25  1  0.35202818  0.90614496  0.13735699  1
  Sr  Sr26  1  0.64797182  0.09385504  0.13735699  1
  Sr  Sr27  1  0.86264301  0.35202818  0.09385504  1
  Sr  Sr28  1  0.13735699  0.35202818  0.90614496  1
  Sr  Sr29  1  0.09385504  0.13735699  0.64797182  1
  Sr  Sr30  1  0.09385504  0.86264301  0.35202818  1
  Sr  Sr31  1  0.40614496  0.14797182  0.36264301  1
  Ti  Ti32  1  0.50000000  0.50000000  0.50000000  1
  Ti  Ti33  1  0.00000000  -0.00000000  0.00000000  1
  Ti  Ti34  1  0.75000000  -0.00000000  0.50000000  1
  Ti  Ti35  1  0.50000000  0.75000000  0.00000000  1
  Ti  Ti36  1  0.50000000  0.25000000  0.00000000  1
  Ti  Ti37  1  0.00000000  0.50000000  0.25000000  1
  Ti  Ti38  1  0.00000000  0.50000000  0.75000000  1
  Ti  Ti39  1  0.25000000  -0.00000000  0.50000000  1
  P  P40  1  0.89147099  0.89147099  0.89147099  1
  P  P41  1  0.60852901  0.39147099  0.60852901  1
  P  P42  1  0.39147099  0.60852901  0.60852901  1
  P  P43  1  0.60852901  0.60852901  0.39147099  1
  P  P44  1  0.89147099  0.10852901  0.10852901  1
  P  P45  1  0.10852901  0.10852901  0.89147099  1
  P  P46  1  0.10852901  0.89147099  0.10852901  1
  P  P47  1  0.39147099  0.39147099  0.39147099  1
  P  P48  1  0.64594946  0.89267846  0.61461602  1
  P  P49  1  0.64594946  0.10732154  0.38538398  1
  P  P50  1  0.89267846  0.61461602  0.64594946  1
  P  P51  1  0.10732154  0.61461602  0.35405054  1
  P  P52  1  0.61461602  0.64594946  0.89267846  1
  P  P53  1  0.38538398  0.35405054  0.89267846  1
  P  P54  1  0.85405054  0.88538398  0.39267846  1
  P  P55  1  0.85405054  0.11461602  0.60732154  1
  P  P56  1  0.14594946  0.88538398  0.60732154  1
  P  P57  1  0.11461602  0.60732154  0.85405054  1
  P  P58  1  0.60732154  0.14594946  0.88538398  1
  P  P59  1  0.60732154  0.85405054  0.11461602  1
  P  P60  1  0.88538398  0.39267846  0.85405054  1
  P  P61  1  0.39267846  0.85405054  0.88538398  1
  P  P62  1  0.88538398  0.60732154  0.14594946  1
  P  P63  1  0.11461602  0.39267846  0.14594946  1
  P  P64  1  0.39267846  0.14594946  0.11461602  1
  P  P65  1  0.38538398  0.64594946  0.10732154  1
  P  P66  1  0.61461602  0.35405054  0.10732154  1
  P  P67  1  0.89267846  0.38538398  0.35405054  1
  P  P68  1  0.10732154  0.38538398  0.64594946  1
  P  P69  1  0.35405054  0.10732154  0.61461602  1
  P  P70  1  0.35405054  0.89267846  0.38538398  1
  P  P71  1  0.14594946  0.11461602  0.39267846  1
