# generated using pymatgen
data_SmVO3
_symmetry_space_group_name_H-M   'P 1'
_cell_length_a   5.36908064
_cell_length_b   5.69279481
_cell_length_c   7.64646575
_cell_angle_alpha   90.00000000
_cell_angle_beta   90.00000000
_cell_angle_gamma   90.00000000
_symmetry_Int_Tables_number   1
_chemical_formula_structural   SmVO3
_chemical_formula_sum   'Sm4 V4 O12'
_cell_volume   233.71479456
_cell_formula_units_Z   4
loop_
 _symmetry_equiv_pos_site_id
 _symmetry_equiv_pos_as_xyz
  1  'x, y, z'
loop_
 _atom_site_type_symbol
 _atom_site_label
 _atom_site_symmetry_multiplicity
 _atom_site_fract_x
 _atom_site_fract_y
 _atom_site_fract_z
 _atom_site_occupancy
  Sm  Sm0  1  0.98424243  0.43687414  0.75000000  1
  Sm  Sm1  1  0.01575757  0.56312586  0.25000000  1
  Sm  Sm2  1  0.48424243  0.06312586  0.25000000  1
  Sm  Sm3  1  0.51575757  0.93687414  0.75000000  1
  V  V4  1  -0.00000000  -0.00000000  0.50000000  1
  V  V5  1  0.50000000  0.50000000  0.50000000  1
  V  V6  1  -0.00000000  -0.00000000  0.00000000  1
  V  V7  1  0.50000000  0.50000000  0.00000000  1
  O  O8  1  0.29819887  0.80461245  0.45009041  1
  O  O9  1  0.70180113  0.19538755  0.54990959  1
  O  O10  1  0.79819887  0.69538755  0.54990959  1
  O  O11  1  0.20180113  0.30461245  0.45009041  1
  O  O12  1  0.79819887  0.69538755  0.95009041  1
  O  O13  1  0.20180113  0.30461245  0.04990959  1
  O  O14  1  0.29819887  0.80461245  0.04990959  1
  O  O15  1  0.70180113  0.19538755  0.95009041  1
  O  O16  1  0.90121101  0.96641070  0.25000000  1
  O  O17  1  0.09878899  0.03358930  0.75000000  1
  O  O18  1  0.40121101  0.53358930  0.75000000  1
  O  O19  1  0.59878899  0.46641070  0.25000000  1
