# generated using pymatgen
data_Ba2CaY2(Fe2O5)2
_symmetry_space_group_name_H-M   'P 1'
_cell_length_a   3.77753400
_cell_length_b   9.59016613
_cell_length_c   8.06344063
_cell_angle_alpha   89.12544644
_cell_angle_beta   90.00000000
_cell_angle_gamma   90.00000000
_symmetry_Int_Tables_number   1
_chemical_formula_structural   Ba2CaY2(Fe2O5)2
_chemical_formula_sum   'Ba2 Ca1 Y2 Fe4 O10'
_cell_volume   292.08167553
_cell_formula_units_Z   1
loop_
 _symmetry_equiv_pos_site_id
 _symmetry_equiv_pos_as_xyz
  1  'x, y, z'
loop_
 _atom_site_type_symbol
 _atom_site_label
 _atom_site_symmetry_multiplicity
 _atom_site_fract_x
 _atom_site_fract_y
 _atom_site_fract_z
 _atom_site_occupancy
  Ba  Ba0  1  0.00000000  0.02316200  0.50362000  1
  Ba  Ba1  1  0.00000000  0.88210500  0.01848400  1
  Ca  Ca2  1  0.00000000  0.21119000  0.95508500  1
  Y  Y3  1  0.00000000  0.52799100  0.01177600  1
  Y  Y4  1  0.00000000  0.46301900  0.47841900  1
  Fe  Fe5  1  0.49999900  0.72066400  0.32562600  1
  Fe  Fe6  1  0.49999900  0.30831800  0.73222300  1
  Fe  Fe7  1  0.49999900  0.30054600  0.24413300  1
  Fe  Fe8  1  0.49999900  0.72563300  0.70371300  1
  O  O9  1  0.49999900  0.57765200  0.52111500  1
  O  O10  1  0.49999900  0.26378300  0.48748400  1
  O  O11  1  0.49999900  0.67565100  0.95514100  1
  O  O12  1  0.49999900  0.37391400  0.00459700  1
  O  O13  1  0.00000000  0.80113700  0.69330600  1
  O  O14  1  0.00000000  0.33728600  0.23086600  1
  O  O15  1  0.00000000  0.64508100  0.25679800  1
  O  O16  1  0.00000000  0.39348000  0.75187900  1
  O  O17  1  0.49999900  0.92424800  0.27945400  1
  O  O18  1  0.49999900  0.10347100  0.84628200  1
