# generated using pymatgen
data_Ca(MoO2)2
_symmetry_space_group_name_H-M   'P 1'
_cell_length_a   2.90208084
_cell_length_b   9.67805750
_cell_length_c   11.10326512
_cell_angle_alpha   90.00000000
_cell_angle_beta   90.00000000
_cell_angle_gamma   90.00000000
_symmetry_Int_Tables_number   1
_chemical_formula_structural   Ca(MoO2)2
_chemical_formula_sum   'Ca4 Mo8 O16'
_cell_volume   311.85191396
_cell_formula_units_Z   4
loop_
 _symmetry_equiv_pos_site_id
 _symmetry_equiv_pos_as_xyz
  1  'x, y, z'
loop_
 _atom_site_type_symbol
 _atom_site_label
 _atom_site_symmetry_multiplicity
 _atom_site_fract_x
 _atom_site_fract_y
 _atom_site_fract_z
 _atom_site_occupancy
  Ca  Ca0  1  0.25000000  0.72029229  0.82550406  1
  Ca  Ca1  1  0.75000000  0.27970771  0.17449594  1
  Ca  Ca2  1  0.25000000  0.22029229  0.67449594  1
  Ca  Ca3  1  0.75000000  0.77970771  0.32550406  1
  Mo  Mo4  1  0.75000000  0.90302815  0.60059473  1
  Mo  Mo5  1  0.25000000  0.59697185  0.10059473  1
  Mo  Mo6  1  0.75000000  0.40302815  0.89940527  1
  Mo  Mo7  1  0.25000000  0.09697185  0.39940527  1
  Mo  Mo8  1  0.25000000  0.03396261  0.90709695  1
  Mo  Mo9  1  0.75000000  0.96603739  0.09290305  1
  Mo  Mo10  1  0.25000000  0.53396261  0.59290305  1
  Mo  Mo11  1  0.75000000  0.46603739  0.40709695  1
  O  O12  1  0.75000000  0.37783837  0.57735817  1
  O  O13  1  0.25000000  0.62216163  0.42264183  1
  O  O14  1  0.75000000  0.87783837  0.92264183  1
  O  O15  1  0.25000000  0.12216163  0.07735817  1
  O  O16  1  0.75000000  0.54289824  0.22861214  1
  O  O17  1  0.25000000  0.45710176  0.77138786  1
  O  O18  1  0.75000000  0.04289824  0.27138786  1
  O  O19  1  0.25000000  0.95710176  0.72861214  1
  O  O20  1  0.75000000  0.10871318  0.54194902  1
  O  O21  1  0.25000000  0.89128682  0.45805098  1
  O  O22  1  0.75000000  0.60871318  0.95805098  1
  O  O23  1  0.25000000  0.39128682  0.04194902  1
  O  O24  1  0.25000000  0.31353481  0.34630945  1
  O  O25  1  0.75000000  0.68646519  0.65369055  1
  O  O26  1  0.75000000  0.18646519  0.84630945  1
  O  O27  1  0.25000000  0.81353481  0.15369055  1
