# generated using pymatgen
data_SmVO4
_symmetry_space_group_name_H-M   'P 1'
_cell_length_a   6.05723534
_cell_length_b   6.05723777
_cell_length_c   6.05723632
_cell_angle_alpha   106.12382123
_cell_angle_beta   106.12382387
_cell_angle_gamma   116.39592092
_symmetry_Int_Tables_number   1
_chemical_formula_structural   SmVO4
_chemical_formula_sum   'Sm2 V2 O8'
_cell_volume   169.18499214
_cell_formula_units_Z   2
loop_
 _symmetry_equiv_pos_site_id
 _symmetry_equiv_pos_as_xyz
  1  'x, y, z'
loop_
 _atom_site_type_symbol
 _atom_site_label
 _atom_site_symmetry_multiplicity
 _atom_site_fract_x
 _atom_site_fract_y
 _atom_site_fract_z
 _atom_site_occupancy
  Sm  Sm0  1  0.87500000  0.12500000  0.75000000  1
  Sm  Sm1  1  0.12500000  0.87500000  0.25000000  1
  V  V2  1  0.62500000  0.37500000  0.25000000  1
  V  V3  1  0.37500000  0.62500000  0.75000000  1
  O  O4  1  0.79683657  0.36536133  0.06852477  1
  O  O5  1  0.79683657  0.72831280  0.43147523  1
  O  O6  1  0.63463867  0.20316343  0.43147523  1
  O  O7  1  0.20316343  0.27168720  0.56852477  1
  O  O8  1  0.20316343  0.63463867  0.93147523  1
  O  O9  1  0.27168720  0.20316343  0.06852477  1
  O  O10  1  0.72831280  0.79683657  0.93147523  1
  O  O11  1  0.36536133  0.79683657  0.56852477  1
