# generated using pymatgen
data_CaMn(PO3)4
_symmetry_space_group_name_H-M   'P 1'
_cell_length_a   7.55506338
_cell_length_b   7.55506338
_cell_length_c   10.12327426
_cell_angle_alpha   66.60975374
_cell_angle_beta   66.60975374
_cell_angle_gamma   70.71988298
_symmetry_Int_Tables_number   1
_chemical_formula_structural   CaMn(PO3)4
_chemical_formula_sum   'Ca2 Mn2 P8 O24'
_cell_volume   476.43455759
_cell_formula_units_Z   2
loop_
 _symmetry_equiv_pos_site_id
 _symmetry_equiv_pos_as_xyz
  1  'x, y, z'
loop_
 _atom_site_type_symbol
 _atom_site_label
 _atom_site_symmetry_multiplicity
 _atom_site_fract_x
 _atom_site_fract_y
 _atom_site_fract_z
 _atom_site_occupancy
  Ca  Ca0  1  0.95361178  0.04638822  0.75000000  1
  Ca  Ca1  1  0.04638822  0.95361178  0.25000000  1
  Mn  Mn2  1  0.50000000  0.00000000  0.00000000  1
  Mn  Mn3  1  0.00000000  0.50000000  0.50000000  1
  P  P4  1  0.31202949  0.30807304  0.69592867  1
  P  P5  1  0.69192696  0.68797051  0.80407133  1
  P  P6  1  0.68797051  0.69192696  0.30407133  1
  P  P7  1  0.30807304  0.31202949  0.19592867  1
  P  P8  1  0.71552390  0.27143911  0.47376867  1
  P  P9  1  0.72856089  0.28447610  0.02623133  1
  P  P10  1  0.28447610  0.72856089  0.52623133  1
  P  P11  1  0.27143911  0.71552390  0.97376867  1
  O  O12  1  0.29774151  0.53487779  0.66816042  1
  O  O13  1  0.46512221  0.70225849  0.83183958  1
  O  O14  1  0.70225849  0.46512221  0.33183958  1
  O  O15  1  0.53487779  0.29774151  0.16816042  1
  O  O16  1  0.48956480  0.25985500  0.55519959  1
  O  O17  1  0.74014500  0.51043520  0.94480041  1
  O  O18  1  0.51043520  0.74014500  0.44480041  1
  O  O19  1  0.25985500  0.48956480  0.05519959  1
  O  O20  1  0.35473601  0.19163756  0.83951201  1
  O  O21  1  0.80836244  0.64526399  0.66048799  1
  O  O22  1  0.64526399  0.80836244  0.16048799  1
  O  O23  1  0.19163756  0.35473601  0.33951201  1
  O  O24  1  0.13236515  0.29045948  0.67627733  1
  O  O25  1  0.70954052  0.86763485  0.82372267  1
  O  O26  1  0.86763485  0.70954052  0.32372267  1
  O  O27  1  0.29045948  0.13236515  0.17627733  1
  O  O28  1  0.79448173  0.30738494  0.57391523  1
  O  O29  1  0.69261506  0.20551827  0.92608477  1
  O  O30  1  0.20551827  0.69261506  0.42608477  1
  O  O31  1  0.30738494  0.79448173  0.07391523  1
  O  O32  1  0.81711978  0.09968978  0.41926054  1
  O  O33  1  0.90031022  0.18288022  0.08073946  1
  O  O34  1  0.18288022  0.90031022  0.58073946  1
  O  O35  1  0.09968978  0.81711978  0.91926054  1
