# generated using pymatgen
data_Li7Mn5O12
_symmetry_space_group_name_H-M   'P 1'
_cell_length_a   5.82360552
_cell_length_b   6.00592492
_cell_length_c   14.45911539
_cell_angle_alpha   93.72764670
_cell_angle_beta   90.41336509
_cell_angle_gamma   118.94126641
_symmetry_Int_Tables_number   1
_chemical_formula_structural   Li7Mn5O12
_chemical_formula_sum   'Li14 Mn10 O24'
_cell_volume   441.19763747
_cell_formula_units_Z   2
loop_
 _symmetry_equiv_pos_site_id
 _symmetry_equiv_pos_as_xyz
  1  'x, y, z'
loop_
 _atom_site_type_symbol
 _atom_site_label
 _atom_site_symmetry_multiplicity
 _atom_site_fract_x
 _atom_site_fract_y
 _atom_site_fract_z
 _atom_site_occupancy
  Li  Li0  1  0.66682000  0.33345400  0.16662000  1
  Li  Li1  1  0.16852900  0.33655600  0.66625300  1
  Li  Li2  1  0.16645000  0.83328800  0.16669000  1
  Li  Li3  1  0.66754900  0.83378900  0.66674000  1
  Li  Li4  1  0.66671000  0.83326700  0.16668000  1
  Li  Li5  1  0.16659000  0.83365600  0.66661900  1
  Li  Li6  1  0.34239200  0.17968300  0.32903700  1
  Li  Li7  1  0.83728400  0.17304800  0.83350600  1
  Li  Li8  1  0.99092900  0.48686000  0.00421900  1
  Li  Li9  1  0.49610700  0.49345300  0.49975400  1
  Li  Li10  1  0.84824400  0.69814000  0.31761800  1
  Li  Li11  1  0.32466600  0.65842600  0.83757600  1
  Li  Li12  1  0.48483500  0.96806000  0.01595600  1
  Li  Li13  1  0.00888500  0.00832600  0.49588000  1
  Mn  Mn14  1  0.16673700  0.33349800  0.16661800  1
  Mn  Mn15  1  0.49093300  0.98619400  0.50306200  1
  Mn  Mn16  1  0.84229600  0.68007200  0.83034800  1
  Mn  Mn17  1  0.50385300  0.49944900  0.00229400  1
  Mn  Mn18  1  0.82924300  0.16690700  0.33093800  1
  Mn  Mn19  1  0.66678400  0.33343700  0.66673800  1
  Mn  Mn20  1  0.99125000  0.98732800  0.00356900  1
  Mn  Mn21  1  0.34208200  0.67945000  0.32973000  1
  Mn  Mn22  1  0.99597700  0.49613900  0.50184200  1
  Mn  Mn23  1  0.33695300  0.17013600  0.83145100  1
  O  O24  1  0.01172700  0.04493900  0.24568600  1
  O  O25  1  0.51051100  0.04834200  0.74527200  1
  O  O26  1  0.32170400  0.62189700  0.08756700  1
  O  O27  1  0.82256100  0.61821500  0.58810500  1
  O  O28  1  0.64410400  0.82619900  0.42057600  1
  O  O29  1  0.14628700  0.82912200  0.91532300  1
  O  O30  1  0.18687400  0.83714700  0.41809900  1
  O  O31  1  0.68905700  0.84012100  0.91282500  1
  O  O32  1  0.47807200  0.50089800  0.25087800  1
  O  O33  1  0.97821600  0.50231300  0.75032600  1
  O  O34  1  0.85527700  0.16588900  0.08243300  1
  O  O35  1  0.35512900  0.16417600  0.58306500  1
  O  O36  1  0.13714500  0.32871800  0.41867300  1
  O  O37  1  0.67142200  0.37516600  0.90552700  1
  O  O38  1  0.66152500  0.29090300  0.42780700  1
  O  O39  1  0.19582500  0.33774100  0.91465500  1
  O  O40  1  0.30556600  0.15413200  0.08672400  1
  O  O41  1  0.80279900  0.15015100  0.58869500  1
  O  O42  1  0.02768800  0.51257900  0.24658300  1
  O  O43  1  0.53044800  0.51645900  0.74470500  1
  O  O44  1  0.81247300  0.65077000  0.07866000  1
  O  O45  1  0.33284600  0.68793700  0.57216000  1
  O  O46  1  0.52066100  0.01570700  0.25456500  1
  O  O47  1  0.99998800  0.97786600  0.76135800  1
