# generated using pymatgen
data_Y3ReO8
_symmetry_space_group_name_H-M   'P 1'
_cell_length_a   6.00804550
_cell_length_b   7.20558818
_cell_length_c   14.39813124
_cell_angle_alpha   68.68253237
_cell_angle_beta   90.00000000
_cell_angle_gamma   90.00000000
_symmetry_Int_Tables_number   1
_chemical_formula_structural   Y3ReO8
_chemical_formula_sum   'Y12 Re4 O32'
_cell_volume   580.66966645
_cell_formula_units_Z   4
loop_
 _symmetry_equiv_pos_site_id
 _symmetry_equiv_pos_as_xyz
  1  'x, y, z'
loop_
 _atom_site_type_symbol
 _atom_site_label
 _atom_site_symmetry_multiplicity
 _atom_site_fract_x
 _atom_site_fract_y
 _atom_site_fract_z
 _atom_site_occupancy
  Y  Y0  1  0.80049029  0.66192702  0.05476428  1
  Y  Y1  1  0.30049029  0.33807298  0.44523572  1
  Y  Y2  1  0.19950971  0.33807298  0.94523572  1
  Y  Y3  1  0.69950971  0.66192702  0.55476428  1
  Y  Y4  1  0.75868295  0.59460428  0.29804340  1
  Y  Y5  1  0.25868295  0.40539572  0.20195660  1
  Y  Y6  1  0.24131705  0.40539572  0.70195660  1
  Y  Y7  1  0.74131705  0.59460428  0.79804340  1
  Y  Y8  1  0.31160209  0.89298549  0.16665577  1
  Y  Y9  1  0.81160209  0.10701451  0.33334423  1
  Y  Y10  1  0.68839791  0.10701451  0.83334423  1
  Y  Y11  1  0.18839791  0.89298549  0.66665577  1
  Re  Re12  1  0.75464827  0.17907382  0.09013143  1
  Re  Re13  1  0.25464827  0.82092618  0.40986857  1
  Re  Re14  1  0.24535173  0.82092618  0.90986857  1
  Re  Re15  1  0.74535173  0.17907382  0.59013143  1
  O  O16  1  0.69672783  0.02259618  0.01927783  1
  O  O17  1  0.19672783  0.97740382  0.48072217  1
  O  O18  1  0.30327217  0.97740382  0.98072217  1
  O  O19  1  0.80327217  0.02259618  0.51927783  1
  O  O20  1  0.45404268  0.25168432  0.09602334  1
  O  O21  1  0.95404268  0.74831568  0.40397666  1
  O  O22  1  0.54595732  0.74831568  0.90397666  1
  O  O23  1  0.04595732  0.25168432  0.59602334  1
  O  O24  1  0.85431392  0.33286040  0.17039519  1
  O  O25  1  0.35431392  0.66713960  0.32960481  1
  O  O26  1  0.14568608  0.66713960  0.82960481  1
  O  O27  1  0.64568608  0.33286040  0.67039519  1
  O  O28  1  0.05383615  0.11984009  0.08851024  1
  O  O29  1  0.55383615  0.88015991  0.41148976  1
  O  O30  1  0.94616385  0.88015991  0.91148976  1
  O  O31  1  0.44616385  0.11984009  0.58851024  1
  O  O32  1  0.97110982  0.31174032  0.82691820  1
  O  O33  1  0.47110982  0.68825968  0.67308180  1
  O  O34  1  0.02889018  0.68825968  0.17308180  1
  O  O35  1  0.52889018  0.31174032  0.32691820  1
  O  O36  1  0.97099464  0.64779691  0.65735078  1
  O  O37  1  0.47099464  0.35220309  0.84264922  1
  O  O38  1  0.02900536  0.35220309  0.34264922  1
  O  O39  1  0.52900536  0.64779691  0.15735078  1
  O  O40  1  0.69443311  0.41595968  0.47972492  1
  O  O41  1  0.19443311  0.58404032  0.02027508  1
  O  O42  1  0.30556689  0.58404032  0.52027508  1
  O  O43  1  0.80556689  0.41595968  0.97972492  1
  O  O44  1  0.79662901  0.96638927  0.71406278  1
  O  O45  1  0.29662901  0.03361073  0.78593722  1
  O  O46  1  0.20337099  0.03361073  0.28593722  1
  O  O47  1  0.70337099  0.96638927  0.21406278  1
