# generated using pymatgen
data_YFeO3
_symmetry_space_group_name_H-M   'P 1'
_cell_length_a   6.10008320
_cell_length_b   6.10008023
_cell_length_c   11.68533091
_cell_angle_alpha   90.00000931
_cell_angle_beta   89.99998999
_cell_angle_gamma   119.99886441
_symmetry_Int_Tables_number   1
_chemical_formula_structural   YFeO3
_chemical_formula_sum   'Y6 Fe6 O18'
_cell_volume   376.57191093
_cell_formula_units_Z   6
loop_
 _symmetry_equiv_pos_site_id
 _symmetry_equiv_pos_as_xyz
  1  'x, y, z'
loop_
 _atom_site_type_symbol
 _atom_site_label
 _atom_site_symmetry_multiplicity
 _atom_site_fract_x
 _atom_site_fract_y
 _atom_site_fract_z
 _atom_site_occupancy
  Y  Y0  1  0.66666958  0.33333225  0.23297770  1
  Y  Y1  1  0.33333074  0.66666686  0.73297408  1
  Y  Y2  1  0.66666483  0.33332864  0.73297410  1
  Y  Y3  1  0.33333505  0.66667002  0.23297767  1
  Y  Y4  1  0.99999671  0.99999771  0.77640704  1
  Y  Y5  1  0.00000400  0.00000358  0.27641150  1
  Fe  Fe6  1  0.66595304  0.99999619  0.50085439  1
  Fe  Fe7  1  0.66595848  0.66595837  0.00085597  1
  Fe  Fe8  1  0.00000392  0.33404550  0.00085465  1
  Fe  Fe9  1  0.99999578  0.66595358  0.50085497  1
  Fe  Fe10  1  0.33404211  0.33404235  0.50085624  1
  Fe  Fe11  1  0.33404580  0.00000383  0.00085472  1
  O  O12  1  0.66666691  0.33333585  0.02116801  1
  O  O13  1  0.33333150  0.66666393  0.52116881  1
  O  O14  1  0.66666364  0.33333322  0.52116885  1
  O  O15  1  0.33333723  0.66666761  0.02116801  1
  O  O16  1  0.99999611  0.99999567  0.97749127  1
  O  O17  1  0.00000481  0.00000368  0.47749099  1
  O  O18  1  0.36055371  -0.00000108  0.83809966  1
  O  O19  1  0.36055103  0.36055054  0.33810294  1
  O  O20  1  0.00000157  0.63944652  0.33809979  1
  O  O21  1  -0.00000149  0.36055396  0.83809904  1
  O  O22  1  0.63944852  0.63944895  0.83810335  1
  O  O23  1  0.63944671  0.00000109  0.33809906  1
  O  O24  1  0.30576043  0.00000432  0.16531628  1
  O  O25  1  0.30575318  0.30575365  0.66531389  1
  O  O26  1  0.99999527  0.69423869  0.66531686  1
  O  O27  1  0.00000484  0.30575894  0.16531705  1
  O  O28  1  0.69424732  0.69424687  0.16531238  1
  O  O29  1  0.69423968  0.99999571  0.66531670  1
