# generated using pymatgen
data_MgCo4(Te2O5)4
_symmetry_space_group_name_H-M   'P 1'
_cell_length_a   7.34742601
_cell_length_b   11.24750313
_cell_length_c   6.27830345
_cell_angle_alpha   94.31184124
_cell_angle_beta   90.10421744
_cell_angle_gamma   84.78345585
_symmetry_Int_Tables_number   1
_chemical_formula_structural   MgCo4(Te2O5)4
_chemical_formula_sum   'Mg1 Co4 Te8 O20'
_cell_volume   515.22228519
_cell_formula_units_Z   1
loop_
 _symmetry_equiv_pos_site_id
 _symmetry_equiv_pos_as_xyz
  1  'x, y, z'
loop_
 _atom_site_type_symbol
 _atom_site_label
 _atom_site_symmetry_multiplicity
 _atom_site_fract_x
 _atom_site_fract_y
 _atom_site_fract_z
 _atom_site_occupancy
  Mg  Mg0  1  0.59481388  0.29671213  0.01161912  1
  Co  Co1  1  0.94635351  0.05941738  0.25106326  1
  Co  Co2  1  0.98385518  0.94150741  0.73333900  1
  Co  Co3  1  0.54580829  0.59150805  0.17864747  1
  Co  Co4  1  0.54028078  0.46564657  0.65609001  1
  Te  Te5  1  0.13574961  0.33338696  0.54567463  1
  Te  Te6  1  0.15259213  0.65481140  0.93835048  1
  Te  Te7  1  0.32654012  0.10880393  0.04735088  1
  Te  Te8  1  0.36336478  0.83920571  0.47545158  1
  Te  Te9  1  0.60700610  0.16278410  0.51590393  1
  Te  Te10  1  0.62823983  0.85023263  0.99030907  1
  Te  Te11  1  0.88333615  0.66532514  0.46750740  1
  Te  Te12  1  0.96795913  0.39546402  0.04198257  1
  O  O13  1  0.01328096  0.44241425  0.34522333  1
  O  O14  1  0.02871994  0.57614785  0.69541810  1
  O  O15  1  0.09322048  0.06411743  0.95631998  1
  O  O16  1  0.13487057  0.92652054  0.44128220  1
  O  O17  1  0.12042142  0.19541966  0.36403671  1
  O  O18  1  0.20264817  0.78982492  0.78713961  1
  O  O19  1  0.33577365  0.26420549  0.93435078  1
  O  O20  1  0.32712281  0.70018826  0.28779955  1
  O  O21  1  0.37179084  0.37208900  0.46712393  1
  O  O22  1  0.38809115  0.56225940  0.89797851  1
  O  O23  1  0.48701070  0.92457071  0.24828483  1
  O  O24  1  0.48045526  0.02435098  0.82737617  1
  O  O25  1  0.70360184  0.45076133  0.05756331  1
  O  O26  1  0.66465793  0.58418748  0.49753596  1
  O  O27  1  0.68067295  0.29904398  0.69881539  1
  O  O28  1  0.72809873  0.71693604  0.15771481  1
  O  O29  1  0.69749928  0.19704502  0.24106032  1
  O  O30  1  0.81267044  0.80166926  0.65544808  1
  O  O31  1  0.82427679  0.06109332  0.54714387  1
  O  O32  1  0.83189664  0.93859565  0.03388615  1
