# generated using pymatgen
data_KSrI3
_symmetry_space_group_name_H-M   'P 1'
_cell_length_a   8.11289001
_cell_length_b   8.11289001
_cell_length_c   12.05344229
_cell_angle_alpha   90.00000000
_cell_angle_beta   90.00000000
_cell_angle_gamma   145.97529594
_symmetry_Int_Tables_number   1
_chemical_formula_structural   KSrI3
_chemical_formula_sum   'K2 Sr2 I6'
_cell_volume   443.91662098
_cell_formula_units_Z   2
loop_
 _symmetry_equiv_pos_site_id
 _symmetry_equiv_pos_as_xyz
  1  'x, y, z'
loop_
 _atom_site_type_symbol
 _atom_site_label
 _atom_site_symmetry_multiplicity
 _atom_site_fract_x
 _atom_site_fract_y
 _atom_site_fract_z
 _atom_site_occupancy
  K  K0  1  0.24996946  0.75003054  0.25000000  1
  K  K1  1  0.75003054  0.24996946  0.75000000  1
  Sr  Sr2  1  -0.00000000  -0.00000000  0.00000000  1
  Sr  Sr3  1  -0.00000000  -0.00000000  0.50000000  1
  I  I4  1  0.63955187  0.36044813  0.06346159  1
  I  I5  1  0.36044813  0.63955187  0.93653841  1
  I  I6  1  0.36044813  0.63955187  0.56346159  1
  I  I7  1  0.63955187  0.36044813  0.43653841  1
  I  I8  1  0.91869375  0.08130625  0.25000000  1
  I  I9  1  0.08130625  0.91869375  0.75000000  1
