# generated using pymatgen
data_NaNiO2
_symmetry_space_group_name_H-M   'P 1'
_cell_length_a   3.00469485
_cell_length_b   4.99699569
_cell_length_c   10.46182295
_cell_angle_alpha   89.99960728
_cell_angle_beta   90.00077766
_cell_angle_gamma   85.92648955
_symmetry_Int_Tables_number   1
_chemical_formula_structural   NaNiO2
_chemical_formula_sum   'Na4 Ni4 O8'
_cell_volume   156.68166593
_cell_formula_units_Z   4
loop_
 _symmetry_equiv_pos_site_id
 _symmetry_equiv_pos_as_xyz
  1  'x, y, z'
loop_
 _atom_site_type_symbol
 _atom_site_label
 _atom_site_symmetry_multiplicity
 _atom_site_fract_x
 _atom_site_fract_y
 _atom_site_fract_z
 _atom_site_occupancy
  Na  Na0  1  0.47636660  0.15600517  0.25000035  1
  Na  Na1  1  0.97636597  0.65600290  0.24999981  1
  Na  Na2  1  0.02363242  0.34399546  0.75000050  1
  Na  Na3  1  0.52363309  0.84399747  0.75000023  1
  Ni  Ni4  1  0.50001800  0.49995745  0.50000173  1
  Ni  Ni5  1  -0.00001314  0.00003697  0.00000229  1
  Ni  Ni6  1  -0.00001240  0.00003941  0.49999646  1
  Ni  Ni7  1  0.50001238  0.49996315  -0.00000299  1
  O  O8  1  0.96296342  0.32051991  0.40217657  1
  O  O9  1  0.46297066  0.82053153  0.40216708  1
  O  O10  1  0.53703813  0.17947829  0.59782394  1
  O  O11  1  0.03702629  0.67946814  0.59783321  1
  O  O12  1  0.53703053  0.17948177  0.90217563  1
  O  O13  1  0.03702321  0.67947233  0.90216629  1
  O  O14  1  0.96296690  0.32051974  0.09782589  1
  O  O15  1  0.46297594  0.82053030  0.09783400  1
