# generated using pymatgen
data_Na2Zr(Si2O5)3
_symmetry_space_group_name_H-M   'P 1'
_cell_length_a   10.26020200
_cell_length_b   10.26020200
_cell_length_c   14.56812831
_cell_angle_alpha   90.00000000
_cell_angle_beta   90.00000000
_cell_angle_gamma   91.68244234
_symmetry_Int_Tables_number   1
_chemical_formula_structural   Na2Zr(Si2O5)3
_chemical_formula_sum   'Na8 Zr4 Si24 O60'
_cell_volume   1532.95115707
_cell_formula_units_Z   4
loop_
 _symmetry_equiv_pos_site_id
 _symmetry_equiv_pos_as_xyz
  1  'x, y, z'
loop_
 _atom_site_type_symbol
 _atom_site_label
 _atom_site_symmetry_multiplicity
 _atom_site_fract_x
 _atom_site_fract_y
 _atom_site_fract_z
 _atom_site_occupancy
  Na  Na0  1  0.98909209  0.51090791  0.75000000  1
  Na  Na1  1  0.51090791  0.98909209  0.25000000  1
  Na  Na2  1  0.01090791  0.48909209  0.25000000  1
  Na  Na3  1  0.48909209  0.01090791  0.75000000  1
  Na  Na4  1  0.74757210  0.25242790  0.01524031  1
  Na  Na5  1  0.25242790  0.74757210  0.98475969  1
  Na  Na6  1  0.75242790  0.24757210  0.51524031  1
  Na  Na7  1  0.24757210  0.75242790  0.48475969  1
  Zr  Zr8  1  0.00000000  0.50000000  -0.00000000  1
  Zr  Zr9  1  0.50000000  -0.00000000  0.00000000  1
  Zr  Zr10  1  0.00000000  0.50000000  0.50000000  1
  Zr  Zr11  1  0.50000000  -0.00000000  0.50000000  1
  Si  Si12  1  0.27013940  0.50765699  0.83811011  1
  Si  Si13  1  0.50765699  0.27013940  0.16188989  1
  Si  Si14  1  0.00765699  0.77013940  0.33811011  1
  Si  Si15  1  0.77013940  0.00765699  0.66188989  1
  Si  Si16  1  0.72986060  0.49234301  0.16188989  1
  Si  Si17  1  0.49234301  0.72986060  0.83811011  1
  Si  Si18  1  0.99234301  0.22986060  0.66188989  1
  Si  Si19  1  0.22986060  0.99234301  0.33811011  1
  Si  Si20  1  0.99027573  0.79130564  0.12313726  1
  Si  Si21  1  0.79130564  0.99027573  0.87686274  1
  Si  Si22  1  0.29130564  0.49027573  0.62313726  1
  Si  Si23  1  0.49027573  0.29130564  0.37686274  1
  Si  Si24  1  0.00972427  0.20869436  0.87686274  1
  Si  Si25  1  0.20869436  0.00972427  0.12313726  1
  Si  Si26  1  0.70869436  0.50972427  0.37686274  1
  Si  Si27  1  0.50972427  0.70869436  0.62313726  1
  Si  Si28  1  0.78408643  0.68601141  0.85831200  1
  Si  Si29  1  0.68601141  0.78408643  0.14168800  1
  Si  Si30  1  0.18601141  0.28408643  0.35831200  1
  Si  Si31  1  0.28408643  0.18601141  0.64168800  1
  Si  Si32  1  0.21591357  0.31398859  0.14168800  1
  Si  Si33  1  0.31398859  0.21591357  0.85831200  1
  Si  Si34  1  0.81398859  0.71591357  0.64168800  1
  Si  Si35  1  0.71591357  0.81398859  0.35831200  1
  O  O36  1  0.81760648  0.83569208  0.89167179  1
  O  O37  1  0.83569208  0.81760648  0.10832821  1
  O  O38  1  0.33569208  0.31760648  0.39167179  1
  O  O39  1  0.31760648  0.33569208  0.60832821  1
  O  O40  1  0.18239352  0.16430792  0.10832821  1
  O  O41  1  0.16430792  0.18239352  0.89167179  1
  O  O42  1  0.66430792  0.68239352  0.60832821  1
  O  O43  1  0.68239352  0.66430792  0.39167179  1
  O  O44  1  0.23064973  0.50896734  0.72827440  1
  O  O45  1  0.50896734  0.23064973  0.27172560  1
  O  O46  1  0.00896734  0.73064973  0.22827440  1
  O  O47  1  0.73064973  0.00896734  0.77172560  1
  O  O48  1  0.76935027  0.49103266  0.27172560  1
  O  O49  1  0.49103266  0.76935027  0.72827440  1
  O  O50  1  0.99103266  0.26935027  0.77172560  1
  O  O51  1  0.26935027  0.99103266  0.22827440  1
  O  O52  1  0.82934617  0.67065383  0.75000000  1
  O  O53  1  0.67065383  0.82934617  0.25000000  1
  O  O54  1  0.17065383  0.32934617  0.25000000  1
  O  O55  1  0.32934617  0.17065383  0.75000000  1
  O  O56  1  0.86139822  0.57860217  0.91389086  1
  O  O57  1  0.57860217  0.86139822  0.08610914  1
  O  O58  1  0.07860217  0.36139822  0.41389086  1
  O  O59  1  0.36139822  0.07860217  0.58610914  1
  O  O60  1  0.13860178  0.42139783  0.08610914  1
  O  O61  1  0.42139783  0.13860178  0.91389086  1
  O  O62  1  0.92139783  0.63860178  0.58610914  1
  O  O63  1  0.63860178  0.92139783  0.41389086  1
  O  O64  1  0.06671235  0.93328765  0.11765620  1
  O  O65  1  0.93328765  0.06671235  0.88234380  1
  O  O66  1  0.43328765  0.56671235  0.61765620  1
  O  O67  1  0.56671235  0.43328765  0.38234380  1
  O  O68  1  0.86286751  0.46918031  0.10631637  1
  O  O69  1  0.46918031  0.86286751  0.89368363  1
  O  O70  1  0.96918031  0.36286751  0.60631637  1
  O  O71  1  0.36286751  0.96918031  0.39368363  1
  O  O72  1  0.13713249  0.53081969  0.89368363  1
  O  O73  1  0.53081969  0.13713249  0.10631637  1
  O  O74  1  0.03081969  0.63713249  0.39368363  1
  O  O75  1  0.63713249  0.03081969  0.60631637  1
  O  O76  1  0.65710340  0.62596090  0.13583750  1
  O  O77  1  0.62596090  0.65710340  0.86416250  1
  O  O78  1  0.12596090  0.15710340  0.63583750  1
  O  O79  1  0.15710340  0.12596090  0.36416250  1
  O  O80  1  0.34289660  0.37403910  0.86416250  1
  O  O81  1  0.37403910  0.34289660  0.13583750  1
  O  O82  1  0.87403910  0.84289660  0.36416250  1
  O  O83  1  0.84289660  0.87403910  0.63583750  1
  O  O84  1  0.63058878  0.36941122  0.13701452  1
  O  O85  1  0.36941122  0.63058878  0.86298548  1
  O  O86  1  0.86941122  0.13058878  0.63701452  1
  O  O87  1  0.13058878  0.86941122  0.36298548  1
  O  O88  1  0.05065044  0.68966520  0.05158625  1
  O  O89  1  0.68966520  0.05065044  0.94841375  1
  O  O90  1  0.18966520  0.55065044  0.55158625  1
  O  O91  1  0.55065044  0.18966520  0.44841375  1
  O  O92  1  0.94934956  0.31033480  0.94841375  1
  O  O93  1  0.31033480  0.94934956  0.05158625  1
  O  O94  1  0.81033480  0.44934956  0.44841375  1
  O  O95  1  0.44934956  0.81033480  0.55158625  1
