# generated using pymatgen
data_Sr2TlCl5
_symmetry_space_group_name_H-M   'P 1'
_cell_length_a   7.88472357
_cell_length_b   8.99148173
_cell_length_c   12.72713879
_cell_angle_alpha   90.04189820
_cell_angle_beta   90.00000000
_cell_angle_gamma   90.00000000
_symmetry_Int_Tables_number   1
_chemical_formula_structural   Sr2TlCl5
_chemical_formula_sum   'Sr8 Tl4 Cl20'
_cell_volume   902.29469198
_cell_formula_units_Z   4
loop_
 _symmetry_equiv_pos_site_id
 _symmetry_equiv_pos_as_xyz
  1  'x, y, z'
loop_
 _atom_site_type_symbol
 _atom_site_label
 _atom_site_symmetry_multiplicity
 _atom_site_fract_x
 _atom_site_fract_y
 _atom_site_fract_z
 _atom_site_occupancy
  Sr  Sr0  1  0.47597626  -0.00137855  0.82227941  1
  Sr  Sr1  1  0.52402374  0.00137855  0.17772059  1
  Sr  Sr2  1  0.97597626  0.00137855  0.67772059  1
  Sr  Sr3  1  0.02402374  -0.00137855  0.32227941  1
  Sr  Sr4  1  0.43239554  0.75078329  0.50575640  1
  Sr  Sr5  1  0.56760446  0.24921671  0.49424360  1
  Sr  Sr6  1  0.93239554  0.24921671  0.99424360  1
  Sr  Sr7  1  0.06760446  0.75078329  0.00575640  1
  Tl  Tl8  1  0.46323829  0.48918107  0.83352149  1
  Tl  Tl9  1  0.53676171  0.51081893  0.16647851  1
  Tl  Tl10  1  0.96323829  0.51081893  0.66647851  1
  Tl  Tl11  1  0.03676171  0.48918107  0.33352149  1
  Cl  Cl12  1  0.33619715  0.46577935  0.59208136  1
  Cl  Cl13  1  0.66380285  0.53422065  0.40791864  1
  Cl  Cl14  1  0.83619715  0.53422065  0.90791864  1
  Cl  Cl15  1  0.16380285  0.46577935  0.09208136  1
  Cl  Cl16  1  0.66914762  0.78671769  0.68307113  1
  Cl  Cl17  1  0.33085238  0.21328231  0.31692887  1
  Cl  Cl18  1  0.16914762  0.21328231  0.81692887  1
  Cl  Cl19  1  0.83085238  0.78671769  0.18307113  1
  Cl  Cl20  1  0.19219120  0.77381133  0.78322368  1
  Cl  Cl21  1  0.80780880  0.22618867  0.21677632  1
  Cl  Cl22  1  0.69219120  0.22618867  0.71677632  1
  Cl  Cl23  1  0.30780880  0.77381133  0.28322368  1
  Cl  Cl24  1  0.04798054  0.78488273  0.50271100  1
  Cl  Cl25  1  0.95201946  0.21511727  0.49728900  1
  Cl  Cl26  1  0.54798054  0.21511727  0.99728900  1
  Cl  Cl27  1  0.45201946  0.78488273  0.00271100  1
  Cl  Cl28  1  0.83915413  0.96132852  0.90038734  1
  Cl  Cl29  1  0.16084587  0.03867148  0.09961266  1
  Cl  Cl30  1  0.33915413  0.03867148  0.59961266  1
  Cl  Cl31  1  0.66084587  0.96132852  0.40038734  1
