# generated using pymatgen
data_Na3PrV2O8
_symmetry_space_group_name_H-M   'P 1'
_cell_length_a   5.69751526
_cell_length_b   14.31607493
_cell_length_c   19.75428483
_cell_angle_alpha   90.00000000
_cell_angle_beta   90.00000000
_cell_angle_gamma   90.00000000
_symmetry_Int_Tables_number   1
_chemical_formula_structural   Na3PrV2O8
_chemical_formula_sum   'Na24 Pr8 V16 O64'
_cell_volume   1611.27909038
_cell_formula_units_Z   8
loop_
 _symmetry_equiv_pos_site_id
 _symmetry_equiv_pos_as_xyz
  1  'x, y, z'
loop_
 _atom_site_type_symbol
 _atom_site_label
 _atom_site_symmetry_multiplicity
 _atom_site_fract_x
 _atom_site_fract_y
 _atom_site_fract_z
 _atom_site_occupancy
  Na  Na0  1  0.97728928  0.21666106  0.99345683  1
  Na  Na1  1  0.02271072  0.78333894  0.49345683  1
  Na  Na2  1  0.02271072  0.71666106  0.99345683  1
  Na  Na3  1  0.97728928  0.28333894  0.49345683  1
  Na  Na4  1  0.98247247  0.95174547  0.64714781  1
  Na  Na5  1  0.01752753  0.04825453  0.14714781  1
  Na  Na6  1  0.01752753  0.45174547  0.64714781  1
  Na  Na7  1  0.98247247  0.54825453  0.14714781  1
  Na  Na8  1  0.98794164  0.86362222  0.82673875  1
  Na  Na9  1  0.01205836  0.13637778  0.32673875  1
  Na  Na10  1  0.01205836  0.36362222  0.82673875  1
  Na  Na11  1  0.98794164  0.63637778  0.32673875  1
  Na  Na12  1  0.46859680  0.79818499  0.73278475  1
  Na  Na13  1  0.53140320  0.20181501  0.23278475  1
  Na  Na14  1  0.53140320  0.29818499  0.73278475  1
  Na  Na15  1  0.46859680  0.70181501  0.23278475  1
  Na  Na16  1  0.54254448  0.96771000  0.88871453  1
  Na  Na17  1  0.45745552  0.03229000  0.38871453  1
  Na  Na18  1  0.45745552  0.46771000  0.88871453  1
  Na  Na19  1  0.54254448  0.53229000  0.38871453  1
  Na  Na20  1  0.49412679  0.88329123  0.55206032  1
  Na  Na21  1  0.50587321  0.11670877  0.05206032  1
  Na  Na22  1  0.50587321  0.38329123  0.55206032  1
  Na  Na23  1  0.49412679  0.61670877  0.05206032  1
  Pr  Pr24  1  0.92580472  0.61144115  0.80339251  1
  Pr  Pr25  1  0.07419528  0.38855885  0.30339251  1
  Pr  Pr26  1  0.07419528  0.11144115  0.80339251  1
  Pr  Pr27  1  0.92580472  0.88855885  0.30339251  1
  Pr  Pr28  1  0.56296271  0.63706758  0.57391348  1
  Pr  Pr29  1  0.43703729  0.36293242  0.07391348  1
  Pr  Pr30  1  0.43703729  0.13706758  0.57391348  1
  Pr  Pr31  1  0.56296271  0.86293242  0.07391348  1
  V  V32  1  0.96358810  0.47480578  0.98113386  1
  V  V33  1  0.03641190  0.52519422  0.48113386  1
  V  V34  1  0.03641190  0.97480578  0.98113386  1
  V  V35  1  0.96358810  0.02519422  0.48113386  1
  V  V36  1  0.98476710  0.22655266  0.65272029  1
  V  V37  1  0.01523290  0.77344734  0.15272029  1
  V  V38  1  0.01523290  0.72655266  0.65272029  1
  V  V39  1  0.98476710  0.27344734  0.15272029  1
  V  V40  1  0.47355406  0.52231157  0.72367844  1
  V  V41  1  0.52644594  0.47768843  0.22367844  1
  V  V42  1  0.52644594  0.02231157  0.72367844  1
  V  V43  1  0.47355406  0.97768843  0.22367844  1
  V  V44  1  0.45565033  0.72560060  0.89613687  1
  V  V45  1  0.54434967  0.27439940  0.39613687  1
  V  V46  1  0.54434967  0.22560060  0.89613687  1
  V  V47  1  0.45565033  0.77439940  0.39613687  1
  O  O48  1  0.58539690  0.81182264  0.84798615  1
  O  O49  1  0.41460310  0.18817736  0.34798615  1
  O  O50  1  0.41460310  0.31182264  0.84798615  1
  O  O51  1  0.58539690  0.68817736  0.34798615  1
  O  O52  1  0.70057186  0.46586787  0.76635374  1
  O  O53  1  0.29942814  0.53413213  0.26635374  1
  O  O54  1  0.29942814  0.96586787  0.76635374  1
  O  O55  1  0.70057186  0.03413213  0.26635374  1
  O  O56  1  0.89088607  0.87033629  0.99878275  1
  O  O57  1  0.10911393  0.12966371  0.49878275  1
  O  O58  1  0.10911393  0.37033629  0.99878275  1
  O  O59  1  0.89088607  0.62966371  0.49878275  1
  O  O60  1  0.79571675  0.78406491  0.60792244  1
  O  O61  1  0.20428325  0.21593509  0.10792244  1
  O  O62  1  0.20428325  0.28406491  0.60792244  1
  O  O63  1  0.79571675  0.71593509  0.10792244  1
  O  O64  1  0.66033725  0.46404602  0.99815899  1
  O  O65  1  0.33966275  0.53595398  0.49815899  1
  O  O66  1  0.33966275  0.96404602  0.99815899  1
  O  O67  1  0.66033725  0.03595398  0.49815899  1
  O  O68  1  0.90924200  0.43967703  0.53041452  1
  O  O69  1  0.09075800  0.56032297  0.03041452  1
  O  O70  1  0.09075800  0.93967703  0.53041452  1
  O  O71  1  0.90924200  0.06032297  0.03041452  1
  O  O72  1  0.79559775  0.99505696  0.76102949  1
  O  O73  1  0.20440225  0.00494304  0.26102949  1
  O  O74  1  0.20440225  0.49505696  0.76102949  1
  O  O75  1  0.79559775  0.50494304  0.26102949  1
  O  O76  1  0.60504217  0.62135901  0.87995895  1
  O  O77  1  0.39495783  0.37864099  0.37995895  1
  O  O78  1  0.39495783  0.12135901  0.87995895  1
  O  O79  1  0.60504217  0.87864099  0.37995895  1
  O  O80  1  0.53846697  0.63984174  0.72794792  1
  O  O81  1  0.46153303  0.36015826  0.22794792  1
  O  O82  1  0.46153303  0.13984174  0.72794792  1
  O  O83  1  0.53846697  0.86015826  0.22794792  1
  O  O84  1  0.94544292  0.60951232  0.64837320  1
  O  O85  1  0.05455708  0.39048768  0.14837320  1
  O  O86  1  0.05455708  0.10951232  0.64837320  1
  O  O87  1  0.94544292  0.89048768  0.14837320  1
  O  O88  1  0.84461487  0.21405088  0.87561393  1
  O  O89  1  0.15538513  0.78594912  0.37561393  1
  O  O90  1  0.15538513  0.71405088  0.87561393  1
  O  O91  1  0.84461487  0.28594912  0.37561393  1
  O  O92  1  0.98734877  0.25809463  0.73808544  1
  O  O93  1  0.01265123  0.74190537  0.23808544  1
  O  O94  1  0.01265123  0.75809463  0.73808544  1
  O  O95  1  0.98734877  0.24190537  0.23808544  1
  O  O96  1  0.53191109  0.99138163  0.63829465  1
  O  O97  1  0.46808891  0.00861837  0.13829465  1
  O  O98  1  0.46808891  0.49138163  0.63829465  1
  O  O99  1  0.53191109  0.50861837  0.13829465  1
  O  O100  1  0.98341505  0.99915093  0.89556244  1
  O  O101  1  0.01658495  0.00084907  0.39556244  1
  O  O102  1  0.01658495  0.49915093  0.89556244  1
  O  O103  1  0.98341505  0.50084907  0.39556244  1
  O  O104  1  0.28874603  0.75327503  0.61775487  1
  O  O105  1  0.71125397  0.24672497  0.11775487  1
  O  O106  1  0.71125397  0.25327503  0.61775487  1
  O  O107  1  0.28874603  0.74672497  0.11775487  1
  O  O108  1  0.47094485  0.74987002  0.98248208  1
  O  O109  1  0.52905515  0.25012998  0.48248208  1
  O  O110  1  0.52905515  0.24987002  0.98248208  1
  O  O111  1  0.47094485  0.75012998  0.48248208  1
