# generated using pymatgen
data_K2Nd2Mg(SO4)4
_symmetry_space_group_name_H-M   'P 1'
_cell_length_a   5.90102379
_cell_length_b   6.97131658
_cell_length_c   10.18100049
_cell_angle_alpha   109.20041045
_cell_angle_beta   92.72437352
_cell_angle_gamma   90.85921413
_symmetry_Int_Tables_number   1
_chemical_formula_structural   K2Nd2Mg(SO4)4
_chemical_formula_sum   'K2 Nd2 Mg1 S4 O16'
_cell_volume   394.87213192
_cell_formula_units_Z   1
loop_
 _symmetry_equiv_pos_site_id
 _symmetry_equiv_pos_as_xyz
  1  'x, y, z'
loop_
 _atom_site_type_symbol
 _atom_site_label
 _atom_site_symmetry_multiplicity
 _atom_site_fract_x
 _atom_site_fract_y
 _atom_site_fract_z
 _atom_site_occupancy
  K  K0  1  0.72424300  0.18640000  0.27371500  1
  K  K1  1  0.28793000  0.83080900  0.71300000  1
  Nd  Nd2  1  0.23530300  0.64405000  0.28275900  1
  Nd  Nd3  1  0.77063100  0.35487100  0.72374600  1
  Mg  Mg4  1  0.22494300  0.96536600  0.05299300  1
  S  S5  1  0.23271800  0.35958600  0.88554100  1
  S  S6  1  0.75746200  0.76336400  0.54820900  1
  S  S7  1  0.77298400  0.65404600  0.11754400  1
  S  S8  1  0.24438300  0.23411300  0.45659000  1
  O  O9  1  0.73323200  0.58684900  0.96545700  1
  O  O10  1  0.22367700  0.33024300  0.34404400  1
  O  O11  1  0.77597900  0.66932300  0.66103500  1
  O  O12  1  0.97373300  0.73220000  0.47502100  1
  O  O13  1  0.28384500  0.01445200  0.38996300  1
  O  O14  1  0.43935000  0.25645600  0.82218600  1
  O  O15  1  0.96851600  0.81213400  0.16169200  1
  O  O16  1  0.16530800  0.52106000  0.82537400  1
  O  O17  1  0.02697100  0.26248000  0.52791700  1
  O  O18  1  0.57147300  0.75481500  0.18884900  1
  O  O19  1  0.84537200  0.48760300  0.17056800  1
  O  O20  1  0.27077700  0.44327100  0.03849200  1
  O  O21  1  0.03878500  0.20446600  0.84488300  1
  O  O22  1  0.71753100  0.98276200  0.61276600  1
  O  O23  1  0.44123500  0.32936000  0.55301900  1
  O  O24  1  0.56111900  0.66621700  0.45035000  1
