# generated using pymatgen
data_Cs3VF6
_symmetry_space_group_name_H-M   'P 1'
_cell_length_a   6.69140766
_cell_length_b   6.69140117
_cell_length_c   6.69141198
_cell_angle_alpha   60.00001070
_cell_angle_beta   59.99991453
_cell_angle_gamma   60.00007477
_symmetry_Int_Tables_number   1
_chemical_formula_structural   Cs3VF6
_chemical_formula_sum   'Cs3 V1 F6'
_cell_volume   211.85432214
_cell_formula_units_Z   1
loop_
 _symmetry_equiv_pos_site_id
 _symmetry_equiv_pos_as_xyz
  1  'x, y, z'
loop_
 _atom_site_type_symbol
 _atom_site_label
 _atom_site_symmetry_multiplicity
 _atom_site_fract_x
 _atom_site_fract_y
 _atom_site_fract_z
 _atom_site_occupancy
  Cs  Cs0  1  0.25000000  0.25000000  0.25000000  1
  Cs  Cs1  1  0.75000000  0.75000000  0.75000000  1
  Cs  Cs2  1  0.50000000  0.50000000  0.50000000  1
  V  V3  1  -0.00000000  -0.00000000  0.00000000  1
  F  F4  1  0.79441684  0.20558316  0.20558316  1
  F  F5  1  0.20558316  0.79441684  0.79441684  1
  F  F6  1  0.20558416  0.79441584  0.20558416  1
  F  F7  1  0.79441584  0.20558416  0.79441584  1
  F  F8  1  0.20558316  0.20558316  0.79441684  1
  F  F9  1  0.79441684  0.79441684  0.20558316  1
