# generated using pymatgen
data_Sm9In(SiS7)3
_symmetry_space_group_name_H-M   'P 1'
_cell_length_a   11.63305664
_cell_length_b   11.63299962
_cell_length_c   11.63316715
_cell_angle_alpha   98.03175308
_cell_angle_beta   81.97049095
_cell_angle_gamma   81.96814100
_symmetry_Int_Tables_number   1
_chemical_formula_structural   Sm9In(SiS7)3
_chemical_formula_sum   'Sm18 In2 Si6 S42'
_cell_volume   1523.06725704
_cell_formula_units_Z   2
loop_
 _symmetry_equiv_pos_site_id
 _symmetry_equiv_pos_as_xyz
  1  'x, y, z'
loop_
 _atom_site_type_symbol
 _atom_site_label
 _atom_site_symmetry_multiplicity
 _atom_site_fract_x
 _atom_site_fract_y
 _atom_site_fract_z
 _atom_site_occupancy
  Sm  Sm0  1  0.64899358  0.22453599  0.98840715  1
  Sm  Sm1  1  0.31973323  0.56094100  0.33636821  1
  Sm  Sm2  1  0.97143382  0.89916208  0.66389676  1
  Sm  Sm3  1  0.33611611  0.02859518  0.89915449  1
  Sm  Sm4  1  0.01163461  0.35103017  0.22452939  1
  Sm  Sm5  1  0.66361836  0.68019808  0.56090695  1
  Sm  Sm6  1  0.43907118  0.33635311  0.68019147  1
  Sm  Sm7  1  0.10086286  0.66391514  0.02856592  1
  Sm  Sm8  1  0.77544997  0.98842106  0.35105919  1
  Sm  Sm9  1  0.12874818  0.99153119  0.21484614  1
  Sm  Sm10  1  0.80067702  0.32752763  0.56382314  1
  Sm  Sm11  1  0.47511065  0.65167653  0.88801042  1
  Sm  Sm12  1  0.43617880  0.19931607  0.32753463  1
  Sm  Sm13  1  0.11198427  0.52490612  0.65168180  1
  Sm  Sm14  1  0.78512219  0.87122369  0.99156476  1
  Sm  Sm15  1  0.34831102  0.88800561  0.52493441  1
  Sm  Sm16  1  0.00843125  0.21487390  0.87124542  1
  Sm  Sm17  1  0.67243673  0.56380803  0.19932716  1
  In  In18  1  0.22863683  0.77136290  0.77138607  1
  In  In19  1  0.72862860  0.27137976  0.27141368  1
  Si  Si20  1  0.44399900  0.88754520  0.22139408  1
  Si  Si21  1  0.11243333  0.22137461  0.55601914  1
  Si  Si22  1  0.77862886  0.55600725  0.88759714  1
  Si  Si23  1  0.94504591  0.72122120  0.38885127  1
  Si  Si24  1  0.61112884  0.05495172  0.72121305  1
  Si  Si25  1  0.27883341  0.38888811  0.05489041  1
  S  S26  1  0.73249381  0.92932934  0.59792597  1
  S  S27  1  0.40208587  0.26755915  0.92930260  1
  S  S28  1  0.07063412  0.59795639  0.26750562  1
  S  S29  1  0.57022507  0.76765695  0.09728601  1
  S  S30  1  0.23229610  0.09731147  0.42977031  1
  S  S31  1  0.90272693  0.42976597  0.76770188  1
  S  S32  1  0.66999986  0.07715952  0.16340847  1
  S  S33  1  0.33646242  0.40433470  0.49512335  1
  S  S34  1  0.01159278  0.73575914  0.82536575  1
  S  S35  1  0.50480926  0.66350370  0.40434148  1
  S  S36  1  0.17463710  0.98840799  0.73575136  1
  S  S37  1  0.83660685  0.33002449  0.07714760  1
  S  S38  1  0.26424009  0.82539491  0.98845636  1
  S  S39  1  0.92283632  0.16336187  0.32996732  1
  S  S40  1  0.59568067  0.49512676  0.66355684  1
  S  S41  1  0.78876811  0.46369276  0.37431545  1
  S  S42  1  0.44949465  0.80390795  0.71667499  1
  S  S43  1  0.12158788  0.13747918  0.04700483  1
  S  S44  1  0.95300761  0.87838990  0.13747508  1
  S  S45  1  0.62568324  0.21121982  0.46372994  1
  S  S46  1  0.28334725  0.55052924  0.80387106  1
  S  S47  1  0.19606363  0.71670024  0.55052192  1
  S  S48  1  0.86253537  0.04696506  0.87842596  1
  S  S49  1  0.53635104  0.37423343  0.21119033  1
  S  S50  1  0.29322234  0.81593445  0.28931362  1
  S  S51  1  0.96354335  0.14864128  0.62766811  1
  S  S52  1  0.63154748  0.48088691  0.96108063  1
  S  S53  1  0.37234650  0.03644222  0.14865005  1
  S  S54  1  0.03890577  0.36847240  0.48090235  1
  S  S55  1  0.71068938  0.70675685  0.81592477  1
  S  S56  1  0.51907792  0.96105526  0.36849343  1
  S  S57  1  0.18404180  0.28932589  0.70679297  1
  S  S58  1  0.85134852  0.62767649  0.03646937  1
  S  S59  1  0.99642523  0.89242728  0.41599993  1
  S  S60  1  0.66122395  0.22661628  0.74491794  1
  S  S61  1  0.33080970  0.55889992  0.08490120  1
  S  S62  1  0.91508042  0.66922166  0.55885911  1
  S  S63  1  0.58398376  0.00357760  0.89241314  1
  S  S64  1  0.25511347  0.33880710  0.22658808  1
  S  S65  1  0.77335431  0.74491610  0.33876833  1
  S  S66  1  0.44112665  0.08491693  0.66921280  1
  S  S67  1  0.10761079  0.41603813  0.00354549  1
