# generated using pymatgen
data_Rb2MoS4
_symmetry_space_group_name_H-M   'P 1'
_cell_length_a   7.06149462
_cell_length_b   9.76420902
_cell_length_c   12.53190343
_cell_angle_alpha   90.00000000
_cell_angle_beta   90.00000000
_cell_angle_gamma   90.00000000
_symmetry_Int_Tables_number   1
_chemical_formula_structural   Rb2MoS4
_chemical_formula_sum   'Rb8 Mo4 S16'
_cell_volume   864.07360690
_cell_formula_units_Z   4
loop_
 _symmetry_equiv_pos_site_id
 _symmetry_equiv_pos_as_xyz
  1  'x, y, z'
loop_
 _atom_site_type_symbol
 _atom_site_label
 _atom_site_symmetry_multiplicity
 _atom_site_fract_x
 _atom_site_fract_y
 _atom_site_fract_z
 _atom_site_occupancy
  Rb  Rb0  1  0.75000000  0.46177733  0.33201195  1
  Rb  Rb1  1  0.25000000  0.34565094  0.10516604  1
  Rb  Rb2  1  0.75000000  0.65434906  0.89483396  1
  Rb  Rb3  1  0.25000000  0.84565094  0.39483396  1
  Rb  Rb4  1  0.25000000  0.03822267  0.83201195  1
  Rb  Rb5  1  0.75000000  0.96177733  0.16798805  1
  Rb  Rb6  1  0.75000000  0.15434906  0.60516604  1
  Rb  Rb7  1  0.25000000  0.53822267  0.66798805  1
  Mo  Mo8  1  0.75000000  0.74564997  0.57337864  1
  Mo  Mo9  1  0.25000000  0.25435003  0.42662136  1
  Mo  Mo10  1  0.75000000  0.24564997  0.92662136  1
  Mo  Mo11  1  0.25000000  0.75435003  0.07337864  1
  S  S12  1  0.50031614  0.16062992  0.35555969  1
  S  S13  1  0.99968386  0.16062992  0.35555969  1
  S  S14  1  0.49968386  0.83937008  0.64444031  1
  S  S15  1  0.50031614  0.66062992  0.14444031  1
  S  S16  1  0.25000000  0.97546649  0.10533013  1
  S  S17  1  0.75000000  0.02453351  0.89466987  1
  S  S18  1  0.25000000  0.47546649  0.39466987  1
  S  S19  1  0.75000000  0.52453351  0.60533013  1
  S  S20  1  0.25000000  0.71319329  0.90184961  1
  S  S21  1  0.75000000  0.28680671  0.09815039  1
  S  S22  1  0.25000000  0.21319329  0.59815039  1
  S  S23  1  0.00031614  0.83937008  0.64444031  1
  S  S24  1  0.99968386  0.66062992  0.14444031  1
  S  S25  1  0.49968386  0.33937008  0.85555969  1
  S  S26  1  0.75000000  0.78680671  0.40184961  1
  S  S27  1  0.00031614  0.33937008  0.85555969  1
