# generated using pymatgen
data_Pr2ZrSe5
_symmetry_space_group_name_H-M   'P 1'
_cell_length_a   7.77333928
_cell_length_b   8.39032547
_cell_length_c   12.24834248
_cell_angle_alpha   90.00000000
_cell_angle_beta   90.00000000
_cell_angle_gamma   90.00000000
_symmetry_Int_Tables_number   1
_chemical_formula_structural   Pr2ZrSe5
_chemical_formula_sum   'Pr8 Zr4 Se20'
_cell_volume   798.84726535
_cell_formula_units_Z   4
loop_
 _symmetry_equiv_pos_site_id
 _symmetry_equiv_pos_as_xyz
  1  'x, y, z'
loop_
 _atom_site_type_symbol
 _atom_site_label
 _atom_site_symmetry_multiplicity
 _atom_site_fract_x
 _atom_site_fract_y
 _atom_site_fract_z
 _atom_site_occupancy
  Pr  Pr0  1  0.46453760  0.49757633  0.17679519  1
  Pr  Pr1  1  0.03546240  0.00242367  0.67679519  1
  Pr  Pr2  1  0.53546240  0.99757633  0.82320481  1
  Pr  Pr3  1  0.96453760  0.50242367  0.32320481  1
  Pr  Pr4  1  0.53546240  0.50242367  0.82320481  1
  Pr  Pr5  1  0.96453760  0.99757633  0.32320481  1
  Pr  Pr6  1  0.46453760  0.00242367  0.17679519  1
  Pr  Pr7  1  0.03546240  0.49757633  0.67679519  1
  Zr  Zr8  1  0.92308057  0.75000000  0.00758804  1
  Zr  Zr9  1  0.57691943  0.75000000  0.50758804  1
  Zr  Zr10  1  0.07691943  0.25000000  0.99241196  1
  Zr  Zr11  1  0.42308057  0.25000000  0.49241196  1
  Se  Se12  1  0.15742264  0.75000000  0.18332767  1
  Se  Se13  1  0.34257736  0.75000000  0.68332767  1
  Se  Se14  1  0.84257736  0.25000000  0.81667233  1
  Se  Se15  1  0.65742264  0.25000000  0.31667233  1
  Se  Se16  1  0.67758680  0.75000000  0.29345534  1
  Se  Se17  1  0.82241320  0.75000000  0.79345534  1
  Se  Se18  1  0.32241320  0.25000000  0.70654466  1
  Se  Se19  1  0.17758680  0.25000000  0.20654466  1
  Se  Se20  1  0.55524786  0.75000000  0.00468737  1
  Se  Se21  1  0.94475214  0.75000000  0.50468737  1
  Se  Se22  1  0.44475214  0.25000000  0.99531263  1
  Se  Se23  1  0.05524786  0.25000000  0.49531263  1
  Se  Se24  1  0.83431024  0.46347627  0.08514444  1
  Se  Se25  1  0.66568976  0.03652373  0.58514444  1
  Se  Se26  1  0.16568976  0.96347627  0.91485556  1
  Se  Se27  1  0.33431024  0.53652373  0.41485556  1
  Se  Se28  1  0.16568976  0.53652373  0.91485556  1
  Se  Se29  1  0.33431024  0.96347627  0.41485556  1
  Se  Se30  1  0.83431024  0.03652373  0.08514444  1
  Se  Se31  1  0.66568976  0.46347627  0.58514444  1
