# generated using pymatgen
data_B2Pb2O5
_symmetry_space_group_name_H-M   'P 1'
_cell_length_a   6.99571877
_cell_length_b   7.23332307
_cell_length_c   7.83609118
_cell_angle_alpha   76.22989367
_cell_angle_beta   76.50471291
_cell_angle_gamma   73.86154576
_symmetry_Int_Tables_number   1
_chemical_formula_structural   B2Pb2O5
_chemical_formula_sum   'B6 Pb6 O15'
_cell_volume   363.96129282
_cell_formula_units_Z   3
loop_
 _symmetry_equiv_pos_site_id
 _symmetry_equiv_pos_as_xyz
  1  'x, y, z'
loop_
 _atom_site_type_symbol
 _atom_site_label
 _atom_site_symmetry_multiplicity
 _atom_site_fract_x
 _atom_site_fract_y
 _atom_site_fract_z
 _atom_site_occupancy
  B  B0  1  0.21630265  0.09517704  0.49315359  1
  B  B1  1  0.21007086  0.10184931  0.16834044  1
  B  B2  1  0.88933926  0.28400640  0.01805365  1
  B  B3  1  0.72956125  0.57921634  0.80850632  1
  B  B4  1  0.87612830  0.24923896  0.70919223  1
  B  B5  1  0.17612689  0.79629990  0.40582107  1
  Pb  Pb6  1  0.68546895  0.93773110  0.01101144  1
  Pb  Pb7  1  0.25121732  0.89031767  0.86686125  1
  Pb  Pb8  1  0.43826209  0.42695714  0.18243472  1
  Pb  Pb9  1  0.88080489  0.49807689  0.33837641  1
  Pb  Pb10  1  0.70431685  0.02440414  0.49519249  1
  Pb  Pb11  1  0.35152508  0.40578768  0.67669144  1
  O  O12  1  0.34927503  0.10878127  0.60716030  1
  O  O13  1  0.73012859  0.12916820  0.74132674  1
  O  O14  1  0.72009231  0.19644565  0.11067726  1
  O  O15  1  0.61610588  0.76599944  0.78059469  1
  O  O16  1  0.80383709  0.50108180  0.96615991  1
  O  O17  1  0.99158916  0.20482786  0.85321294  1
  O  O18  1  0.19973700  0.88800616  0.53404232  1
  O  O19  1  0.35711139  0.08506467  0.00296200  1
  O  O20  1  0.01217548  0.22617069  0.53345154  1
  O  O21  1  0.30175490  0.14742697  0.30342710  1
  O  O22  1  0.15611624  0.90752602  0.23807581  1
  O  O23  1  0.17268751  0.60354642  0.44547959  1
  O  O24  1  0.03189077  0.26252644  0.13681880  1
  O  O25  1  0.58942435  0.37151829  0.41822201  1
  O  O26  1  0.76634990  0.46154654  0.68285491  1
