# generated using pymatgen
data_Cs4SnO4
_symmetry_space_group_name_H-M   'P 1'
_cell_length_a   7.35093645
_cell_length_b   11.74458703
_cell_length_c   11.78919169
_cell_angle_alpha   68.46324111
_cell_angle_beta   90.00000000
_cell_angle_gamma   90.00000000
_symmetry_Int_Tables_number   1
_chemical_formula_structural   Cs4SnO4
_chemical_formula_sum   'Cs16 Sn4 O16'
_cell_volume   946.74385023
_cell_formula_units_Z   4
loop_
 _symmetry_equiv_pos_site_id
 _symmetry_equiv_pos_as_xyz
  1  'x, y, z'
loop_
 _atom_site_type_symbol
 _atom_site_label
 _atom_site_symmetry_multiplicity
 _atom_site_fract_x
 _atom_site_fract_y
 _atom_site_fract_z
 _atom_site_occupancy
  Cs  Cs0  1  0.65998887  0.89067108  0.63262872  1
  Cs  Cs1  1  0.34001113  0.10932892  0.36737128  1
  Cs  Cs2  1  0.84001113  0.39067108  0.63262872  1
  Cs  Cs3  1  0.59171819  0.29936074  0.06008500  1
  Cs  Cs4  1  0.09171819  0.20063926  0.93991500  1
  Cs  Cs5  1  0.40828181  0.70063926  0.93991500  1
  Cs  Cs6  1  0.90828181  0.79936074  0.06008500  1
  Cs  Cs7  1  0.61319052  0.08656544  0.84218914  1
  Cs  Cs8  1  0.11319052  0.41343456  0.15781086  1
  Cs  Cs9  1  0.38680948  0.91343456  0.15781086  1
  Cs  Cs10  1  0.88680948  0.58656544  0.84218914  1
  Cs  Cs11  1  0.67510888  0.70402693  0.42832181  1
  Cs  Cs12  1  0.17510888  0.79597307  0.57167819  1
  Cs  Cs13  1  0.32489112  0.29597307  0.57167819  1
  Cs  Cs14  1  0.82489112  0.20402693  0.42832181  1
  Cs  Cs15  1  0.15998887  0.60932892  0.36737128  1
  Sn  Sn16  1  0.37141265  0.49349671  0.75845179  1
  Sn  Sn17  1  0.87141265  0.00650329  0.24154821  1
  Sn  Sn18  1  0.12858735  0.99349671  0.75845179  1
  Sn  Sn19  1  0.62858735  0.50650329  0.24154821  1
  O  O20  1  0.23673329  0.97268948  0.91866432  1
  O  O21  1  0.00793462  0.15892004  0.21847798  1
  O  O22  1  0.50793462  0.34107996  0.78152202  1
  O  O23  1  0.99206538  0.84107996  0.78152202  1
  O  O24  1  0.73673329  0.52731052  0.08133568  1
  O  O25  1  0.76326671  0.02731052  0.08133568  1
  O  O26  1  0.26326671  0.47268948  0.91866432  1
  O  O27  1  0.32604316  0.01665872  0.63718982  1
  O  O28  1  0.82604316  0.48334128  0.36281018  1
  O  O29  1  0.67395684  0.98334128  0.36281018  1
  O  O30  1  0.17395684  0.51665872  0.63718982  1
  O  O31  1  0.02680882  0.85790400  0.30259463  1
  O  O32  1  0.52680882  0.64209600  0.69740537  1
  O  O33  1  0.97319118  0.14209600  0.69740537  1
  O  O34  1  0.47319118  0.35790400  0.30259463  1
  O  O35  1  0.49206538  0.65892004  0.21847798  1
