# generated using pymatgen
data_TeHO3
_symmetry_space_group_name_H-M   'P 1'
_cell_length_a   4.74930327
_cell_length_b   8.03532110
_cell_length_c   12.07919741
_cell_angle_alpha   90.00000000
_cell_angle_beta   90.00000000
_cell_angle_gamma   90.00000000
_symmetry_Int_Tables_number   1
_chemical_formula_structural   TeHO3
_chemical_formula_sum   'Te8 H8 O24'
_cell_volume   460.96846687
_cell_formula_units_Z   8
loop_
 _symmetry_equiv_pos_site_id
 _symmetry_equiv_pos_as_xyz
  1  'x, y, z'
loop_
 _atom_site_type_symbol
 _atom_site_label
 _atom_site_symmetry_multiplicity
 _atom_site_fract_x
 _atom_site_fract_y
 _atom_site_fract_z
 _atom_site_occupancy
  Te  Te0  1  0.00225795  0.53418920  0.60990082  1
  Te  Te1  1  0.50225795  0.46581080  0.39009918  1
  Te  Te2  1  0.50225795  0.03418920  0.89009918  1
  Te  Te3  1  0.00225795  0.96581080  0.10990082  1
  Te  Te4  1  0.13602872  0.64107989  0.94005232  1
  Te  Te5  1  0.63602872  0.35892011  0.05994768  1
  Te  Te6  1  0.63602872  0.14107989  0.55994768  1
  Te  Te7  1  0.13602872  0.85892011  0.44005232  1
  H  H8  1  0.28379254  0.38463145  0.75036239  1
  H  H9  1  0.78379254  0.61536855  0.24963761  1
  H  H10  1  0.78379254  0.88463145  0.74963761  1
  H  H11  1  0.28379254  0.11536855  0.25036239  1
  H  H12  1  0.59199405  0.61200747  0.72133946  1
  H  H13  1  0.09199405  0.38799253  0.27866054  1
  H  H14  1  0.09199405  0.11200747  0.77866054  1
  H  H15  1  0.59199405  0.88799253  0.22133946  1
  O  O16  1  0.26619759  0.50420685  0.73141082  1
  O  O17  1  0.76619759  0.49579315  0.26858918  1
  O  O18  1  0.76619759  0.00420685  0.76858918  1
  O  O19  1  0.26619759  0.99579315  0.23141082  1
  O  O20  1  0.49421443  0.54589540  0.95227637  1
  O  O21  1  0.99421443  0.45410460  0.04772363  1
  O  O22  1  0.99421443  0.04589540  0.54772363  1
  O  O23  1  0.49421443  0.95410460  0.45227637  1
  O  O24  1  0.31511318  0.66260380  0.35354246  1
  O  O25  1  0.81511318  0.33739620  0.64645754  1
  O  O26  1  0.81511318  0.16260380  0.14645754  1
  O  O27  1  0.31511318  0.83739620  0.85354246  1
  O  O28  1  0.76277731  0.59080456  0.48449174  1
  O  O29  1  0.26277731  0.40919544  0.51550826  1
  O  O30  1  0.26277731  0.09080456  0.01550826  1
  O  O31  1  0.76277731  0.90919544  0.98449174  1
  O  O32  1  0.20080659  0.73522628  0.57623409  1
  O  O33  1  0.70080659  0.26477372  0.42376591  1
  O  O34  1  0.70080659  0.23522628  0.92376591  1
  O  O35  1  0.20080659  0.76477372  0.07623409  1
  O  O36  1  0.77462563  0.66729894  0.70768824  1
  O  O37  1  0.27462563  0.33270106  0.29231176  1
  O  O38  1  0.27462563  0.16729894  0.79231176  1
  O  O39  1  0.77462563  0.83270106  0.20768824  1
