# generated using pymatgen
data_TaMnO4
_symmetry_space_group_name_H-M   'P 1'
_cell_length_a   6.73853924
_cell_length_b   7.59315751
_cell_length_c   6.92098484
_cell_angle_alpha   60.98638477
_cell_angle_beta   94.08902977
_cell_angle_gamma   65.37278225
_symmetry_Int_Tables_number   1
_chemical_formula_structural   TaMnO4
_chemical_formula_sum   'Ta4 Mn4 O16'
_cell_volume   264.33925580
_cell_formula_units_Z   4
loop_
 _symmetry_equiv_pos_site_id
 _symmetry_equiv_pos_as_xyz
  1  'x, y, z'
loop_
 _atom_site_type_symbol
 _atom_site_label
 _atom_site_symmetry_multiplicity
 _atom_site_fract_x
 _atom_site_fract_y
 _atom_site_fract_z
 _atom_site_occupancy
  Ta  Ta0  1  0.70393198  0.33020136  0.45657894  1
  Ta  Ta1  1  0.20395356  0.33019566  0.95659429  1
  Ta  Ta2  1  0.79604623  0.66980399  0.04340568  1
  Ta  Ta3  1  0.29606804  0.66979845  0.54342080  1
  Mn  Mn4  1  0.70459803  0.84383095  0.45187932  1
  Mn  Mn5  1  0.29540232  0.15616790  0.54812151  1
  Mn  Mn6  1  0.20457882  0.84383874  0.95187865  1
  Mn  Mn7  1  0.79542100  0.15615989  0.04812145  1
  O  O8  1  0.46047181  0.88776979  0.87815339  1
  O  O9  1  0.96049225  0.88776931  0.37815630  1
  O  O10  1  0.03950791  0.11223068  0.62184371  1
  O  O11  1  0.53952845  0.11223003  0.12184643  1
  O  O12  1  0.91853182  0.86813132  0.98235273  1
  O  O13  1  0.41854921  0.86812995  0.48235049  1
  O  O14  1  0.58145096  0.13186962  0.51764976  1
  O  O15  1  0.08146829  0.13186813  0.01764707  1
  O  O16  1  0.36678883  0.62081813  0.28617496  1
  O  O17  1  0.86680266  0.62082382  0.78617036  1
  O  O18  1  0.13319750  0.37917618  0.21382896  1
  O  O19  1  0.63321123  0.37918204  0.71382430  1
  O  O20  1  0.77396677  0.60449879  0.34276842  1
  O  O21  1  0.27397934  0.60449639  0.84277993  1
  O  O22  1  0.72602073  0.39550319  0.15722006  1
  O  O23  1  0.22603326  0.39550070  0.65723150  1
