# generated using pymatgen
data_Rb3SbSe3
_symmetry_space_group_name_H-M   'P 1'
_cell_length_a   10.25133445
_cell_length_b   10.25133445
_cell_length_c   10.25133445
_cell_angle_alpha   90.00000000
_cell_angle_beta   90.00000000
_cell_angle_gamma   90.00000000
_symmetry_Int_Tables_number   1
_chemical_formula_structural   Rb3SbSe3
_chemical_formula_sum   'Rb12 Sb4 Se12'
_cell_volume   1077.31128172
_cell_formula_units_Z   4
loop_
 _symmetry_equiv_pos_site_id
 _symmetry_equiv_pos_as_xyz
  1  'x, y, z'
loop_
 _atom_site_type_symbol
 _atom_site_label
 _atom_site_symmetry_multiplicity
 _atom_site_fract_x
 _atom_site_fract_y
 _atom_site_fract_z
 _atom_site_occupancy
  Rb  Rb0  1  0.31667500  0.31667500  0.31667500  1
  Rb  Rb1  1  0.18332500  0.68332500  0.81667500  1
  Rb  Rb2  1  0.81667500  0.18332500  0.68332500  1
  Rb  Rb3  1  0.68332500  0.81667500  0.18332500  1
  Rb  Rb4  1  0.57685661  0.57685661  0.57685661  1
  Rb  Rb5  1  0.92314339  0.42314339  0.07685661  1
  Rb  Rb6  1  0.07685661  0.92314339  0.42314339  1
  Rb  Rb7  1  0.42314339  0.07685661  0.92314339  1
  Rb  Rb8  1  0.81155086  0.81155086  0.81155086  1
  Rb  Rb9  1  0.68844914  0.18844914  0.31155086  1
  Rb  Rb10  1  0.31155086  0.68844914  0.18844914  1
  Rb  Rb11  1  0.18844914  0.31155086  0.68844914  1
  Sb  Sb12  1  0.02641276  0.02641276  0.02641276  1
  Sb  Sb13  1  0.47358724  0.97358724  0.52641276  1
  Sb  Sb14  1  0.52641276  0.47358724  0.97358724  1
  Sb  Sb15  1  0.97358724  0.52641276  0.47358724  1
  Se  Se16  1  0.21349565  0.59908527  0.49590158  1
  Se  Se17  1  0.49590158  0.21349565  0.59908527  1
  Se  Se18  1  0.59908527  0.49590158  0.21349565  1
  Se  Se19  1  0.90091473  0.50409842  0.71349565  1
  Se  Se20  1  0.99590158  0.28650435  0.40091473  1
  Se  Se21  1  0.40091473  0.99590158  0.28650435  1
  Se  Se22  1  0.00409842  0.78650435  0.09908527  1
  Se  Se23  1  0.50409842  0.71349565  0.90091473  1
  Se  Se24  1  0.09908527  0.00409842  0.78650435  1
  Se  Se25  1  0.71349565  0.90091473  0.50409842  1
  Se  Se26  1  0.78650435  0.09908527  0.00409842  1
  Se  Se27  1  0.28650435  0.40091473  0.99590158  1
