# generated using pymatgen
data_MgV12Zn6O24
_symmetry_space_group_name_H-M   'P 1'
_cell_length_a   6.15345385
_cell_length_b   6.07155989
_cell_length_c   18.76565034
_cell_angle_alpha   60.42232076
_cell_angle_beta   60.49406708
_cell_angle_gamma   59.72901648
_symmetry_Int_Tables_number   1
_chemical_formula_structural   MgV12Zn6O24
_chemical_formula_sum   'Mg1 V12 Zn6 O24'
_cell_volume   498.11709770
_cell_formula_units_Z   1
loop_
 _symmetry_equiv_pos_site_id
 _symmetry_equiv_pos_as_xyz
  1  'x, y, z'
loop_
 _atom_site_type_symbol
 _atom_site_label
 _atom_site_symmetry_multiplicity
 _atom_site_fract_x
 _atom_site_fract_y
 _atom_site_fract_z
 _atom_site_occupancy
  Mg  Mg0  1  0.34046979  0.90761182  0.30617319  1
  V  V1  1  0.02162809  0.49053948  0.15519579  1
  V  V2  1  0.52356248  0.49103948  0.15503926  1
  V  V3  1  0.97856681  0.51633901  0.50829124  1
  V  V4  1  0.53589741  0.00058162  0.14263523  1
  V  V5  1  0.55425838  0.39239485  0.33263993  1
  V  V6  1  0.47703774  0.51665505  0.50836960  1
  V  V7  1  0.00118817  0.50262202  0.83264666  1
  V  V8  1  0.47592352  0.00478123  0.51346828  1
  V  V9  1  0.49829808  0.00595843  0.83195286  1
  V  V10  1  0.49286732  0.49832706  0.67133625  1
  V  V11  1  0.50110840  0.49915686  0.83285494  1
  V  V12  1  0.88558935  0.87557671  0.95140113  1
  Zn  Zn13  1  0.12994802  0.13362568  0.03536383  1
  Zn  Zn14  1  0.02373445  0.10530699  0.44784595  1
  Zn  Zn15  1  0.49731279  0.51771704  0.99621084  1
  Zn  Zn16  1  0.11828183  0.12979699  0.71096904  1
  Zn  Zn17  1  0.95103156  0.86343587  0.24601426  1
  Zn  Zn18  1  0.85692457  0.87518695  0.63632406  1
  O  O19  1  0.26632698  0.27366909  0.07454220  1
  O  O20  1  0.28475304  0.26250512  0.22318622  1
  O  O21  1  0.25329996  0.73396051  0.08676864  1
  O  O22  1  0.73674261  0.27465917  0.07386088  1
  O  O23  1  0.31392592  0.71730476  0.24387856  1
  O  O24  1  0.23960433  0.26611344  0.43606304  1
  O  O25  1  0.78097554  0.25003654  0.22949766  1
  O  O26  1  0.77360905  0.72245166  0.07740255  1
  O  O27  1  0.22560787  0.75358542  0.43133974  1
  O  O28  1  0.23699580  0.28252469  0.57983739  1
  O  O29  1  0.73976069  0.71724046  0.24372010  1
  O  O30  1  0.68360587  0.26636696  0.43609907  1
  O  O31  1  0.26290711  0.74454628  0.58929546  1
  O  O32  1  0.25285371  0.27339597  0.75279082  1
  O  O33  1  0.73083380  0.28009175  0.58437893  1
  O  O34  1  0.71089306  0.74048070  0.44539720  1
  O  O35  1  0.26477396  0.26313716  0.90172743  1
  O  O36  1  0.26235226  0.72093470  0.75586183  1
  O  O37  1  0.72228469  0.74366016  0.58942359  1
  O  O38  1  0.71410354  0.25934447  0.75290858  1
  O  O39  1  0.27806583  0.75955687  0.90524362  1
  O  O40  1  0.73380621  0.74086522  0.76381941  1
  O  O41  1  0.75424592  0.27198393  0.90326133  1
  O  O42  1  0.75778551  0.75076683  0.90496039  1
