# generated using pymatgen
data_Sr3(BO3)2
_symmetry_space_group_name_H-M   'P 1'
_cell_length_a   6.69264208
_cell_length_b   6.69264208
_cell_length_c   6.69264117
_cell_angle_alpha   85.34647714
_cell_angle_beta   85.34647714
_cell_angle_gamma   85.34648183
_symmetry_Int_Tables_number   1
_chemical_formula_structural   Sr3(BO3)2
_chemical_formula_sum   'Sr6 B4 O12'
_cell_volume   296.96034393
_cell_formula_units_Z   2
loop_
 _symmetry_equiv_pos_site_id
 _symmetry_equiv_pos_as_xyz
  1  'x, y, z'
loop_
 _atom_site_type_symbol
 _atom_site_label
 _atom_site_symmetry_multiplicity
 _atom_site_fract_x
 _atom_site_fract_y
 _atom_site_fract_z
 _atom_site_occupancy
  Sr  Sr0  1  0.75000000  0.10455512  0.39544488  1
  Sr  Sr1  1  0.39544488  0.75000000  0.10455512  1
  Sr  Sr2  1  0.10455512  0.39544488  0.75000000  1
  Sr  Sr3  1  0.25000000  0.89544488  0.60455512  1
  Sr  Sr4  1  0.60455512  0.25000000  0.89544488  1
  Sr  Sr5  1  0.89544488  0.60455512  0.25000000  1
  B  B6  1  0.38480117  0.38480117  0.38480117  1
  B  B7  1  0.61519883  0.61519883  0.61519883  1
  B  B8  1  0.88480117  0.88480117  0.88480117  1
  B  B9  1  0.11519883  0.11519883  0.11519883  1
  O  O10  1  0.72816948  0.89573413  0.03429045  1
  O  O11  1  0.03429045  0.72816948  0.89573413  1
  O  O12  1  0.89573413  0.03429045  0.72816948  1
  O  O13  1  0.60426587  0.77183052  0.46570955  1
  O  O14  1  0.77183052  0.46570955  0.60426587  1
  O  O15  1  0.46570955  0.60426587  0.77183052  1
  O  O16  1  0.96570955  0.27183052  0.10426587  1
  O  O17  1  0.27183052  0.10426587  0.96570955  1
  O  O18  1  0.10426587  0.96570955  0.27183052  1
  O  O19  1  0.22816948  0.53429045  0.39573413  1
  O  O20  1  0.53429045  0.39573413  0.22816948  1
  O  O21  1  0.39573413  0.22816948  0.53429045  1
