# generated using pymatgen
data_Cs5Te3
_symmetry_space_group_name_H-M   'P 1'
_cell_length_a   7.04848980
_cell_length_b   11.20311382
_cell_length_c   11.20308459
_cell_angle_alpha   84.30747761
_cell_angle_beta   71.66465779
_cell_angle_gamma   71.66470732
_symmetry_Int_Tables_number   1
_chemical_formula_structural   Cs5Te3
_chemical_formula_sum   'Cs10 Te6'
_cell_volume   797.10757724
_cell_formula_units_Z   2
loop_
 _symmetry_equiv_pos_site_id
 _symmetry_equiv_pos_as_xyz
  1  'x, y, z'
loop_
 _atom_site_type_symbol
 _atom_site_label
 _atom_site_symmetry_multiplicity
 _atom_site_fract_x
 _atom_site_fract_y
 _atom_site_fract_z
 _atom_site_occupancy
  Cs  Cs0  1  0.27449884  0.13433895  0.31666436  1
  Cs  Cs1  1  0.72550116  0.86566105  0.68333564  1
  Cs  Cs2  1  0.40876594  0.31710797  0.86536115  1
  Cs  Cs3  1  0.59123406  0.68289203  0.13463885  1
  Cs  Cs4  1  0.08782356  0.12999152  0.69436035  1
  Cs  Cs5  1  0.91217644  0.87000848  0.30563965  1
  Cs  Cs6  1  0.21743315  0.69489486  0.87023884  1
  Cs  Cs7  1  0.78256685  0.30510514  0.12976116  1
  Cs  Cs8  1  0.75002501  0.50000000  0.50000000  1
  Cs  Cs9  1  0.24997499  0.50000000  0.50000000  1
  Te  Te10  1  0.30067729  -0.00000000  -0.00000000  1
  Te  Te11  1  0.69932271  0.00000000  0.00000000  1
  Te  Te12  1  0.34291064  0.81250765  0.50167008  1
  Te  Te13  1  0.65708936  0.18749235  0.49832992  1
  Te  Te14  1  0.15581775  0.50107874  0.18728575  1
  Te  Te15  1  0.84418225  0.49892126  0.81271425  1
