# generated using pymatgen
data_ZnSe2O5
_symmetry_space_group_name_H-M   'P 1'
_cell_length_a   6.05592413
_cell_length_b   6.79997491
_cell_length_c   10.43032051
_cell_angle_alpha   90.00000000
_cell_angle_beta   90.00000000
_cell_angle_gamma   90.00000000
_symmetry_Int_Tables_number   1
_chemical_formula_structural   ZnSe2O5
_chemical_formula_sum   'Zn4 Se8 O20'
_cell_volume   429.52197687
_cell_formula_units_Z   4
loop_
 _symmetry_equiv_pos_site_id
 _symmetry_equiv_pos_as_xyz
  1  'x, y, z'
loop_
 _atom_site_type_symbol
 _atom_site_label
 _atom_site_symmetry_multiplicity
 _atom_site_fract_x
 _atom_site_fract_y
 _atom_site_fract_z
 _atom_site_occupancy
  Zn  Zn0  1  0.75000000  0.00000000  0.94074518  1
  Zn  Zn1  1  0.25000000  0.50000000  0.55925482  1
  Zn  Zn2  1  0.25000000  0.00000000  0.05925482  1
  Zn  Zn3  1  0.75000000  0.50000000  0.44074518  1
  Se  Se4  1  0.03018686  0.36796009  0.84520162  1
  Se  Se5  1  0.53018686  0.13203991  0.65479838  1
  Se  Se6  1  0.96981314  0.86796009  0.65479838  1
  Se  Se7  1  0.46981314  0.63203991  0.84520162  1
  Se  Se8  1  0.96981314  0.63203991  0.15479838  1
  Se  Se9  1  0.46981314  0.86796009  0.34520162  1
  Se  Se10  1  0.03018686  0.13203991  0.34520162  1
  Se  Se11  1  0.53018686  0.36796009  0.15479838  1
  O  O12  1  0.75000000  0.00000000  0.56840156  1
  O  O13  1  0.25000000  0.50000000  0.93159844  1
  O  O14  1  0.25000000  0.00000000  0.43159844  1
  O  O15  1  0.75000000  0.50000000  0.06840156  1
  O  O16  1  0.16062221  0.30362671  0.70986993  1
  O  O17  1  0.66062221  0.19637329  0.79013007  1
  O  O18  1  0.83937779  0.80362671  0.79013007  1
  O  O19  1  0.33937779  0.69637329  0.70986993  1
  O  O20  1  0.83937779  0.69637329  0.29013007  1
  O  O21  1  0.33937779  0.80362671  0.20986993  1
  O  O22  1  0.16062221  0.19637329  0.20986993  1
  O  O23  1  0.66062221  0.30362671  0.29013007  1
  O  O24  1  0.04540568  0.34252094  0.43358017  1
  O  O25  1  0.54540568  0.15747906  0.06641983  1
  O  O26  1  0.95459432  0.84252094  0.06641983  1
  O  O27  1  0.45459432  0.65747906  0.43358017  1
  O  O28  1  0.95459432  0.65747906  0.56641983  1
  O  O29  1  0.45459432  0.84252094  0.93358017  1
  O  O30  1  0.04540568  0.15747906  0.93358017  1
  O  O31  1  0.54540568  0.34252094  0.56641983  1
