# generated using pymatgen
data_LaSi3N5
_symmetry_space_group_name_H-M   'P 1'
_cell_length_a   4.81194174
_cell_length_b   7.84758933
_cell_length_c   11.30545700
_cell_angle_alpha   90.00000000
_cell_angle_beta   90.00000000
_cell_angle_gamma   90.00000000
_symmetry_Int_Tables_number   1
_chemical_formula_structural   LaSi3N5
_chemical_formula_sum   'La4 Si12 N20'
_cell_volume   426.91828002
_cell_formula_units_Z   4
loop_
 _symmetry_equiv_pos_site_id
 _symmetry_equiv_pos_as_xyz
  1  'x, y, z'
loop_
 _atom_site_type_symbol
 _atom_site_label
 _atom_site_symmetry_multiplicity
 _atom_site_fract_x
 _atom_site_fract_y
 _atom_site_fract_z
 _atom_site_occupancy
  La  La0  1  0.99605552  0.94084769  0.66892540  1
  La  La1  1  0.49605552  0.55915231  0.33107460  1
  La  La2  1  0.00394448  0.44084769  0.83107460  1
  La  La3  1  0.50394448  0.05915231  0.16892540  1
  Si  Si4  1  0.48969244  0.66234694  0.65965640  1
  Si  Si5  1  0.98969244  0.83765306  0.34034360  1
  Si  Si6  1  0.51030756  0.16234694  0.84034360  1
  Si  Si7  1  0.01030756  0.33765306  0.15965640  1
  Si  Si8  1  0.48165507  0.79342300  0.91666814  1
  Si  Si9  1  0.98165507  0.70657700  0.08333186  1
  Si  Si10  1  0.51834493  0.29342300  0.58333186  1
  Si  Si11  1  0.01834493  0.20657700  0.41666814  1
  Si  Si12  1  0.98017935  0.53255145  0.54133854  1
  Si  Si13  1  0.48017935  0.96744855  0.45866146  1
  Si  Si14  1  0.01982065  0.03255145  0.95866146  1
  Si  Si15  1  0.51982065  0.46744855  0.04133854  1
  N  N16  1  0.45935384  0.84184469  0.57816106  1
  N  N17  1  0.95935384  0.65815531  0.42183894  1
  N  N18  1  0.54064616  0.34184469  0.92183894  1
  N  N19  1  0.04064616  0.15815531  0.07816106  1
  N  N20  1  0.34175119  0.70685418  0.79350083  1
  N  N21  1  0.84175119  0.79314582  0.20649917  1
  N  N22  1  0.65824881  0.20685418  0.70649917  1
  N  N23  1  0.15824881  0.29314582  0.29350083  1
  N  N24  1  0.31930550  0.48239544  0.59207391  1
  N  N25  1  0.81930550  0.01760456  0.40792609  1
  N  N26  1  0.68069450  0.98239544  0.90792609  1
  N  N27  1  0.18069450  0.51760456  0.09207391  1
  N  N28  1  0.19780546  0.84854560  0.00782822  1
  N  N29  1  0.69780546  0.65145440  0.99217178  1
  N  N30  1  0.80219454  0.34854560  0.49217178  1
  N  N31  1  0.30219454  0.15145440  0.50782822  1
  N  N32  1  0.83170638  0.61070686  0.66674299  1
  N  N33  1  0.33170638  0.88929314  0.33325701  1
  N  N34  1  0.16829362  0.11070686  0.83325701  1
  N  N35  1  0.66829362  0.38929314  0.16674299  1
