# generated using pymatgen
data_Mg14BSbO16
_symmetry_space_group_name_H-M   'P 1'
_cell_length_a   8.71357161
_cell_length_b   8.66398551
_cell_length_c   4.32869950
_cell_angle_alpha   90.00000000
_cell_angle_beta   90.00000000
_cell_angle_gamma   90.00000000
_symmetry_Int_Tables_number   1
_chemical_formula_structural   Mg14BSbO16
_chemical_formula_sum   'Mg14 B1 Sb1 O16'
_cell_volume   326.79195759
_cell_formula_units_Z   1
loop_
 _symmetry_equiv_pos_site_id
 _symmetry_equiv_pos_as_xyz
  1  'x, y, z'
loop_
 _atom_site_type_symbol
 _atom_site_label
 _atom_site_symmetry_multiplicity
 _atom_site_fract_x
 _atom_site_fract_y
 _atom_site_fract_z
 _atom_site_occupancy
  Mg  Mg0  1  0.50000000  0.00000000  0.00000000  1
  Mg  Mg1  1  0.50000000  0.50000000  0.00000000  1
  Mg  Mg2  1  0.00000000  0.23116913  0.50000000  1
  Mg  Mg3  1  0.00000000  0.76883087  0.50000000  1
  Mg  Mg4  1  0.50000000  0.24593694  0.50000000  1
  Mg  Mg5  1  0.50000000  0.75406306  0.50000000  1
  Mg  Mg6  1  0.24814269  0.00000000  0.50000000  1
  Mg  Mg7  1  0.26188684  0.50000000  0.50000000  1
  Mg  Mg8  1  0.75185731  0.00000000  0.50000000  1
  Mg  Mg9  1  0.73811316  0.50000000  0.50000000  1
  Mg  Mg10  1  0.25340185  0.23824748  0.00000000  1
  Mg  Mg11  1  0.25340185  0.76175252  0.00000000  1
  Mg  Mg12  1  0.74659815  0.23824748  -0.00000000  1
  Mg  Mg13  1  0.74659815  0.76175252  -0.00000000  1
  B  B14  1  0.00000000  0.00000000  0.00000000  1
  Sb  Sb15  1  0.00000000  0.50000000  0.00000000  1
  O  O16  1  0.26886671  0.00000000  0.00000000  1
  O  O17  1  0.26381333  0.50000000  -0.00000000  1
  O  O18  1  0.73113329  0.00000000  -0.00000000  1
  O  O19  1  0.73618667  0.50000000  0.00000000  1
  O  O20  1  0.24866703  0.25061408  0.50000000  1
  O  O21  1  0.24866703  0.74938592  0.50000000  1
  O  O22  1  0.75133297  0.25061408  0.50000000  1
  O  O23  1  0.75133297  0.74938592  0.50000000  1
  O  O24  1  0.00000000  0.00000000  0.50000000  1
  O  O25  1  0.00000000  0.50000000  0.50000000  1
  O  O26  1  0.50000000  0.00000000  0.50000000  1
  O  O27  1  0.50000000  0.50000000  0.50000000  1
  O  O28  1  0.00000000  0.23775839  -0.00000000  1
  O  O29  1  0.00000000  0.76224161  0.00000000  1
  O  O30  1  0.50000000  0.25188619  -0.00000000  1
  O  O31  1  0.50000000  0.74811381  0.00000000  1
