# generated using pymatgen
data_MgSc4(FeO3)4
_symmetry_space_group_name_H-M   'P 1'
_cell_length_a   5.35146369
_cell_length_b   5.59932250
_cell_length_c   7.83558786
_cell_angle_alpha   89.95584894
_cell_angle_beta   90.09510833
_cell_angle_gamma   95.84690057
_symmetry_Int_Tables_number   1
_chemical_formula_structural   MgSc4(FeO3)4
_chemical_formula_sum   'Mg1 Sc4 Fe4 O12'
_cell_volume   233.56820532
_cell_formula_units_Z   1
loop_
 _symmetry_equiv_pos_site_id
 _symmetry_equiv_pos_as_xyz
  1  'x, y, z'
loop_
 _atom_site_type_symbol
 _atom_site_label
 _atom_site_symmetry_multiplicity
 _atom_site_fract_x
 _atom_site_fract_y
 _atom_site_fract_z
 _atom_site_occupancy
  Mg  Mg0  1  0.05569000  0.72941300  0.25413400  1
  Sc  Sc1  1  0.98752100  0.93469700  0.74998400  1
  Sc  Sc2  1  0.45629900  0.42073800  0.74977000  1
  Sc  Sc3  1  0.52402900  0.55532400  0.25068200  1
  Sc  Sc4  1  0.86694400  0.13679800  0.24927100  1
  Fe  Fe5  1  0.99292500  0.46097200  0.96271800  1
  Fe  Fe6  1  0.99159100  0.45687400  0.54056400  1
  Fe  Fe7  1  0.48304300  0.98074800  0.99045600  1
  Fe  Fe8  1  0.48472200  0.98023100  0.50971100  1
  O  O9  1  0.15166900  0.40919200  0.24776200  1
  O  O10  1  0.20100900  0.16014500  0.58346900  1
  O  O11  1  0.20078400  0.16206000  0.91522000  1
  O  O12  1  0.32005300  0.66214000  0.56759000  1
  O  O13  1  0.31979100  0.66576400  0.92626900  1
  O  O14  1  0.38087400  0.90835800  0.24924300  1
  O  O15  1  0.64842100  0.07290200  0.75002300  1
  O  O16  1  0.66635800  0.31223600  0.07678600  1
  O  O17  1  0.66769800  0.31205900  0.42308200  1
  O  O18  1  0.81013000  0.83002100  0.08202300  1
  O  O19  1  0.80869000  0.83235400  0.42097200  1
  O  O20  1  0.81926000  0.57947300  0.75027400  1
