# generated using pymatgen
data_Hf(PS3)2
_symmetry_space_group_name_H-M   'P 1'
_cell_length_a   12.25349850
_cell_length_b   11.55960462
_cell_length_c   6.96511374
_cell_angle_alpha   78.55776102
_cell_angle_beta   67.58144585
_cell_angle_gamma   33.86838748
_symmetry_Int_Tables_number   1
_chemical_formula_structural   Hf(PS3)2
_chemical_formula_sum   'Hf2 P4 S12'
_cell_volume   494.67692273
_cell_formula_units_Z   2
loop_
 _symmetry_equiv_pos_site_id
 _symmetry_equiv_pos_as_xyz
  1  'x, y, z'
loop_
 _atom_site_type_symbol
 _atom_site_label
 _atom_site_symmetry_multiplicity
 _atom_site_fract_x
 _atom_site_fract_y
 _atom_site_fract_z
 _atom_site_occupancy
  Hf  Hf0  1  0.85093757  0.84925927  0.15023294  1
  Hf  Hf1  1  0.09971877  0.10057055  0.40041422  1
  P  P2  1  0.51723107  0.85827645  0.35973517  1
  P  P3  1  0.89156263  0.98362663  0.73263022  1
  P  P4  1  0.98538425  0.88998647  0.39261192  1
  P  P5  1  0.85691263  0.51819223  0.26616113  1
  S  S6  1  0.13992366  0.71751780  0.81163755  1
  S  S7  1  0.71890411  0.13832116  0.33176533  1
  S  S8  1  0.52009202  0.01731657  0.43219324  1
  S  S9  1  0.01679406  0.52011519  0.03120937  1
  S  S10  1  0.21948132  0.81793707  0.23313700  1
  S  S11  1  0.81849594  0.21843542  0.73081088  1
  S  S12  1  0.90360217  0.32750576  0.15351478  1
  S  S13  1  0.32616103  0.90541246  0.61666569  1
  S  S14  1  0.63494022  0.09611193  0.92342334  1
  S  S15  1  0.09833647  0.63309835  0.34572259  1
  S  S16  1  0.43811449  0.91955221  0.11128193  1
  S  S17  1  0.91803460  0.43922548  0.53245770  1
