# generated using pymatgen
data_MgAl4(HO)12
_symmetry_space_group_name_H-M   'P 1'
_cell_length_a   6.96352812
_cell_length_b   7.62480461
_cell_length_c   7.23168650
_cell_angle_alpha   105.62769478
_cell_angle_beta   137.20830924
_cell_angle_gamma   89.50349263
_symmetry_Int_Tables_number   1
_chemical_formula_structural   MgAl4(HO)12
_chemical_formula_sum   'Mg1 Al4 H12 O12'
_cell_volume   240.48879300
_cell_formula_units_Z   1
loop_
 _symmetry_equiv_pos_site_id
 _symmetry_equiv_pos_as_xyz
  1  'x, y, z'
loop_
 _atom_site_type_symbol
 _atom_site_label
 _atom_site_symmetry_multiplicity
 _atom_site_fract_x
 _atom_site_fract_y
 _atom_site_fract_z
 _atom_site_occupancy
  Mg  Mg0  1  0.44070241  0.63732479  0.57769622  1
  Al  Al1  1  0.49521639  0.85145960  0.30139256  1
  Al  Al2  1  0.49760804  0.15690979  0.66907899  1
  Al  Al3  1  0.00095891  0.66903503  0.65558044  1
  Al  Al4  1  0.98363366  0.30831820  0.33289984  1
  H  H5  1  0.99440980  0.96709819  0.55458871  1
  H  H6  1  0.95309426  0.94513092  0.22908953  1
  H  H7  1  0.56947927  0.50735209  0.83834516  1
  H  H8  1  0.44989572  0.48976333  0.18633125  1
  H  H9  1  0.88585016  0.62396489  0.20823574  1
  H  H10  1  0.84267188  0.32355992  0.56525550  1
  H  H11  1  0.32777429  0.14005446  0.21857072  1
  H  H12  1  0.76656824  0.93178923  0.80278103  1
  H  H13  1  0.56322261  0.74959086  0.99665025  1
  H  H14  1  0.49116509  0.08352625  0.98744528  1
  H  H15  1  0.98570611  0.37218028  0.99879698  1
  H  H16  1  0.94901253  0.71139512  0.00098614  1
  O  O17  1  0.90353008  0.89467021  0.57934498  1
  O  O18  1  0.08082397  0.07531901  0.38851330  1
  O  O19  1  0.40829862  0.38533132  0.62663658  1
  O  O20  1  0.55574950  0.59884044  0.36744067  1
  O  O21  1  0.02254343  0.58258632  0.39122717  1
  O  O22  1  0.98739389  0.40546497  0.60653020  1
  O  O23  1  0.49709168  0.11140220  0.38729386  1
  O  O24  1  0.55149451  0.90622650  0.62735937  1
  O  O25  1  0.41168892  0.79734660  0.97970614  1
  O  O26  1  0.57422656  0.19169940  0.99472719  1
  O  O27  1  0.92261416  0.26475214  0.00828708  1
  O  O28  1  0.08125931  0.74376193  0.98674608  1
