# generated using pymatgen
data_Te2W
_symmetry_space_group_name_H-M   'P 1'
_cell_length_a   3.56178730
_cell_length_b   3.56130600
_cell_length_c   14.84722570
_cell_angle_alpha   90.00000000
_cell_angle_beta   90.00000000
_cell_angle_gamma   120.00446095
_symmetry_Int_Tables_number   1
_chemical_formula_structural   Te2W
_chemical_formula_sum   'Te4 W2'
_cell_volume   163.09238742
_cell_formula_units_Z   2
loop_
 _symmetry_equiv_pos_site_id
 _symmetry_equiv_pos_as_xyz
  1  'x, y, z'
loop_
 _atom_site_type_symbol
 _atom_site_label
 _atom_site_symmetry_multiplicity
 _atom_site_fract_x
 _atom_site_fract_y
 _atom_site_fract_z
 _atom_site_occupancy
  Te  Te0  1  0.33327808  0.66655716  0.87081510  1
  Te  Te1  1  0.66672192  0.33344284  0.12918490  1
  Te  Te2  1  0.66672192  0.33344284  0.37081510  1
  Te  Te3  1  0.33327808  0.66655716  0.62918490  1
  W  W4  1  0.33335427  0.66670854  0.25000000  1
  W  W5  1  0.66664573  0.33329146  0.75000000  1
