# generated using pymatgen
data_RbMgPO4
_symmetry_space_group_name_H-M   'P 1'
_cell_length_a   26.44717936
_cell_length_b   9.27458014
_cell_length_c   5.31083725
_cell_angle_alpha   90.00000000
_cell_angle_beta   90.00000000
_cell_angle_gamma   90.00000000
_symmetry_Int_Tables_number   1
_chemical_formula_structural   RbMgPO4
_chemical_formula_sum   'Rb12 Mg12 P12 O48'
_cell_volume   1302.67659855
_cell_formula_units_Z   12
loop_
 _symmetry_equiv_pos_site_id
 _symmetry_equiv_pos_as_xyz
  1  'x, y, z'
loop_
 _atom_site_type_symbol
 _atom_site_label
 _atom_site_symmetry_multiplicity
 _atom_site_fract_x
 _atom_site_fract_y
 _atom_site_fract_z
 _atom_site_occupancy
  Rb  Rb0  1  0.50100859  0.20526713  0.25305547  1
  Rb  Rb1  1  0.49899141  0.79473187  0.75305547  1
  Rb  Rb2  1  0.99899141  0.70526813  0.75305547  1
  Rb  Rb3  1  0.00100859  0.29473287  0.25305547  1
  Rb  Rb4  1  0.66444833  0.30492732  0.24451215  1
  Rb  Rb5  1  0.33555167  0.69507268  0.74451215  1
  Rb  Rb6  1  0.83555167  0.80492732  0.74451215  1
  Rb  Rb7  1  0.16444833  0.19507268  0.24451215  1
  Rb  Rb8  1  0.67433201  0.69264559  0.71131965  1
  Rb  Rb9  1  0.32566799  0.30735441  0.21131965  1
  Rb  Rb10  1  0.82566799  0.19264559  0.21131965  1
  Rb  Rb11  1  0.17433201  0.80735441  0.71131965  1
  Mg  Mg12  1  0.60001088  0.91161826  0.23289002  1
  Mg  Mg13  1  0.39998912  0.08838174  0.73289002  1
  Mg  Mg14  1  0.89998912  0.41161826  0.73289002  1
  Mg  Mg15  1  0.10001088  0.58838174  0.23289002  1
  Mg  Mg16  1  0.78130716  0.59522167  0.24649056  1
  Mg  Mg17  1  0.21869284  0.40477833  0.74649056  1
  Mg  Mg18  1  0.71869284  0.09522167  0.74649056  1
  Mg  Mg19  1  0.28130716  0.90477833  0.24649056  1
  Mg  Mg20  1  0.55210388  0.44400573  0.77062162  1
  Mg  Mg21  1  0.44789612  0.55599427  0.27062162  1
  Mg  Mg22  1  0.94789612  0.94400573  0.27062162  1
  Mg  Mg23  1  0.05210388  0.05599427  0.77062162  1
  P  P24  1  0.59192888  0.10366471  0.74517536  1
  P  P25  1  0.40807112  0.89633529  0.24517536  1
  P  P26  1  0.90807112  0.60366471  0.24517536  1
  P  P27  1  0.09192888  0.39633529  0.74517536  1
  P  P28  1  0.77317234  0.41103416  0.73736043  1
  P  P29  1  0.22682766  0.58896584  0.23736043  1
  P  P30  1  0.72682766  0.91103416  0.23736043  1
  P  P31  1  0.27317234  0.08896584  0.73736043  1
  P  P32  1  0.56937842  0.57379516  0.22414810  1
  P  P33  1  0.43062158  0.42620484  0.72414810  1
  P  P34  1  0.93062158  0.07379516  0.72414810  1
  P  P35  1  0.06937842  0.92620484  0.22414810  1
  O  O36  1  0.56162864  0.23922260  0.80703590  1
  O  O37  1  0.43837136  0.76077740  0.30703590  1
  O  O38  1  0.93837136  0.73922260  0.30703590  1
  O  O39  1  0.06162864  0.26077740  0.80703590  1
  O  O40  1  0.74379482  0.28220946  0.84165192  1
  O  O41  1  0.25620618  0.71779054  0.34165192  1
  O  O42  1  0.75620518  0.78220946  0.34165192  1
  O  O43  1  0.24379382  0.21779054  0.84165192  1
  O  O44  1  0.56552501  0.73275532  0.29602086  1
  O  O45  1  0.43447499  0.26724468  0.79602086  1
  O  O46  1  0.93447499  0.23275532  0.79602086  1
  O  O47  1  0.06552501  0.76724468  0.29602086  1
  O  O48  1  0.64829370  0.13213611  0.78666379  1
  O  O49  1  0.35170630  0.86786389  0.28666379  1
  O  O50  1  0.85170630  0.63213611  0.28666379  1
  O  O51  1  0.14829370  0.36786389  0.78666379  1
  O  O52  1  0.82924460  0.37071771  0.73319556  1
  O  O53  1  0.17075540  0.62928229  0.23319556  1
  O  O54  1  0.67075540  0.87071771  0.23319556  1
  O  O55  1  0.32924460  0.12928229  0.73319556  1
  O  O56  1  0.51726033  0.51952271  0.12342727  1
  O  O57  1  0.48273967  0.48047729  0.62342727  1
  O  O58  1  0.98273967  0.01952271  0.62342727  1
  O  O59  1  0.01726033  0.98047729  0.12342727  1
  O  O60  1  0.57435879  0.98094517  0.91787874  1
  O  O61  1  0.42564121  0.01905483  0.41787874  1
  O  O62  1  0.92564121  0.48094517  0.41787874  1
  O  O63  1  0.07435879  0.51905483  0.91787874  1
  O  O64  1  0.76422819  0.54370905  0.90543819  1
  O  O65  1  0.23577181  0.45629095  0.40543819  1
  O  O66  1  0.73577181  0.04370905  0.40543819  1
  O  O67  1  0.26422819  0.95629095  0.90543819  1
  O  O68  1  0.58695490  0.48680969  0.45186840  1
  O  O69  1  0.41304510  0.51319031  0.95186840  1
  O  O70  1  0.91304510  0.98680969  0.95186840  1
  O  O71  1  0.08695490  0.01319031  0.45186840  1
  O  O72  1  0.58273598  0.05993001  0.47043416  1
  O  O73  1  0.41726402  0.94006999  0.97043416  1
  O  O74  1  0.91726402  0.55993001  0.97043416  1
  O  O75  1  0.08273598  0.44006999  0.47043416  1
  O  O76  1  0.75497899  0.44696405  0.46921369  1
  O  O77  1  0.24502101  0.55303595  0.96921369  1
  O  O78  1  0.74502101  0.94696405  0.96921369  1
  O  O79  1  0.25497899  0.05303595  0.46921369  1
  O  O80  1  0.60419440  0.54635820  -0.00270084  1
  O  O81  1  0.39580560  0.45364180  0.49729916  1
  O  O82  1  0.89580560  0.04635820  0.49729916  1
  O  O83  1  0.10419440  0.95364180  -0.00270084  1
