# generated using pymatgen
data_Pr10Se19
_symmetry_space_group_name_H-M   'P 1'
_cell_length_a   9.39507009
_cell_length_b   9.39507009
_cell_length_c   17.09952781
_cell_angle_alpha   90.00000000
_cell_angle_beta   90.00000000
_cell_angle_gamma   90.00000000
_symmetry_Int_Tables_number   1
_chemical_formula_structural   Pr10Se19
_chemical_formula_sum   'Pr20 Se38'
_cell_volume   1509.32987038
_cell_formula_units_Z   2
loop_
 _symmetry_equiv_pos_site_id
 _symmetry_equiv_pos_as_xyz
  1  'x, y, z'
loop_
 _atom_site_type_symbol
 _atom_site_label
 _atom_site_symmetry_multiplicity
 _atom_site_fract_x
 _atom_site_fract_y
 _atom_site_fract_z
 _atom_site_occupancy
  Pr  Pr0  1  0.25000000  0.75000000  0.38428868  1
  Pr  Pr1  1  0.25000000  0.75000000  0.88428868  1
  Pr  Pr2  1  0.75000000  0.25000000  0.61571132  1
  Pr  Pr3  1  0.75000000  0.25000000  0.11571132  1
  Pr  Pr4  1  0.64748492  0.55396479  0.89504819  1
  Pr  Pr5  1  0.44603521  0.14748492  0.39504819  1
  Pr  Pr6  1  0.05396479  0.35251508  0.39504819  1
  Pr  Pr7  1  0.85251508  0.94603521  0.89504819  1
  Pr  Pr8  1  0.35251508  0.44603521  0.10495181  1
  Pr  Pr9  1  0.55396479  0.85251508  0.60495181  1
  Pr  Pr10  1  0.94603521  0.64748492  0.60495181  1
  Pr  Pr11  1  0.14748492  0.05396479  0.10495181  1
  Pr  Pr12  1  0.45723004  0.15265343  0.87950928  1
  Pr  Pr13  1  0.84734657  0.95723004  0.37950928  1
  Pr  Pr14  1  0.65265343  0.54276996  0.37950928  1
  Pr  Pr15  1  0.04276996  0.34734657  0.87950928  1
  Pr  Pr16  1  0.54276996  0.84734657  0.12049072  1
  Pr  Pr17  1  0.15265343  0.04276996  0.62049072  1
  Pr  Pr18  1  0.34734657  0.45723004  0.62049072  1
  Pr  Pr19  1  0.95723004  0.65265343  0.12049072  1
  Se  Se20  1  0.25000000  0.75000000  0.06515698  1
  Se  Se21  1  0.25000000  0.75000000  0.56515698  1
  Se  Se22  1  0.75000000  0.25000000  0.93484302  1
  Se  Se23  1  0.75000000  0.25000000  0.43484302  1
  Se  Se24  1  0.64908947  0.55318828  0.56275885  1
  Se  Se25  1  0.44681172  0.14908947  0.06275885  1
  Se  Se26  1  0.05318828  0.35091053  0.06275885  1
  Se  Se27  1  0.85091053  0.94681172  0.56275885  1
  Se  Se28  1  0.35091053  0.44681172  0.43724115  1
  Se  Se29  1  0.55318828  0.85091053  0.93724115  1
  Se  Se30  1  0.94681172  0.64908947  0.93724115  1
  Se  Se31  1  0.14908947  0.05318828  0.43724115  1
  Se  Se32  1  0.04896483  0.34796354  0.57209068  1
  Se  Se33  1  0.65203646  0.54896483  0.07209068  1
  Se  Se34  1  0.84796354  0.95103517  0.07209068  1
  Se  Se35  1  0.45103517  0.15203646  0.57209068  1
  Se  Se36  1  0.95103517  0.65203646  0.42790932  1
  Se  Se37  1  0.34796354  0.45103517  0.92790932  1
  Se  Se38  1  0.15203646  0.04896483  0.92790932  1
  Se  Se39  1  0.54896483  0.84796354  0.42790932  1
  Se  Se40  1  0.06897589  0.88351463  0.24958556  1
  Se  Se41  1  0.11648537  0.56897589  0.74958556  1
  Se  Se42  1  0.38351463  0.93102411  0.74958556  1
  Se  Se43  1  0.43102411  0.61648537  0.24958556  1
  Se  Se44  1  0.93102411  0.11648537  0.75041444  1
  Se  Se45  1  0.88351463  0.43102411  0.25041444  1
  Se  Se46  1  0.61648537  0.06897589  0.25041444  1
  Se  Se47  1  0.56897589  0.38351463  0.75041444  1
  Se  Se48  1  0.32247680  0.97124642  0.25033370  1
  Se  Se49  1  0.02875358  0.82247680  0.75033370  1
  Se  Se50  1  0.47124642  0.67752320  0.75033370  1
  Se  Se51  1  0.17752320  0.52875358  0.25033370  1
  Se  Se52  1  0.67752320  0.02875358  0.74966630  1
  Se  Se53  1  0.97124642  0.17752320  0.24966630  1
  Se  Se54  1  0.52875358  0.32247680  0.24966630  1
  Se  Se55  1  0.82247680  0.47124642  0.74966630  1
  Se  Se56  1  0.25000000  0.25000000  0.75000000  1
  Se  Se57  1  0.75000000  0.75000000  0.25000000  1
