# generated using pymatgen
data_SrMg6AlO8
_symmetry_space_group_name_H-M   'P 1'
_cell_length_a   8.75672482
_cell_length_b   4.52701762
_cell_length_c   4.52701762
_cell_angle_alpha   90.00000000
_cell_angle_beta   90.00000000
_cell_angle_gamma   90.00000000
_symmetry_Int_Tables_number   1
_chemical_formula_structural   SrMg6AlO8
_chemical_formula_sum   'Sr1 Mg6 Al1 O8'
_cell_volume   179.45934236
_cell_formula_units_Z   1
loop_
 _symmetry_equiv_pos_site_id
 _symmetry_equiv_pos_as_xyz
  1  'x, y, z'
loop_
 _atom_site_type_symbol
 _atom_site_label
 _atom_site_symmetry_multiplicity
 _atom_site_fract_x
 _atom_site_fract_y
 _atom_site_fract_z
 _atom_site_occupancy
  Sr  Sr0  1  0.00000000  0.50000000  0.50000000  1
  Mg  Mg1  1  0.50000000  0.00000000  0.00000000  1
  Mg  Mg2  1  0.50000000  0.50000000  0.50000000  1
  Mg  Mg3  1  0.26219067  0.00000000  0.50000000  1
  Mg  Mg4  1  0.73780933  0.00000000  0.50000000  1
  Mg  Mg5  1  0.26219067  0.50000000  -0.00000000  1
  Mg  Mg6  1  0.73780933  0.50000000  0.00000000  1
  Al  Al7  1  0.00000000  0.00000000  0.00000000  1
  O  O8  1  0.24646416  -0.00000000  -0.00000000  1
  O  O9  1  0.75353584  0.00000000  0.00000000  1
  O  O10  1  0.27336642  0.50000000  0.50000000  1
  O  O11  1  0.72663358  0.50000000  0.50000000  1
  O  O12  1  0.00000000  0.00000000  0.50000000  1
  O  O13  1  0.50000000  0.00000000  0.50000000  1
  O  O14  1  0.00000000  0.50000000  0.00000000  1
  O  O15  1  0.50000000  0.50000000  0.00000000  1
