# generated using pymatgen
data_Sr4MgMn2Ga2O11
_symmetry_space_group_name_H-M   'P 1'
_cell_length_a   6.41053142
_cell_length_b   5.68089454
_cell_length_c   8.51682621
_cell_angle_alpha   71.46716000
_cell_angle_beta   69.05091954
_cell_angle_gamma   83.94979984
_symmetry_Int_Tables_number   1
_chemical_formula_structural   Sr4MgMn2Ga2O11
_chemical_formula_sum   'Sr4 Mg1 Mn2 Ga2 O11'
_cell_volume   274.62662576
_cell_formula_units_Z   1
loop_
 _symmetry_equiv_pos_site_id
 _symmetry_equiv_pos_as_xyz
  1  'x, y, z'
loop_
 _atom_site_type_symbol
 _atom_site_label
 _atom_site_symmetry_multiplicity
 _atom_site_fract_x
 _atom_site_fract_y
 _atom_site_fract_z
 _atom_site_occupancy
  Sr  Sr0  1  0.99791700  0.50761700  0.77926500  1
  Sr  Sr1  1  0.58696600  0.20079700  0.71359800  1
  Sr  Sr2  1  0.39371300  0.83953900  0.27123200  1
  Sr  Sr3  1  0.95755200  0.35770900  0.24078900  1
  Mg  Mg4  1  0.38530400  0.75847700  0.68849300  1
  Mn  Mn5  1  0.24252000  0.24785100  0.49840000  1
  Mn  Mn6  1  0.82304700  0.79923100  0.47178500  1
  Ga  Ga7  1  0.51794700  0.48039500  0.00903900  1
  Ga  Ga8  1  0.91850500  0.93399700  0.99849400  1
  O  O9  1  0.16362700  0.01964800  0.78300600  1
  O  O10  1  0.66802100  0.72646200  0.73355300  1
  O  O11  1  0.33372900  0.42095400  0.24256800  1
  O  O12  1  0.97921900  0.89180900  0.20532900  1
  O  O13  1  0.56911800  0.02874000  0.46279700  1
  O  O14  1  0.93224900  0.46234600  0.51779400  1
  O  O15  1  0.08242700  0.99551000  0.47879500  1
  O  O16  1  0.37510900  0.51040100  0.54985900  1
  O  O17  1  0.69564800  0.18609700  0.97650100  1
  O  O18  1  0.74972000  0.64923700  0.04788200  1
  O  O19  1  0.28242300  0.47127900  0.92457100  1
