# generated using pymatgen
data_Sr3Fe2TeO9
_symmetry_space_group_name_H-M   'P 1'
_cell_length_a   5.64433705
_cell_length_b   5.64431513
_cell_length_c   6.94942028
_cell_angle_alpha   89.99991817
_cell_angle_beta   89.99997662
_cell_angle_gamma   119.99930793
_symmetry_Int_Tables_number   1
_chemical_formula_structural   Sr3Fe2TeO9
_chemical_formula_sum   'Sr3 Fe2 Te1 O9'
_cell_volume   191.73722133
_cell_formula_units_Z   1
loop_
 _symmetry_equiv_pos_site_id
 _symmetry_equiv_pos_as_xyz
  1  'x, y, z'
loop_
 _atom_site_type_symbol
 _atom_site_label
 _atom_site_symmetry_multiplicity
 _atom_site_fract_x
 _atom_site_fract_y
 _atom_site_fract_z
 _atom_site_occupancy
  Sr  Sr0  1  0.66665800  0.33333700  0.66664900  1
  Sr  Sr1  1  0.33333500  0.66666200  0.34548500  1
  Sr  Sr2  1  0.00000500  0.99999500  0.98780200  1
  Fe  Fe3  1  0.00000000  0.99999800  0.51622600  1
  Fe  Fe4  1  0.33332700  0.66667700  0.81719600  1
  Te  Te5  1  0.66667100  0.33333500  0.16667900  1
  O  O6  1  0.66661600  0.83331200  0.66669500  1
  O  O7  1  0.16669200  0.83330400  0.66668900  1
  O  O8  1  0.16669600  0.33338600  0.66669300  1
  O  O9  1  0.34131100  0.17065800  0.32755900  1
  O  O10  1  0.99198600  0.49598800  0.00573600  1
  O  O11  1  0.82933700  0.17065600  0.32755800  1
  O  O12  1  0.50400800  0.49599200  0.00573300  1
  O  O13  1  0.82934100  0.65868100  0.32755900  1
  O  O14  1  0.50401600  0.00801800  0.00574000  1
