# generated using pymatgen
data_LaMgMnCrO6
_symmetry_space_group_name_H-M   'P 1'
_cell_length_a   5.39125777
_cell_length_b   5.25971191
_cell_length_c   9.13817990
_cell_angle_alpha   55.08319490
_cell_angle_beta   90.00000000
_cell_angle_gamma   90.00000000
_symmetry_Int_Tables_number   1
_chemical_formula_structural   LaMgMnCrO6
_chemical_formula_sum   'La2 Mg2 Mn2 Cr2 O12'
_cell_volume   212.47955655
_cell_formula_units_Z   2
loop_
 _symmetry_equiv_pos_site_id
 _symmetry_equiv_pos_as_xyz
  1  'x, y, z'
loop_
 _atom_site_type_symbol
 _atom_site_label
 _atom_site_symmetry_multiplicity
 _atom_site_fract_x
 _atom_site_fract_y
 _atom_site_fract_z
 _atom_site_occupancy
  La  La0  1  0.22225228  0.74343908  0.25032180  1
  La  La1  1  0.77774772  0.74343908  0.75032180  1
  Mg  Mg2  1  0.69157923  0.27854360  0.25156603  1
  Mg  Mg3  1  0.30842077  0.27854360  0.75156603  1
  Mn  Mn4  1  0.25081739  0.50171010  0.99881686  1
  Mn  Mn5  1  0.74918261  0.50171010  0.49881686  1
  Cr  Cr6  1  0.24729181  0.00001102  0.50204417  1
  Cr  Cr7  1  0.75270819  0.00001102  0.00204417  1
  O  O8  1  0.70753222  0.18184186  0.74524410  1
  O  O9  1  0.48445389  0.70865418  0.05092953  1
  O  O10  1  0.49010982  0.32220641  0.44554628  1
  O  O11  1  0.95754144  0.63501116  0.05622995  1
  O  O12  1  0.94762885  0.25812442  0.44402268  1
  O  O13  1  0.23543785  0.87046017  0.75527860  1
  O  O14  1  0.29246778  0.18184186  0.24524410  1
  O  O15  1  0.51554611  0.70865418  0.55092953  1
  O  O16  1  0.50989018  0.32220641  0.94554628  1
  O  O17  1  0.04245856  0.63501116  0.55622995  1
  O  O18  1  0.05237115  0.25812442  0.94402268  1
  O  O19  1  0.76456215  0.87046017  0.25527860  1
