# generated using pymatgen
data_Ba2GeSe4
_symmetry_space_group_name_H-M   'P 1'
_cell_length_a   7.09753412
_cell_length_b   7.14781470
_cell_length_c   9.28135604
_cell_angle_alpha   90.00000000
_cell_angle_beta   109.03403844
_cell_angle_gamma   90.00000000
_symmetry_Int_Tables_number   1
_chemical_formula_structural   Ba2GeSe4
_chemical_formula_sum   'Ba4 Ge2 Se8'
_cell_volume   445.11614607
_cell_formula_units_Z   2
loop_
 _symmetry_equiv_pos_site_id
 _symmetry_equiv_pos_as_xyz
  1  'x, y, z'
loop_
 _atom_site_type_symbol
 _atom_site_label
 _atom_site_symmetry_multiplicity
 _atom_site_fract_x
 _atom_site_fract_y
 _atom_site_fract_z
 _atom_site_occupancy
  Ba  Ba0  1  0.71597496  0.75000000  0.92410172  1
  Ba  Ba1  1  0.28402504  0.25000000  0.07589828  1
  Ba  Ba2  1  0.78623536  0.75000000  0.45427449  1
  Ba  Ba3  1  0.21376464  0.25000000  0.54572551  1
  Ge  Ge4  1  0.79273031  0.25000000  0.71115710  1
  Ge  Ge5  1  0.20726969  0.75000000  0.28884290  1
  Se  Se6  1  0.00766375  0.99201683  0.77313518  1
  Se  Se7  1  0.99233625  0.49201683  0.22686482  1
  Se  Se8  1  0.99233625  0.00798317  0.22686482  1
  Se  Se9  1  0.00766375  0.50798317  0.77313518  1
  Se  Se10  1  0.63289989  0.25000000  0.44424810  1
  Se  Se11  1  0.36710011  0.75000000  0.55575190  1
  Se  Se12  1  0.58538546  0.25000000  0.86463813  1
  Se  Se13  1  0.41461454  0.75000000  0.13536187  1
