# generated using pymatgen
data_BaNiO3
_symmetry_space_group_name_H-M   'P 1'
_cell_length_a   5.67753215
_cell_length_b   5.67753078
_cell_length_c   4.78331070
_cell_angle_alpha   90.00000000
_cell_angle_beta   90.00000000
_cell_angle_gamma   119.99999595
_symmetry_Int_Tables_number   1
_chemical_formula_structural   BaNiO3
_chemical_formula_sum   'Ba2 Ni2 O6'
_cell_volume   133.52984355
_cell_formula_units_Z   2
loop_
 _symmetry_equiv_pos_site_id
 _symmetry_equiv_pos_as_xyz
  1  'x, y, z'
loop_
 _atom_site_type_symbol
 _atom_site_label
 _atom_site_symmetry_multiplicity
 _atom_site_fract_x
 _atom_site_fract_y
 _atom_site_fract_z
 _atom_site_occupancy
  Ba  Ba0  1  0.66666700  0.33333400  0.74927646  1
  Ba  Ba1  1  0.33333300  0.66666600  0.24927546  1
  Ni  Ni2  1  0.00000000  -0.00000000  0.48842741  1
  Ni  Ni3  1  0.00000000  -0.00000000  0.98842841  1
  O  O4  1  0.85347643  0.14652357  0.23826638  1
  O  O5  1  0.70695386  0.85347743  0.73826538  1
  O  O6  1  0.14652357  0.29304614  0.73826538  1
  O  O7  1  0.85347543  0.70695186  0.23826638  1
  O  O8  1  0.14652357  0.85347743  0.73826538  1
  O  O9  1  0.29304614  0.14652357  0.23826638  1
