# generated using pymatgen
data_Sr(LuS2)2
_symmetry_space_group_name_H-M   'P 1'
_cell_length_a   3.90364091
_cell_length_b   11.90187346
_cell_length_c   14.07597388
_cell_angle_alpha   90.00000000
_cell_angle_beta   90.00000000
_cell_angle_gamma   90.00000000
_symmetry_Int_Tables_number   1
_chemical_formula_structural   Sr(LuS2)2
_chemical_formula_sum   'Sr4 Lu8 S16'
_cell_volume   653.97875712
_cell_formula_units_Z   4
loop_
 _symmetry_equiv_pos_site_id
 _symmetry_equiv_pos_as_xyz
  1  'x, y, z'
loop_
 _atom_site_type_symbol
 _atom_site_label
 _atom_site_symmetry_multiplicity
 _atom_site_fract_x
 _atom_site_fract_y
 _atom_site_fract_z
 _atom_site_occupancy
  Sr  Sr0  1  0.25000000  0.75985091  0.33584105  1
  Sr  Sr1  1  0.25000000  0.25985091  0.16415895  1
  Sr  Sr2  1  0.75000000  0.24014909  0.66415895  1
  Sr  Sr3  1  0.75000000  0.74014909  0.83584105  1
  Lu  Lu4  1  0.25000000  0.43793950  0.38936746  1
  Lu  Lu5  1  0.25000000  0.93793950  0.11063254  1
  Lu  Lu6  1  0.75000000  0.56206050  0.61063254  1
  Lu  Lu7  1  0.75000000  0.06206050  0.88936746  1
  Lu  Lu8  1  0.25000000  0.41763909  0.90060458  1
  Lu  Lu9  1  0.25000000  0.91763909  0.59939542  1
  Lu  Lu10  1  0.75000000  0.58236091  0.09939542  1
  Lu  Lu11  1  0.75000000  0.08236091  0.40060458  1
  S  S12  1  0.25000000  0.20473453  0.83305793  1
  S  S13  1  0.25000000  0.70473453  0.66694207  1
  S  S14  1  0.75000000  0.79526547  0.16694207  1
  S  S15  1  0.75000000  0.29526547  0.33305793  1
  S  S16  1  0.25000000  0.12565553  0.52772992  1
  S  S17  1  0.25000000  0.62565553  0.97227008  1
  S  S18  1  0.75000000  0.87434447  0.47227008  1
  S  S19  1  0.75000000  0.37434447  0.02772992  1
  S  S20  1  0.25000000  0.02671293  0.28417362  1
  S  S21  1  0.25000000  0.52671293  0.21582638  1
  S  S22  1  0.75000000  0.97328707  0.71582638  1
  S  S23  1  0.75000000  0.47328707  0.78417362  1
  S  S24  1  0.25000000  0.41258164  0.57616986  1
  S  S25  1  0.25000000  0.91258164  0.92383014  1
  S  S26  1  0.75000000  0.58741836  0.42383014  1
  S  S27  1  0.75000000  0.08741836  0.07616986  1
