# generated using pymatgen
data_Mg14BSbO16
_symmetry_space_group_name_H-M   'P 1'
_cell_length_a   8.71397665
_cell_length_b   8.71397665
_cell_length_c   4.33425004
_cell_angle_alpha   90.00000000
_cell_angle_beta   90.00000000
_cell_angle_gamma   90.00000000
_symmetry_Int_Tables_number   1
_chemical_formula_structural   Mg14BSbO16
_chemical_formula_sum   'Mg14 B1 Sb1 O16'
_cell_volume   329.11429456
_cell_formula_units_Z   1
loop_
 _symmetry_equiv_pos_site_id
 _symmetry_equiv_pos_as_xyz
  1  'x, y, z'
loop_
 _atom_site_type_symbol
 _atom_site_label
 _atom_site_symmetry_multiplicity
 _atom_site_fract_x
 _atom_site_fract_y
 _atom_site_fract_z
 _atom_site_occupancy
  Mg  Mg0  1  -0.00000000  0.50000000  -0.00000000  1
  Mg  Mg1  1  0.50000000  -0.00000000  -0.00000000  1
  Mg  Mg2  1  -0.00000000  0.24312752  0.50000000  1
  Mg  Mg3  1  -0.00000000  0.75687248  0.50000000  1
  Mg  Mg4  1  0.50000000  0.23491602  0.50000000  1
  Mg  Mg5  1  0.50000000  0.76508398  0.50000000  1
  Mg  Mg6  1  0.24312752  -0.00000000  0.50000000  1
  Mg  Mg7  1  0.23491602  0.50000000  0.50000000  1
  Mg  Mg8  1  0.75687248  -0.00000000  0.50000000  1
  Mg  Mg9  1  0.76508398  0.50000000  0.50000000  1
  Mg  Mg10  1  0.23728813  0.23728813  0.00000000  1
  Mg  Mg11  1  0.23728813  0.76271187  -0.00000000  1
  Mg  Mg12  1  0.76271187  0.23728813  0.00000000  1
  Mg  Mg13  1  0.76271187  0.76271187  -0.00000000  1
  B  B14  1  -0.00000000  -0.00000000  -0.00000000  1
  Sb  Sb15  1  0.50000000  0.50000000  -0.00000000  1
  O  O16  1  0.26576075  -0.00000000  0.00000000  1
  O  O17  1  0.23935329  0.50000000  0.00000000  1
  O  O18  1  0.73423925  -0.00000000  -0.00000000  1
  O  O19  1  0.76064671  0.50000000  -0.00000000  1
  O  O20  1  0.25029851  0.25029851  0.50000000  1
  O  O21  1  0.25029851  0.74970149  0.50000000  1
  O  O22  1  0.74970149  0.25029851  0.50000000  1
  O  O23  1  0.74970149  0.74970149  0.50000000  1
  O  O24  1  -0.00000000  -0.00000000  0.50000000  1
  O  O25  1  -0.00000000  0.50000000  0.50000000  1
  O  O26  1  0.50000000  -0.00000000  0.50000000  1
  O  O27  1  0.50000000  0.50000000  0.50000000  1
  O  O28  1  -0.00000000  0.26576075  0.00000000  1
  O  O29  1  -0.00000000  0.73423925  -0.00000000  1
  O  O30  1  0.50000000  0.23935329  0.00000000  1
  O  O31  1  0.50000000  0.76064671  -0.00000000  1
