# generated using pymatgen
data_Hg3(SeF)2
_symmetry_space_group_name_H-M   'P 1'
_cell_length_a   7.34525806
_cell_length_b   7.34525806
_cell_length_c   7.34525806
_cell_angle_alpha   109.47122063
_cell_angle_beta   109.47122063
_cell_angle_gamma   109.47122063
_symmetry_Int_Tables_number   1
_chemical_formula_structural   Hg3(SeF)2
_chemical_formula_sum   'Hg6 Se4 F4'
_cell_volume   305.06984754
_cell_formula_units_Z   2
loop_
 _symmetry_equiv_pos_site_id
 _symmetry_equiv_pos_as_xyz
  1  'x, y, z'
loop_
 _atom_site_type_symbol
 _atom_site_label
 _atom_site_symmetry_multiplicity
 _atom_site_fract_x
 _atom_site_fract_y
 _atom_site_fract_z
 _atom_site_occupancy
  Hg  Hg0  1  0.16394469  0.91394469  0.25000000  1
  Hg  Hg1  1  0.33605531  0.58605531  0.75000000  1
  Hg  Hg2  1  0.91394469  0.25000000  0.16394469  1
  Hg  Hg3  1  0.58605531  0.75000000  0.33605531  1
  Hg  Hg4  1  0.25000000  0.16394469  0.91394469  1
  Hg  Hg5  1  0.75000000  0.33605531  0.58605531  1
  Se  Se6  1  0.91934106  0.91934106  0.91934106  1
  Se  Se7  1  0.58065894  0.50000000  -0.00000000  1
  Se  Se8  1  0.00000000  0.58065894  0.50000000  1
  Se  Se9  1  0.50000000  0.00000000  0.58065894  1
  F  F10  1  0.47717983  0.47717983  0.47717983  1
  F  F11  1  0.02282017  0.50000000  0.00000000  1
  F  F12  1  -0.00000000  0.02282017  0.50000000  1
  F  F13  1  0.50000000  -0.00000000  0.02282017  1
