# generated using pymatgen
data_Tl2P4Pd3O14
_symmetry_space_group_name_H-M   'P 1'
_cell_length_a   9.95281430
_cell_length_b   9.95281430
_cell_length_c   9.95281430
_cell_angle_alpha   119.64573379
_cell_angle_beta   120.04890368
_cell_angle_gamma   90.26500875
_symmetry_Int_Tables_number   1
_chemical_formula_structural   Tl2P4Pd3O14
_chemical_formula_sum   'Tl4 P8 Pd6 O28'
_cell_volume   698.73434621
_cell_formula_units_Z   2
loop_
 _symmetry_equiv_pos_site_id
 _symmetry_equiv_pos_as_xyz
  1  'x, y, z'
loop_
 _atom_site_type_symbol
 _atom_site_label
 _atom_site_symmetry_multiplicity
 _atom_site_fract_x
 _atom_site_fract_y
 _atom_site_fract_z
 _atom_site_occupancy
  Tl  Tl0  1  0.28611994  0.97296984  0.31314910  1
  Tl  Tl1  1  0.71388006  0.02703016  0.68685090  1
  Tl  Tl2  1  0.15982074  0.47296984  0.68685090  1
  Tl  Tl3  1  0.84017926  0.52703016  0.31314910  1
  P  P4  1  0.17484207  0.36846935  0.24491692  1
  P  P5  1  0.82515793  0.07007485  0.19362728  1
  P  P6  1  0.62355243  0.86846935  0.19362728  1
  P  P7  1  0.37644757  0.57007485  0.24491692  1
  P  P8  1  0.82515793  0.63153065  0.75508308  1
  P  P9  1  0.17484207  0.92992515  0.80637272  1
  P  P10  1  0.37644757  0.13153065  0.80637272  1
  P  P11  1  0.62355243  0.42992515  0.75508308  1
  Pd  Pd12  1  0.30666076  0.75000000  0.55666076  1
  Pd  Pd13  1  0.69333924  0.25000000  0.44333924  1
  Pd  Pd14  1  0.00000000  0.00000000  0.00000000  1
  Pd  Pd15  1  0.50000000  0.50000000  0.00000000  1
  Pd  Pd16  1  0.00000000  0.50000000  0.00000000  1
  Pd  Pd17  1  0.00000000  0.00000000  0.50000000  1
  O  O18  1  0.33217589  0.41832108  0.25049597  1
  O  O19  1  0.66782411  0.91832108  0.08614519  1
  O  O20  1  0.66782411  0.58167892  0.74950403  1
  O  O21  1  0.33217589  0.08167892  0.91385481  1
  O  O22  1  0.17259865  0.21501160  0.24217897  1
  O  O23  1  0.82740135  0.06958032  0.04241295  1
  O  O24  1  0.47283263  0.71501160  0.04241295  1
  O  O25  1  0.52716737  0.56958032  0.24217897  1
  O  O26  1  0.82740135  0.78498840  0.75782103  1
  O  O27  1  0.17259865  0.93041968  0.95758705  1
  O  O28  1  0.52716737  0.28498840  0.95758705  1
  O  O29  1  0.47283263  0.43041968  0.75782103  1
  O  O30  1  0.20252758  0.50928674  0.42810955  1
  O  O31  1  0.79747242  0.22558197  0.30675916  1
  O  O32  1  0.58117719  0.00928674  0.30675916  1
  O  O33  1  0.41882281  0.72558197  0.42810955  1
  O  O34  1  0.79747242  0.49071326  0.57189045  1
  O  O35  1  0.20252758  0.77441803  0.69324084  1
  O  O36  1  0.41882281  0.99071326  0.69324084  1
  O  O37  1  0.58117719  0.27441803  0.57189045  1
  O  O38  1  0.02156057  0.33585291  0.06496169  1
  O  O39  1  0.97843943  0.04340112  0.31429134  1
  O  O40  1  0.77089122  0.83585291  0.31429134  1
  O  O41  1  0.22910878  0.54340112  0.06496169  1
  O  O42  1  0.97843943  0.66414709  0.93503831  1
  O  O43  1  0.02156057  0.95659888  0.68570866  1
  O  O44  1  0.22910878  0.16414709  0.68570866  1
  O  O45  1  0.77089122  0.45659888  0.93503831  1
