# generated using pymatgen
data_SrMg14NbO16
_symmetry_space_group_name_H-M   'P 1'
_cell_length_a   8.70769896
_cell_length_b   8.82870149
_cell_length_c   4.42261205
_cell_angle_alpha   90.00000000
_cell_angle_beta   90.00000000
_cell_angle_gamma   90.00000000
_symmetry_Int_Tables_number   1
_chemical_formula_structural   SrMg14NbO16
_chemical_formula_sum   'Sr1 Mg14 Nb1 O16'
_cell_volume   340.00013087
_cell_formula_units_Z   1
loop_
 _symmetry_equiv_pos_site_id
 _symmetry_equiv_pos_as_xyz
  1  'x, y, z'
loop_
 _atom_site_type_symbol
 _atom_site_label
 _atom_site_symmetry_multiplicity
 _atom_site_fract_x
 _atom_site_fract_y
 _atom_site_fract_z
 _atom_site_occupancy
  Sr  Sr0  1  0.00000000  0.00000000  -0.00000000  1
  Mg  Mg1  1  0.50000000  0.00000000  -0.00000000  1
  Mg  Mg2  1  0.50000000  0.50000000  -0.00000000  1
  Mg  Mg3  1  0.00000000  0.25252277  0.50000000  1
  Mg  Mg4  1  0.00000000  0.74747723  0.50000000  1
  Mg  Mg5  1  0.50000000  0.25027325  0.50000000  1
  Mg  Mg6  1  0.50000000  0.74972675  0.50000000  1
  Mg  Mg7  1  0.26024939  0.00000000  0.50000000  1
  Mg  Mg8  1  0.25602635  0.50000000  0.50000000  1
  Mg  Mg9  1  0.73975061  0.00000000  0.50000000  1
  Mg  Mg10  1  0.74397365  0.50000000  0.50000000  1
  Mg  Mg11  1  0.25832562  0.25260232  0.00000000  1
  Mg  Mg12  1  0.25832562  0.74739768  -0.00000000  1
  Mg  Mg13  1  0.74167438  0.25260232  0.00000000  1
  Mg  Mg14  1  0.74167438  0.74739768  -0.00000000  1
  Nb  Nb15  1  0.00000000  0.50000000  -0.00000000  1
  O  O16  1  0.27247778  0.00000000  -0.00000000  1
  O  O17  1  0.26280960  0.50000000  0.00000000  1
  O  O18  1  0.72752222  0.00000000  0.00000000  1
  O  O19  1  0.73719040  0.50000000  -0.00000000  1
  O  O20  1  0.24901482  0.25028664  0.50000000  1
  O  O21  1  0.24901482  0.74971336  0.50000000  1
  O  O22  1  0.75098518  0.25028664  0.50000000  1
  O  O23  1  0.75098518  0.74971336  0.50000000  1
  O  O24  1  0.00000000  0.00000000  0.50000000  1
  O  O25  1  0.00000000  0.50000000  0.50000000  1
  O  O26  1  0.50000000  0.00000000  0.50000000  1
  O  O27  1  0.50000000  0.50000000  0.50000000  1
  O  O28  1  0.00000000  0.25922873  -0.00000000  1
  O  O29  1  0.00000000  0.74077127  0.00000000  1
  O  O30  1  0.50000000  0.25350118  0.00000000  1
  O  O31  1  0.50000000  0.74649882  -0.00000000  1
