# generated using pymatgen
data_SrPdF4
_symmetry_space_group_name_H-M   'P 1'
_cell_length_a   5.83218048
_cell_length_b   5.83218051
_cell_length_c   6.74063144
_cell_angle_alpha   115.63355579
_cell_angle_beta   115.63355970
_cell_angle_gamma   90.00000150
_symmetry_Int_Tables_number   1
_chemical_formula_structural   SrPdF4
_chemical_formula_sum   'Sr2 Pd2 F8'
_cell_volume   181.36031531
_cell_formula_units_Z   2
loop_
 _symmetry_equiv_pos_site_id
 _symmetry_equiv_pos_as_xyz
  1  'x, y, z'
loop_
 _atom_site_type_symbol
 _atom_site_label
 _atom_site_symmetry_multiplicity
 _atom_site_fract_x
 _atom_site_fract_y
 _atom_site_fract_z
 _atom_site_occupancy
  Sr  Sr0  1  0.25000000  0.25000000  0.50000000  1
  Sr  Sr1  1  0.75000000  0.75000000  0.50000000  1
  Pd  Pd2  1  0.00000000  0.50000000  0.00000000  1
  Pd  Pd3  1  0.50000000  0.00000000  0.00000000  1
  F  F4  1  0.96267515  0.46267515  0.26454399  1
  F  F5  1  0.69813116  0.19813116  0.73545601  1
  F  F6  1  0.03732485  0.53732485  0.73545601  1
  F  F7  1  0.19813116  0.03732485  0.73545601  1
  F  F8  1  0.30186884  0.80186884  0.26454399  1
  F  F9  1  0.46267515  0.30186884  0.26454399  1
  F  F10  1  0.80186884  0.96267515  0.26454399  1
  F  F11  1  0.53732485  0.69813116  0.73545601  1
