# generated using pymatgen
data_MgZr2H10(S3O14)2
_symmetry_space_group_name_H-M   'P 1'
_cell_length_a   5.19773777
_cell_length_b   9.71426802
_cell_length_c   12.70047461
_cell_angle_alpha   93.82924347
_cell_angle_beta   90.09130297
_cell_angle_gamma   94.09207473
_symmetry_Int_Tables_number   1
_chemical_formula_structural   MgZr2H10(S3O14)2
_chemical_formula_sum   'Mg1 Zr2 H10 S6 O28'
_cell_volume   638.19928668
_cell_formula_units_Z   1
loop_
 _symmetry_equiv_pos_site_id
 _symmetry_equiv_pos_as_xyz
  1  'x, y, z'
loop_
 _atom_site_type_symbol
 _atom_site_label
 _atom_site_symmetry_multiplicity
 _atom_site_fract_x
 _atom_site_fract_y
 _atom_site_fract_z
 _atom_site_occupancy
  Mg  Mg0  1  0.75852203  0.42550975  0.15292001  1
  Zr  Zr1  1  0.77276332  0.88746037  0.81242576  1
  Zr  Zr2  1  0.24572785  0.08009632  0.18553781  1
  H  H3  1  0.42699560  0.67037466  0.54743401  1
  H  H4  1  0.54933040  0.32948489  0.48183587  1
  H  H5  1  0.29026505  0.82166439  0.53248132  1
  H  H6  1  0.68351978  0.17826879  0.48148111  1
  H  H7  1  0.45633372  0.75318797  0.43570375  1
  H  H8  1  0.52588019  0.23592041  0.59060332  1
  H  H9  1  0.10423763  0.38031703  0.83130168  1
  H  H10  1  0.91889253  0.64927535  0.07834130  1
  H  H11  1  0.32102629  0.46947644  0.88798989  1
  H  H12  1  0.60869747  0.64594038  0.07081927  1
  S  S13  1  0.75576495  0.62420760  0.69829940  1
  S  S14  1  0.24803808  0.36144272  0.29760347  1
  S  S15  1  0.28176606  0.04221894  0.67682204  1
  S  S16  1  0.73760503  0.94712341  0.33554877  1
  S  S17  1  0.27136393  0.80870388  0.99058449  1
  S  S18  1  0.74516976  0.17456383  0.01654791  1
  O  O19  1  0.89652292  0.76635084  0.67664699  1
  O  O20  1  0.12099973  0.22123676  0.31743047  1
  O  O21  1  0.56784119  0.58200319  0.61368365  1
  O  O22  1  0.38356991  0.42858831  0.38849826  1
  O  O23  1  0.93134259  0.52123058  0.71757001  1
  O  O24  1  0.05726638  0.44760918  0.25257170  1
  O  O25  1  0.61543855  0.67521925  0.79980954  1
  O  O26  1  0.43902398  0.32079985  0.20922094  1
  O  O27  1  0.25881912  0.97526252  0.57081294  1
  O  O28  1  0.76327792  0.02997733  0.43497106  1
  O  O29  1  0.03321926  0.03182181  0.73610348  1
  O  O30  1  0.98408404  0.95210989  0.27356717  1
  O  O31  1  0.37643960  0.18801616  0.67760924  1
  O  O32  1  0.64699374  0.80310160  0.34413838  1
  O  O33  1  0.46819462  0.96471776  0.74088619  1
  O  O34  1  0.54546783  0.01526361  0.26571488  1
  O  O35  1  0.08526709  0.82582674  0.90385676  1
  O  O36  1  0.93810272  0.15748336  0.10451531  1
  O  O37  1  0.81684745  0.10042440  0.91892502  1
  O  O38  1  0.18830077  0.89593226  0.08472396  1
  O  O39  1  0.26171350  0.66537443  0.02021771  1
  O  O40  1  0.73853999  0.32461968  0.01001543  1
  O  O41  1  0.53442094  0.85685860  0.95782475  1
  O  O42  1  0.49039940  0.11657141  0.05386993  1
  O  O43  1  0.22727955  0.37928435  0.88926525  1
  O  O44  1  0.75529390  0.61689609  0.11118335  1
  O  O45  1  0.33406912  0.72971748  0.49518433  1
  O  O46  1  0.63936453  0.26532244  0.52481912  1
