# generated using pymatgen
data_KEr2Cl7
_symmetry_space_group_name_H-M   'P 1'
_cell_length_a   12.47610485
_cell_length_b   6.84301272
_cell_length_c   12.81488277
_cell_angle_alpha   89.58386083
_cell_angle_beta   90.00000000
_cell_angle_gamma   90.00000000
_symmetry_Int_Tables_number   1
_chemical_formula_structural   KEr2Cl7
_chemical_formula_sum   'K4 Er8 Cl28'
_cell_volume   1094.03079282
_cell_formula_units_Z   4
loop_
 _symmetry_equiv_pos_site_id
 _symmetry_equiv_pos_as_xyz
  1  'x, y, z'
loop_
 _atom_site_type_symbol
 _atom_site_label
 _atom_site_symmetry_multiplicity
 _atom_site_fract_x
 _atom_site_fract_y
 _atom_site_fract_z
 _atom_site_occupancy
  K  K0  1  0.20267559  0.77630934  0.03749804  1
  K  K1  1  0.79732441  0.22369066  0.96250196  1
  K  K2  1  0.70267559  0.22369066  0.46250196  1
  K  K3  1  0.29732441  0.77630934  0.53749804  1
  Er  Er4  1  0.53758523  0.77160985  0.23798415  1
  Er  Er5  1  0.46241477  0.22839015  0.76201585  1
  Er  Er6  1  0.03758523  0.22839015  0.26201585  1
  Er  Er7  1  0.96241477  0.77160985  0.73798415  1
  Er  Er8  1  0.84013787  0.72679458  0.24833268  1
  Er  Er9  1  0.15986213  0.27320542  0.75166732  1
  Er  Er10  1  0.34013787  0.27320542  0.25166732  1
  Er  Er11  1  0.65986213  0.72679458  0.74833268  1
  Cl  Cl12  1  0.97198552  0.94877731  0.13105956  1
  Cl  Cl13  1  0.02801448  0.05122269  0.86894044  1
  Cl  Cl14  1  0.47198552  0.05122269  0.36894044  1
  Cl  Cl15  1  0.52801448  0.94877731  0.63105956  1
  Cl  Cl16  1  0.68618675  0.74658458  0.39595347  1
  Cl  Cl17  1  0.31381325  0.25341542  0.60404653  1
  Cl  Cl18  1  0.18618675  0.25341542  0.10404653  1
  Cl  Cl19  1  0.81381325  0.74658458  0.89595347  1
  Cl  Cl20  1  0.67917876  0.50951932  0.17377108  1
  Cl  Cl21  1  0.32082124  0.49048068  0.82622892  1
  Cl  Cl22  1  0.17917876  0.49048068  0.32622892  1
  Cl  Cl23  1  0.82082124  0.50951932  0.67377108  1
  Cl  Cl24  1  0.92578796  0.97953904  0.38107707  1
  Cl  Cl25  1  0.07421204  0.02046096  0.61892293  1
  Cl  Cl26  1  0.42578796  0.02046096  0.11892293  1
  Cl  Cl27  1  0.57421204  0.97953904  0.88107707  1
  Cl  Cl28  1  0.94339303  0.46770022  0.12680368  1
  Cl  Cl29  1  0.05660697  0.53229978  0.87319632  1
  Cl  Cl30  1  0.44339303  0.53229978  0.37319632  1
  Cl  Cl31  1  0.55660697  0.46770022  0.62680368  1
  Cl  Cl32  1  0.70203471  0.99547387  0.17397916  1
  Cl  Cl33  1  0.29796529  0.00452613  0.82602084  1
  Cl  Cl34  1  0.20203471  0.00452613  0.32602084  1
  Cl  Cl35  1  0.79796529  0.99547387  0.67397916  1
  Cl  Cl36  1  0.91248877  0.45916257  0.38078512  1
  Cl  Cl37  1  0.08751123  0.54083743  0.61921488  1
  Cl  Cl38  1  0.41248877  0.54083743  0.11921488  1
  Cl  Cl39  1  0.58751123  0.45916257  0.88078512  1
