# generated using pymatgen
data_Ba5V3HO13
_symmetry_space_group_name_H-M   'P 1'
_cell_length_a   7.91192791
_cell_length_b   10.53824480
_cell_length_c   10.53822579
_cell_angle_alpha   120.00010754
_cell_angle_beta   90.00000000
_cell_angle_gamma   90.00000000
_symmetry_Int_Tables_number   1
_chemical_formula_structural   Ba5V3HO13
_chemical_formula_sum   'Ba10 V6 H2 O26'
_cell_volume   760.93623502
_cell_formula_units_Z   2
loop_
 _symmetry_equiv_pos_site_id
 _symmetry_equiv_pos_as_xyz
  1  'x, y, z'
loop_
 _atom_site_type_symbol
 _atom_site_label
 _atom_site_symmetry_multiplicity
 _atom_site_fract_x
 _atom_site_fract_y
 _atom_site_fract_z
 _atom_site_occupancy
  Ba  Ba0  1  0.49953561  0.66666427  0.33333144  1
  Ba  Ba1  1  0.99953561  0.33333573  0.66666856  1
  Ba  Ba2  1  0.50143992  0.33334036  0.66666934  1
  Ba  Ba3  1  0.00143992  0.66665964  0.33333066  1
  Ba  Ba4  1  0.75039439  0.24440798  0.98361938  1
  Ba  Ba5  1  0.75039429  0.01637807  0.26079332  1
  Ba  Ba6  1  0.75039433  0.73921432  0.75558816  1
  Ba  Ba7  1  0.25039439  0.75559202  0.01638062  1
  Ba  Ba8  1  0.25039429  0.98362193  0.73920568  1
  Ba  Ba9  1  0.25039433  0.26078568  0.24441184  1
  V  V10  1  0.74931041  0.96435592  0.59825178  1
  V  V11  1  0.74930984  0.40174402  0.36610238  1
  V  V12  1  0.74931093  0.63389822  0.03564503  1
  V  V13  1  0.24931041  0.03564408  0.40174822  1
  V  V14  1  0.24930984  0.59825598  0.63389762  1
  V  V15  1  0.24931093  0.36610178  0.96435497  1
  H  H16  1  0.57258807  0.00000140  0.00000434  1
  H  H17  1  0.07258807  0.99999860  0.99999566  1
  O  O18  1  0.75253733  0.87308536  0.40944002  1
  O  O19  1  0.75253980  0.59055193  0.46364614  1
  O  O20  1  0.75254162  0.53635322  0.12690621  1
  O  O21  1  0.25253733  0.12691464  0.59055998  1
  O  O22  1  0.25253980  0.40944807  0.53635386  1
  O  O23  1  0.25254162  0.46364678  0.87309379  1
  O  O24  1  0.57422664  0.90371315  0.64815531  1
  O  O25  1  0.57422840  0.35184668  0.25555935  1
  O  O26  1  0.57422959  0.74443754  0.09629198  1
  O  O27  1  0.07422664  0.09628685  0.35184469  1
  O  O28  1  0.07422840  0.64815332  0.74444065  1
  O  O29  1  0.07422959  0.25556246  0.90370802  1
  O  O30  1  0.42251068  0.09149168  0.34401526  1
  O  O31  1  0.42250730  0.65598413  0.74747760  1
  O  O32  1  0.42250585  0.25252319  0.90850789  1
  O  O33  1  0.92251068  0.90850832  0.65598474  1
  O  O34  1  0.92250730  0.34401587  0.25252240  1
  O  O35  1  0.92250585  0.74747681  0.09149211  1
  O  O36  1  0.74789259  0.15242007  0.67155666  1
  O  O37  1  0.74789065  0.32843747  0.48085704  1
  O  O38  1  0.74788898  0.51914932  0.84758502  1
  O  O39  1  0.24789259  0.84757993  0.32844334  1
  O  O40  1  0.24789065  0.67156253  0.51914296  1
  O  O41  1  0.24788898  0.48085068  0.15241498  1
  O  O42  1  0.69502177  0.00000018  0.00000123  1
  O  O43  1  0.19502177  0.99999982  0.99999877  1
