# generated using pymatgen
data_TmMn2O5
_symmetry_space_group_name_H-M   'P 1'
_cell_length_a   5.66217084
_cell_length_b   7.14374602
_cell_length_c   8.40462117
_cell_angle_alpha   90.00000000
_cell_angle_beta   90.00000000
_cell_angle_gamma   90.00000000
_symmetry_Int_Tables_number   1
_chemical_formula_structural   TmMn2O5
_chemical_formula_sum   'Tm4 Mn8 O20'
_cell_volume   339.95944960
_cell_formula_units_Z   4
loop_
 _symmetry_equiv_pos_site_id
 _symmetry_equiv_pos_as_xyz
  1  'x, y, z'
loop_
 _atom_site_type_symbol
 _atom_site_label
 _atom_site_symmetry_multiplicity
 _atom_site_fract_x
 _atom_site_fract_y
 _atom_site_fract_z
 _atom_site_occupancy
  Tm  Tm0  1  0.50000000  0.36366299  0.32967273  1
  Tm  Tm1  1  0.50000000  0.63633701  0.67032727  1
  Tm  Tm2  1  0.50000000  0.13633701  0.82967273  1
  Tm  Tm3  1  0.50000000  0.86366299  0.17032727  1
  Mn  Mn4  1  -0.00000000  0.08685100  0.15181463  1
  Mn  Mn5  1  -0.00000000  0.91314900  0.84818537  1
  Mn  Mn6  1  -0.00000000  0.41314900  0.65181463  1
  Mn  Mn7  1  -0.00000000  0.58685100  0.34818537  1
  Mn  Mn8  1  0.24704104  -0.00000000  0.50000000  1
  Mn  Mn9  1  0.75295896  -0.00000000  0.50000000  1
  Mn  Mn10  1  0.75295896  0.50000000  0.00000000  1
  Mn  Mn11  1  0.24704104  0.50000000  0.00000000  1
  O  O12  1  0.23154234  -0.00000000  0.00000000  1
  O  O13  1  0.76845766  -0.00000000  0.00000000  1
  O  O14  1  0.76845766  0.50000000  0.50000000  1
  O  O15  1  0.23154234  0.50000000  0.50000000  1
  O  O16  1  -0.00000000  0.34731646  0.06903288  1
  O  O17  1  -0.00000000  0.65268354  0.93096712  1
  O  O18  1  -0.00000000  0.15268354  0.56903288  1
  O  O19  1  -0.00000000  0.84731646  0.43096712  1
  O  O20  1  0.50000000  0.33458702  0.05830889  1
  O  O21  1  0.50000000  0.66541298  0.94169111  1
  O  O22  1  0.50000000  0.16541298  0.55830889  1
  O  O23  1  0.50000000  0.83458702  0.44169111  1
  O  O24  1  0.25924883  0.10895218  0.29354667  1
  O  O25  1  0.74075117  0.89104782  0.70645333  1
  O  O26  1  0.25924883  0.89104782  0.70645333  1
  O  O27  1  0.74075117  0.39104782  0.79354667  1
  O  O28  1  0.74075117  0.10895218  0.29354667  1
  O  O29  1  0.25924883  0.60895218  0.20645333  1
  O  O30  1  0.74075117  0.60895218  0.20645333  1
  O  O31  1  0.25924883  0.39104782  0.79354667  1
