# generated using pymatgen
data_Cs4In2S5
_symmetry_space_group_name_H-M   'P 1'
_cell_length_a   7.90608389
_cell_length_b   9.82459421
_cell_length_c   11.24539439
_cell_angle_alpha   72.98853335
_cell_angle_beta   70.01179084
_cell_angle_gamma   84.03900722
_symmetry_Int_Tables_number   1
_chemical_formula_structural   Cs4In2S5
_chemical_formula_sum   'Cs8 In4 S10'
_cell_volume   784.93703946
_cell_formula_units_Z   2
loop_
 _symmetry_equiv_pos_site_id
 _symmetry_equiv_pos_as_xyz
  1  'x, y, z'
loop_
 _atom_site_type_symbol
 _atom_site_label
 _atom_site_symmetry_multiplicity
 _atom_site_fract_x
 _atom_site_fract_y
 _atom_site_fract_z
 _atom_site_occupancy
  Cs  Cs0  1  0.50523518  0.78826420  0.91276271  1
  Cs  Cs1  1  0.49476482  0.21173580  0.08723729  1
  Cs  Cs2  1  0.54475174  0.18686939  0.54468034  1
  Cs  Cs3  1  0.45524826  0.81313061  0.45531966  1
  Cs  Cs4  1  0.12015738  0.17923200  0.90395211  1
  Cs  Cs5  1  0.87984262  0.82076800  0.09604789  1
  Cs  Cs6  1  0.76774903  0.47364036  0.65913551  1
  Cs  Cs7  1  0.23225097  0.52635964  0.34086449  1
  In  In8  1  0.03254226  0.00635083  0.34123654  1
  In  In9  1  0.96745774  0.99364917  0.65876346  1
  In  In10  1  0.88101825  0.41157704  0.16594087  1
  In  In11  1  0.11898175  0.58842296  0.83405913  1
  S  S12  1  0.83679315  0.85230215  0.55760775  1
  S  S13  1  0.16320685  0.14769785  0.44239225  1
  S  S14  1  0.82181217  0.14834841  0.22858888  1
  S  S15  1  0.17818783  0.85165159  0.77141112  1
  S  S16  1  0.20243640  0.48810185  0.04204448  1
  S  S17  1  0.79756360  0.51189815  0.95795552  1
  S  S18  1  0.72534156  0.51646809  0.34160907  1
  S  S19  1  0.27465844  0.48353191  0.65839093  1
  S  S20  1  0.25201502  0.89578739  0.18797777  1
  S  S21  1  0.74798498  0.10421261  0.81202223  1
