# generated using pymatgen
data_Ca2Al2Si(HO4)2
_symmetry_space_group_name_H-M   'P 1'
_cell_length_a   7.63712335
_cell_length_b   7.63712335
_cell_length_c   7.63712335
_cell_angle_alpha   109.26821481
_cell_angle_beta   109.26821481
_cell_angle_gamma   109.87799968
_symmetry_Int_Tables_number   1
_chemical_formula_structural   Ca2Al2Si(HO4)2
_chemical_formula_sum   'Ca4 Al4 Si2 H4 O16'
_cell_volume   342.88705817
_cell_formula_units_Z   2
loop_
 _symmetry_equiv_pos_site_id
 _symmetry_equiv_pos_as_xyz
  1  'x, y, z'
loop_
 _atom_site_type_symbol
 _atom_site_label
 _atom_site_symmetry_multiplicity
 _atom_site_fract_x
 _atom_site_fract_y
 _atom_site_fract_z
 _atom_site_occupancy
  Ca  Ca0  1  0.71248152  0.71248152  0.71565659  1
  Ca  Ca1  1  0.99682493  0.99682493  0.28434341  1
  Ca  Ca2  1  0.28751848  0.00317507  -0.00000000  1
  Ca  Ca3  1  0.00317507  0.28751848  -0.00000000  1
  Al  Al4  1  0.75275438  0.50000000  0.25275438  1
  Al  Al5  1  0.50000000  0.24724562  0.74724562  1
  Al  Al6  1  0.50000000  0.75275438  0.25275438  1
  Al  Al7  1  0.24724562  0.50000000  0.74724562  1
  Si  Si8  1  0.25000000  0.75000000  0.50000000  1
  Si  Si9  1  0.75000000  0.25000000  0.50000000  1
  H  H10  1  0.34612043  0.34612043  0.37241013  1
  H  H11  1  0.97371029  0.97371029  0.62758987  1
  H  H12  1  0.65387957  0.02628971  0.00000000  1
  H  H13  1  0.02628971  0.65387957  -0.00000000  1
  O  O14  1  0.43118063  0.43118063  0.70509542  1
  O  O15  1  0.43408604  0.72570271  0.44813555  1
  O  O16  1  0.72570271  0.43408604  0.44813555  1
  O  O17  1  0.72608521  0.72608521  0.29490458  1
  O  O18  1  0.27756717  0.98595049  0.55186445  1
  O  O19  1  0.98595049  0.27756717  0.55186445  1
  O  O20  1  0.56881937  0.27391479  -0.00000000  1
  O  O21  1  0.56591396  0.01404951  0.29161667  1
  O  O22  1  0.27429729  0.72243283  0.70838333  1
  O  O23  1  0.27391479  0.56881937  -0.00000000  1
  O  O24  1  0.72243283  0.27429729  0.70838333  1
  O  O25  1  0.01404951  0.56591396  0.29161667  1
  O  O26  1  0.23281529  0.23281529  0.23051537  1
  O  O27  1  0.00229991  0.00229991  0.76948463  1
  O  O28  1  0.76718471  0.99770009  0.00000000  1
  O  O29  1  0.99770009  0.76718471  -0.00000000  1
