# generated using pymatgen
data_H2
_symmetry_space_group_name_H-M   'P 1'
_cell_length_a   10.59642412
_cell_length_b   6.14231617
_cell_length_c   6.78306918
_cell_angle_alpha   90.08830436
_cell_angle_beta   90.15538447
_cell_angle_gamma   89.99961219
_symmetry_Int_Tables_number   1
_chemical_formula_structural   H2
_chemical_formula_sum   H16
_cell_volume   441.48467558
_cell_formula_units_Z   8
loop_
 _symmetry_equiv_pos_site_id
 _symmetry_equiv_pos_as_xyz
  1  'x, y, z'
loop_
 _atom_site_type_symbol
 _atom_site_label
 _atom_site_symmetry_multiplicity
 _atom_site_fract_x
 _atom_site_fract_y
 _atom_site_fract_z
 _atom_site_occupancy
  H  H0  1  0.29431051  0.75017888  0.10699582  1
  H  H1  1  0.79472646  0.74974771  0.39463586  1
  H  H2  1  0.70563894  0.24982264  0.89343875  1
  H  H3  1  0.20521985  0.25024666  0.60493908  1
  H  H4  1  0.55173862  0.75002786  0.21222883  1
  H  H5  1  0.05144252  0.74992489  0.28711163  1
  H  H6  1  0.44827351  0.24996780  0.78760544  1
  H  H7  1  0.94856934  0.25007681  0.71305173  1
  H  H8  1  0.55263312  0.90103935  0.21155426  1
  H  H9  1  0.05232084  0.59903344  0.28791021  1
  H  H10  1  0.44775222  0.40153378  0.78730314  1
  H  H11  1  0.94812768  0.09839461  0.71345865  1
  H  H12  1  0.44738781  0.09896118  0.78828905  1
  H  H13  1  0.94770041  0.40096850  0.71225057  1
  H  H14  1  0.55226905  0.59846873  0.21253758  1
  H  H15  1  0.05189112  0.90160416  0.28668939  1
