# generated using pymatgen
data_VPO5
_symmetry_space_group_name_H-M   'P 1'
_cell_length_a   5.36996161
_cell_length_b   5.36996168
_cell_length_c   6.20499270
_cell_angle_alpha   77.66681737
_cell_angle_beta   77.66681873
_cell_angle_gamma   70.48760736
_symmetry_Int_Tables_number   1
_chemical_formula_structural   VPO5
_chemical_formula_sum   'V2 P2 O10'
_cell_volume   162.78395686
_cell_formula_units_Z   2
loop_
 _symmetry_equiv_pos_site_id
 _symmetry_equiv_pos_as_xyz
  1  'x, y, z'
loop_
 _atom_site_type_symbol
 _atom_site_label
 _atom_site_symmetry_multiplicity
 _atom_site_fract_x
 _atom_site_fract_y
 _atom_site_fract_z
 _atom_site_occupancy
  V  V0  1  0.18436170  0.18436171  0.27933776  1
  V  V1  1  0.81564076  0.81564069  0.72066177  1
  P  P2  1  0.24581009  0.24580995  0.74827531  1
  P  P3  1  0.75418946  0.75418959  0.25172499  1
  O  O4  1  0.37015148  0.37015153  0.22487677  1
  O  O5  1  0.62984661  0.62984664  0.77512379  1
  O  O6  1  0.12383976  0.12383980  0.60807025  1
  O  O7  1  0.87616037  0.87616032  0.39193020  1
  O  O8  1  0.15302356  0.55124904  0.69691783  1
  O  O9  1  0.55124909  0.15302353  0.69691782  1
  O  O10  1  0.84697623  0.44875115  0.30308265  1
  O  O11  1  0.44875109  0.84697625  0.30308265  1
  O  O12  1  0.84718921  0.84718920  0.00542940  1
  O  O13  1  0.15281058  0.15281059  0.99457080  1
