# generated using pymatgen
data_CsCoPO4
_symmetry_space_group_name_H-M   'P 1'
_cell_length_a   5.45785068
_cell_length_b   9.21350281
_cell_length_c   9.26324605
_cell_angle_alpha   89.73717615
_cell_angle_beta   90.00000000
_cell_angle_gamma   90.00000000
_symmetry_Int_Tables_number   1
_chemical_formula_structural   CsCoPO4
_chemical_formula_sum   'Cs4 Co4 P4 O16'
_cell_volume   465.80597316
_cell_formula_units_Z   4
loop_
 _symmetry_equiv_pos_site_id
 _symmetry_equiv_pos_as_xyz
  1  'x, y, z'
loop_
 _atom_site_type_symbol
 _atom_site_label
 _atom_site_symmetry_multiplicity
 _atom_site_fract_x
 _atom_site_fract_y
 _atom_site_fract_z
 _atom_site_occupancy
  Cs  Cs0  1  0.99659460  0.00055590  0.19160239  1
  Cs  Cs1  1  0.49659460  0.99944410  0.80839761  1
  Cs  Cs2  1  0.04019936  0.50630734  0.29084368  1
  Cs  Cs3  1  0.54019936  0.49369266  0.70915632  1
  Co  Co4  1  0.53692350  0.32194830  0.08162215  1
  Co  Co5  1  0.03692350  0.67805170  0.91837785  1
  Co  Co6  1  0.99615725  0.16661388  0.58861982  1
  Co  Co7  1  0.49615725  0.83338612  0.41138018  1
  P  P8  1  0.53140324  0.69233021  0.08430452  1
  P  P9  1  0.03140324  0.30766979  0.91569548  1
  P  P10  1  0.49743641  0.19159702  0.40614096  1
  P  P11  1  0.99743641  0.80840298  0.59385904  1
  O  O12  1  0.09163509  0.27904377  0.75653359  1
  O  O13  1  0.59163509  0.72095623  0.24346641  1
  O  O14  1  0.01618354  0.47011458  0.94230613  1
  O  O15  1  0.51618354  0.52988542  0.05769387  1
  O  O16  1  0.23046864  0.23866740  0.01250321  1
  O  O17  1  0.73046864  0.76133260  0.98749679  1
  O  O18  1  0.51741795  0.03475203  0.35129438  1
  O  O19  1  0.01741795  0.96524797  0.64870562  1
  O  O20  1  0.58849990  0.29548885  0.28731421  1
  O  O21  1  0.08849990  0.70451115  0.71268579  1
  O  O22  1  0.22848363  0.22822167  0.44076414  1
  O  O23  1  0.72848363  0.77177833  0.55923586  1
  O  O24  1  0.28328388  0.76340451  0.04454388  1
  O  O25  1  0.78328388  0.23659549  0.95545612  1
  O  O26  1  0.65631401  0.21375636  0.54169981  1
  O  O27  1  0.15631401  0.78624364  0.45830019  1
