# generated using pymatgen
data_Tb2Si2O7
_symmetry_space_group_name_H-M   'P 1'
_cell_length_a   6.62605436
_cell_length_b   6.65130016
_cell_length_c   12.04684329
_cell_angle_alpha   94.20881928
_cell_angle_beta   90.96724988
_cell_angle_gamma   91.76006580
_symmetry_Int_Tables_number   1
_chemical_formula_structural   Tb2Si2O7
_chemical_formula_sum   'Tb8 Si8 O28'
_cell_volume   529.14785326
_cell_formula_units_Z   4
loop_
 _symmetry_equiv_pos_site_id
 _symmetry_equiv_pos_as_xyz
  1  'x, y, z'
loop_
 _atom_site_type_symbol
 _atom_site_label
 _atom_site_symmetry_multiplicity
 _atom_site_fract_x
 _atom_site_fract_y
 _atom_site_fract_z
 _atom_site_occupancy
  Tb  Tb0  1  0.67269336  0.17394550  0.89157675  1
  Tb  Tb1  1  0.32730664  0.82605450  0.10842325  1
  Tb  Tb2  1  0.36899945  0.22262096  0.63231967  1
  Tb  Tb3  1  0.63100055  0.77737904  0.36768033  1
  Tb  Tb4  1  0.88228302  0.91155815  0.64108674  1
  Tb  Tb5  1  0.11771698  0.08844185  0.35891326  1
  Tb  Tb6  1  0.94910529  0.67360162  0.88437380  1
  Tb  Tb7  1  0.05089471  0.32639838  0.11562620  1
  Si  Si8  1  0.14475811  0.62412993  0.38144910  1
  Si  Si9  1  0.85524189  0.37587007  0.61855090  1
  Si  Si10  1  0.37606517  0.72693629  0.59511036  1
  Si  Si11  1  0.62393483  0.27306371  0.40488964  1
  Si  Si12  1  0.48811656  0.66739093  0.82509575  1
  Si  Si13  1  0.51188344  0.33260907  0.17490425  1
  Si  Si14  1  0.15475589  0.14977603  0.88393191  1
  Si  Si15  1  0.84524411  0.85022397  0.11606809  1
  O  O16  1  0.00182691  0.98849825  0.81430210  1
  O  O17  1  -0.00182691  0.01150175  0.18569790  1
  O  O18  1  0.00050995  0.33421677  0.91789225  1
  O  O19  1  0.99949005  0.66578323  0.08210775  1
  O  O20  1  0.34807126  0.21133191  0.81380440  1
  O  O21  1  0.65192874  0.78866809  0.18619560  1
  O  O22  1  0.23086576  0.08491725  0.00369792  1
  O  O23  1  0.76913424  0.91508275  0.99630208  1
  O  O24  1  0.07485387  0.41612394  0.31302803  1
  O  O25  1  0.92514613  0.58387606  0.68697197  1
  O  O26  1  0.96348531  0.76922332  0.42533290  1
  O  O27  1  0.03651469  0.23077668  0.57466710  1
  O  O28  1  0.28799107  0.77857984  0.31376313  1
  O  O29  1  0.71200893  0.22142016  0.68623687  1
  O  O30  1  0.28730053  0.57378476  0.49056245  1
  O  O31  1  0.71269947  0.42621524  0.50943755  1
  O  O32  1  0.35615130  0.48768011  0.12617641  1
  O  O33  1  0.64384870  0.51231989  0.87382359  1
  O  O34  1  0.38025007  0.13748965  0.21103776  1
  O  O35  1  0.61974993  0.86251035  0.78896224  1
  O  O36  1  0.69906694  0.29158563  0.09378455  1
  O  O37  1  0.30093306  0.70841437  0.90621545  1
  O  O38  1  0.59981684  0.42777858  0.30432631  1
  O  O39  1  0.40018316  0.57222142  0.69567369  1
  O  O40  1  0.41593354  0.17179444  0.44607381  1
  O  O41  1  0.58406646  0.82820556  0.55392619  1
  O  O42  1  0.77376276  0.09364677  0.37763489  1
  O  O43  1  0.22623724  0.90635323  0.62236511  1
