# generated using pymatgen
data_Cs2GeSe3
_symmetry_space_group_name_H-M   'P 1'
_cell_length_a   8.13613378
_cell_length_b   8.13613378
_cell_length_c   10.47346003
_cell_angle_alpha   59.75741544
_cell_angle_beta   59.75741544
_cell_angle_gamma   54.93677522
_symmetry_Int_Tables_number   1
_chemical_formula_structural   Cs2GeSe3
_chemical_formula_sum   'Cs4 Ge2 Se6'
_cell_volume   467.19131036
_cell_formula_units_Z   2
loop_
 _symmetry_equiv_pos_site_id
 _symmetry_equiv_pos_as_xyz
  1  'x, y, z'
loop_
 _atom_site_type_symbol
 _atom_site_label
 _atom_site_symmetry_multiplicity
 _atom_site_fract_x
 _atom_site_fract_y
 _atom_site_fract_z
 _atom_site_occupancy
  Cs  Cs0  1  0.58340308  0.58340308  0.13764746  1
  Cs  Cs1  1  0.41659692  0.41659692  0.86235254  1
  Cs  Cs2  1  0.80373056  0.80373056  0.31978561  1
  Cs  Cs3  1  0.19626944  0.19626944  0.68021439  1
  Ge  Ge4  1  0.11599360  0.11599360  0.31892649  1
  Ge  Ge5  1  0.88400640  0.88400640  0.68107351  1
  Se  Se6  1  0.10951811  0.10951811  0.10443986  1
  Se  Se7  1  0.89048189  0.89048189  0.89556014  1
  Se  Se8  1  0.29170620  0.29170620  0.27474111  1
  Se  Se9  1  0.70829380  0.70829380  0.72525889  1
  Se  Se10  1  0.23815871  0.76184129  0.50000000  1
  Se  Se11  1  0.76184129  0.23815871  0.50000000  1
