# generated using pymatgen
data_RbSn
_symmetry_space_group_name_H-M   'P 1'
_cell_length_a   11.83675535
_cell_length_b   11.83675583
_cell_length_c   12.79805737
_cell_angle_alpha   117.54488720
_cell_angle_beta   117.54488613
_cell_angle_gamma   89.99999880
_symmetry_Int_Tables_number   1
_chemical_formula_structural   RbSn
_chemical_formula_sum   'Rb16 Sn16'
_cell_volume   1356.49547571
_cell_formula_units_Z   16
loop_
 _symmetry_equiv_pos_site_id
 _symmetry_equiv_pos_as_xyz
  1  'x, y, z'
loop_
 _atom_site_type_symbol
 _atom_site_label
 _atom_site_symmetry_multiplicity
 _atom_site_fract_x
 _atom_site_fract_y
 _atom_site_fract_z
 _atom_site_occupancy
  Rb  Rb0  1  0.11156312  0.25000000  0.50000000  1
  Rb  Rb1  1  0.75000000  0.11156312  0.00000000  1
  Rb  Rb2  1  0.25000000  0.38843688  -0.00000000  1
  Rb  Rb3  1  0.38843688  0.75000000  0.50000000  1
  Rb  Rb4  1  0.88843688  0.75000000  0.50000000  1
  Rb  Rb5  1  0.25000000  0.88843688  -0.00000000  1
  Rb  Rb6  1  0.75000000  0.61156312  0.00000000  1
  Rb  Rb7  1  0.61156312  0.25000000  0.50000000  1
  Rb  Rb8  1  0.50311130  0.75311130  0.25000000  1
  Rb  Rb9  1  0.99688870  0.50311130  0.75000000  1
  Rb  Rb10  1  0.75311130  0.74688870  0.75000000  1
  Rb  Rb11  1  0.74688870  0.99688870  0.25000000  1
  Rb  Rb12  1  0.49688870  0.24688870  0.75000000  1
  Rb  Rb13  1  0.00311130  0.49688870  0.25000000  1
  Rb  Rb14  1  0.24688870  0.25311130  0.25000000  1
  Rb  Rb15  1  0.25311130  0.00311130  0.75000000  1
  Sn  Sn16  1  0.99174968  0.07064765  0.85811024  1
  Sn  Sn17  1  0.28746458  0.99174968  0.35811024  1
  Sn  Sn18  1  0.07064765  0.86635956  0.35811024  1
  Sn  Sn19  1  0.63364044  0.42935235  0.14188976  1
  Sn  Sn20  1  0.50825032  0.21253542  0.14188976  1
  Sn  Sn21  1  0.21253542  0.63364044  0.64188976  1
  Sn  Sn22  1  0.42935235  0.50825032  0.64188976  1
  Sn  Sn23  1  0.86635956  0.28746458  0.85811024  1
  Sn  Sn24  1  0.00825032  0.92935235  0.14188976  1
  Sn  Sn25  1  0.71253542  0.00825032  0.64188976  1
  Sn  Sn26  1  0.92935235  0.13364044  0.64188976  1
  Sn  Sn27  1  0.36635956  0.57064765  0.85811024  1
  Sn  Sn28  1  0.49174968  0.78746458  0.85811024  1
  Sn  Sn29  1  0.78746458  0.36635956  0.35811024  1
  Sn  Sn30  1  0.57064765  0.49174968  0.35811024  1
  Sn  Sn31  1  0.13364044  0.71253542  0.14188976  1
