# generated using pymatgen
data_Ta9VO25
_symmetry_space_group_name_H-M   'P 1'
_cell_length_a   3.83336614
_cell_length_b   11.30392373
_cell_length_c   11.30372997
_cell_angle_alpha   88.34805577
_cell_angle_beta   80.23900937
_cell_angle_gamma   80.22757381
_symmetry_Int_Tables_number   1
_chemical_formula_structural   Ta9VO25
_chemical_formula_sum   'Ta9 V1 O25'
_cell_volume   475.71888561
_cell_formula_units_Z   1
loop_
 _symmetry_equiv_pos_site_id
 _symmetry_equiv_pos_as_xyz
  1  'x, y, z'
loop_
 _atom_site_type_symbol
 _atom_site_label
 _atom_site_symmetry_multiplicity
 _atom_site_fract_x
 _atom_site_fract_y
 _atom_site_fract_z
 _atom_site_occupancy
  Ta  Ta0  1  0.78157013  0.11697499  0.32332787  1
  Ta  Ta1  1  0.87815585  0.79491886  0.44224904  1
  Ta  Ta2  1  0.11581972  0.20508738  0.55775840  1
  Ta  Ta3  1  0.67938976  0.44218402  0.20502420  1
  Ta  Ta4  1  0.32621792  0.55780899  0.79493319  1
  Ta  Ta5  1  0.89554126  0.32333856  0.88294200  1
  Ta  Ta6  1  0.10136842  0.67664523  0.11701773  1
  Ta  Ta7  1  0.22125510  0.88303488  0.67667744  1
  Ta  Ta8  1  0.00008402  -0.00001506  -0.00000464  1
  V  V9  1  0.25031390  0.50003722  0.50000468  1
  O  O10  1  0.93734234  0.62912474  0.51683647  1
  O  O11  1  0.54636679  0.51678371  0.37087688  1
  O  O12  1  0.43401965  0.48317358  0.62911379  1
  O  O13  1  0.08328361  0.37094206  0.48321443  1
  O  O14  1  0.50008524  0.99999509  0.00001647  1
  O  O15  1  0.24998143  0.13966393  0.36530122  1
  O  O16  1  0.38494862  0.36530352  0.86031736  1
  O  O17  1  0.61036977  0.63467620  0.13966402  1
  O  O18  1  0.75442854  0.86035204  0.63474337  1
  O  O19  1  0.82936074  0.96009908  0.39362828  1
  O  O20  1  0.98437209  0.73258444  0.29011340  1
  O  O21  1  0.72554528  0.29006790  0.26735592  1
  O  O22  1  0.28237963  0.70992865  0.73255592  1
  O  O23  1  0.00720976  0.26738196  0.70989875  1
  O  O24  1  0.94822594  0.16770055  0.93664781  1
  O  O25  1  0.11534679  0.93663313  0.83232684  1
  O  O26  1  0.88452943  0.06334187  0.16770785  1
  O  O27  1  0.77725294  0.39358493  0.03983392  1
  O  O28  1  0.35405873  0.80607858  0.48921627  1
  O  O29  1  0.15660183  0.48918245  0.19397974  1
  O  O30  1  0.83941192  0.51083513  0.80604053  1
  O  O31  1  0.64971611  0.19395887  0.51077826  1
  O  O32  1  0.18282652  0.03991855  0.60640870  1
  O  O33  1  0.21053132  0.60640116  0.96009986  1
  O  O34  1  0.05209486  0.83227182  0.06339104  1
