# generated using pymatgen
data_CaGa4(WO6)2
_symmetry_space_group_name_H-M   'P 1'
_cell_length_a   4.84486200
_cell_length_b   4.84482300
_cell_length_c   9.20519400
_cell_angle_alpha   90.00099464
_cell_angle_beta   90.00097037
_cell_angle_gamma   89.99981078
_symmetry_Int_Tables_number   1
_chemical_formula_structural   CaGa4(WO6)2
_chemical_formula_sum   'Ca1 Ga4 W2 O12'
_cell_volume   216.06890554
_cell_formula_units_Z   1
loop_
 _symmetry_equiv_pos_site_id
 _symmetry_equiv_pos_as_xyz
  1  'x, y, z'
loop_
 _atom_site_type_symbol
 _atom_site_label
 _atom_site_symmetry_multiplicity
 _atom_site_fract_x
 _atom_site_fract_y
 _atom_site_fract_z
 _atom_site_occupancy
  Ca  Ca0  1  0.50000600  0.00000400  0.25001800  1
  Ga  Ga1  1  0.00000800  0.99999900  0.35336400  1
  Ga  Ga2  1  0.00001700  0.00002000  0.66948700  1
  Ga  Ga3  1  0.50001300  0.50000100  0.14663500  1
  Ga  Ga4  1  0.50003300  0.50002700  0.83049900  1
  W  W5  1  0.00003100  0.00003400  0.99162100  1
  W  W6  1  0.50001100  0.50001300  0.50838000  1
  O  O7  1  0.16487700  0.21526600  0.16171100  1
  O  O8  1  0.18822400  0.19768800  0.83183700  1
  O  O9  1  0.22256700  0.18150400  0.49748700  1
  O  O10  1  0.31852900  0.72257600  0.00251400  1
  O  O11  1  0.28477300  0.66483600  0.33828800  1
  O  O12  1  0.30234600  0.68820900  0.66816400  1
  O  O13  1  0.71524500  0.33519600  0.33827700  1
  O  O14  1  0.69769600  0.31182600  0.66816100  1
  O  O15  1  0.68153800  0.27749300  0.00250300  1
  O  O16  1  0.77745700  0.81852500  0.49749100  1
  O  O17  1  0.83520300  0.78482900  0.16172600  1
  O  O18  1  0.81182700  0.80235800  0.83183800  1
