# generated using pymatgen
data_Ba4TiP4
_symmetry_space_group_name_H-M   'P 1'
_cell_length_a   13.27348972
_cell_length_b   13.27348972
_cell_length_c   13.27348972
_cell_angle_alpha   90.00000000
_cell_angle_beta   90.00000000
_cell_angle_gamma   90.00000000
_symmetry_Int_Tables_number   1
_chemical_formula_structural   Ba4TiP4
_chemical_formula_sum   'Ba32 Ti8 P32'
_cell_volume   2338.59681260
_cell_formula_units_Z   8
loop_
 _symmetry_equiv_pos_site_id
 _symmetry_equiv_pos_as_xyz
  1  'x, y, z'
loop_
 _atom_site_type_symbol
 _atom_site_label
 _atom_site_symmetry_multiplicity
 _atom_site_fract_x
 _atom_site_fract_y
 _atom_site_fract_z
 _atom_site_occupancy
  Ba  Ba0  1  0.14926399  0.14926399  0.14926399  1
  Ba  Ba1  1  0.35073601  0.64926399  0.35073601  1
  Ba  Ba2  1  0.64926399  0.35073601  0.35073601  1
  Ba  Ba3  1  0.35073601  0.35073601  0.64926399  1
  Ba  Ba4  1  0.14926399  0.85073601  0.85073601  1
  Ba  Ba5  1  0.85073601  0.85073601  0.14926399  1
  Ba  Ba6  1  0.85073601  0.14926399  0.85073601  1
  Ba  Ba7  1  0.64926399  0.64926399  0.64926399  1
  Ba  Ba8  1  0.90882117  0.86342026  0.64912775  1
  Ba  Ba9  1  0.90882117  0.13657974  0.35087225  1
  Ba  Ba10  1  0.86342026  0.64912775  0.90882117  1
  Ba  Ba11  1  0.13657974  0.64912775  0.09117883  1
  Ba  Ba12  1  0.64912775  0.90882117  0.86342026  1
  Ba  Ba13  1  0.35087225  0.09117883  0.86342026  1
  Ba  Ba14  1  0.59117883  0.85087225  0.36342026  1
  Ba  Ba15  1  0.59117883  0.14912775  0.63657974  1
  Ba  Ba16  1  0.40882117  0.85087225  0.63657974  1
  Ba  Ba17  1  0.14912775  0.63657974  0.59117883  1
  Ba  Ba18  1  0.63657974  0.40882117  0.85087225  1
  Ba  Ba19  1  0.63657974  0.59117883  0.14912775  1
  Ba  Ba20  1  0.85087225  0.36342026  0.59117883  1
  Ba  Ba21  1  0.36342026  0.59117883  0.85087225  1
  Ba  Ba22  1  0.85087225  0.63657974  0.40882117  1
  Ba  Ba23  1  0.14912775  0.36342026  0.40882117  1
  Ba  Ba24  1  0.36342026  0.40882117  0.14912775  1
  Ba  Ba25  1  0.35087225  0.90882117  0.13657974  1
  Ba  Ba26  1  0.64912775  0.09117883  0.13657974  1
  Ba  Ba27  1  0.86342026  0.35087225  0.09117883  1
  Ba  Ba28  1  0.13657974  0.35087225  0.90882117  1
  Ba  Ba29  1  0.09117883  0.13657974  0.64912775  1
  Ba  Ba30  1  0.09117883  0.86342026  0.35087225  1
  Ba  Ba31  1  0.40882117  0.14912775  0.36342026  1
  Ti  Ti32  1  0.50000000  0.50000000  0.50000000  1
  Ti  Ti33  1  -0.00000000  0.00000000  -0.00000000  1
  Ti  Ti34  1  0.75000000  0.00000000  0.50000000  1
  Ti  Ti35  1  0.50000000  0.75000000  -0.00000000  1
  Ti  Ti36  1  0.50000000  0.25000000  -0.00000000  1
  Ti  Ti37  1  -0.00000000  0.50000000  0.25000000  1
  Ti  Ti38  1  -0.00000000  0.50000000  0.75000000  1
  Ti  Ti39  1  0.25000000  0.00000000  0.50000000  1
  P  P40  1  0.89576865  0.89576865  0.89576865  1
  P  P41  1  0.60423135  0.39576865  0.60423135  1
  P  P42  1  0.39576865  0.60423135  0.60423135  1
  P  P43  1  0.60423135  0.60423135  0.39576865  1
  P  P44  1  0.89576865  0.10423135  0.10423135  1
  P  P45  1  0.10423135  0.10423135  0.89576865  1
  P  P46  1  0.10423135  0.89576865  0.10423135  1
  P  P47  1  0.39576865  0.39576865  0.39576865  1
  P  P48  1  0.65035209  0.89661792  0.61021011  1
  P  P49  1  0.65035209  0.10338208  0.38978989  1
  P  P50  1  0.89661792  0.61021011  0.65035209  1
  P  P51  1  0.10338208  0.61021011  0.34964791  1
  P  P52  1  0.61021011  0.65035209  0.89661792  1
  P  P53  1  0.38978989  0.34964791  0.89661792  1
  P  P54  1  0.84964791  0.88978989  0.39661792  1
  P  P55  1  0.84964791  0.11021011  0.60338208  1
  P  P56  1  0.15035209  0.88978989  0.60338208  1
  P  P57  1  0.11021011  0.60338208  0.84964791  1
  P  P58  1  0.60338208  0.15035209  0.88978989  1
  P  P59  1  0.60338208  0.84964791  0.11021011  1
  P  P60  1  0.88978989  0.39661792  0.84964791  1
  P  P61  1  0.39661792  0.84964791  0.88978989  1
  P  P62  1  0.88978989  0.60338208  0.15035209  1
  P  P63  1  0.11021011  0.39661792  0.15035209  1
  P  P64  1  0.39661792  0.15035209  0.11021011  1
  P  P65  1  0.38978989  0.65035209  0.10338208  1
  P  P66  1  0.61021011  0.34964791  0.10338208  1
  P  P67  1  0.89661792  0.38978989  0.34964791  1
  P  P68  1  0.10338208  0.38978989  0.65035209  1
  P  P69  1  0.34964791  0.10338208  0.61021011  1
  P  P70  1  0.34964791  0.89661792  0.38978989  1
  P  P71  1  0.15035209  0.11021011  0.39661792  1
