# generated using pymatgen
data_RbTiNbO5
_symmetry_space_group_name_H-M   'P 1'
_cell_length_a   3.82873980
_cell_length_b   6.48290086
_cell_length_c   19.04841234
_cell_angle_alpha   90.00000000
_cell_angle_beta   90.00000000
_cell_angle_gamma   90.00000000
_symmetry_Int_Tables_number   1
_chemical_formula_structural   RbTiNbO5
_chemical_formula_sum   'Rb4 Ti4 Nb4 O20'
_cell_volume   472.80712948
_cell_formula_units_Z   4
loop_
 _symmetry_equiv_pos_site_id
 _symmetry_equiv_pos_as_xyz
  1  'x, y, z'
loop_
 _atom_site_type_symbol
 _atom_site_label
 _atom_site_symmetry_multiplicity
 _atom_site_fract_x
 _atom_site_fract_y
 _atom_site_fract_z
 _atom_site_occupancy
  Rb  Rb0  1  0.25000000  0.78475817  0.19349345  1
  Rb  Rb1  1  0.25000000  0.28475817  0.30650655  1
  Rb  Rb2  1  0.75000000  0.21524183  0.80650655  1
  Rb  Rb3  1  0.75000000  0.71524183  0.69349345  1
  Ti  Ti4  1  0.25000000  0.32182785  0.96728889  1
  Ti  Ti5  1  0.25000000  0.82182785  0.53271111  1
  Ti  Ti6  1  0.75000000  0.67817215  0.03271111  1
  Ti  Ti7  1  0.75000000  0.17817215  0.46728889  1
  Nb  Nb8  1  0.25000000  0.77456352  0.89352885  1
  Nb  Nb9  1  0.25000000  0.27456352  0.60647115  1
  Nb  Nb10  1  0.75000000  0.22543648  0.10647115  1
  Nb  Nb11  1  0.75000000  0.72543648  0.39352885  1
  O  O12  1  0.25000000  0.23597057  0.07605169  1
  O  O13  1  0.25000000  0.73597057  0.42394831  1
  O  O14  1  0.75000000  0.76402943  0.92394831  1
  O  O15  1  0.75000000  0.26402943  0.57605169  1
  O  O16  1  0.25000000  0.84327699  0.80180055  1
  O  O17  1  0.25000000  0.34327699  0.69819945  1
  O  O18  1  0.75000000  0.15672301  0.19819945  1
  O  O19  1  0.75000000  0.65672301  0.30180055  1
  O  O20  1  0.25000000  0.46791518  0.88304726  1
  O  O21  1  0.25000000  0.96791518  0.61695274  1
  O  O22  1  0.75000000  0.53208482  0.11695274  1
  O  O23  1  0.75000000  0.03208482  0.38304726  1
  O  O24  1  0.25000000  0.06911575  0.92954671  1
  O  O25  1  0.25000000  0.56911575  0.57045329  1
  O  O26  1  0.75000000  0.93088425  0.07045329  1
  O  O27  1  0.75000000  0.43088425  0.42954671  1
  O  O28  1  0.25000000  0.64210056  0.01024451  1
  O  O29  1  0.25000000  0.14210056  0.48975549  1
  O  O30  1  0.75000000  0.35789944  0.98975549  1
  O  O31  1  0.75000000  0.85789944  0.51024451  1
