# generated using pymatgen
data_Rb2Cd(IBr)2
_symmetry_space_group_name_H-M   'P 1'
_cell_length_a   7.28989528
_cell_length_b   7.28989528
_cell_length_c   11.70306274
_cell_angle_alpha   90.00000000
_cell_angle_beta   90.00000000
_cell_angle_gamma   108.20032515
_symmetry_Int_Tables_number   1
_chemical_formula_structural   Rb2Cd(IBr)2
_chemical_formula_sum   'Rb4 Cd2 I4 Br4'
_cell_volume   590.81584040
_cell_formula_units_Z   2
loop_
 _symmetry_equiv_pos_site_id
 _symmetry_equiv_pos_as_xyz
  1  'x, y, z'
loop_
 _atom_site_type_symbol
 _atom_site_label
 _atom_site_symmetry_multiplicity
 _atom_site_fract_x
 _atom_site_fract_y
 _atom_site_fract_z
 _atom_site_occupancy
  Rb  Rb0  1  0.61558981  0.61558981  0.50000000  1
  Rb  Rb1  1  0.61558981  0.61558981  0.00000000  1
  Rb  Rb2  1  0.25207434  0.89386829  0.25000000  1
  Rb  Rb3  1  0.89386829  0.25207434  0.75000000  1
  Cd  Cd4  1  0.85303930  0.29345855  0.25000000  1
  Cd  Cd5  1  0.29345855  0.85303930  0.75000000  1
  I  I6  1  0.05471655  0.46736345  0.44588006  1
  I  I7  1  0.46736345  0.05471655  0.55411994  1
  I  I8  1  0.05471655  0.46736345  0.05411994  1
  I  I9  1  0.46736345  0.05471655  0.94588006  1
  Br  Br10  1  0.51710898  0.36138458  0.25000000  1
  Br  Br11  1  0.36138458  0.51710898  0.75000000  1
  Br  Br12  1  0.77576131  0.91596403  0.25000000  1
  Br  Br13  1  0.91596403  0.77576131  0.75000000  1
