# generated using pymatgen
data_Bi3(TeCl5)2
_symmetry_space_group_name_H-M   'P 1'
_cell_length_a   7.32986955
_cell_length_b   8.84263917
_cell_length_c   14.16571157
_cell_angle_alpha   87.40328927
_cell_angle_beta   82.83677693
_cell_angle_gamma   88.60311452
_symmetry_Int_Tables_number   1
_chemical_formula_structural   Bi3(TeCl5)2
_chemical_formula_sum   'Bi6 Te4 Cl20'
_cell_volume   909.89198402
_cell_formula_units_Z   2
loop_
 _symmetry_equiv_pos_site_id
 _symmetry_equiv_pos_as_xyz
  1  'x, y, z'
loop_
 _atom_site_type_symbol
 _atom_site_label
 _atom_site_symmetry_multiplicity
 _atom_site_fract_x
 _atom_site_fract_y
 _atom_site_fract_z
 _atom_site_occupancy
  Bi  Bi0  1  0.93205996  0.98334483  0.83444535  1
  Bi  Bi1  1  0.06794004  0.01665517  0.16555465  1
  Bi  Bi2  1  0.90695742  0.51218072  0.25280605  1
  Bi  Bi3  1  0.09304258  0.48781928  0.74719395  1
  Bi  Bi4  1  0.41140607  0.73598403  0.97432899  1
  Bi  Bi5  1  0.58859393  0.26401597  0.02567101  1
  Te  Te6  1  0.58698825  0.84095838  0.57970248  1
  Te  Te7  1  0.41301175  0.15904162  0.42029752  1
  Te  Te8  1  0.31837616  0.86970389  0.46484328  1
  Te  Te9  1  0.68162384  0.13029611  0.53515672  1
  Cl  Cl10  1  0.74203672  0.96493386  0.02316404  1
  Cl  Cl11  1  0.25796328  0.03506614  0.97683596  1
  Cl  Cl12  1  0.41063280  0.45811390  0.89973016  1
  Cl  Cl13  1  0.58936720  0.54188610  0.10026984  1
  Cl  Cl14  1  0.77120919  0.71667339  0.84897565  1
  Cl  Cl15  1  0.22879081  0.28332661  0.15102435  1
  Cl  Cl16  1  0.81130013  0.79124413  0.26766324  1
  Cl  Cl17  1  0.18869987  0.20875587  0.73233676  1
  Cl  Cl18  1  0.27346291  0.78401782  0.80735461  1
  Cl  Cl19  1  0.72653709  0.21598218  0.19264539  1
  Cl  Cl20  1  0.63714833  0.12512392  0.80739776  1
  Cl  Cl21  1  0.36285167  0.87487608  0.19260224  1
  Cl  Cl22  1  0.91313341  0.32783132  0.94329212  1
  Cl  Cl23  1  0.08686659  0.67216868  0.05670788  1
  Cl  Cl24  1  0.66900980  0.46105470  0.39703699  1
  Cl  Cl25  1  0.33099020  0.53894530  0.60296301  1
  Cl  Cl26  1  0.84352054  0.46911481  0.64525259  1
  Cl  Cl27  1  0.15647946  0.53088519  0.35474741  1
  Cl  Cl28  1  0.96167445  0.91381020  0.65430176  1
  Cl  Cl29  1  0.03832555  0.08618980  0.34569824  1
