# generated using pymatgen
data_Sr3GaAs3
_symmetry_space_group_name_H-M   'P 1'
_cell_length_a   6.52298524
_cell_length_b   12.80792584
_cell_length_c   19.34868481
_cell_angle_alpha   90.00000000
_cell_angle_beta   90.00000000
_cell_angle_gamma   90.00000000
_symmetry_Int_Tables_number   1
_chemical_formula_structural   Sr3GaAs3
_chemical_formula_sum   'Sr24 Ga8 As24'
_cell_volume   1616.50350315
_cell_formula_units_Z   8
loop_
 _symmetry_equiv_pos_site_id
 _symmetry_equiv_pos_as_xyz
  1  'x, y, z'
loop_
 _atom_site_type_symbol
 _atom_site_label
 _atom_site_symmetry_multiplicity
 _atom_site_fract_x
 _atom_site_fract_y
 _atom_site_fract_z
 _atom_site_occupancy
  Sr  Sr0  1  0.22311449  0.51238057  0.57421670  1
  Sr  Sr1  1  0.27688551  0.01238057  0.92578330  1
  Sr  Sr2  1  0.77688551  0.48761943  0.07421670  1
  Sr  Sr3  1  0.72311449  0.98761943  0.42578330  1
  Sr  Sr4  1  0.77688551  0.48761943  0.42578330  1
  Sr  Sr5  1  0.72311449  0.98761943  0.07421670  1
  Sr  Sr6  1  0.22311449  0.51238057  0.92578330  1
  Sr  Sr7  1  0.27688551  0.01238057  0.57421670  1
  Sr  Sr8  1  0.19204663  0.76439477  0.07339606  1
  Sr  Sr9  1  0.30795337  0.26439477  0.42660394  1
  Sr  Sr10  1  0.80795337  0.23560523  0.57339606  1
  Sr  Sr11  1  0.69204663  0.73560523  0.92660394  1
  Sr  Sr12  1  0.80795337  0.23560523  0.92660394  1
  Sr  Sr13  1  0.69204663  0.73560523  0.57339606  1
  Sr  Sr14  1  0.19204663  0.76439477  0.42660394  1
  Sr  Sr15  1  0.30795337  0.26439477  0.07339606  1
  Sr  Sr16  1  0.81204455  0.76773130  0.25000000  1
  Sr  Sr17  1  0.68795545  0.26773130  0.25000000  1
  Sr  Sr18  1  0.18795545  0.23226870  0.75000000  1
  Sr  Sr19  1  0.31204455  0.73226870  0.75000000  1
  Sr  Sr20  1  0.32969918  0.98085735  0.25000000  1
  Sr  Sr21  1  0.17030082  0.48085735  0.25000000  1
  Sr  Sr22  1  0.67030082  0.01914265  0.75000000  1
  Sr  Sr23  1  0.82969918  0.51914265  0.75000000  1
  Ga  Ga24  1  0.48639408  0.62648018  0.16323410  1
  Ga  Ga25  1  0.01360592  0.12648018  0.33676590  1
  Ga  Ga26  1  0.51360592  0.37351982  0.66323410  1
  Ga  Ga27  1  0.98639408  0.87351982  0.83676590  1
  Ga  Ga28  1  0.51360592  0.37351982  0.83676590  1
  Ga  Ga29  1  0.98639408  0.87351982  0.66323410  1
  Ga  Ga30  1  0.48639408  0.62648018  0.33676590  1
  Ga  Ga31  1  0.01360592  0.12648018  0.16323410  1
  As  As32  1  0.29084212  0.73425361  0.25000000  1
  As  As33  1  0.20915788  0.23425361  0.25000000  1
  As  As34  1  0.70915788  0.26574639  0.75000000  1
  As  As35  1  0.79084212  0.76574639  0.75000000  1
  As  As36  1  0.68599986  0.51740568  0.25000000  1
  As  As37  1  0.81400014  0.01740568  0.25000000  1
  As  As38  1  0.31400014  0.48259432  0.75000000  1
  As  As39  1  0.18599986  0.98259432  0.75000000  1
  As  As40  1  0.26718837  0.51147037  0.08989705  1
  As  As41  1  0.23281163  0.01147037  0.41010295  1
  As  As42  1  0.73281163  0.48852963  0.58989705  1
  As  As43  1  0.76718837  0.98852963  0.91010295  1
  As  As44  1  0.73281163  0.48852963  0.91010295  1
  As  As45  1  0.76718837  0.98852963  0.58989705  1
  As  As46  1  0.26718837  0.51147037  0.41010295  1
  As  As47  1  0.23281163  0.01147037  0.08989705  1
  As  As48  1  0.20565524  0.75897403  0.58995021  1
  As  As49  1  0.29434476  0.25897403  0.91004979  1
  As  As50  1  0.79434476  0.24102597  0.08995021  1
  As  As51  1  0.70565524  0.74102597  0.41004979  1
  As  As52  1  0.79434476  0.24102597  0.41004979  1
  As  As53  1  0.70565524  0.74102597  0.08995021  1
  As  As54  1  0.20565524  0.75897403  0.91004979  1
  As  As55  1  0.29434476  0.25897403  0.58995021  1
