# generated using pymatgen
data_BiSbWO6
_symmetry_space_group_name_H-M   'P 1'
_cell_length_a   8.80210745
_cell_length_b   8.80210745
_cell_length_c   5.41434276
_cell_angle_alpha   89.30531658
_cell_angle_beta   89.30531658
_cell_angle_gamma   36.27912218
_symmetry_Int_Tables_number   1
_chemical_formula_structural   BiSbWO6
_chemical_formula_sum   'Bi2 Sb2 W2 O12'
_cell_volume   248.19874909
_cell_formula_units_Z   2
loop_
 _symmetry_equiv_pos_site_id
 _symmetry_equiv_pos_as_xyz
  1  'x, y, z'
loop_
 _atom_site_type_symbol
 _atom_site_label
 _atom_site_symmetry_multiplicity
 _atom_site_fract_x
 _atom_site_fract_y
 _atom_site_fract_z
 _atom_site_occupancy
  Bi  Bi0  1  0.28306531  0.37596943  0.02851194  1
  Bi  Bi1  1  0.62403057  0.71693469  0.97148806  1
  Sb  Sb2  1  0.77265209  0.87582611  0.45964685  1
  Sb  Sb3  1  0.12417389  0.22734791  0.54035315  1
  W  W4  1  0.51305070  0.48694930  0.50000000  1
  W  W5  1  0.00981543  0.99018457  0.00000000  1
  O  O6  1  0.52318224  -0.00354160  0.21113573  1
  O  O7  1  0.00354160  0.47681776  0.78886427  1
  O  O8  1  0.00545420  0.50353179  0.29731626  1
  O  O9  1  0.49646821  -0.00545420  0.70268374  1
  O  O10  1  0.32332738  0.71974246  0.25066551  1
  O  O11  1  0.28025754  0.67667262  0.74933449  1
  O  O12  1  0.81892553  0.22406972  0.24435399  1
  O  O13  1  0.77593028  0.18107447  0.75564601  1
  O  O14  1  0.47491297  0.31080873  0.41637035  1
  O  O15  1  0.68919127  0.52508703  0.58362965  1
  O  O16  1  0.96556507  0.81994530  0.09286646  1
  O  O17  1  0.18005470  0.03443493  0.90713354  1
