# generated using pymatgen
data_Ba2InS4
_symmetry_space_group_name_H-M   'P 1'
_cell_length_a   6.31451728
_cell_length_b   10.15252747
_cell_length_c   13.15436476
_cell_angle_alpha   104.21037222
_cell_angle_beta   90.42755279
_cell_angle_gamma   91.01003372
_symmetry_Int_Tables_number   1
_chemical_formula_structural   Ba2InS4
_chemical_formula_sum   'Ba8 In4 S16'
_cell_volume   817.31228449
_cell_formula_units_Z   4
loop_
 _symmetry_equiv_pos_site_id
 _symmetry_equiv_pos_as_xyz
  1  'x, y, z'
loop_
 _atom_site_type_symbol
 _atom_site_label
 _atom_site_symmetry_multiplicity
 _atom_site_fract_x
 _atom_site_fract_y
 _atom_site_fract_z
 _atom_site_occupancy
  Ba  Ba0  1  0.74608567  0.37842343  0.52301310  1
  Ba  Ba1  1  0.25391433  0.62157657  0.47698690  1
  Ba  Ba2  1  0.76191635  0.92143878  0.61859926  1
  Ba  Ba3  1  0.23808365  0.07856122  0.38140074  1
  Ba  Ba4  1  0.25896767  0.89295556  0.84978707  1
  Ba  Ba5  1  0.74103233  0.10704444  0.15021293  1
  Ba  Ba6  1  0.74404741  0.57442686  0.89246809  1
  Ba  Ba7  1  0.25595259  0.42557314  0.10753191  1
  In  In8  1  0.67834725  0.79279727  0.30303882  1
  In  In9  1  0.32165275  0.20720273  0.69696118  1
  In  In10  1  0.83262726  0.19671069  0.88808355  1
  In  In11  1  0.16737274  0.80328931  0.11191645  1
  S  S12  1  0.58580146  0.65268404  0.68645672  1
  S  S13  1  0.41419854  0.34731596  0.31354328  1
  S  S14  1  0.91817855  0.65163003  0.68729576  1
  S  S15  1  0.08182145  0.34836997  0.31270424  1
  S  S16  1  0.76022607  0.66483072  0.42902149  1
  S  S17  1  0.23977393  0.33516928  0.57097851  1
  S  S18  1  0.26364354  0.96030410  0.60808671  1
  S  S19  1  0.73635646  0.03969590  0.39191329  1
  S  S20  1  0.71768696  0.25607688  0.72388255  1
  S  S21  1  0.28231304  0.74392312  0.27611745  1
  S  S22  1  0.24731445  0.63280962  0.95250318  1
  S  S23  1  0.75268555  0.36719038  0.04749682  1
  S  S24  1  0.75597797  0.96156542  0.88596570  1
  S  S25  1  0.24402203  0.03843458  0.11403430  1
  S  S26  1  0.77189035  0.78000977  0.12043736  1
  S  S27  1  0.22810965  0.21999023  0.87956264  1
