# generated using pymatgen
data_Mg14NbVO16
_symmetry_space_group_name_H-M   'P 1'
_cell_length_a   8.61068852
_cell_length_b   8.65561529
_cell_length_c   4.29165512
_cell_angle_alpha   90.00000000
_cell_angle_beta   90.00000000
_cell_angle_gamma   90.00000000
_symmetry_Int_Tables_number   1
_chemical_formula_structural   Mg14NbVO16
_chemical_formula_sum   'Mg14 Nb1 V1 O16'
_cell_volume   319.86052037
_cell_formula_units_Z   1
loop_
 _symmetry_equiv_pos_site_id
 _symmetry_equiv_pos_as_xyz
  1  'x, y, z'
loop_
 _atom_site_type_symbol
 _atom_site_label
 _atom_site_symmetry_multiplicity
 _atom_site_fract_x
 _atom_site_fract_y
 _atom_site_fract_z
 _atom_site_occupancy
  Mg  Mg0  1  0.50000000  0.00000000  0.00000000  1
  Mg  Mg1  1  0.50000000  0.50000000  0.00000000  1
  Mg  Mg2  1  0.00000000  0.24589495  0.50000000  1
  Mg  Mg3  1  0.00000000  0.75410505  0.50000000  1
  Mg  Mg4  1  0.50000000  0.24943302  0.50000000  1
  Mg  Mg5  1  0.50000000  0.75056698  0.50000000  1
  Mg  Mg6  1  0.25149465  0.00000000  0.50000000  1
  Mg  Mg7  1  0.25463075  0.50000000  0.50000000  1
  Mg  Mg8  1  0.74850535  0.00000000  0.50000000  1
  Mg  Mg9  1  0.74536925  0.50000000  0.50000000  1
  Mg  Mg10  1  0.25282750  0.24864271  0.00000000  1
  Mg  Mg11  1  0.25282750  0.75135729  0.00000000  1
  Mg  Mg12  1  0.74717250  0.24864271  0.00000000  1
  Mg  Mg13  1  0.74717250  0.75135729  0.00000000  1
  Nb  Nb14  1  0.00000000  0.50000000  0.00000000  1
  V  V15  1  0.00000000  0.00000000  0.00000000  1
  O  O16  1  0.25584804  0.00000000  0.00000000  1
  O  O17  1  0.26285759  0.50000000  0.00000000  1
  O  O18  1  0.74415196  0.00000000  0.00000000  1
  O  O19  1  0.73714241  0.50000000  0.00000000  1
  O  O20  1  0.24896505  0.25013422  0.50000000  1
  O  O21  1  0.24896505  0.74986578  0.50000000  1
  O  O22  1  0.75103495  0.25013422  0.50000000  1
  O  O23  1  0.75103495  0.74986578  0.50000000  1
  O  O24  1  0.00000000  0.00000000  0.50000000  1
  O  O25  1  0.00000000  0.50000000  0.50000000  1
  O  O26  1  0.50000000  0.00000000  0.50000000  1
  O  O27  1  0.50000000  0.50000000  0.50000000  1
  O  O28  1  0.00000000  0.24443097  0.00000000  1
  O  O29  1  0.00000000  0.75556903  0.00000000  1
  O  O30  1  0.50000000  0.24867038  0.00000000  1
  O  O31  1  0.50000000  0.75132962  0.00000000  1
