# generated using pymatgen
data_NaVF3
_symmetry_space_group_name_H-M   'P 1'
_cell_length_a   5.42093668
_cell_length_b   5.67689025
_cell_length_c   7.79968438
_cell_angle_alpha   90.00000000
_cell_angle_beta   90.00000000
_cell_angle_gamma   90.00000000
_symmetry_Int_Tables_number   1
_chemical_formula_structural   NaVF3
_chemical_formula_sum   'Na4 V4 F12'
_cell_volume   240.02797525
_cell_formula_units_Z   4
loop_
 _symmetry_equiv_pos_site_id
 _symmetry_equiv_pos_as_xyz
  1  'x, y, z'
loop_
 _atom_site_type_symbol
 _atom_site_label
 _atom_site_symmetry_multiplicity
 _atom_site_fract_x
 _atom_site_fract_y
 _atom_site_fract_z
 _atom_site_occupancy
  Na  Na0  1  0.48126824  0.06234851  0.25000000  1
  Na  Na1  1  0.01873176  0.56234851  0.25000000  1
  Na  Na2  1  0.51873176  0.93765149  0.75000000  1
  Na  Na3  1  0.98126824  0.43765149  0.75000000  1
  V  V4  1  0.50000000  0.50000000  0.00000000  1
  V  V5  1  0.00000000  0.00000000  0.50000000  1
  V  V6  1  0.50000000  0.50000000  0.50000000  1
  V  V7  1  0.00000000  0.00000000  0.00000000  1
  F  F8  1  0.62122774  0.44613376  0.25000000  1
  F  F9  1  0.87877226  0.94613376  0.25000000  1
  F  F10  1  0.37877226  0.55386624  0.75000000  1
  F  F11  1  0.12122774  0.05386624  0.75000000  1
  F  F12  1  0.19011311  0.30496430  0.06342020  1
  F  F13  1  0.30988689  0.80496530  0.43657980  1
  F  F14  1  0.80988689  0.69503570  0.56342020  1
  F  F15  1  0.69011311  0.19503470  0.93657980  1
  F  F16  1  0.80988689  0.69503570  0.93657980  1
  F  F17  1  0.69011311  0.19503470  0.56342020  1
  F  F18  1  0.19011311  0.30496430  0.43657980  1
  F  F19  1  0.30988689  0.80496530  0.06342020  1
