# generated using pymatgen
data_RbMg14BO15
_symmetry_space_group_name_H-M   'P 1'
_cell_length_a   8.56931000
_cell_length_b   8.88046428
_cell_length_c   4.34747200
_cell_angle_alpha   90.00000000
_cell_angle_beta   90.00000000
_cell_angle_gamma   90.00000000
_symmetry_Int_Tables_number   1
_chemical_formula_structural   RbMg14BO15
_chemical_formula_sum   'Rb1 Mg14 B1 O15'
_cell_volume   330.84023400
_cell_formula_units_Z   1
loop_
 _symmetry_equiv_pos_site_id
 _symmetry_equiv_pos_as_xyz
  1  'x, y, z'
loop_
 _atom_site_type_symbol
 _atom_site_label
 _atom_site_symmetry_multiplicity
 _atom_site_fract_x
 _atom_site_fract_y
 _atom_site_fract_z
 _atom_site_occupancy
  Rb  Rb0  1  0.07271860  0.00000000  -0.00000000  1
  Mg  Mg1  1  0.99720344  0.50000000  -0.00000000  1
  Mg  Mg2  1  0.50933360  0.00000000  -0.00000000  1
  Mg  Mg3  1  0.98973354  0.25368550  0.50000000  1
  Mg  Mg4  1  0.98973354  0.74631450  0.50000000  1
  Mg  Mg5  1  0.50156484  0.25406792  0.50000000  1
  Mg  Mg6  1  0.50156484  0.74593208  0.50000000  1
  Mg  Mg7  1  0.26682786  0.00000000  0.50000000  1
  Mg  Mg8  1  0.24971971  0.50000000  0.50000000  1
  Mg  Mg9  1  0.75051201  0.00000000  0.50000000  1
  Mg  Mg10  1  0.74357040  0.50000000  0.50000000  1
  Mg  Mg11  1  0.26503206  0.28419386  0.00000000  1
  Mg  Mg12  1  0.26503206  0.71580614  0.00000000  1
  Mg  Mg13  1  0.75020244  0.23023246  -0.00000000  1
  Mg  Mg14  1  0.75020244  0.76976754  -0.00000000  1
  B  B15  1  0.55527607  0.50000000  -0.00000000  1
  O  O16  1  0.22893488  0.50000000  -0.00000000  1
  O  O17  1  0.73863647  0.00000000  -0.00000000  1
  O  O18  1  0.71249759  0.50000000  -0.00000000  1
  O  O19  1  0.24723474  0.24469635  0.50000000  1
  O  O20  1  0.24723474  0.75530365  0.50000000  1
  O  O21  1  0.74303955  0.25485918  0.50000000  1
  O  O22  1  0.74303955  0.74514082  0.50000000  1
  O  O23  1  0.98109280  0.00000000  0.50000000  1
  O  O24  1  0.98690820  0.50000000  0.50000000  1
  O  O25  1  0.49859912  0.00000000  0.50000000  1
  O  O26  1  0.49984091  0.50000000  0.50000000  1
  O  O27  1  0.98638506  0.27608765  -0.00000000  1
  O  O28  1  0.98638506  0.72391235  -0.00000000  1
  O  O29  1  0.49597193  0.23308711  0.00000000  1
  O  O30  1  0.49597193  0.76691289  -0.00000000  1
