# generated using pymatgen
data_Ho8Mg(Ge2O7)4
_symmetry_space_group_name_H-M   'P 1'
_cell_length_a   6.82919925
_cell_length_b   6.82919925
_cell_length_c   12.96429920
_cell_angle_alpha   88.91788583
_cell_angle_beta   91.08211417
_cell_angle_gamma   90.00871668
_symmetry_Int_Tables_number   1
_chemical_formula_structural   Ho8Mg(Ge2O7)4
_chemical_formula_sum   'Ho8 Mg1 Ge8 O28'
_cell_volume   604.41284167
_cell_formula_units_Z   1
loop_
 _symmetry_equiv_pos_site_id
 _symmetry_equiv_pos_as_xyz
  1  'x, y, z'
loop_
 _atom_site_type_symbol
 _atom_site_label
 _atom_site_symmetry_multiplicity
 _atom_site_fract_x
 _atom_site_fract_y
 _atom_site_fract_z
 _atom_site_occupancy
  Ho  Ho0  1  0.84808104  0.63057497  0.89052025  1
  Ho  Ho1  1  0.33907047  0.87700320  0.87842678  1
  Ho  Ho2  1  0.35308294  0.14841995  0.63748365  1
  Ho  Ho3  1  0.64792482  0.11506759  0.35280194  1
  Ho  Ho4  1  0.14841995  0.35308294  0.36251635  1
  Ho  Ho5  1  0.11506759  0.64792482  0.64719806  1
  Ho  Ho6  1  0.63057497  0.84808104  0.10947975  1
  Ho  Ho7  1  0.87700320  0.33907047  0.12157322  1
  Mg  Mg8  1  0.48880047  0.48880047  0.50000000  1
  Ge  Ge9  1  0.40560709  0.34177112  0.12406625  1
  Ge  Ge10  1  0.71190512  0.60398562  0.35184455  1
  Ge  Ge11  1  0.60398562  0.71190512  0.64815545  1
  Ge  Ge12  1  0.09945550  0.83224554  0.12927723  1
  Ge  Ge13  1  0.83224554  0.09945550  0.87072277  1
  Ge  Ge14  1  0.15590218  0.87953894  0.38793609  1
  Ge  Ge15  1  0.87953894  0.15590218  0.61206391  1
  Ge  Ge16  1  0.34177112  0.40560709  0.87593375  1
  O  O17  1  0.34535971  0.19043964  0.80350295  1
  O  O18  1  0.05498259  0.96373012  0.61212918  1
  O  O19  1  0.65775834  0.19172670  0.53616560  1
  O  O20  1  0.65467466  0.93940689  0.92982989  1
  O  O21  1  0.33652163  0.06675749  0.41424455  1
  O  O22  1  0.38975945  0.84871598  0.70636760  1
  O  O23  1  0.52503654  0.58430989  0.88386534  1
  O  O24  1  0.42287944  0.48595966  0.64247929  1
  O  O25  1  0.16120596  0.76633485  0.26164323  1
  O  O26  1  0.58430989  0.52503654  0.11613466  1
  O  O27  1  0.29685757  0.29685757  0.00000000  1
  O  O28  1  0.92685834  0.02199665  0.12622538  1
  O  O29  1  0.19172670  0.65775834  0.46383440  1
  O  O30  1  0.93940689  0.65467466  0.07017011  1
  O  O31  1  0.85214183  0.31275844  0.94349490  1
  O  O32  1  0.02199665  0.92685834  0.87377462  1
  O  O33  1  0.15420385  0.56877100  0.82938048  1
  O  O34  1  0.31275844  0.85214183  0.05650510  1
  O  O35  1  0.63660290  0.81749947  0.27825300  1
  O  O36  1  0.19043964  0.34535971  0.19649705  1
  O  O37  1  0.56877100  0.15420385  0.17061952  1
  O  O38  1  0.81749947  0.63660290  0.72174700  1
  O  O39  1  0.96373012  0.05498259  0.38787082  1
  O  O40  1  0.06675749  0.33652163  0.58575545  1
  O  O41  1  0.69090686  0.69090686  0.50000000  1
  O  O42  1  0.84871598  0.38975945  0.29363240  1
  O  O43  1  0.76633485  0.16120596  0.73835677  1
  O  O44  1  0.48595966  0.42287944  0.35752071  1
