# generated using pymatgen
data_Sr2MgZn2Sn2(PO4)4
_symmetry_space_group_name_H-M   'P 1'
_cell_length_a   5.75733867
_cell_length_b   8.21638548
_cell_length_c   9.37933055
_cell_angle_alpha   110.45231891
_cell_angle_beta   101.08011256
_cell_angle_gamma   86.25372660
_symmetry_Int_Tables_number   1
_chemical_formula_structural   Sr2MgZn2Sn2(PO4)4
_chemical_formula_sum   'Sr2 Mg1 Zn2 Sn2 P4 O16'
_cell_volume   407.96627325
_cell_formula_units_Z   1
loop_
 _symmetry_equiv_pos_site_id
 _symmetry_equiv_pos_as_xyz
  1  'x, y, z'
loop_
 _atom_site_type_symbol
 _atom_site_label
 _atom_site_symmetry_multiplicity
 _atom_site_fract_x
 _atom_site_fract_y
 _atom_site_fract_z
 _atom_site_occupancy
  Sr  Sr0  1  0.16882149  0.77538659  0.05152584  1
  Sr  Sr1  1  0.83187057  0.20107523  0.99426974  1
  Mg  Mg2  1  0.20565480  0.37184551  0.84113967  1
  Zn  Zn3  1  0.84453674  0.42520715  0.42849198  1
  Zn  Zn4  1  0.02562225  0.68627564  0.43782063  1
  Sn  Sn5  1  0.59273696  0.81630253  0.55626374  1
  Sn  Sn6  1  0.42109908  0.17831546  0.45290193  1
  P  P7  1  0.36438041  0.42938045  0.22561765  1
  P  P8  1  0.65470310  0.55592930  0.76257406  1
  P  P9  1  0.77503113  0.96995701  0.26042816  1
  P  P10  1  0.21182554  0.02729760  0.77429134  1
  O  O11  1  0.90028069  0.52240930  0.85005317  1
  O  O12  1  0.62411083  0.38924827  0.20704989  1
  O  O13  1  0.65322351  0.74323833  0.75853959  1
  O  O14  1  0.00487660  0.15284570  0.74832659  1
  O  O15  1  0.45047230  0.53050774  0.83940374  1
  O  O16  1  0.23099935  0.87355976  0.61953965  1
  O  O17  1  0.78385141  0.15775919  0.39134326  1
  O  O18  1  0.16851571  0.96292859  0.90115750  1
  O  O19  1  0.25866100  0.28434203  0.26706696  1
  O  O20  1  0.82998640  0.98321911  0.11149880  1
  O  O21  1  0.20824093  0.44112016  0.07478833  1
  O  O22  1  0.35076239  0.60917187  0.35974676  1
  O  O23  1  0.61704927  0.42963287  0.58901470  1
  O  O24  1  0.51784424  0.91081911  0.24562141  1
  O  O25  1  0.96307454  0.84473372  0.30667050  1
  O  O26  1  0.43700678  0.14415779  0.81985440  1
