# generated using pymatgen
data_Ga2O3
_symmetry_space_group_name_H-M   'P 1'
_cell_length_a   5.33168661
_cell_length_b   5.33168667
_cell_length_c   5.33168626
_cell_angle_alpha   55.89350486
_cell_angle_beta   55.89349639
_cell_angle_gamma   55.89350691
_symmetry_Int_Tables_number   1
_chemical_formula_structural   Ga2O3
_chemical_formula_sum   'Ga4 O6'
_cell_volume   96.97069759
_cell_formula_units_Z   2
loop_
 _symmetry_equiv_pos_site_id
 _symmetry_equiv_pos_as_xyz
  1  'x, y, z'
loop_
 _atom_site_type_symbol
 _atom_site_label
 _atom_site_symmetry_multiplicity
 _atom_site_fract_x
 _atom_site_fract_y
 _atom_site_fract_z
 _atom_site_occupancy
  Ga  Ga0  1  0.85558558  0.85558558  0.85558558  1
  Ga  Ga1  1  0.64441442  0.64441442  0.64441442  1
  Ga  Ga2  1  0.14441442  0.14441442  0.14441442  1
  Ga  Ga3  1  0.35558558  0.35558558  0.35558558  1
  O  O4  1  0.75000000  0.44683282  0.05316718  1
  O  O5  1  0.44683282  0.05316718  0.75000000  1
  O  O6  1  0.05316718  0.75000000  0.44683282  1
  O  O7  1  0.25000000  0.55316718  0.94683282  1
  O  O8  1  0.94683282  0.25000000  0.55316718  1
  O  O9  1  0.55316718  0.94683282  0.25000000  1
