# generated using pymatgen
data_Ba4SiP4
_symmetry_space_group_name_H-M   'P 1'
_cell_length_a   13.12533982
_cell_length_b   13.12533982
_cell_length_c   13.12533982
_cell_angle_alpha   90.00000000
_cell_angle_beta   90.00000000
_cell_angle_gamma   90.00000000
_symmetry_Int_Tables_number   1
_chemical_formula_structural   Ba4SiP4
_chemical_formula_sum   'Ba32 Si8 P32'
_cell_volume   2261.16195059
_cell_formula_units_Z   8
loop_
 _symmetry_equiv_pos_site_id
 _symmetry_equiv_pos_as_xyz
  1  'x, y, z'
loop_
 _atom_site_type_symbol
 _atom_site_label
 _atom_site_symmetry_multiplicity
 _atom_site_fract_x
 _atom_site_fract_y
 _atom_site_fract_z
 _atom_site_occupancy
  Ba  Ba0  1  0.90689924  0.86682380  0.64613992  1
  Ba  Ba1  1  0.90689924  0.13317620  0.35386008  1
  Ba  Ba2  1  0.86682380  0.64613992  0.90689924  1
  Ba  Ba3  1  0.13317620  0.64613992  0.09310076  1
  Ba  Ba4  1  0.64613992  0.90689924  0.86682380  1
  Ba  Ba5  1  0.35386008  0.09310076  0.86682380  1
  Ba  Ba6  1  0.59310076  0.85386008  0.36682380  1
  Ba  Ba7  1  0.59310076  0.14613992  0.63317620  1
  Ba  Ba8  1  0.40689924  0.85386008  0.63317620  1
  Ba  Ba9  1  0.14613992  0.63317620  0.59310076  1
  Ba  Ba10  1  0.63317620  0.40689924  0.85386008  1
  Ba  Ba11  1  0.63317620  0.59310076  0.14613992  1
  Ba  Ba12  1  0.85386008  0.36682380  0.59310076  1
  Ba  Ba13  1  0.36682380  0.59310076  0.85386008  1
  Ba  Ba14  1  0.85386008  0.63317620  0.40689924  1
  Ba  Ba15  1  0.14613992  0.36682380  0.40689924  1
  Ba  Ba16  1  0.36682380  0.40689924  0.14613992  1
  Ba  Ba17  1  0.35386008  0.90689924  0.13317620  1
  Ba  Ba18  1  0.64613992  0.09310076  0.13317620  1
  Ba  Ba19  1  0.86682380  0.35386008  0.09310076  1
  Ba  Ba20  1  0.13317620  0.35386008  0.90689924  1
  Ba  Ba21  1  0.09310076  0.13317620  0.64613992  1
  Ba  Ba22  1  0.09310076  0.86682380  0.35386008  1
  Ba  Ba23  1  0.40689924  0.14613992  0.36682380  1
  Ba  Ba24  1  0.14619649  0.14619649  0.14619649  1
  Ba  Ba25  1  0.35380351  0.64619649  0.35380351  1
  Ba  Ba26  1  0.64619649  0.35380351  0.35380351  1
  Ba  Ba27  1  0.35380351  0.35380351  0.64619649  1
  Ba  Ba28  1  0.14619649  0.85380351  0.85380351  1
  Ba  Ba29  1  0.85380351  0.85380351  0.14619649  1
  Ba  Ba30  1  0.85380351  0.14619649  0.85380351  1
  Ba  Ba31  1  0.64619649  0.64619649  0.64619649  1
  Si  Si32  1  0.50000000  0.75000000  -0.00000000  1
  Si  Si33  1  0.50000000  0.25000000  -0.00000000  1
  Si  Si34  1  -0.00000000  0.50000000  0.25000000  1
  Si  Si35  1  -0.00000000  0.50000000  0.75000000  1
  Si  Si36  1  0.25000000  -0.00000000  0.50000000  1
  Si  Si37  1  0.50000000  0.50000000  0.50000000  1
  Si  Si38  1  -0.00000000  -0.00000000  -0.00000000  1
  Si  Si39  1  0.75000000  -0.00000000  0.50000000  1
  P  P40  1  0.89970539  0.39189043  0.34558159  1
  P  P41  1  0.10810957  0.60029461  0.84558159  1
  P  P42  1  0.60029461  0.15441841  0.89189043  1
  P  P43  1  0.60029461  0.84558159  0.10810957  1
  P  P44  1  0.89189043  0.39970539  0.84558159  1
  P  P45  1  0.39970539  0.84558159  0.89189043  1
  P  P46  1  0.89189043  0.60029461  0.15441841  1
  P  P47  1  0.10810957  0.39970539  0.15441841  1
  P  P48  1  0.39970539  0.15441841  0.10810957  1
  P  P49  1  0.84558159  0.10810957  0.60029461  1
  P  P50  1  0.60810957  0.34558159  0.10029461  1
  P  P51  1  0.15441841  0.89189043  0.60029461  1
  P  P52  1  0.10029461  0.39189043  0.65441841  1
  P  P53  1  0.34558159  0.10029461  0.60810957  1
  P  P54  1  0.34558159  0.89970539  0.39189043  1
  P  P55  1  0.15441841  0.10810957  0.39970539  1
  P  P56  1  0.89904042  0.89904042  0.89904042  1
  P  P57  1  0.60095958  0.39904042  0.60095958  1
  P  P58  1  0.39904042  0.60095958  0.60095958  1
  P  P59  1  0.60095958  0.60095958  0.39904042  1
  P  P60  1  0.89904042  0.10095958  0.10095958  1
  P  P61  1  0.10095958  0.10095958  0.89904042  1
  P  P62  1  0.10095958  0.89904042  0.10095958  1
  P  P63  1  0.39904042  0.39904042  0.39904042  1
  P  P64  1  0.84558159  0.89189043  0.39970539  1
  P  P65  1  0.39189043  0.34558159  0.89970539  1
  P  P66  1  0.60810957  0.65441841  0.89970539  1
  P  P67  1  0.10029461  0.60810957  0.34558159  1
  P  P68  1  0.89970539  0.60810957  0.65441841  1
  P  P69  1  0.65441841  0.10029461  0.39189043  1
  P  P70  1  0.65441841  0.89970539  0.60810957  1
  P  P71  1  0.39189043  0.65441841  0.10029461  1
