# generated using pymatgen
data_CaNi(PO3)4
_symmetry_space_group_name_H-M   'P 1'
_cell_length_a   7.44340422
_cell_length_b   7.44340422
_cell_length_c   9.73373186
_cell_angle_alpha   67.48984673
_cell_angle_beta   67.48984673
_cell_angle_gamma   71.53216400
_symmetry_Int_Tables_number   1
_chemical_formula_structural   CaNi(PO3)4
_chemical_formula_sum   'Ca2 Ni2 P8 O24'
_cell_volume   450.99995039
_cell_formula_units_Z   2
loop_
 _symmetry_equiv_pos_site_id
 _symmetry_equiv_pos_as_xyz
  1  'x, y, z'
loop_
 _atom_site_type_symbol
 _atom_site_label
 _atom_site_symmetry_multiplicity
 _atom_site_fract_x
 _atom_site_fract_y
 _atom_site_fract_z
 _atom_site_occupancy
  Ca  Ca0  1  0.94776378  0.05223622  0.25000000  1
  Ca  Ca1  1  0.05223622  0.94776378  0.75000000  1
  Ni  Ni2  1  0.00000000  0.50000000  -0.00000000  1
  Ni  Ni3  1  0.50000000  -0.00000000  0.50000000  1
  P  P4  1  0.69301354  0.69106564  0.30021906  1
  P  P5  1  0.30893436  0.30698646  0.19978094  1
  P  P6  1  0.30698646  0.30893436  0.69978094  1
  P  P7  1  0.69106564  0.69301354  0.80021906  1
  P  P8  1  0.72311539  0.28523458  0.52884877  1
  P  P9  1  0.71476542  0.27688461  0.97115123  1
  P  P10  1  0.27688461  0.71476542  0.47115123  1
  P  P11  1  0.28523458  0.72311539  0.02884877  1
  O  O12  1  0.46695141  0.69961768  0.32264766  1
  O  O13  1  0.30038232  0.53304859  0.17735234  1
  O  O14  1  0.53304859  0.30038232  0.67735234  1
  O  O15  1  0.69961768  0.46695141  0.82264766  1
  O  O16  1  0.73967598  0.51172035  0.44503523  1
  O  O17  1  0.48827965  0.26032402  0.05496477  1
  O  O18  1  0.26032402  0.48827965  0.55496477  1
  O  O19  1  0.51172035  0.73967598  0.94503523  1
  O  O20  1  0.81853506  0.65374139  0.15148438  1
  O  O21  1  0.34625861  0.18146494  0.34851562  1
  O  O22  1  0.18146494  0.34625861  0.84851562  1
  O  O23  1  0.65374139  0.81853506  0.65148438  1
  O  O24  1  0.70098795  0.87460038  0.32629271  1
  O  O25  1  0.12539962  0.29901205  0.17370729  1
  O  O26  1  0.29901205  0.12539962  0.67370729  1
  O  O27  1  0.87460038  0.70098795  0.82629271  1
  O  O28  1  0.67551170  0.20814498  0.42704613  1
  O  O29  1  0.79185502  0.32448830  0.07295387  1
  O  O30  1  0.32448830  0.79185502  0.57295387  1
  O  O31  1  0.20814498  0.67551170  0.92704613  1
  O  O32  1  0.90081555  0.18035624  0.57913672  1
  O  O33  1  0.81964376  0.09918445  0.92086328  1
  O  O34  1  0.09918445  0.81964376  0.42086328  1
  O  O35  1  0.18035624  0.90081555  0.07913672  1
