# generated using pymatgen
data_CeSe2
_symmetry_space_group_name_H-M   'P 1'
_cell_length_a   14.13753425
_cell_length_b   15.34793027
_cell_length_c   14.13753425
_cell_angle_alpha   62.57622778
_cell_angle_beta   90.00000000
_cell_angle_gamma   117.42377222
_symmetry_Int_Tables_number   1
_chemical_formula_structural   CeSe2
_chemical_formula_sum   'Ce16 Se32'
_cell_volume   2327.63916915
_cell_formula_units_Z   16
loop_
 _symmetry_equiv_pos_site_id
 _symmetry_equiv_pos_as_xyz
  1  'x, y, z'
loop_
 _atom_site_type_symbol
 _atom_site_label
 _atom_site_symmetry_multiplicity
 _atom_site_fract_x
 _atom_site_fract_y
 _atom_site_fract_z
 _atom_site_occupancy
  Ce  Ce0  1  0.90795521  0.61741157  0.56915979  1
  Ce  Ce1  1  0.20945636  0.61741157  0.06915979  1
  Ce  Ce2  1  0.43084021  0.11741157  0.09204479  1
  Ce  Ce3  1  0.18657136  0.11741157  0.59204479  1
  Ce  Ce4  1  0.09204479  0.38258843  0.43084021  1
  Ce  Ce5  1  0.79054364  0.38258843  0.93084021  1
  Ce  Ce6  1  0.56915979  0.88258843  0.90795521  1
  Ce  Ce7  1  0.81342864  0.88258843  0.40795521  1
  Ce  Ce8  1  0.40795521  0.61741157  0.81342864  1
  Ce  Ce9  1  0.70945636  0.61741157  0.31342864  1
  Ce  Ce10  1  0.93084021  0.11741157  0.79054364  1
  Ce  Ce11  1  0.68657136  0.11741157  0.29054364  1
  Ce  Ce12  1  0.59204479  0.38258843  0.18657136  1
  Ce  Ce13  1  0.29054364  0.38258843  0.68657136  1
  Ce  Ce14  1  0.06915979  0.88258843  0.20945636  1
  Ce  Ce15  1  0.31342864  0.88258843  0.70945636  1
  Se  Se16  1  0.75461076  0.50922151  0.99538924  1
  Se  Se17  1  0.25461076  0.50922151  0.49538924  1
  Se  Se18  1  0.00461076  0.00922151  0.24538924  1
  Se  Se19  1  0.50461076  0.00922151  0.74538924  1
  Se  Se20  1  0.24538924  0.49077849  0.00461076  1
  Se  Se21  1  0.74538924  0.49077849  0.50461076  1
  Se  Se22  1  0.99538924  0.99077849  0.75461076  1
  Se  Se23  1  0.49538924  0.99077849  0.25461076  1
  Se  Se24  1  0.75000000  0.00000000  0.46236521  1
  Se  Se25  1  0.75000000  0.00000000  0.96236521  1
  Se  Se26  1  0.53763479  0.50000000  0.25000000  1
  Se  Se27  1  0.46236521  0.50000000  0.75000000  1
  Se  Se28  1  0.25000000  0.00000000  0.53763479  1
  Se  Se29  1  0.25000000  0.00000000  0.03763479  1
  Se  Se30  1  0.03763479  0.50000000  0.25000000  1
  Se  Se31  1  0.96236521  0.50000000  0.75000000  1
  Se  Se32  1  0.90198202  0.24786560  0.59621475  1
  Se  Se33  1  0.84588357  0.24786560  0.09621475  1
  Se  Se34  1  0.40378525  0.74786560  0.09801798  1
  Se  Se35  1  0.84408035  0.74786560  0.59801798  1
  Se  Se36  1  0.09801798  0.75213440  0.40378525  1
  Se  Se37  1  0.15411643  0.75213440  0.90378525  1
  Se  Se38  1  0.59621475  0.25213440  0.90198202  1
  Se  Se39  1  0.15591965  0.25213440  0.40198202  1
  Se  Se40  1  0.40198202  0.24786560  0.15591965  1
  Se  Se41  1  0.34588357  0.24786560  0.65591965  1
  Se  Se42  1  0.90378525  0.74786560  0.15411643  1
  Se  Se43  1  0.34408035  0.74786560  0.65411643  1
  Se  Se44  1  0.59801798  0.75213440  0.84408035  1
  Se  Se45  1  0.65411643  0.75213440  0.34408035  1
  Se  Se46  1  0.09621475  0.25213440  0.84588357  1
  Se  Se47  1  0.65591965  0.25213440  0.34588357  1
