# generated using pymatgen
data_Mg4FeO5
_symmetry_space_group_name_H-M   'P 1'
_cell_length_a   2.97008444
_cell_length_b   2.96986258
_cell_length_c   24.58244220
_cell_angle_alpha   86.47659298
_cell_angle_beta   86.47407520
_cell_angle_gamma   59.91196032
_symmetry_Int_Tables_number   1
_chemical_formula_structural   Mg4FeO5
_chemical_formula_sum   'Mg8 Fe2 O10'
_cell_volume   187.14522568
_cell_formula_units_Z   2
loop_
 _symmetry_equiv_pos_site_id
 _symmetry_equiv_pos_as_xyz
  1  'x, y, z'
loop_
 _atom_site_type_symbol
 _atom_site_label
 _atom_site_symmetry_multiplicity
 _atom_site_fract_x
 _atom_site_fract_y
 _atom_site_fract_z
 _atom_site_occupancy
  Mg  Mg0  1  0.29795564  0.29963867  0.10073541  1
  Mg  Mg1  1  0.80016903  0.79765046  0.60240759  1
  Mg  Mg2  1  0.19982447  0.20235531  0.39759256  1
  Mg  Mg3  1  0.70204710  0.70036063  0.89926504  1
  Mg  Mg4  1  0.59956600  0.59990529  0.19959642  1
  Mg  Mg5  1  0.09921674  0.09889647  0.70153473  1
  Mg  Mg6  1  0.90078181  0.90110498  0.29846575  1
  Mg  Mg7  1  0.40043538  0.40009379  0.80040402  1
  Fe  Fe8  1  0.49999438  0.50000358  0.50000012  1
  Fe  Fe9  1  -0.00000277  0.99999563  0.00000005  1
  O  O10  1  0.25022811  0.25045785  0.24902925  1
  O  O11  1  0.74977173  0.74954246  0.75097112  1
  O  O12  1  0.84842669  0.85295427  0.44615413  1
  O  O13  1  0.35291183  0.34861845  0.94703174  1
  O  O14  1  0.64710010  0.65138023  0.05296796  1
  O  O15  1  0.15156847  0.14705046  0.55384599  1
  O  O16  1  0.55028431  0.55136486  0.34799061  1
  O  O17  1  0.05106217  0.05012579  0.84979131  1
  O  O18  1  0.94894538  0.94986298  0.15020852  1
  O  O19  1  0.44971242  0.44863785  0.65200970  1
