# generated using pymatgen
data_KInBP2HO9
_symmetry_space_group_name_H-M   'P 1'
_cell_length_a   5.27489809
_cell_length_b   8.27904226
_cell_length_c   8.38823913
_cell_angle_alpha   89.00329867
_cell_angle_beta   79.79285657
_cell_angle_gamma   87.24246512
_symmetry_Int_Tables_number   1
_chemical_formula_structural   KInBP2HO9
_chemical_formula_sum   'K2 In2 B2 P4 H2 O18'
_cell_volume   360.09392924
_cell_formula_units_Z   2
loop_
 _symmetry_equiv_pos_site_id
 _symmetry_equiv_pos_as_xyz
  1  'x, y, z'
loop_
 _atom_site_type_symbol
 _atom_site_label
 _atom_site_symmetry_multiplicity
 _atom_site_fract_x
 _atom_site_fract_y
 _atom_site_fract_z
 _atom_site_occupancy
  K  K0  1  0.27865705  0.17612819  0.88450853  1
  K  K1  1  0.72134295  0.82387181  0.11549147  1
  In  In2  1  0.27850747  0.69375388  0.79653024  1
  In  In3  1  0.72149253  0.30624612  0.20346976  1
  B  B4  1  0.10215909  0.76718595  0.43964578  1
  B  B5  1  0.89784091  0.23281405  0.56035422  1
  P  P6  1  0.21710882  0.56258961  0.18918115  1
  P  P7  1  0.78289118  0.43741039  0.81081885  1
  P  P8  1  0.80512478  0.92644902  0.69926077  1
  P  P9  1  0.19487522  0.07355098  0.30073923  1
  H  H10  1  0.40270364  0.61743671  0.47053293  1
  H  H11  1  0.59729636  0.38256329  0.52946707  1
  O  O12  1  0.27947534  0.68335728  0.04958749  1
  O  O13  1  0.72052466  0.31664272  0.95041251  1
  O  O14  1  0.27407248  0.68559267  0.53929117  1
  O  O15  1  0.72592752  0.31440733  0.46070883  1
  O  O16  1  0.02974196  0.91270213  0.79099720  1
  O  O17  1  0.97025804  0.08729787  0.20900280  1
  O  O18  1  0.55741754  0.87138909  0.80016642  1
  O  O19  1  0.44258246  0.12861091  0.19983358  1
  O  O20  1  0.91534465  0.58290581  0.85681570  1
  O  O21  1  0.08465535  0.41709419  0.14318430  1
  O  O22  1  0.86628801  0.82907285  0.53977228  1
  O  O23  1  0.13371199  0.17092715  0.46022772  1
  O  O24  1  0.02706205  0.65259098  0.32751996  1
  O  O25  1  0.97293795  0.34740902  0.67248004  1
  O  O26  1  0.74836390  0.10493809  0.65499475  1
  O  O27  1  0.25163610  0.89506191  0.34500525  1
  O  O28  1  0.46525773  0.51557606  0.25560902  1
  O  O29  1  0.53474227  0.48442394  0.74439098  1
