# generated using pymatgen
data_NaVF6
_symmetry_space_group_name_H-M   'P 1'
_cell_length_a   5.83556655
_cell_length_b   7.58603532
_cell_length_c   9.39569113
_cell_angle_alpha   90.00000000
_cell_angle_beta   90.00000000
_cell_angle_gamma   90.00000000
_symmetry_Int_Tables_number   1
_chemical_formula_structural   NaVF6
_chemical_formula_sum   'Na4 V4 F24'
_cell_volume   415.93610266
_cell_formula_units_Z   4
loop_
 _symmetry_equiv_pos_site_id
 _symmetry_equiv_pos_as_xyz
  1  'x, y, z'
loop_
 _atom_site_type_symbol
 _atom_site_label
 _atom_site_symmetry_multiplicity
 _atom_site_fract_x
 _atom_site_fract_y
 _atom_site_fract_z
 _atom_site_occupancy
  Na  Na0  1  0.75000000  0.16595211  0.00503434  1
  Na  Na1  1  0.25000000  0.66595211  0.49496566  1
  Na  Na2  1  0.25000000  0.83404789  0.99496566  1
  Na  Na3  1  0.75000000  0.33404789  0.50503434  1
  V  V4  1  0.25000000  0.11609551  0.27117409  1
  V  V5  1  0.25000000  0.38390449  0.77117409  1
  V  V6  1  0.75000000  0.61609551  0.22882591  1
  V  V7  1  0.75000000  0.88390449  0.72882591  1
  F  F8  1  0.53781300  0.95199086  0.86021921  1
  F  F9  1  0.25000000  0.17230652  0.69645173  1
  F  F10  1  0.53781300  0.54800914  0.36021921  1
  F  F11  1  0.97077632  0.82724605  0.60739840  1
  F  F12  1  0.75000000  0.82769348  0.30354827  1
  F  F13  1  0.46218700  0.04800914  0.13978079  1
  F  F14  1  0.52922368  0.82724605  0.60739840  1
  F  F15  1  0.25000000  0.89261571  0.33555922  1
  F  F16  1  0.25000000  0.60738429  0.83555922  1
  F  F17  1  0.02922368  0.32724605  0.89260160  1
  F  F18  1  0.96218700  0.54800914  0.36021921  1
  F  F19  1  0.75000000  0.39261571  0.16444078  1
  F  F20  1  0.46218700  0.45199086  0.63978079  1
  F  F21  1  0.02922368  0.17275395  0.39260160  1
  F  F22  1  0.03781300  0.45199086  0.63978079  1
  F  F23  1  0.03781300  0.04800914  0.13978079  1
  F  F24  1  0.75000000  0.67230652  0.80354827  1
  F  F25  1  0.97077632  0.67275395  0.10739840  1
  F  F26  1  0.96218700  0.95199086  0.86021921  1
  F  F27  1  0.52922368  0.67275395  0.10739840  1
  F  F28  1  0.47077632  0.17275395  0.39260160  1
  F  F29  1  0.25000000  0.32769348  0.19645173  1
  F  F30  1  0.75000000  0.10738429  0.66444078  1
  F  F31  1  0.47077632  0.32724605  0.89260160  1
