# generated using pymatgen
data_Na2UO4
_symmetry_space_group_name_H-M   'P 1'
_cell_length_a   5.76049327
_cell_length_b   5.93645490
_cell_length_c   11.69394250
_cell_angle_alpha   90.00000000
_cell_angle_beta   90.00000000
_cell_angle_gamma   90.00000000
_symmetry_Int_Tables_number   1
_chemical_formula_structural   Na2UO4
_chemical_formula_sum   'Na8 U4 O16'
_cell_volume   399.89668167
_cell_formula_units_Z   4
loop_
 _symmetry_equiv_pos_site_id
 _symmetry_equiv_pos_as_xyz
  1  'x, y, z'
loop_
 _atom_site_type_symbol
 _atom_site_label
 _atom_site_symmetry_multiplicity
 _atom_site_fract_x
 _atom_site_fract_y
 _atom_site_fract_z
 _atom_site_occupancy
  Na  Na0  1  0.00265291  0.05774194  0.33461762  1
  Na  Na1  1  0.50265291  0.44225806  0.66538238  1
  Na  Na2  1  0.99734709  0.55774194  0.16538238  1
  Na  Na3  1  0.49734709  0.94225806  0.83461762  1
  Na  Na4  1  0.50265291  0.05774194  0.16538238  1
  Na  Na5  1  0.00265291  0.44225806  0.83461762  1
  Na  Na6  1  0.49734709  0.55774194  0.33461762  1
  Na  Na7  1  0.99734709  0.94225806  0.66538238  1
  U  U8  1  -0.00000000  -0.00000000  -0.00000000  1
  U  U9  1  0.50000000  0.50000000  -0.00000000  1
  U  U10  1  -0.00000000  0.50000000  0.50000000  1
  U  U11  1  0.50000000  -0.00000000  0.50000000  1
  O  O12  1  0.61205609  0.95922569  0.34619384  1
  O  O13  1  0.11205609  0.54077431  0.65380616  1
  O  O14  1  0.38794391  0.45922569  0.15380616  1
  O  O15  1  0.88794391  0.04077431  0.84619384  1
  O  O16  1  0.38794391  0.04077431  0.65380616  1
  O  O17  1  0.88794391  0.45922569  0.34619384  1
  O  O18  1  0.61205609  0.54077431  0.84619384  1
  O  O19  1  0.11205609  0.95922569  0.15380616  1
  O  O20  1  0.80025396  0.20571400  0.54808109  1
  O  O21  1  0.30025396  0.29428600  0.45191891  1
  O  O22  1  0.19974604  0.70571400  0.95191891  1
  O  O23  1  0.69974604  0.79428600  0.04808109  1
  O  O24  1  0.30025396  0.20571400  0.95191891  1
  O  O25  1  0.80025396  0.29428600  0.04808109  1
  O  O26  1  0.69974604  0.70571400  0.54808109  1
  O  O27  1  0.19974604  0.79428600  0.45191891  1
