# generated using pymatgen
data_CsMo3Cl7
_symmetry_space_group_name_H-M   'P 1'
_cell_length_a   9.90153524
_cell_length_b   9.90161805
_cell_length_c   14.58936738
_cell_angle_alpha   90.00195867
_cell_angle_beta   90.00409249
_cell_angle_gamma   119.99603885
_symmetry_Int_Tables_number   1
_chemical_formula_structural   CsMo3Cl7
_chemical_formula_sum   'Cs4 Mo12 Cl28'
_cell_volume   1238.77699168
_cell_formula_units_Z   4
loop_
 _symmetry_equiv_pos_site_id
 _symmetry_equiv_pos_as_xyz
  1  'x, y, z'
loop_
 _atom_site_type_symbol
 _atom_site_label
 _atom_site_symmetry_multiplicity
 _atom_site_fract_x
 _atom_site_fract_y
 _atom_site_fract_z
 _atom_site_occupancy
  Cs  Cs0  1  -0.00003732  -0.00003011  0.96787927  1
  Cs  Cs1  1  -0.00002462  0.00000082  0.46791273  1
  Cs  Cs2  1  0.66664911  0.33332727  0.70440371  1
  Cs  Cs3  1  0.33332498  0.66666388  0.20436134  1
  Mo  Mo4  1  0.48577833  0.66753918  0.78665999  1
  Mo  Mo5  1  0.18182440  0.51426405  0.78666379  1
  Mo  Mo6  1  0.81822191  0.33244978  0.28674252  1
  Mo  Mo7  1  0.33246568  0.81819541  0.78666917  1
  Mo  Mo8  1  0.66757449  0.48578913  0.28673631  1
  Mo  Mo9  1  0.51426718  0.18183755  0.28675394  1
  Mo  Mo10  1  0.48373908  0.81994037  0.64137690  1
  Mo  Mo11  1  0.33618520  0.51621516  0.64136722  1
  Mo  Mo12  1  0.66377156  0.18003725  0.14146939  1
  Mo  Mo13  1  0.18001531  0.66379475  0.64137831  1
  Mo  Mo14  1  0.81991864  0.48371849  0.14145925  1
  Mo  Mo15  1  0.51623280  0.33619841  0.14146708  1
  Cl  Cl16  1  0.62742123  0.67377657  0.64282522  1
  Cl  Cl17  1  0.04634345  0.37253343  0.64285772  1
  Cl  Cl18  1  0.95361415  0.32615570  0.14284936  1
  Cl  Cl19  1  0.32617196  0.95362417  0.64285286  1
  Cl  Cl20  1  0.67381601  0.62747489  0.14284167  1
  Cl  Cl21  1  0.37251444  0.04634798  0.14289498  1
  Cl  Cl22  1  0.97003791  0.31099461  0.87621355  1
  Cl  Cl23  1  0.34095447  0.02995149  0.87622985  1
  Cl  Cl24  1  0.65914579  0.68909233  0.37626339  1
  Cl  Cl25  1  0.68901965  0.65900528  0.87621306  1
  Cl  Cl26  1  0.31101003  0.97012297  0.37627556  1
  Cl  Cl27  1  0.02994948  0.34091014  0.37624962  1
  Cl  Cl28  1  0.66662172  0.33329689  0.00646395  1
  Cl  Cl29  1  0.33330275  0.66664589  0.50647225  1
  Cl  Cl30  1  0.66677077  0.33345175  0.42147634  1
  Cl  Cl31  1  0.33343451  0.66667679  0.92147530  1
  Cl  Cl32  1  0.62392049  0.95737250  0.78509898  1
  Cl  Cl33  1  0.33345374  0.37606779  0.78511399  1
  Cl  Cl34  1  0.66654798  0.04263011  0.28513030  1
  Cl  Cl35  1  0.04264789  0.66656903  0.78511871  1
  Cl  Cl36  1  0.95740037  0.62391487  0.28511256  1
  Cl  Cl37  1  0.37611755  0.33352302  0.28513224  1
  Cl  Cl38  1  0.68498796  0.03449803  0.55201813  1
  Cl  Cl39  1  0.34950418  0.31499427  0.55197257  1
  Cl  Cl40  1  0.65043641  0.96547543  0.05198753  1
  Cl  Cl41  1  0.96549295  0.65050231  0.55199824  1
  Cl  Cl42  1  0.03446173  0.68496400  0.05197993  1
  Cl  Cl43  1  0.31499370  0.34948434  0.05198022  1
