# generated using pymatgen
data_CeSe2
_symmetry_space_group_name_H-M   'P 1'
_cell_length_a   7.06371464
_cell_length_b   7.14712243
_cell_length_c   13.52987612
_cell_angle_alpha   90.00000000
_cell_angle_beta   90.00000000
_cell_angle_gamma   90.00000000
_symmetry_Int_Tables_number   1
_chemical_formula_structural   CeSe2
_chemical_formula_sum   'Ce8 Se16'
_cell_volume   683.05895302
_cell_formula_units_Z   8
loop_
 _symmetry_equiv_pos_site_id
 _symmetry_equiv_pos_as_xyz
  1  'x, y, z'
loop_
 _atom_site_type_symbol
 _atom_site_label
 _atom_site_symmetry_multiplicity
 _atom_site_fract_x
 _atom_site_fract_y
 _atom_site_fract_z
 _atom_site_occupancy
  Ce  Ce0  1  0.86311429  0.05456375  0.64429868  1
  Ce  Ce1  1  0.13688571  0.44543625  0.14429868  1
  Ce  Ce2  1  0.63688571  0.55456375  0.35570132  1
  Ce  Ce3  1  0.36311429  0.94543625  0.85570132  1
  Ce  Ce4  1  0.13688571  0.94543625  0.35570132  1
  Ce  Ce5  1  0.86311429  0.55456375  0.85570132  1
  Ce  Ce6  1  0.36311429  0.44543625  0.64429868  1
  Ce  Ce7  1  0.63688571  0.05456375  0.14429868  1
  Se  Se8  1  0.69451730  0.34907522  0.53338598  1
  Se  Se9  1  0.30548270  0.15092478  0.03338598  1
  Se  Se10  1  0.80548270  0.84907522  0.46661402  1
  Se  Se11  1  0.19451730  0.65092478  0.96661402  1
  Se  Se12  1  0.30548270  0.65092478  0.46661402  1
  Se  Se13  1  0.69451730  0.84907522  0.96661402  1
  Se  Se14  1  0.19451730  0.15092478  0.53338598  1
  Se  Se15  1  0.80548270  0.34907522  0.03338598  1
  Se  Se16  1  0.60557014  0.74962864  0.71501259  1
  Se  Se17  1  0.39442986  0.75037136  0.21501259  1
  Se  Se18  1  0.89442986  0.24962864  0.28498741  1
  Se  Se19  1  0.10557014  0.25037136  0.78498741  1
  Se  Se20  1  0.39442986  0.25037136  0.28498741  1
  Se  Se21  1  0.60557014  0.24962864  0.78498741  1
  Se  Se22  1  0.10557014  0.75037136  0.71501259  1
  Se  Se23  1  0.89442986  0.74962864  0.21501259  1
