# generated using pymatgen
data_K3ScCl6
_symmetry_space_group_name_H-M   'P 1'
_cell_length_a   7.57721072
_cell_length_b   12.24870786
_cell_length_c   12.81720542
_cell_angle_alpha   109.02037988
_cell_angle_beta   90.00000000
_cell_angle_gamma   90.00000000
_symmetry_Int_Tables_number   1
_chemical_formula_structural   K3ScCl6
_chemical_formula_sum   'K12 Sc4 Cl24'
_cell_volume   1124.63043017
_cell_formula_units_Z   4
loop_
 _symmetry_equiv_pos_site_id
 _symmetry_equiv_pos_as_xyz
  1  'x, y, z'
loop_
 _atom_site_type_symbol
 _atom_site_label
 _atom_site_symmetry_multiplicity
 _atom_site_fract_x
 _atom_site_fract_y
 _atom_site_fract_z
 _atom_site_occupancy
  K  K0  1  0.50579356  0.36463309  0.60063794  1
  K  K1  1  0.00579356  0.13536691  0.39936206  1
  K  K2  1  0.49420644  0.63536691  0.39936206  1
  K  K3  1  0.99420644  0.86463309  0.60063794  1
  K  K4  1  0.57329889  0.11249310  0.81987934  1
  K  K5  1  0.07329889  0.38750690  0.18012066  1
  K  K6  1  0.42670111  0.88750690  0.18012066  1
  K  K7  1  0.92670111  0.61249310  0.81987934  1
  K  K8  1  0.06180135  0.26714121  0.81637186  1
  K  K9  1  0.56180135  0.23285879  0.18362814  1
  K  K10  1  0.93819865  0.73285879  0.18362814  1
  K  K11  1  0.43819865  0.76714121  0.81637186  1
  Sc  Sc12  1  0.50000000  0.50000000  0.00000000  1
  Sc  Sc13  1  -0.00000000  -0.00000000  0.00000000  1
  Sc  Sc14  1  0.50000000  -0.00000000  0.50000000  1
  Sc  Sc15  1  -0.00000000  0.50000000  0.50000000  1
  Cl  Cl16  1  0.70262484  0.39388386  0.84527320  1
  Cl  Cl17  1  0.20262484  0.10611614  0.15472680  1
  Cl  Cl18  1  0.29737516  0.60611614  0.15472680  1
  Cl  Cl19  1  0.79737516  0.89388386  0.84527320  1
  Cl  Cl20  1  0.78048544  0.09074748  0.60134043  1
  Cl  Cl21  1  0.28048544  0.40925252  0.39865957  1
  Cl  Cl22  1  0.21951456  0.90925252  0.39865957  1
  Cl  Cl23  1  0.71951456  0.59074748  0.60134043  1
  Cl  Cl24  1  0.32013886  0.14742563  0.63720189  1
  Cl  Cl25  1  0.82013886  0.35257437  0.36279811  1
  Cl  Cl26  1  0.67986114  0.85257437  0.36279811  1
  Cl  Cl27  1  0.17986114  0.64742563  0.63720189  1
  Cl  Cl28  1  0.36598188  0.31170078  -0.00051582  1
  Cl  Cl29  1  0.86598188  0.18829922  0.00051582  1
  Cl  Cl30  1  0.63401812  0.68829922  0.00051582  1
  Cl  Cl31  1  0.13401812  0.81170078  -0.00051582  1
  Cl  Cl32  1  0.28623106  0.50725964  0.85536336  1
  Cl  Cl33  1  0.78623106  0.99274036  0.14463664  1
  Cl  Cl34  1  0.71376894  0.49274036  0.14463664  1
  Cl  Cl35  1  0.21376894  0.00725964  0.85536336  1
  Cl  Cl36  1  0.01396381  0.37039478  0.61248400  1
  Cl  Cl37  1  0.51396381  0.12960522  0.38751600  1
  Cl  Cl38  1  0.98603619  0.62960522  0.38751600  1
  Cl  Cl39  1  0.48603619  0.87039478  0.61248400  1
