# generated using pymatgen
data_TaMnO4
_symmetry_space_group_name_H-M   'P 1'
_cell_length_a   4.97431310
_cell_length_b   5.68893194
_cell_length_c   9.28474248
_cell_angle_alpha   89.99960394
_cell_angle_beta   91.80050649
_cell_angle_gamma   90.00036234
_symmetry_Int_Tables_number   1
_chemical_formula_structural   TaMnO4
_chemical_formula_sum   'Ta4 Mn4 O16'
_cell_volume   262.61482964
_cell_formula_units_Z   4
loop_
 _symmetry_equiv_pos_site_id
 _symmetry_equiv_pos_as_xyz
  1  'x, y, z'
loop_
 _atom_site_type_symbol
 _atom_site_label
 _atom_site_symmetry_multiplicity
 _atom_site_fract_x
 _atom_site_fract_y
 _atom_site_fract_z
 _atom_site_occupancy
  Ta  Ta0  1  0.75000299  0.33062971  0.25000050  1
  Ta  Ta1  1  0.74999586  0.33062822  0.74999811  1
  Ta  Ta2  1  0.25000357  0.66937207  0.24998833  1
  Ta  Ta3  1  0.24999572  0.66937135  0.75001267  1
  Mn  Mn4  1  0.74999941  0.84190557  0.50000008  1
  Mn  Mn5  1  0.24999991  0.15809517  0.00000010  1
  Mn  Mn6  1  0.75000027  0.84192071  0.99999999  1
  Mn  Mn7  1  0.24999897  0.15807847  0.50000000  1
  O  O8  1  0.42944260  0.87664703  0.38629558  1
  O  O9  1  0.42944287  0.87665856  0.88629126  1
  O  O10  1  0.57055840  0.12335441  0.11370391  1
  O  O11  1  0.57055728  0.12333823  0.61371009  1
  O  O12  1  0.07056026  0.87666206  0.11370782  1
  O  O13  1  0.07055702  0.87664727  0.61370477  1
  O  O14  1  0.92944045  0.12333890  0.38629109  1
  O  O15  1  0.92944009  0.12335224  0.88629670  1
  O  O16  1  0.92550202  0.61413916  0.36173275  1
  O  O17  1  0.92550427  0.61414504  0.86173142  1
  O  O18  1  0.07449596  0.38586442  0.13826743  1
  O  O19  1  0.07449861  0.38585090  0.63826817  1
  O  O20  1  0.57449750  0.61414862  0.13826771  1
  O  O21  1  0.57449849  0.61413763  0.63826695  1
  O  O22  1  0.42550043  0.38585183  0.36173205  1
  O  O23  1  0.42550306  0.38586143  0.86173354  1
