# generated using pymatgen
data_Sm4PdO7
_symmetry_space_group_name_H-M   'P 1'
_cell_length_a   6.86774358
_cell_length_b   7.20626376
_cell_length_c   7.85646946
_cell_angle_alpha   110.92442089
_cell_angle_beta   108.27621647
_cell_angle_gamma   84.19091930
_symmetry_Int_Tables_number   1
_chemical_formula_structural   Sm4PdO7
_chemical_formula_sum   'Sm8 Pd2 O14'
_cell_volume   344.83490917
_cell_formula_units_Z   2
loop_
 _symmetry_equiv_pos_site_id
 _symmetry_equiv_pos_as_xyz
  1  'x, y, z'
loop_
 _atom_site_type_symbol
 _atom_site_label
 _atom_site_symmetry_multiplicity
 _atom_site_fract_x
 _atom_site_fract_y
 _atom_site_fract_z
 _atom_site_occupancy
  Sm  Sm0  1  0.20859385  0.62566324  0.21435011  1
  Sm  Sm1  1  0.79140615  0.37433676  0.78564989  1
  Sm  Sm2  1  0.63548385  0.85786265  0.14478484  1
  Sm  Sm3  1  0.36451615  0.14213735  0.85521516  1
  Sm  Sm4  1  0.79060744  0.39643135  0.26817565  1
  Sm  Sm5  1  0.20939256  0.60356865  0.73182435  1
  Sm  Sm6  1  0.66611207  0.82711429  0.62060585  1
  Sm  Sm7  1  0.33388793  0.17288571  0.37939415  1
  Pd  Pd8  1  -0.00000000  -0.00000000  -0.00000000  1
  Pd  Pd9  1  -0.00000000  -0.00000000  0.50000000  1
  O  O10  1  0.29649636  0.92735950  0.50667788  1
  O  O11  1  0.70350364  0.07264050  0.49332212  1
  O  O12  1  0.84776504  0.58673362  0.09633310  1
  O  O13  1  0.15223496  0.41326638  0.90366690  1
  O  O14  1  0.49160933  0.21026703  0.17569004  1
  O  O15  1  0.50839067  0.78973297  0.82430996  1
  O  O16  1  0.56133643  0.65792627  0.29738174  1
  O  O17  1  0.43866357  0.34207373  0.70261826  1
  O  O18  1  0.94697995  0.06907811  0.25857863  1
  O  O19  1  0.05302005  0.93092189  0.74142137  1
  O  O20  1  0.26177895  0.85682492  0.08357758  1
  O  O21  1  0.73822105  0.14317508  0.91642242  1
  O  O22  1  0.84333649  0.53906049  0.59941807  1
  O  O23  1  0.15666351  0.46093951  0.40058193  1
