# generated using pymatgen
data_CeH8(SO6)2
_symmetry_space_group_name_H-M   'P 1'
_cell_length_a   5.56705588
_cell_length_b   11.15393588
_cell_length_c   14.60935112
_cell_angle_alpha   90.00000000
_cell_angle_beta   90.00000000
_cell_angle_gamma   90.00000000
_symmetry_Int_Tables_number   1
_chemical_formula_structural   CeH8(SO6)2
_chemical_formula_sum   'Ce4 H32 S8 O48'
_cell_volume   907.16158507
_cell_formula_units_Z   4
loop_
 _symmetry_equiv_pos_site_id
 _symmetry_equiv_pos_as_xyz
  1  'x, y, z'
loop_
 _atom_site_type_symbol
 _atom_site_label
 _atom_site_symmetry_multiplicity
 _atom_site_fract_x
 _atom_site_fract_y
 _atom_site_fract_z
 _atom_site_occupancy
  Ce  Ce0  1  0.62536632  0.75000000  0.83089595  1
  Ce  Ce1  1  0.87463368  0.75000000  0.33089595  1
  Ce  Ce2  1  0.37463368  0.25000000  0.16910405  1
  Ce  Ce3  1  0.12536632  0.25000000  0.66910405  1
  H  H4  1  0.95881447  0.68022212  0.67360970  1
  H  H5  1  0.54118553  0.81977788  0.17360970  1
  H  H6  1  0.04118553  0.18022212  0.32639030  1
  H  H7  1  0.45881447  0.31977788  0.82639030  1
  H  H8  1  0.04118553  0.31977788  0.32639030  1
  H  H9  1  0.45881447  0.18022212  0.82639030  1
  H  H10  1  0.95881447  0.81977788  0.67360970  1
  H  H11  1  0.54118553  0.68022212  0.17360970  1
  H  H12  1  0.37210176  0.62398700  0.99296088  1
  H  H13  1  0.12789824  0.87601300  0.49296088  1
  H  H14  1  0.62789824  0.12398700  0.00703912  1
  H  H15  1  0.87210176  0.37601300  0.50703912  1
  H  H16  1  0.62789824  0.37601300  0.00703912  1
  H  H17  1  0.87210176  0.12398700  0.50703912  1
  H  H18  1  0.37210176  0.87601300  0.99296088  1
  H  H19  1  0.12789824  0.62398700  0.49296088  1
  H  H20  1  0.30086260  0.55165798  0.90512800  1
  H  H21  1  0.19913740  0.94834202  0.40512800  1
  H  H22  1  0.69913740  0.05165798  0.09487200  1
  H  H23  1  0.80086260  0.44834202  0.59487200  1
  H  H24  1  0.69913740  0.44834202  0.09487200  1
  H  H25  1  0.80086260  0.05165798  0.59487200  1
  H  H26  1  0.30086260  0.94834202  0.90512800  1
  H  H27  1  0.19913740  0.55165798  0.40512800  1
  H  H28  1  0.85246976  0.67914063  0.01491563  1
  H  H29  1  0.64753024  0.82085937  0.51491563  1
  H  H30  1  0.14753024  0.17914063  0.98508437  1
  H  H31  1  0.35246976  0.32085937  0.48508437  1
  H  H32  1  0.14753024  0.32085937  0.98508437  1
  H  H33  1  0.35246976  0.17914063  0.48508437  1
  H  H34  1  0.85246976  0.82085937  0.01491563  1
  H  H35  1  0.64753024  0.67914063  0.51491563  1
  S  S36  1  0.38323358  0.55469809  0.64928873  1
  S  S37  1  0.11676642  0.94530191  0.14928873  1
  S  S38  1  0.61676642  0.05469809  0.35071127  1
  S  S39  1  0.88323358  0.44530191  0.85071127  1
  S  S40  1  0.61676642  0.44530191  0.35071127  1
  S  S41  1  0.88323358  0.05469809  0.85071127  1
  S  S42  1  0.38323358  0.94530191  0.64928873  1
  S  S43  1  0.11676642  0.55469809  0.14928873  1
  O  O44  1  0.35634584  0.42478379  0.66790819  1
  O  O45  1  0.14365416  0.07521621  0.16790819  1
  O  O46  1  0.64365416  0.92478379  0.33209181  1
  O  O47  1  0.85634584  0.57521621  0.83209181  1
  O  O48  1  0.64365416  0.57521621  0.33209181  1
  O  O49  1  0.85634584  0.92478379  0.83209181  1
  O  O50  1  0.35634584  0.07521621  0.66790819  1
  O  O51  1  0.14365416  0.42478379  0.16790819  1
  O  O52  1  0.41399151  0.61651707  0.73864125  1
  O  O53  1  0.08600849  0.88348293  0.23864125  1
  O  O54  1  0.58600849  0.11651707  0.26135875  1
  O  O55  1  0.91399151  0.38348293  0.76135875  1
  O  O56  1  0.58600849  0.38348293  0.26135875  1
  O  O57  1  0.91399151  0.11651707  0.76135875  1
  O  O58  1  0.41399151  0.88348293  0.73864125  1
  O  O59  1  0.08600849  0.61651707  0.23864125  1
  O  O60  1  0.59723440  0.57053539  0.59231051  1
  O  O61  1  0.90276560  0.92946461  0.09231051  1
  O  O62  1  0.40276560  0.07053539  0.40768949  1
  O  O63  1  0.09723440  0.42946461  0.90768949  1
  O  O64  1  0.40276560  0.42946461  0.40768949  1
  O  O65  1  0.09723440  0.07053539  0.90768949  1
  O  O66  1  0.59723440  0.92946461  0.59231051  1
  O  O67  1  0.90276560  0.57053539  0.09231051  1
  O  O68  1  0.16735816  0.60265305  0.60549833  1
  O  O69  1  0.33264184  0.89734695  0.10549833  1
  O  O70  1  0.83264184  0.10265305  0.39450167  1
  O  O71  1  0.66735816  0.39734695  0.89450167  1
  O  O72  1  0.83264184  0.39734695  0.39450167  1
  O  O73  1  0.66735816  0.10265305  0.89450167  1
  O  O74  1  0.16735816  0.89734695  0.60549833  1
  O  O75  1  0.33264184  0.60265305  0.10549833  1
  O  O76  1  0.87687607  0.75000000  0.70030641  1
  O  O77  1  0.62312393  0.75000000  0.20030641  1
  O  O78  1  0.12312393  0.25000000  0.29969359  1
  O  O79  1  0.37687607  0.25000000  0.79969359  1
  O  O80  1  0.38909685  0.62295752  0.92570944  1
  O  O81  1  0.11090315  0.87704248  0.42570944  1
  O  O82  1  0.61090315  0.12295752  0.07429056  1
  O  O83  1  0.88909685  0.37704248  0.57429056  1
  O  O84  1  0.61090315  0.37704248  0.07429056  1
  O  O85  1  0.88909685  0.12295752  0.57429056  1
  O  O86  1  0.38909685  0.87704248  0.92570944  1
  O  O87  1  0.11090315  0.62295752  0.42570944  1
  O  O88  1  0.81612701  0.75000000  0.97680592  1
  O  O89  1  0.68387299  0.75000000  0.47680592  1
  O  O90  1  0.18387299  0.25000000  0.02319408  1
  O  O91  1  0.31612701  0.25000000  0.52319408  1
