# generated using pymatgen
data_CsTaCl6
_symmetry_space_group_name_H-M   'P 1'
_cell_length_a   6.94578231
_cell_length_b   6.94578231
_cell_length_c   12.44299929
_cell_angle_alpha   79.24770845
_cell_angle_beta   79.24770845
_cell_angle_gamma   55.44270328
_symmetry_Int_Tables_number   1
_chemical_formula_structural   CsTaCl6
_chemical_formula_sum   'Cs2 Ta2 Cl12'
_cell_volume   483.27743146
_cell_formula_units_Z   2
loop_
 _symmetry_equiv_pos_site_id
 _symmetry_equiv_pos_as_xyz
  1  'x, y, z'
loop_
 _atom_site_type_symbol
 _atom_site_label
 _atom_site_symmetry_multiplicity
 _atom_site_fract_x
 _atom_site_fract_y
 _atom_site_fract_z
 _atom_site_occupancy
  Cs  Cs0  1  0.88422907  0.11577093  0.75000000  1
  Cs  Cs1  1  0.11577093  0.88422907  0.25000000  1
  Ta  Ta2  1  0.50000000  -0.00000000  0.50000000  1
  Ta  Ta3  1  -0.00000000  0.50000000  -0.00000000  1
  Cl  Cl4  1  0.46328643  0.69910095  0.60445218  1
  Cl  Cl5  1  0.53671357  0.30089905  0.39554782  1
  Cl  Cl6  1  0.30089905  0.53671357  0.89554782  1
  Cl  Cl7  1  0.69910095  0.46328643  0.10445218  1
  Cl  Cl8  1  0.37100571  0.20001031  0.65869845  1
  Cl  Cl9  1  0.62899429  0.79998969  0.34130155  1
  Cl  Cl10  1  0.79998969  0.62899429  0.84130155  1
  Cl  Cl11  1  0.20001031  0.37100571  0.15869845  1
  Cl  Cl12  1  0.79789738  0.89308499  0.03946030  1
  Cl  Cl13  1  0.20210262  0.10691501  0.96053970  1
  Cl  Cl14  1  0.10691501  0.20210262  0.46053970  1
  Cl  Cl15  1  0.89308499  0.79789738  0.53946030  1
