# generated using pymatgen
data_Bi2O3
_symmetry_space_group_name_H-M   'P 1'
_cell_length_a   7.29580408
_cell_length_b   9.20828256
_cell_length_c   10.07264630
_cell_angle_alpha   77.46164663
_cell_angle_beta   90.00000000
_cell_angle_gamma   90.00000000
_symmetry_Int_Tables_number   1
_chemical_formula_structural   Bi2O3
_chemical_formula_sum   'Bi16 O24'
_cell_volume   660.56011303
_cell_formula_units_Z   8
loop_
 _symmetry_equiv_pos_site_id
 _symmetry_equiv_pos_as_xyz
  1  'x, y, z'
loop_
 _atom_site_type_symbol
 _atom_site_label
 _atom_site_symmetry_multiplicity
 _atom_site_fract_x
 _atom_site_fract_y
 _atom_site_fract_z
 _atom_site_occupancy
  Bi  Bi0  1  0.90160432  0.71141670  0.92835792  1
  Bi  Bi1  1  0.40160432  0.28858330  0.57164208  1
  Bi  Bi2  1  0.09839568  0.28858330  0.07164208  1
  Bi  Bi3  1  0.59839568  0.71141670  0.42835792  1
  Bi  Bi4  1  0.40768913  0.07698379  0.31784074  1
  Bi  Bi5  1  0.90768913  0.92301621  0.18215926  1
  Bi  Bi6  1  0.59231087  0.92301621  0.68215926  1
  Bi  Bi7  1  0.09231087  0.07698379  0.81784074  1
  Bi  Bi8  1  0.12663354  0.57415055  0.33718687  1
  Bi  Bi9  1  0.62663354  0.42584945  0.16281313  1
  Bi  Bi10  1  0.87336646  0.42584945  0.66281313  1
  Bi  Bi11  1  0.37336646  0.57415055  0.83718687  1
  Bi  Bi12  1  0.38248291  0.79450397  0.06953949  1
  Bi  Bi13  1  0.88248291  0.20549603  0.43046051  1
  Bi  Bi14  1  0.61751709  0.20549603  0.93046051  1
  Bi  Bi15  1  0.11751709  0.79450397  0.56953949  1
  O  O16  1  0.36799088  0.56790535  0.17605882  1
  O  O17  1  0.86799088  0.43209465  0.32394118  1
  O  O18  1  0.63200912  0.43209465  0.82394118  1
  O  O19  1  0.13200912  0.56790535  0.67605882  1
  O  O20  1  0.34802451  0.07452208  0.53156578  1
  O  O21  1  0.84802451  0.92547792  0.96843422  1
  O  O22  1  0.65197549  0.92547792  0.46843422  1
  O  O23  1  0.15197549  0.07452208  0.03156578  1
  O  O24  1  0.94988354  0.27558391  0.84598758  1
  O  O25  1  0.44988354  0.72441609  0.65401242  1
  O  O26  1  0.05011646  0.72441609  0.15401242  1
  O  O27  1  0.55011646  0.27558391  0.34598758  1
  O  O28  1  0.19689867  0.77828166  0.88328208  1
  O  O29  1  0.69689867  0.22171834  0.61671792  1
  O  O30  1  0.80310133  0.22171834  0.11671792  1
  O  O31  1  0.30310133  0.77828166  0.38328208  1
  O  O32  1  0.93515862  0.71867862  0.42611459  1
  O  O33  1  0.43515862  0.28132138  0.07388541  1
  O  O34  1  0.06484138  0.28132138  0.57388541  1
  O  O35  1  0.56484138  0.71867862  0.92611459  1
  O  O36  1  0.85870436  0.81117857  0.71581634  1
  O  O37  1  0.35870436  0.18882143  0.78418366  1
  O  O38  1  0.14129564  0.18882143  0.28418366  1
  O  O39  1  0.64129564  0.81117857  0.21581634  1
