# generated using pymatgen
data_H3S
_symmetry_space_group_name_H-M   'P 1'
_cell_length_a   6.65611850
_cell_length_b   8.14320702
_cell_length_c   8.25822030
_cell_angle_alpha   89.98109609
_cell_angle_beta   90.27976849
_cell_angle_gamma   89.88795780
_symmetry_Int_Tables_number   1
_chemical_formula_structural   H3S
_chemical_formula_sum   'H24 S8'
_cell_volume   447.60708533
_cell_formula_units_Z   8
loop_
 _symmetry_equiv_pos_site_id
 _symmetry_equiv_pos_as_xyz
  1  'x, y, z'
loop_
 _atom_site_type_symbol
 _atom_site_label
 _atom_site_symmetry_multiplicity
 _atom_site_fract_x
 _atom_site_fract_y
 _atom_site_fract_z
 _atom_site_occupancy
  H  H0  1  0.28327554  0.96130681  0.41691902  1
  H  H1  1  0.92192520  0.34373692  0.25767561  1
  H  H2  1  0.43110881  0.38033194  0.95152241  1
  H  H3  1  0.42269714  0.53036775  0.25371468  1
  H  H4  1  0.75216526  0.66312871  0.10187760  1
  H  H5  1  0.73849493  0.22881160  0.11223802  1
  H  H6  1  0.90543939  0.53914534  0.94264742  1
  H  H7  1  0.78867232  0.96179910  0.82402716  1
  H  H8  1  0.09983825  0.09525238  0.54430139  1
  H  H9  1  0.77173501  0.95400044  0.39343915  1
  H  H10  1  0.61004317  0.79172334  0.50923721  1
  H  H11  1  0.11367383  0.78688359  0.67296717  1
  H  H12  1  0.29341633  0.23425962  0.80136293  1
  H  H13  1  0.62828074  0.10717121  0.68691032  1
  H  H14  1  0.27169304  0.68346340  0.11795172  1
  H  H15  1  0.26211981  0.61845149  0.79031413  1
  H  H16  1  0.04860200  0.99248842  0.13373477  1
  H  H17  1  0.52644659  0.93843633  0.14026795  1
  H  H18  1  0.46387972  0.98451609  0.08054315  1
  H  H19  1  0.00945182  0.92296520  0.08432606  1
  H  H20  1  0.00588384  0.48471992  0.55546414  1
  H  H21  1  0.99352983  0.41563394  0.61360928  1
  H  H22  1  0.55014190  0.47423876  0.63320967  1
  H  H23  1  0.55039404  0.41428853  0.56528759  1
  S  S24  1  0.73572788  0.28095474  0.26668479  1
  S  S25  1  0.24755817  0.61253791  0.26334528  1
  S  S26  1  0.24656990  0.31462987  0.93823605  1
  S  S27  1  0.74467130  0.63935569  0.94069567  1
  S  S28  1  0.79002552  0.12198137  0.78396592  1
  S  S29  1  0.27113894  0.11971699  0.46164196  1
  S  S30  1  0.28960345  0.77787910  0.75325758  1
  S  S31  1  0.78485132  0.79269350  0.42801419  1
