# generated using pymatgen
data_Sr6Mg(Te4O11)2
_symmetry_space_group_name_H-M   'P 1'
_cell_length_a   7.68189599
_cell_length_b   9.60767580
_cell_length_c   9.48297898
_cell_angle_alpha   99.04221130
_cell_angle_beta   106.25463171
_cell_angle_gamma   99.07974647
_symmetry_Int_Tables_number   1
_chemical_formula_structural   Sr6Mg(Te4O11)2
_chemical_formula_sum   'Sr6 Mg1 Te8 O22'
_cell_volume   648.36087897
_cell_formula_units_Z   1
loop_
 _symmetry_equiv_pos_site_id
 _symmetry_equiv_pos_as_xyz
  1  'x, y, z'
loop_
 _atom_site_type_symbol
 _atom_site_label
 _atom_site_symmetry_multiplicity
 _atom_site_fract_x
 _atom_site_fract_y
 _atom_site_fract_z
 _atom_site_occupancy
  Sr  Sr0  1  0.29580239  0.02915627  0.10785230  1
  Sr  Sr1  1  0.70137187  0.96538567  0.88604452  1
  Sr  Sr2  1  0.88944397  0.08691062  0.32116568  1
  Sr  Sr3  1  0.14478483  0.94023837  0.68335496  1
  Sr  Sr4  1  0.31628914  0.54274502  0.66297680  1
  Sr  Sr5  1  0.74496092  0.46284058  0.38868453  1
  Mg  Mg6  1  0.31116019  0.38603414  0.31685396  1
  Te  Te7  1  0.97012114  0.38706284  0.11610774  1
  Te  Te8  1  0.94277936  0.65670621  0.80935215  1
  Te  Te9  1  0.96727019  0.23734396  0.77048266  1
  Te  Te10  1  0.01129800  0.75460848  0.23771661  1
  Te  Te11  1  0.50745438  0.70635950  0.06537393  1
  Te  Te12  1  0.50072639  0.30660731  0.96530848  1
  Te  Te13  1  0.51160750  0.80039746  0.46204346  1
  Te  Te14  1  0.45675771  0.17681212  0.50147870  1
  O  O15  1  0.97834192  0.53787058  0.64328426  1
  O  O16  1  0.05956010  0.43878201  0.34172667  1
  O  O17  1  0.46452171  0.59820073  0.39232139  1
  O  O18  1  0.49350414  0.38372255  0.53819628  1
  O  O19  1  0.80050429  0.20831202  0.09837365  1
  O  O20  1  0.18986613  0.77111994  0.88025289  1
  O  O21  1  0.70114445  0.15322983  0.70424079  1
  O  O22  1  0.31728415  0.84696809  0.30695837  1
  O  O23  1  0.39799915  0.80621175  0.61481721  1
  O  O24  1  0.61740249  0.17220261  0.38310612  1
  O  O25  1  0.02446425  0.15730331  0.59856389  1
  O  O26  1  0.99643390  0.86960428  0.41032298  1
  O  O27  1  0.44932048  0.33139012  0.15433151  1
  O  O28  1  0.57174935  0.68407189  0.88750652  1
  O  O29  1  0.58328270  0.90925854  0.11987954  1
  O  O30  1  0.41592788  0.10313231  0.89590510  1
  O  O31  1  0.97478057  0.88576831  0.10893039  1
  O  O32  1  0.02442732  0.09066675  0.87867829  1
  O  O33  1  0.23829844  0.17529298  0.32878504  1
  O  O34  1  0.82956497  0.78593225  0.70270641  1
  O  O35  1  0.72755937  0.65732255  0.19615215  1
  O  O36  1  0.29723425  0.37299904  0.84655407  1
