# generated using pymatgen
data_Ba2MgFe2B2(P2O9)2
_symmetry_space_group_name_H-M   'P 1'
_cell_length_a   5.41202508
_cell_length_b   8.35136535
_cell_length_c   8.21099216
_cell_angle_alpha   89.72750986
_cell_angle_beta   80.57362009
_cell_angle_gamma   87.64467481
_symmetry_Int_Tables_number   1
_chemical_formula_structural   Ba2MgFe2B2(P2O9)2
_chemical_formula_sum   'Ba2 Mg1 Fe2 B2 P4 O18'
_cell_volume   365.79747192
_cell_formula_units_Z   1
loop_
 _symmetry_equiv_pos_site_id
 _symmetry_equiv_pos_as_xyz
  1  'x, y, z'
loop_
 _atom_site_type_symbol
 _atom_site_label
 _atom_site_symmetry_multiplicity
 _atom_site_fract_x
 _atom_site_fract_y
 _atom_site_fract_z
 _atom_site_occupancy
  Ba  Ba0  1  0.28564000  0.69120100  0.88009600  1
  Ba  Ba1  1  0.72563800  0.31471900  0.11777400  1
  Mg  Mg2  1  0.51771200  0.00882500  0.49813300  1
  Fe  Fe3  1  0.74431100  0.79306000  0.19918200  1
  Fe  Fe4  1  0.26618100  0.21145600  0.80143900  1
  B  B5  1  0.89115700  0.74271400  0.54204500  1
  B  B6  1  0.12053800  0.26197300  0.45808900  1
  P  P7  1  0.80443800  0.43830700  0.70291100  1
  P  P8  1  0.20576400  0.56664600  0.29694400  1
  P  P9  1  0.78499900  0.94402800  0.81064200  1
  P  P10  1  0.22687400  0.06082000  0.19025300  1
  O  O11  1  0.55895700  0.38851700  0.80884600  1
  O  O12  1  0.45193900  0.61607900  0.19184000  1
  O  O13  1  0.99207100  0.57199700  0.19312000  1
  O  O14  1  0.01837200  0.43390300  0.80639300  1
  O  O15  1  0.87374900  0.33159800  0.54430300  1
  O  O16  1  0.13674900  0.67120500  0.45684800  1
  O  O17  1  0.74404400  0.61348700  0.64562300  1
  O  O18  1  0.26406900  0.39052300  0.35241400  1
  O  O19  1  0.90613600  0.09072900  0.86474700  1
  O  O20  1  0.10907500  0.91268400  0.13642600  1
  O  O21  1  0.53570800  0.98455000  0.74407400  1
  O  O22  1  0.47894700  0.02375800  0.25508400  1
  O  O23  1  0.73079700  0.81658300  0.94918000  1
  O  O24  1  0.27654000  0.18903700  0.05201200  1
  O  O25  1  0.97602200  0.85640400  0.66642500  1
  O  O26  1  0.03415700  0.14629800  0.33543200  1
  O  O27  1  0.73753300  0.81923100  0.44206400  1
  O  O28  1  0.27688300  0.18779200  0.55766100  1
