# generated using pymatgen
data_ErAgS2
_symmetry_space_group_name_H-M   'P 1'
_cell_length_a   7.05530960
_cell_length_b   7.05530960
_cell_length_c   7.05530960
_cell_angle_alpha   135.23224092
_cell_angle_beta   135.23224092
_cell_angle_gamma   65.16956300
_symmetry_Int_Tables_number   1
_chemical_formula_structural   ErAgS2
_chemical_formula_sum   'Er2 Ag2 S4'
_cell_volume   171.65029981
_cell_formula_units_Z   2
loop_
 _symmetry_equiv_pos_site_id
 _symmetry_equiv_pos_as_xyz
  1  'x, y, z'
loop_
 _atom_site_type_symbol
 _atom_site_label
 _atom_site_symmetry_multiplicity
 _atom_site_fract_x
 _atom_site_fract_y
 _atom_site_fract_z
 _atom_site_occupancy
  Er  Er0  1  0.75296823  0.25296823  0.50000000  1
  Er  Er1  1  0.00296823  0.00296823  -0.00000000  1
  Ag  Ag2  1  0.21531022  0.71531022  0.50000000  1
  Ag  Ag3  1  0.46531022  0.46531022  0.00000000  1
  S  S4  1  0.98323210  0.48323210  0.50000000  1
  S  S5  1  0.23323210  0.23323210  -0.00000000  1
  S  S6  1  0.52709946  0.02709946  0.50000000  1
  S  S7  1  0.77709946  0.77709946  -0.00000000  1
