# generated using pymatgen
data_RbPr2Cl7
_symmetry_space_group_name_H-M   'P 1'
_cell_length_a   9.74515366
_cell_length_b   14.79133419
_cell_length_c   16.71160917
_cell_angle_alpha   90.00000000
_cell_angle_beta   90.00000000
_cell_angle_gamma   90.00000000
_symmetry_Int_Tables_number   1
_chemical_formula_structural   RbPr2Cl7
_chemical_formula_sum   'Rb8 Pr16 Cl56'
_cell_volume   2408.87525961
_cell_formula_units_Z   8
loop_
 _symmetry_equiv_pos_site_id
 _symmetry_equiv_pos_as_xyz
  1  'x, y, z'
loop_
 _atom_site_type_symbol
 _atom_site_label
 _atom_site_symmetry_multiplicity
 _atom_site_fract_x
 _atom_site_fract_y
 _atom_site_fract_z
 _atom_site_occupancy
  Rb  Rb0  1  0.25000000  0.91492126  0.60067723  1
  Rb  Rb1  1  0.75000000  0.08507874  0.39932277  1
  Rb  Rb2  1  0.75000000  0.58507874  0.10067723  1
  Rb  Rb3  1  0.25000000  0.41492126  0.89932277  1
  Rb  Rb4  1  0.25000000  0.57236835  0.56472632  1
  Rb  Rb5  1  0.75000000  0.42763165  0.43527368  1
  Rb  Rb6  1  0.75000000  0.92763165  0.06472632  1
  Rb  Rb7  1  0.25000000  0.07236835  0.93527368  1
  Pr  Pr8  1  0.02748218  0.74414069  0.83854332  1
  Pr  Pr9  1  0.97251782  0.25585931  0.16145668  1
  Pr  Pr10  1  0.97251782  0.75585931  0.33854332  1
  Pr  Pr11  1  0.52748218  0.25585931  0.16145668  1
  Pr  Pr12  1  0.02748218  0.24414069  0.66145668  1
  Pr  Pr13  1  0.47251782  0.74414069  0.83854332  1
  Pr  Pr14  1  0.47251782  0.24414069  0.66145668  1
  Pr  Pr15  1  0.52748218  0.75585931  0.33854332  1
  Pr  Pr16  1  0.25000000  0.70842700  0.06011931  1
  Pr  Pr17  1  0.75000000  0.29157300  0.93988069  1
  Pr  Pr18  1  0.75000000  0.79157300  0.56011931  1
  Pr  Pr19  1  0.25000000  0.20842700  0.43988069  1
  Pr  Pr20  1  0.25000000  0.50955152  0.25496008  1
  Pr  Pr21  1  0.75000000  0.49044848  0.74503992  1
  Pr  Pr22  1  0.75000000  0.99044848  0.75496008  1
  Pr  Pr23  1  0.25000000  0.00955152  0.24503992  1
  Cl  Cl24  1  0.57646255  0.91580623  0.88211562  1
  Cl  Cl25  1  0.42353745  0.08419377  0.11788438  1
  Cl  Cl26  1  0.42353745  0.58419377  0.38211562  1
  Cl  Cl27  1  0.07646255  0.08419377  0.11788438  1
  Cl  Cl28  1  0.57646255  0.41580623  0.61788438  1
  Cl  Cl29  1  0.92353745  0.91580623  0.88211562  1
  Cl  Cl30  1  0.92353745  0.41580623  0.61788438  1
  Cl  Cl31  1  0.07646255  0.58419377  0.38211562  1
  Cl  Cl32  1  0.02577670  0.77930763  0.50534951  1
  Cl  Cl33  1  0.97422330  0.22069237  0.49465049  1
  Cl  Cl34  1  0.97422330  0.72069237  0.00534951  1
  Cl  Cl35  1  0.52577670  0.22069237  0.49465049  1
  Cl  Cl36  1  0.02577670  0.27930763  0.99465049  1
  Cl  Cl37  1  0.47422330  0.77930763  0.50534951  1
  Cl  Cl38  1  0.47422330  0.27930763  0.99465049  1
  Cl  Cl39  1  0.52577670  0.72069237  0.00534951  1
  Cl  Cl40  1  0.25000000  0.81061504  0.33649998  1
  Cl  Cl41  1  0.75000000  0.18938496  0.66350002  1
  Cl  Cl42  1  0.75000000  0.68938496  0.83649998  1
  Cl  Cl43  1  0.25000000  0.31061504  0.16350002  1
  Cl  Cl44  1  0.25000000  0.75073593  0.72757193  1
  Cl  Cl45  1  0.75000000  0.24926407  0.27242807  1
  Cl  Cl46  1  0.75000000  0.74926407  0.22757193  1
  Cl  Cl47  1  0.25000000  0.25073593  0.77242807  1
  Cl  Cl48  1  0.57467699  0.83437494  0.69666702  1
  Cl  Cl49  1  0.42532301  0.16562506  0.30333298  1
  Cl  Cl50  1  0.42532301  0.66562506  0.19666702  1
  Cl  Cl51  1  0.07467699  0.16562506  0.30333298  1
  Cl  Cl52  1  0.57467699  0.33437494  0.80333298  1
  Cl  Cl53  1  0.92532301  0.83437494  0.69666702  1
  Cl  Cl54  1  0.92532301  0.33437494  0.80333298  1
  Cl  Cl55  1  0.07467699  0.66562506  0.19666702  1
  Cl  Cl56  1  0.01551659  0.56871720  0.76741003  1
  Cl  Cl57  1  0.98448341  0.43128280  0.23258997  1
  Cl  Cl58  1  0.98448341  0.93128280  0.26741003  1
  Cl  Cl59  1  0.51551659  0.43128280  0.23258997  1
  Cl  Cl60  1  0.01551659  0.06871720  0.73258997  1
  Cl  Cl61  1  0.48448341  0.56871720  0.76741003  1
  Cl  Cl62  1  0.48448341  0.06871720  0.73258997  1
  Cl  Cl63  1  0.51551659  0.93128280  0.26741003  1
  Cl  Cl64  1  0.25000000  0.51967504  0.08195226  1
  Cl  Cl65  1  0.75000000  0.48032496  0.91804774  1
  Cl  Cl66  1  0.75000000  0.98032496  0.58195226  1
  Cl  Cl67  1  0.25000000  0.01967504  0.41804774  1
  Cl  Cl68  1  0.25000000  0.87826357  0.12306466  1
  Cl  Cl69  1  0.75000000  0.12173643  0.87693534  1
  Cl  Cl70  1  0.75000000  0.62173643  0.62306466  1
  Cl  Cl71  1  0.25000000  0.37826357  0.37693534  1
  Cl  Cl72  1  0.25000000  0.84283908  0.91929893  1
  Cl  Cl73  1  0.75000000  0.15716092  0.08070107  1
  Cl  Cl74  1  0.75000000  0.65716092  0.41929893  1
  Cl  Cl75  1  0.25000000  0.34283908  0.58070107  1
  Cl  Cl76  1  0.25000000  0.62909185  0.90380642  1
  Cl  Cl77  1  0.75000000  0.37090815  0.09619358  1
  Cl  Cl78  1  0.75000000  0.87090815  0.40380642  1
  Cl  Cl79  1  0.25000000  0.12909185  0.59619358  1
