# generated using pymatgen
data_Na2Ga2Se3
_symmetry_space_group_name_H-M   'P 1'
_cell_length_a   6.86245464
_cell_length_b   6.86245464
_cell_length_c   8.58265045
_cell_angle_alpha   82.33951501
_cell_angle_beta   82.33951501
_cell_angle_gamma   120.02032006
_symmetry_Int_Tables_number   1
_chemical_formula_structural   Na2Ga2Se3
_chemical_formula_sum   'Na4 Ga4 Se6'
_cell_volume   337.28837779
_cell_formula_units_Z   2
loop_
 _symmetry_equiv_pos_site_id
 _symmetry_equiv_pos_as_xyz
  1  'x, y, z'
loop_
 _atom_site_type_symbol
 _atom_site_label
 _atom_site_symmetry_multiplicity
 _atom_site_fract_x
 _atom_site_fract_y
 _atom_site_fract_z
 _atom_site_occupancy
  Na  Na0  1  0.66432765  0.33567235  0.00000000  1
  Na  Na1  1  0.33567235  0.66432765  0.00000000  1
  Na  Na2  1  -0.00000000  -0.00000000  0.00000000  1
  Na  Na3  1  0.50000000  0.50000000  0.50000000  1
  Ga  Ga4  1  0.88122307  0.21478206  0.35446254  1
  Ga  Ga5  1  0.78521794  0.11877693  0.64553746  1
  Ga  Ga6  1  0.21478206  0.88122307  0.35446254  1
  Ga  Ga7  1  0.11877693  0.78521794  0.64553746  1
  Se  Se8  1  0.41278438  0.07312178  0.76289944  1
  Se  Se9  1  0.07312178  0.41278438  0.76289944  1
  Se  Se10  1  0.92687822  0.58721562  0.23710056  1
  Se  Se11  1  0.75271099  0.75271099  0.76322235  1
  Se  Se12  1  0.58721562  0.92687822  0.23710056  1
  Se  Se13  1  0.24728901  0.24728901  0.23677765  1
