# generated using pymatgen
data_LaSeCl
_symmetry_space_group_name_H-M   'P 1'
_cell_length_a   4.36310097
_cell_length_b   7.64304934
_cell_length_c   9.14306552
_cell_angle_alpha   90.00000000
_cell_angle_beta   90.00000000
_cell_angle_gamma   90.00000000
_symmetry_Int_Tables_number   1
_chemical_formula_structural   LaSeCl
_chemical_formula_sum   'La4 Se4 Cl4'
_cell_volume   304.89742645
_cell_formula_units_Z   4
loop_
 _symmetry_equiv_pos_site_id
 _symmetry_equiv_pos_as_xyz
  1  'x, y, z'
loop_
 _atom_site_type_symbol
 _atom_site_label
 _atom_site_symmetry_multiplicity
 _atom_site_fract_x
 _atom_site_fract_y
 _atom_site_fract_z
 _atom_site_occupancy
  La  La0  1  0.25000000  0.25871156  0.36860349  1
  La  La1  1  0.25000000  0.75871156  0.13139651  1
  La  La2  1  0.75000000  0.74128844  0.63139651  1
  La  La3  1  0.75000000  0.24128844  0.86860349  1
  Se  Se4  1  0.25000000  0.45904782  0.67169731  1
  Se  Se5  1  0.25000000  0.95904782  0.82830269  1
  Se  Se6  1  0.75000000  0.54095218  0.32830269  1
  Se  Se7  1  0.75000000  0.04095218  0.17169731  1
  Cl  Cl8  1  0.25000000  0.86507098  0.44024660  1
  Cl  Cl9  1  0.25000000  0.36507098  0.05975340  1
  Cl  Cl10  1  0.75000000  0.13492902  0.55975340  1
  Cl  Cl11  1  0.75000000  0.63492902  0.94024660  1
