# generated using pymatgen
data_Ba2MgMo4(P2O7)4
_symmetry_space_group_name_H-M   'P 1'
_cell_length_a   8.11406299
_cell_length_b   8.02435327
_cell_length_c   10.24756635
_cell_angle_alpha   77.90221551
_cell_angle_beta   76.28015325
_cell_angle_gamma   84.68041218
_symmetry_Int_Tables_number   1
_chemical_formula_structural   Ba2MgMo4(P2O7)4
_chemical_formula_sum   'Ba2 Mg1 Mo4 P8 O28'
_cell_volume   633.13728234
_cell_formula_units_Z   1
loop_
 _symmetry_equiv_pos_site_id
 _symmetry_equiv_pos_as_xyz
  1  'x, y, z'
loop_
 _atom_site_type_symbol
 _atom_site_label
 _atom_site_symmetry_multiplicity
 _atom_site_fract_x
 _atom_site_fract_y
 _atom_site_fract_z
 _atom_site_occupancy
  Ba  Ba0  1  0.99772307  0.51645427  0.98373500  1
  Ba  Ba1  1  0.49162631  0.00858295  0.52469496  1
  Mg  Mg2  1  0.60060614  0.90031613  0.08094772  1
  Mo  Mo3  1  0.00790054  0.00187583  0.49803508  1
  Mo  Mo4  1  0.01406447  0.00696089  0.01122114  1
  Mo  Mo5  1  0.45863023  0.53414450  0.25620985  1
  Mo  Mo6  1  0.56075320  0.45962425  0.74233358  1
  P  P7  1  0.80575460  0.71839200  0.29204150  1
  P  P8  1  0.25521231  0.20689441  0.20832791  1
  P  P9  1  0.20992144  0.28338543  0.71499705  1
  P  P10  1  0.71516231  0.80914582  0.79037300  1
  P  P11  1  0.74473594  0.35871902  0.43631899  1
  P  P12  1  0.62558870  0.24923117  0.04635052  1
  P  P13  1  0.26932209  0.64291571  0.56272847  1
  P  P14  1  0.36765247  0.73450735  0.93799069  1
  O  O15  1  0.94385922  0.76951121  0.16175567  1
  O  O16  1  0.24815441  0.06512641  0.33498459  1
  O  O17  1  0.08112713  0.24373436  0.85370543  1
  O  O18  1  0.77306763  0.94306301  0.66349512  1
  O  O19  1  0.62936485  0.73231614  0.24701656  1
  O  O20  1  0.27502925  0.38476472  0.23212991  1
  O  O21  1  0.39575526  0.27277351  0.73110401  1
  O  O22  1  0.74475850  0.62324690  0.77379632  1
  O  O23  1  0.79141521  0.80627181  0.40921511  1
  O  O24  1  0.12193534  0.21057315  0.12698790  1
  O  O25  1  0.19397389  0.18388796  0.60977677  1
  O  O26  1  0.76655505  0.83164191  0.92061536  1
  O  O27  1  0.84611079  0.51287465  0.32530914  1
  O  O28  1  0.44417824  0.15533387  0.10749888  1
  O  O29  1  0.41496686  0.74404237  0.07519074  1
  O  O30  1  0.28039110  0.62435196  0.41578290  1
  O  O31  1  0.65855433  0.27856839  0.89196501  1
  O  O32  1  0.74291075  0.38567842  0.57864492  1
  O  O33  1  0.37732225  0.55228477  0.91199421  1
  O  O34  1  0.44536449  0.64034049  0.59769777  1
  O  O35  1  0.63708344  0.40739519  0.10447610  1
  O  O36  1  0.16240421  0.48951471  0.66943364  1
  O  O37  1  0.19687200  0.81946907  0.92261907  1
  O  O38  1  0.17178112  0.80628385  0.59566258  1
  O  O39  1  0.74198539  0.09656740  0.09645020  1
  O  O40  1  0.83775605  0.19432679  0.40391087  1
  O  O41  1  0.50538838  0.84854653  0.82001412  1
  O  O42  1  0.56394801  0.36302876  0.40746065  1
