# generated using pymatgen
data_PRhSe
_symmetry_space_group_name_H-M   'P 1'
_cell_length_a   5.82584600
_cell_length_b   5.82584600
_cell_length_c   5.82584600
_cell_angle_alpha   90.00000000
_cell_angle_beta   90.00000000
_cell_angle_gamma   90.00000000
_symmetry_Int_Tables_number   1
_chemical_formula_structural   PRhSe
_chemical_formula_sum   'P4 Rh4 Se4'
_cell_volume   197.73201906
_cell_formula_units_Z   4
loop_
 _symmetry_equiv_pos_site_id
 _symmetry_equiv_pos_as_xyz
  1  'x, y, z'
loop_
 _atom_site_type_symbol
 _atom_site_label
 _atom_site_symmetry_multiplicity
 _atom_site_fract_x
 _atom_site_fract_y
 _atom_site_fract_z
 _atom_site_occupancy
  P  P0  1  0.88647035  0.38647035  0.11352965  1
  P  P1  1  0.38647035  0.11352965  0.88647035  1
  P  P2  1  0.11352965  0.88647035  0.38647035  1
  P  P3  1  0.61352965  0.61352965  0.61352965  1
  Rh  Rh4  1  0.48619265  0.98619265  0.51380735  1
  Rh  Rh5  1  0.98619265  0.51380735  0.48619265  1
  Rh  Rh6  1  0.51380735  0.48619265  0.98619265  1
  Rh  Rh7  1  0.01380735  0.01380735  0.01380735  1
  Se  Se8  1  0.11499291  0.61499291  0.88500709  1
  Se  Se9  1  0.61499291  0.88500709  0.11499291  1
  Se  Se10  1  0.88500709  0.11499291  0.61499291  1
  Se  Se11  1  0.38500709  0.38500709  0.38500709  1
