# generated using pymatgen
data_RbY2Cl7
_symmetry_space_group_name_H-M   'P 1'
_cell_length_a   6.95807713
_cell_length_b   12.64136240
_cell_length_c   13.09067504
_cell_angle_alpha   90.00000000
_cell_angle_beta   90.00000000
_cell_angle_gamma   90.00000000
_symmetry_Int_Tables_number   1
_chemical_formula_structural   RbY2Cl7
_chemical_formula_sum   'Rb4 Y8 Cl28'
_cell_volume   1151.45020784
_cell_formula_units_Z   4
loop_
 _symmetry_equiv_pos_site_id
 _symmetry_equiv_pos_as_xyz
  1  'x, y, z'
loop_
 _atom_site_type_symbol
 _atom_site_label
 _atom_site_symmetry_multiplicity
 _atom_site_fract_x
 _atom_site_fract_y
 _atom_site_fract_z
 _atom_site_occupancy
  Rb  Rb0  1  0.25000000  0.80424437  0.03987243  1
  Rb  Rb1  1  0.75000000  0.19575563  0.96012757  1
  Rb  Rb2  1  0.75000000  0.30424437  0.46012757  1
  Rb  Rb3  1  0.25000000  0.69575563  0.53987243  1
  Y  Y4  1  0.25000000  0.45992274  0.23779350  1
  Y  Y5  1  0.75000000  0.54007726  0.76220650  1
  Y  Y6  1  0.75000000  0.95992274  0.26220650  1
  Y  Y7  1  0.25000000  0.04007726  0.73779350  1
  Y  Y8  1  0.25000000  0.15714356  0.24834166  1
  Y  Y9  1  0.75000000  0.84285644  0.75165834  1
  Y  Y10  1  0.75000000  0.65714356  0.25165834  1
  Y  Y11  1  0.25000000  0.34285644  0.74834166  1
  Cl  Cl12  1  0.00718087  0.30691239  0.17426981  1
  Cl  Cl13  1  0.99281913  0.69308761  0.82573019  1
  Cl  Cl14  1  0.99281913  0.80691239  0.32573019  1
  Cl  Cl15  1  0.50718087  0.69308761  0.82573019  1
  Cl  Cl16  1  0.00718087  0.19308761  0.67426981  1
  Cl  Cl17  1  0.49281913  0.30691239  0.17426981  1
  Cl  Cl18  1  0.49281913  0.19308761  0.67426981  1
  Cl  Cl19  1  0.50718087  0.80691239  0.32573019  1
  Cl  Cl20  1  0.01052099  0.57846685  0.12110135  1
  Cl  Cl21  1  0.98947901  0.42153315  0.87889865  1
  Cl  Cl22  1  0.98947901  0.07846685  0.37889865  1
  Cl  Cl23  1  0.51052099  0.42153315  0.87889865  1
  Cl  Cl24  1  0.01052099  0.92153315  0.62110135  1
  Cl  Cl25  1  0.48947901  0.57846685  0.12110135  1
  Cl  Cl26  1  0.48947901  0.92153315  0.62110135  1
  Cl  Cl27  1  0.51052099  0.07846685  0.37889865  1
  Cl  Cl28  1  0.00990000  0.03922141  0.12957210  1
  Cl  Cl29  1  0.99010000  0.96077859  0.87042790  1
  Cl  Cl30  1  0.99010000  0.53922141  0.37042790  1
  Cl  Cl31  1  0.50990000  0.96077859  0.87042790  1
  Cl  Cl32  1  0.00990000  0.46077859  0.62957210  1
  Cl  Cl33  1  0.49010000  0.03922141  0.12957210  1
  Cl  Cl34  1  0.49010000  0.46077859  0.62957210  1
  Cl  Cl35  1  0.50990000  0.53922141  0.37042790  1
  Cl  Cl36  1  0.25000000  0.31119838  0.39421568  1
  Cl  Cl37  1  0.75000000  0.68880162  0.60578432  1
  Cl  Cl38  1  0.75000000  0.81119838  0.10578432  1
  Cl  Cl39  1  0.25000000  0.18880162  0.89421568  1
