# generated using pymatgen
data_La(HoS2)3
_symmetry_space_group_name_H-M   'P 1'
_cell_length_a   3.99546752
_cell_length_b   11.06462533
_cell_length_c   11.32744309
_cell_angle_alpha   71.14983379
_cell_angle_beta   90.00000000
_cell_angle_gamma   90.00000000
_symmetry_Int_Tables_number   1
_chemical_formula_structural   La(HoS2)3
_chemical_formula_sum   'La2 Ho6 S12'
_cell_volume   473.90977997
_cell_formula_units_Z   2
loop_
 _symmetry_equiv_pos_site_id
 _symmetry_equiv_pos_as_xyz
  1  'x, y, z'
loop_
 _atom_site_type_symbol
 _atom_site_label
 _atom_site_symmetry_multiplicity
 _atom_site_fract_x
 _atom_site_fract_y
 _atom_site_fract_z
 _atom_site_occupancy
  La  La0  1  0.75000000  0.55089709  0.80463522  1
  La  La1  1  0.25000000  0.44910291  0.19536478  1
  Ho  Ho2  1  0.75000000  0.17858722  0.99892621  1
  Ho  Ho3  1  0.25000000  0.82141278  0.00107379  1
  Ho  Ho4  1  0.75000000  0.94480654  0.66655686  1
  Ho  Ho5  1  0.25000000  0.05519346  0.33344314  1
  Ho  Ho6  1  0.75000000  0.66142836  0.41168675  1
  Ho  Ho7  1  0.25000000  0.33857164  0.58831325  1
  S  S8  1  0.75000000  0.97813297  0.88870275  1
  S  S9  1  0.25000000  0.02186703  0.11129725  1
  S  S10  1  0.75000000  0.30198835  0.74885523  1
  S  S11  1  0.25000000  0.69801165  0.25114477  1
  S  S12  1  0.75000000  0.89312836  0.44323231  1
  S  S13  1  0.25000000  0.10687164  0.55676769  1
  S  S14  1  0.75000000  0.41782838  0.40837069  1
  S  S15  1  0.25000000  0.58217162  0.59162931  1
  S  S16  1  0.75000000  0.23010647  0.22981556  1
  S  S17  1  0.25000000  0.76989353  0.77018444  1
  S  S18  1  0.75000000  0.62107569  0.03665989  1
  S  S19  1  0.25000000  0.37892431  0.96334011  1
