# generated using pymatgen
data_MgFe6Sb10(IO3)6
_symmetry_space_group_name_H-M   'P 1'
_cell_length_a   8.11277696
_cell_length_b   9.41941626
_cell_length_c   12.51776496
_cell_angle_alpha   75.91174489
_cell_angle_beta   84.78660855
_cell_angle_gamma   74.71286402
_symmetry_Int_Tables_number   1
_chemical_formula_structural   MgFe6Sb10(IO3)6
_chemical_formula_sum   'Mg1 Fe6 Sb10 I6 O18'
_cell_volume   894.61278735
_cell_formula_units_Z   1
loop_
 _symmetry_equiv_pos_site_id
 _symmetry_equiv_pos_as_xyz
  1  'x, y, z'
loop_
 _atom_site_type_symbol
 _atom_site_label
 _atom_site_symmetry_multiplicity
 _atom_site_fract_x
 _atom_site_fract_y
 _atom_site_fract_z
 _atom_site_occupancy
  Mg  Mg0  1  0.89542083  0.58251467  0.75798240  1
  Fe  Fe1  1  0.72080775  0.96282195  0.34817655  1
  Fe  Fe2  1  0.29925665  0.00499624  0.64437146  1
  Fe  Fe3  1  0.02411709  0.95919224  0.12476107  1
  Fe  Fe4  1  0.97867404  0.06502684  0.86420033  1
  Fe  Fe5  1  0.62271459  0.08625420  0.06171908  1
  Fe  Fe6  1  0.39294081  0.93306785  0.94487048  1
  Sb  Sb7  1  0.88480404  0.12507296  0.51893286  1
  Sb  Sb8  1  0.11827160  0.78633696  0.50639165  1
  Sb  Sb9  1  0.25626983  0.13833133  0.26233000  1
  Sb  Sb10  1  0.72949294  0.89429452  0.71891788  1
  Sb  Sb11  1  0.52923107  0.23848173  0.75794297  1
  Sb  Sb12  1  0.45677567  0.79069038  0.24298308  1
  Sb  Sb13  1  0.20782451  0.26729480  0.98777913  1
  Sb  Sb14  1  0.79655834  0.75028313  0.01046428  1
  Sb  Sb15  1  0.81684257  0.28741807  0.21322980  1
  Sb  Sb16  1  0.20266738  0.69738199  0.80851762  1
  I  I17  1  0.71024376  0.41671064  0.92867175  1
  I  I18  1  0.26547383  0.66496305  0.06713283  1
  I  I19  1  0.88217400  0.67287436  0.30691935  1
  I  I20  1  0.08622876  0.31796389  0.67939961  1
  I  I21  1  0.50900496  0.25452586  0.42398057  1
  I  I22  1  0.49936238  0.72202746  0.58159777  1
  O  O23  1  0.15312556  0.07105680  0.97854122  1
  O  O24  1  0.85971129  0.94583550  0.01117338  1
  O  O25  1  0.86801714  0.92611078  0.47828337  1
  O  O26  1  0.13768751  0.98701143  0.53770884  1
  O  O27  1  0.78853721  0.09075769  0.18854986  1
  O  O28  1  0.18096005  0.91612099  0.79319402  1
  O  O29  1  0.44590083  0.15778872  0.91254404  1
  O  O30  1  0.54942683  0.87405829  0.09181079  1
  O  O31  1  0.76436199  0.12908655  0.78585335  1
  O  O32  1  0.21572840  0.94348642  0.22699728  1
  O  O33  1  0.49088060  0.05294998  0.70606220  1
  O  O34  1  0.49589901  0.95860970  0.30078630  1
  O  O35  1  0.05487713  0.24969391  0.14001927  1
  O  O36  1  0.96151787  0.69635796  0.86563655  1
  O  O37  1  0.07034376  0.69705637  0.66614639  1
  O  O38  1  0.94737439  0.18382362  0.34975196  1
  O  O39  1  0.63385640  0.84952340  0.88685583  1
  O  O40  1  0.37944862  0.19500277  0.11047985  1
