# generated using pymatgen
data_Y3Sb5O12
_symmetry_space_group_name_H-M   'P 1'
_cell_length_a   9.32175329
_cell_length_b   9.32188147
_cell_length_c   9.32199724
_cell_angle_alpha   109.47164502
_cell_angle_beta   109.47132703
_cell_angle_gamma   109.47060368
_symmetry_Int_Tables_number   1
_chemical_formula_structural   Y3Sb5O12
_chemical_formula_sum   'Y6 Sb10 O24'
_cell_volume   623.57503780
_cell_formula_units_Z   2
loop_
 _symmetry_equiv_pos_site_id
 _symmetry_equiv_pos_as_xyz
  1  'x, y, z'
loop_
 _atom_site_type_symbol
 _atom_site_label
 _atom_site_symmetry_multiplicity
 _atom_site_fract_x
 _atom_site_fract_y
 _atom_site_fract_z
 _atom_site_occupancy
  Y  Y0  1  0.25000174  0.75000270  0.50000438  1
  Y  Y1  1  0.74999678  0.24999770  0.49999395  1
  Y  Y2  1  0.75000008  0.49999747  0.24999749  1
  Y  Y3  1  0.24999952  0.49999805  0.74999935  1
  Y  Y4  1  0.50000420  0.25000264  0.75000324  1
  Y  Y5  1  0.50000038  0.74999860  0.25000156  1
  Sb  Sb6  1  0.51566709  0.51567037  0.51567015  1
  Sb  Sb7  1  0.48433672  0.00001336  0.00000455  1
  Sb  Sb8  1  0.00000188  0.48433096  0.00000340  1
  Sb  Sb9  1  -0.00000154  -0.00000178  0.48432405  1
  Sb  Sb10  1  0.71875982  0.71873719  0.00000336  1
  Sb  Sb11  1  0.28125023  0.28124211  -0.00000766  1
  Sb  Sb12  1  0.71874507  0.00000640  0.71874152  1
  Sb  Sb13  1  0.28126242  0.00001649  0.28126237  1
  Sb  Sb14  1  -0.00001884  0.71874031  0.71874229  1
  Sb  Sb15  1  -0.00000689  0.28124899  0.28125577  1
  O  O16  1  0.79931175  0.50354855  0.50354378  1
  O  O17  1  0.20067314  0.70423472  0.70423208  1
  O  O18  1  -0.00000035  0.49645056  0.29577337  1
  O  O19  1  0.50354993  0.50355201  0.79932052  1
  O  O20  1  -0.00000078  0.29576673  0.49645058  1
  O  O21  1  0.70423466  0.70423353  0.20068204  1
  O  O22  1  0.49645186  0.29576724  0.00000172  1
  O  O23  1  0.29577126  0.49644438  0.00000244  1
  O  O24  1  0.50355310  0.79931807  0.50354536  1
  O  O25  1  0.29576934  0.00000652  0.49644970  1
  O  O26  1  0.49645003  0.00000331  0.29577422  1
  O  O27  1  0.70423134  0.20068398  0.70422240  1
  O  O28  1  0.27774720  0.47763519  0.47763898  1
  O  O29  1  0.72225767  0.19989588  0.19989605  1
  O  O30  1  0.00000094  0.52236560  0.80010822  1
  O  O31  1  0.47763240  0.47763056  0.27774043  1
  O  O32  1  0.00000303  0.80011159  0.52236983  1
  O  O33  1  0.19988697  0.19988973  0.72225278  1
  O  O34  1  0.52236854  0.80010580  0.00000066  1
  O  O35  1  0.80010848  0.52235777  -0.00000053  1
  O  O36  1  0.47763561  0.27774006  0.47763477  1
  O  O37  1  0.80010621  -0.00000011  0.52235972  1
  O  O38  1  0.52236935  0.00000158  0.80010564  1
  O  O39  1  0.19989269  0.72225619  0.19989546  1
