# generated using pymatgen
data_Cs3Ge9(H3N)2
_symmetry_space_group_name_H-M   'P 1'
_cell_length_a   9.75379626
_cell_length_b   14.95071796
_cell_length_c   15.89180401
_cell_angle_alpha   90.00000000
_cell_angle_beta   92.85461917
_cell_angle_gamma   90.00000000
_symmetry_Int_Tables_number   1
_chemical_formula_structural   Cs3Ge9(H3N)2
_chemical_formula_sum   'Cs12 Ge36 H24 N8'
_cell_volume   2314.56661708
_cell_formula_units_Z   4
loop_
 _symmetry_equiv_pos_site_id
 _symmetry_equiv_pos_as_xyz
  1  'x, y, z'
loop_
 _atom_site_type_symbol
 _atom_site_label
 _atom_site_symmetry_multiplicity
 _atom_site_fract_x
 _atom_site_fract_y
 _atom_site_fract_z
 _atom_site_occupancy
  Cs  Cs0  1  0.44366493  0.89418054  0.10976023  1
  Cs  Cs1  1  0.94366493  0.60581946  0.60976023  1
  Cs  Cs2  1  0.55633507  0.10581946  0.89023977  1
  Cs  Cs3  1  0.05633507  0.39418054  0.39023977  1
  Cs  Cs4  1  0.93842380  0.76735690  0.15324398  1
  Cs  Cs5  1  0.43842380  0.73264310  0.65324398  1
  Cs  Cs6  1  0.06157620  0.23264310  0.84675602  1
  Cs  Cs7  1  0.56157620  0.26735690  0.34675602  1
  Cs  Cs8  1  0.27494255  0.55084098  0.01400587  1
  Cs  Cs9  1  0.77494255  0.94915902  0.51400587  1
  Cs  Cs10  1  0.72505745  0.44915902  0.98599413  1
  Cs  Cs11  1  0.22505745  0.05084098  0.48599413  1
  Ge  Ge12  1  0.24281770  0.14434713  0.09730084  1
  Ge  Ge13  1  0.74281770  0.35565287  0.59730084  1
  Ge  Ge14  1  0.75718230  0.85565287  0.90269916  1
  Ge  Ge15  1  0.25718230  0.64434713  0.40269916  1
  Ge  Ge16  1  0.61491246  0.75902306  0.30197070  1
  Ge  Ge17  1  0.11491246  0.74097694  0.80197070  1
  Ge  Ge18  1  0.38508754  0.24097694  0.69802930  1
  Ge  Ge19  1  0.88508754  0.25902306  0.19802930  1
  Ge  Ge20  1  0.33329646  0.71269135  0.26275269  1
  Ge  Ge21  1  0.83329646  0.78730865  0.76275269  1
  Ge  Ge22  1  0.66670354  0.28730865  0.73724731  1
  Ge  Ge23  1  0.16670354  0.21269135  0.23724731  1
  Ge  Ge24  1  0.15119591  0.79510680  0.95517243  1
  Ge  Ge25  1  0.65119591  0.70489320  0.45517243  1
  Ge  Ge26  1  0.84880409  0.20489320  0.04482757  1
  Ge  Ge27  1  0.34880409  0.29510680  0.54482757  1
  Ge  Ge28  1  0.82948141  0.07418878  0.15873199  1
  Ge  Ge29  1  0.32948141  0.42581122  0.65873199  1
  Ge  Ge30  1  0.17051859  0.92581122  0.84126801  1
  Ge  Ge31  1  0.67051859  0.57418878  0.34126801  1
  Ge  Ge32  1  0.98283756  0.92634069  0.95893340  1
  Ge  Ge33  1  0.48283756  0.57365931  0.45893340  1
  Ge  Ge34  1  0.01716244  0.07365931  0.04106660  1
  Ge  Ge35  1  0.51716244  0.42634069  0.54106660  1
  Ge  Ge36  1  0.10603913  0.03315117  0.19761246  1
  Ge  Ge37  1  0.60603913  0.46684883  0.69761246  1
  Ge  Ge38  1  0.89396087  0.96684883  0.80238754  1
  Ge  Ge39  1  0.39396087  0.53315117  0.30238754  1
  Ge  Ge40  1  0.91854419  0.70994427  0.90543495  1
  Ge  Ge41  1  0.41854419  0.79005573  0.40543495  1
  Ge  Ge42  1  0.08145581  0.29005573  0.09456505  1
  Ge  Ge43  1  0.58145581  0.20994427  0.59456505  1
  Ge  Ge44  1  0.54232742  0.62750637  0.20182090  1
  Ge  Ge45  1  0.04232742  0.87249363  0.70182090  1
  Ge  Ge46  1  0.45767258  0.37249363  0.79817910  1
  Ge  Ge47  1  0.95767258  0.12750637  0.29817910  1
  H  H48  1  0.90990368  0.53243955  0.20409433  1
  H  H49  1  0.40990368  0.96756045  0.70409433  1
  H  H50  1  0.09009632  0.46756045  0.79590567  1
  H  H51  1  0.59009632  0.03243955  0.29590567  1
  H  H52  1  0.07652635  0.54687444  0.20967560  1
  H  H53  1  0.57652635  0.95312556  0.70967560  1
  H  H54  1  0.92347365  0.45312556  0.79032440  1
  H  H55  1  0.42347365  0.04687444  0.29032440  1
  H  H56  1  0.00511627  0.48516807  0.13548926  1
  H  H57  1  0.50511627  0.01483193  0.63548926  1
  H  H58  1  0.99488373  0.51483193  0.86451074  1
  H  H59  1  0.49488373  0.98516807  0.36451074  1
  H  H60  1  0.61289790  0.64937144  0.90965781  1
  H  H61  1  0.11289790  0.85062856  0.40965781  1
  H  H62  1  0.38710210  0.35062856  0.09034219  1
  H  H63  1  0.88710210  0.14937144  0.59034219  1
  H  H64  1  0.45776591  0.68753392  0.89385061  1
  H  H65  1  0.95776591  0.81246608  0.39385061  1
  H  H66  1  0.54223409  0.31246608  0.10614939  1
  H  H67  1  0.04223409  0.18753392  0.60614939  1
  H  H68  1  0.50533736  0.59662320  0.84491393  1
  H  H69  1  0.00533736  0.90337680  0.34491393  1
  H  H70  1  0.49466264  0.40337680  0.15508607  1
  H  H71  1  0.99466264  0.09662320  0.65508607  1
  N  N72  1  0.99264818  0.54385870  0.16798817  1
  N  N73  1  0.49264818  0.95614130  0.66798817  1
  N  N74  1  0.00735182  0.45614130  0.83201183  1
  N  N75  1  0.50735182  0.04385870  0.33201183  1
  N  N76  1  0.51241593  0.62920027  0.90184625  1
  N  N77  1  0.01241593  0.87079973  0.40184625  1
  N  N78  1  0.48758407  0.37079973  0.09815375  1
  N  N79  1  0.98758407  0.12920027  0.59815375  1
