# generated using pymatgen
data_Rb3SbS3
_symmetry_space_group_name_H-M   'P 1'
_cell_length_a   9.89316684
_cell_length_b   9.89316684
_cell_length_c   9.89316684
_cell_angle_alpha   90.00000000
_cell_angle_beta   90.00000000
_cell_angle_gamma   90.00000000
_symmetry_Int_Tables_number   1
_chemical_formula_structural   Rb3SbS3
_chemical_formula_sum   'Rb12 Sb4 S12'
_cell_volume   968.29123240
_cell_formula_units_Z   4
loop_
 _symmetry_equiv_pos_site_id
 _symmetry_equiv_pos_as_xyz
  1  'x, y, z'
loop_
 _atom_site_type_symbol
 _atom_site_label
 _atom_site_symmetry_multiplicity
 _atom_site_fract_x
 _atom_site_fract_y
 _atom_site_fract_z
 _atom_site_occupancy
  Rb  Rb0  1  0.44100614  0.94100614  0.55899386  1
  Rb  Rb1  1  0.94100614  0.55899386  0.44100614  1
  Rb  Rb2  1  0.55899386  0.44100614  0.94100614  1
  Rb  Rb3  1  0.05899386  0.05899386  0.05899386  1
  Rb  Rb4  1  0.93689104  0.43689104  0.06310896  1
  Rb  Rb5  1  0.43689104  0.06310896  0.93689104  1
  Rb  Rb6  1  0.06310896  0.93689104  0.43689104  1
  Rb  Rb7  1  0.56310896  0.56310896  0.56310896  1
  Rb  Rb8  1  0.67817944  0.17817944  0.32182056  1
  Rb  Rb9  1  0.17817944  0.32182056  0.67817944  1
  Rb  Rb10  1  0.32182056  0.67817944  0.17817944  1
  Rb  Rb11  1  0.82182056  0.82182056  0.82182056  1
  Sb  Sb12  1  0.22324371  0.72324371  0.77675629  1
  Sb  Sb13  1  0.72324371  0.77675629  0.22324371  1
  Sb  Sb14  1  0.77675629  0.22324371  0.72324371  1
  Sb  Sb15  1  0.27675629  0.27675629  0.27675629  1
  S  S16  1  0.15473222  0.95907058  0.75568068  1
  S  S17  1  0.24431932  0.65473222  0.54092942  1
  S  S18  1  0.45907058  0.74431932  0.84526778  1
  S  S19  1  0.65473222  0.54092942  0.24431932  1
  S  S20  1  0.74431932  0.84526778  0.45907058  1
  S  S21  1  0.95907058  0.75568068  0.15473222  1
  S  S22  1  0.84526778  0.45907058  0.74431932  1
  S  S23  1  0.75568068  0.15473222  0.95907058  1
  S  S24  1  0.54092942  0.24431932  0.65473222  1
  S  S25  1  0.34526778  0.04092942  0.25568068  1
  S  S26  1  0.25568068  0.34526778  0.04092942  1
  S  S27  1  0.04092942  0.25568068  0.34526778  1
