# generated using pymatgen
data_K6Co2O7
_symmetry_space_group_name_H-M   'P 1'
_cell_length_a   9.08496269
_cell_length_b   6.55013620
_cell_length_c   11.03456994
_cell_angle_alpha   55.98992914
_cell_angle_beta   90.00000000
_cell_angle_gamma   90.00000000
_symmetry_Int_Tables_number   1
_chemical_formula_structural   K6Co2O7
_chemical_formula_sum   'K12 Co4 O14'
_cell_volume   544.31663210
_cell_formula_units_Z   2
loop_
 _symmetry_equiv_pos_site_id
 _symmetry_equiv_pos_as_xyz
  1  'x, y, z'
loop_
 _atom_site_type_symbol
 _atom_site_label
 _atom_site_symmetry_multiplicity
 _atom_site_fract_x
 _atom_site_fract_y
 _atom_site_fract_z
 _atom_site_occupancy
  K  K0  1  0.79852136  0.42310815  0.21152904  1
  K  K1  1  0.29852136  0.57689185  0.28847096  1
  K  K2  1  0.34951652  0.93308054  0.43120835  1
  K  K3  1  0.84951652  0.06691946  0.06879165  1
  K  K4  1  0.65048348  0.06691946  0.56879165  1
  K  K5  1  0.15048348  0.93308054  0.93120835  1
  K  K6  1  0.47415955  0.19501344  0.05870438  1
  K  K7  1  0.97415955  0.80498656  0.44129562  1
  K  K8  1  0.52584045  0.80498656  0.94129562  1
  K  K9  1  0.02584045  0.19501344  0.55870438  1
  K  K10  1  0.20147864  0.57689185  0.78847096  1
  K  K11  1  0.70147864  0.42310815  0.71152904  1
  Co  Co12  1  0.35580483  0.30940368  0.63659863  1
  Co  Co13  1  0.85580483  0.69059632  0.86340137  1
  Co  Co14  1  0.64419517  0.69059632  0.36340137  1
  Co  Co15  1  0.14419517  0.30940368  0.13659863  1
  O  O16  1  0.50000000  0.50000000  0.50000000  1
  O  O17  1  -0.00000000  0.50000000  0.00000000  1
  O  O18  1  0.66827694  0.96844257  0.35612293  1
  O  O19  1  0.16827694  0.03155743  0.14387707  1
  O  O20  1  0.30293839  0.50197298  0.07113379  1
  O  O21  1  0.80293839  0.49802702  0.42886621  1
  O  O22  1  0.69706161  0.49802702  0.92886621  1
  O  O23  1  0.19706161  0.50197298  0.57113379  1
  O  O24  1  0.40428281  0.24543874  0.81046175  1
  O  O25  1  0.90428281  0.75456126  0.68953825  1
  O  O26  1  0.59571719  0.75456126  0.18953825  1
  O  O27  1  0.09571719  0.24543874  0.31046175  1
  O  O28  1  0.83172306  0.96844257  0.85612293  1
  O  O29  1  0.33172306  0.03155743  0.64387707  1
