# generated using pymatgen
data_CeSe2
_symmetry_space_group_name_H-M   'P 1'
_cell_length_a   8.34947215
_cell_length_b   14.69205053
_cell_length_c   17.62941836
_cell_angle_alpha   90.00000000
_cell_angle_beta   90.00000000
_cell_angle_gamma   90.00000000
_symmetry_Int_Tables_number   1
_chemical_formula_structural   CeSe2
_chemical_formula_sum   'Ce12 Se24'
_cell_volume   2162.61603011
_cell_formula_units_Z   12
loop_
 _symmetry_equiv_pos_site_id
 _symmetry_equiv_pos_as_xyz
  1  'x, y, z'
loop_
 _atom_site_type_symbol
 _atom_site_label
 _atom_site_symmetry_multiplicity
 _atom_site_fract_x
 _atom_site_fract_y
 _atom_site_fract_z
 _atom_site_occupancy
  Ce  Ce0  1  0.00000000  0.50000000  0.20592509  1
  Ce  Ce1  1  0.00000000  -0.00000000  0.70592509  1
  Ce  Ce2  1  0.50000000  0.50000000  0.78938941  1
  Ce  Ce3  1  0.50000000  -0.00000000  0.28938941  1
  Ce  Ce4  1  0.18077648  0.69927275  0.58218431  1
  Ce  Ce5  1  0.81922352  0.30072725  0.58218431  1
  Ce  Ce6  1  0.81922352  0.19927275  0.08218431  1
  Ce  Ce7  1  0.18077648  0.80072725  0.08218431  1
  Ce  Ce8  1  0.31799520  0.20044293  0.91230204  1
  Ce  Ce9  1  0.68200480  0.79955707  0.91230204  1
  Ce  Ce10  1  0.68200480  0.70044293  0.41230204  1
  Ce  Ce11  1  0.31799520  0.29955707  0.41230204  1
  Se  Se12  1  0.12522793  0.33552552  0.53446767  1
  Se  Se13  1  0.87477207  0.66447448  0.53446767  1
  Se  Se14  1  0.87477207  0.83552552  0.03446767  1
  Se  Se15  1  0.12522793  0.16447448  0.03446767  1
  Se  Se16  1  0.37497656  0.83170655  0.95967221  1
  Se  Se17  1  0.62502344  0.16829345  0.95967221  1
  Se  Se18  1  0.62502344  0.33170655  0.45967221  1
  Se  Se19  1  0.37497656  0.66829345  0.45967221  1
  Se  Se20  1  0.20359118  0.10255622  0.79179221  1
  Se  Se21  1  0.79640882  0.89744378  0.79179221  1
  Se  Se22  1  0.79640882  0.60255622  0.29179221  1
  Se  Se23  1  0.20359118  0.39744378  0.29179221  1
  Se  Se24  1  0.32159921  0.37974514  0.87265894  1
  Se  Se25  1  0.67840079  0.62025486  0.87265894  1
  Se  Se26  1  0.67840079  0.87974514  0.37265894  1
  Se  Se27  1  0.32159921  0.12025486  0.37265894  1
  Se  Se28  1  0.17360616  0.87857918  0.62175711  1
  Se  Se29  1  0.82639384  0.12142082  0.62175711  1
  Se  Se30  1  0.82639384  0.37857918  0.12175711  1
  Se  Se31  1  0.17360616  0.62142082  0.12175711  1
  Se  Se32  1  0.29962384  0.60377411  0.70300826  1
  Se  Se33  1  0.70037616  0.39622589  0.70300826  1
  Se  Se34  1  0.70037616  0.10377411  0.20300826  1
  Se  Se35  1  0.29962384  0.89622589  0.20300826  1
