# generated using pymatgen
data_Sm2Te3
_symmetry_space_group_name_H-M   'P 1'
_cell_length_a   4.37848266
_cell_length_b   12.00026808
_cell_length_c   12.21011587
_cell_angle_alpha   89.99992083
_cell_angle_beta   89.99999399
_cell_angle_gamma   89.99999808
_symmetry_Int_Tables_number   1
_chemical_formula_structural   Sm2Te3
_chemical_formula_sum   'Sm8 Te12'
_cell_volume   641.55569939
_cell_formula_units_Z   4
loop_
 _symmetry_equiv_pos_site_id
 _symmetry_equiv_pos_as_xyz
  1  'x, y, z'
loop_
 _atom_site_type_symbol
 _atom_site_label
 _atom_site_symmetry_multiplicity
 _atom_site_fract_x
 _atom_site_fract_y
 _atom_site_fract_z
 _atom_site_occupancy
  Sm  Sm0  1  0.24999986  0.18787640  0.48349540  1
  Sm  Sm1  1  0.24999989  0.31212990  0.98349289  1
  Sm  Sm2  1  0.74999989  0.81211969  0.51650583  1
  Sm  Sm3  1  0.74999987  0.68787361  0.01649488  1
  Sm  Sm4  1  0.75000012  0.50169917  0.69583541  1
  Sm  Sm5  1  0.75000004  0.99828653  0.19583647  1
  Sm  Sm6  1  0.25000009  0.49830833  0.30416726  1
  Sm  Sm7  1  0.24999986  0.00170880  0.80417097  1
  Te  Te8  1  0.24999997  0.62412102  0.54294129  1
  Te  Te9  1  0.24999989  0.87588625  0.04294570  1
  Te  Te10  1  0.74999992  0.37592458  0.45706317  1
  Te  Te11  1  0.75000027  0.12406921  0.95705884  1
  Te  Te12  1  0.74999985  0.05623805  0.61807961  1
  Te  Te13  1  0.74999968  0.44377164  0.11807534  1
  Te  Te14  1  0.25000033  0.94376544  0.38194732  1
  Te  Te15  1  0.25000010  0.55623292  0.88192530  1
  Te  Te16  1  0.25000017  0.30428996  0.72466140  1
  Te  Te17  1  0.24999967  0.19570832  0.22467199  1
  Te  Te18  1  0.75000038  0.69571814  0.27530975  1
  Te  Te19  1  0.75000016  0.80427002  0.77532320  1
