# generated using pymatgen
data_Rb4Cu8(GeS4)3
_symmetry_space_group_name_H-M   'P 1'
_cell_length_a   12.69432873
_cell_length_b   12.69432873
_cell_length_c   12.33754965
_cell_angle_alpha   60.92544415
_cell_angle_beta   119.07455585
_cell_angle_gamma   121.85088830
_symmetry_Int_Tables_number   1
_chemical_formula_structural   Rb4Cu8(GeS4)3
_chemical_formula_sum   'Rb8 Cu16 Ge6 S24'
_cell_volume   1403.67126239
_cell_formula_units_Z   2
loop_
 _symmetry_equiv_pos_site_id
 _symmetry_equiv_pos_as_xyz
  1  'x, y, z'
loop_
 _atom_site_type_symbol
 _atom_site_label
 _atom_site_symmetry_multiplicity
 _atom_site_fract_x
 _atom_site_fract_y
 _atom_site_fract_z
 _atom_site_occupancy
  Rb  Rb0  1  0.57403046  0.07403046  0.07403046  1
  Rb  Rb1  1  0.92596954  0.42596954  0.42596954  1
  Rb  Rb2  1  0.07403046  0.57403046  0.92596954  1
  Rb  Rb3  1  0.42596954  0.92596954  0.57403046  1
  Rb  Rb4  1  0.09860142  0.90139858  0.59860142  1
  Rb  Rb5  1  0.40139858  0.59860142  0.90139858  1
  Rb  Rb6  1  0.59860142  0.40139858  0.09860142  1
  Rb  Rb7  1  0.90139858  0.09860142  0.40139858  1
  Cu  Cu8  1  0.90947781  0.72810070  0.09050278  1
  Cu  Cu9  1  0.90912567  0.09050278  0.72810070  1
  Cu  Cu10  1  0.90949722  0.09087433  0.09052219  1
  Cu  Cu11  1  0.27189930  0.09052219  0.09087433  1
  Cu  Cu12  1  0.40947781  0.22810070  0.59087433  1
  Cu  Cu13  1  0.40949722  0.59087433  0.22810070  1
  Cu  Cu14  1  0.40912567  0.59050278  0.59052219  1
  Cu  Cu15  1  0.77189930  0.59052219  0.59050278  1
  Cu  Cu16  1  0.08673411  0.27201933  0.91062542  1
  Cu  Cu17  1  0.09591064  0.91062542  0.27201933  1
  Cu  Cu18  1  0.08937458  0.90408936  0.91326589  1
  Cu  Cu19  1  0.72798067  0.91326589  0.90408936  1
  Cu  Cu20  1  0.58673411  0.77201933  0.40408936  1
  Cu  Cu21  1  0.58937458  0.40408936  0.77201933  1
  Cu  Cu22  1  0.59591064  0.41062542  0.41326589  1
  Cu  Cu23  1  0.22798067  0.41326589  0.41062542  1
  Ge  Ge24  1  0.75063952  0.75063952  0.24936048  1
  Ge  Ge25  1  0.24936048  0.24936048  0.75063952  1
  Ge  Ge26  1  0.75000000  0.25000000  0.75000000  1
  Ge  Ge27  1  0.25000000  0.75000000  0.25000000  1
  Ge  Ge28  1  0.74936048  0.74936048  0.74936048  1
  Ge  Ge29  1  0.25063952  0.25063952  0.25063952  1
  S  S30  1  0.92520061  0.71953302  0.28322298  1
  S  S31  1  0.07755539  0.28322298  0.71953302  1
  S  S32  1  0.71677702  0.92244461  0.07479939  1
  S  S33  1  0.28046698  0.07479939  0.92244461  1
  S  S34  1  0.56841116  0.21408324  0.77998879  1
  S  S35  1  0.42566087  0.77998879  0.21408324  1
  S  S36  1  0.22001121  0.57433913  0.43158884  1
  S  S37  1  0.78591676  0.43158884  0.57433913  1
  S  S38  1  0.92566087  0.27998879  0.93158884  1
  S  S39  1  0.06841116  0.71408324  0.07433913  1
  S  S40  1  0.72001121  0.07433913  0.71408324  1
  S  S41  1  0.28591676  0.93158884  0.27998879  1
  S  S42  1  0.57755539  0.78322298  0.57479939  1
  S  S43  1  0.42520061  0.21953302  0.42244461  1
  S  S44  1  0.21677702  0.42244461  0.21953302  1
  S  S45  1  0.78046698  0.57479939  0.78322298  1
  S  S46  1  0.93196757  0.93015541  0.72074454  1
  S  S47  1  0.06984459  0.06803243  0.28106763  1
  S  S48  1  0.71893237  0.72074454  0.93015541  1
  S  S49  1  0.27925546  0.28106763  0.06803243  1
  S  S50  1  0.56984459  0.56803243  0.22074454  1
  S  S51  1  0.43196757  0.43015541  0.78106763  1
  S  S52  1  0.21893237  0.22074454  0.56803243  1
  S  S53  1  0.77925546  0.78106763  0.43015541  1
