# generated using pymatgen
data_TbPtF7
_symmetry_space_group_name_H-M   'P 1'
_cell_length_a   5.44710132
_cell_length_b   8.82234043
_cell_length_c   11.89371470
_cell_angle_alpha   62.11817928
_cell_angle_beta   90.00000000
_cell_angle_gamma   90.00000000
_symmetry_Int_Tables_number   1
_chemical_formula_structural   TbPtF7
_chemical_formula_sum   'Tb4 Pt4 F28'
_cell_volume   505.21568089
_cell_formula_units_Z   4
loop_
 _symmetry_equiv_pos_site_id
 _symmetry_equiv_pos_as_xyz
  1  'x, y, z'
loop_
 _atom_site_type_symbol
 _atom_site_label
 _atom_site_symmetry_multiplicity
 _atom_site_fract_x
 _atom_site_fract_y
 _atom_site_fract_z
 _atom_site_occupancy
  Tb  Tb0  1  0.26076517  0.81329791  0.26454496  1
  Tb  Tb1  1  0.73923483  0.18670209  0.73545504  1
  Tb  Tb2  1  0.76076517  0.18670209  0.23545504  1
  Tb  Tb3  1  0.23923483  0.81329791  0.76454496  1
  Pt  Pt4  1  0.75727587  0.72776411  0.04292806  1
  Pt  Pt5  1  0.24272413  0.27223589  0.95707194  1
  Pt  Pt6  1  0.25727587  0.27223589  0.45707194  1
  Pt  Pt7  1  0.74272413  0.72776411  0.54292806  1
  F  F8  1  0.93472199  0.70562010  0.41345027  1
  F  F9  1  0.06527801  0.29437990  0.58654973  1
  F  F10  1  0.43472199  0.29437990  0.08654973  1
  F  F11  1  0.56527801  0.70562010  0.91345027  1
  F  F12  1  0.45946202  0.72527751  0.13366756  1
  F  F13  1  0.54053798  0.27472249  0.86633244  1
  F  F14  1  0.95946202  0.27472249  0.36633244  1
  F  F15  1  0.04053798  0.72527751  0.63366756  1
  F  F16  1  0.94248417  0.74377601  0.17672030  1
  F  F17  1  0.05751583  0.25622399  0.82327970  1
  F  F18  1  0.44248417  0.25622399  0.32327970  1
  F  F19  1  0.55751583  0.74377601  0.67672030  1
  F  F20  1  0.77102212  0.47935580  0.14123990  1
  F  F21  1  0.22897788  0.52064420  0.85876010  1
  F  F22  1  0.27102212  0.52064420  0.35876010  1
  F  F23  1  0.72897788  0.47935580  0.64123990  1
  F  F24  1  0.93739978  0.27835136  0.04050494  1
  F  F25  1  0.06260022  0.72164864  0.95949506  1
  F  F26  1  0.43739978  0.72164864  0.45949506  1
  F  F27  1  0.56260022  0.27835136  0.54050494  1
  F  F28  1  0.74350967  0.97660991  0.44923351  1
  F  F29  1  0.25649033  0.02339009  0.55076649  1
  F  F30  1  0.24350967  0.02339009  0.05076649  1
  F  F31  1  0.75649033  0.97660991  0.94923351  1
  F  F32  1  0.59718778  0.96480973  0.23115145  1
  F  F33  1  0.40281222  0.03519027  0.76884855  1
  F  F34  1  0.09718778  0.03519027  0.26884855  1
  F  F35  1  0.90281222  0.96480973  0.73115145  1
