# generated using pymatgen
data_SrCdB2O5
_symmetry_space_group_name_H-M   'P 1'
_cell_length_a   6.37063301
_cell_length_b   6.37063301
_cell_length_c   11.17276904
_cell_angle_alpha   84.38953557
_cell_angle_beta   84.38953557
_cell_angle_gamma   106.28372657
_symmetry_Int_Tables_number   1
_chemical_formula_structural   SrCdB2O5
_chemical_formula_sum   'Sr4 Cd4 B8 O20'
_cell_volume   429.43635994
_cell_formula_units_Z   4
loop_
 _symmetry_equiv_pos_site_id
 _symmetry_equiv_pos_as_xyz
  1  'x, y, z'
loop_
 _atom_site_type_symbol
 _atom_site_label
 _atom_site_symmetry_multiplicity
 _atom_site_fract_x
 _atom_site_fract_y
 _atom_site_fract_z
 _atom_site_occupancy
  Sr  Sr0  1  0.63079978  0.36920022  0.75000000  1
  Sr  Sr1  1  0.36920022  0.63079978  0.25000000  1
  Sr  Sr2  1  0.81636684  0.18363316  0.25000000  1
  Sr  Sr3  1  0.18363316  0.81636684  0.75000000  1
  Cd  Cd4  1  0.06481264  0.26179894  0.55727299  1
  Cd  Cd5  1  0.73820106  0.93518736  0.94272701  1
  Cd  Cd6  1  0.93518736  0.73820106  0.44272701  1
  Cd  Cd7  1  0.26179894  0.06481264  0.05727299  1
  B  B8  1  0.54345307  0.27045197  0.50420149  1
  B  B9  1  0.72954803  0.45654693  0.99579851  1
  B  B10  1  0.45654693  0.72954803  0.49579851  1
  B  B11  1  0.27045197  0.54345307  0.00420149  1
  B  B12  1  0.13137612  0.32485360  0.83124035  1
  B  B13  1  0.67514640  0.86862388  0.66875965  1
  B  B14  1  0.86862388  0.67514640  0.16875965  1
  B  B15  1  0.32485360  0.13137612  0.33124035  1
  O  O16  1  0.37738983  0.18516091  0.59664407  1
  O  O17  1  0.81483909  0.62261017  0.90335593  1
  O  O18  1  0.62261017  0.81483909  0.40335593  1
  O  O19  1  0.18516091  0.37738983  0.09664407  1
  O  O20  1  0.02942580  0.38654820  0.73949679  1
  O  O21  1  0.61345180  0.97057420  0.76050321  1
  O  O22  1  0.97057420  0.61345180  0.26050321  1
  O  O23  1  0.38654820  0.02942580  0.23949679  1
  O  O24  1  0.75637443  0.36579231  0.52379443  1
  O  O25  1  0.63420769  0.24362557  0.97620557  1
  O  O26  1  0.24362557  0.63420769  0.47620557  1
  O  O27  1  0.36579231  0.75637443  0.02379443  1
  O  O28  1  0.11524258  0.12737759  0.37296692  1
  O  O29  1  0.87262241  0.88475742  0.12703308  1
  O  O30  1  0.88475742  0.87262241  0.62703308  1
  O  O31  1  0.12737759  0.11524258  0.87296692  1
  O  O32  1  0.50371105  0.27096839  0.38133013  1
  O  O33  1  0.72903161  0.49628895  0.11866987  1
  O  O34  1  0.49628895  0.72903161  0.61866987  1
  O  O35  1  0.27096839  0.50371105  0.88133013  1
