# generated using pymatgen
data_Sm9Al(SiS7)3
_symmetry_space_group_name_H-M   'P 1'
_cell_length_a   11.56149320
_cell_length_b   11.56138079
_cell_length_c   11.56134797
_cell_angle_alpha   97.73114896
_cell_angle_beta   82.26765039
_cell_angle_gamma   82.26739027
_symmetry_Int_Tables_number   1
_chemical_formula_structural   Sm9Al(SiS7)3
_chemical_formula_sum   'Sm18 Al2 Si6 S42'
_cell_volume   1498.94875767
_cell_formula_units_Z   2
loop_
 _symmetry_equiv_pos_site_id
 _symmetry_equiv_pos_as_xyz
  1  'x, y, z'
loop_
 _atom_site_type_symbol
 _atom_site_label
 _atom_site_symmetry_multiplicity
 _atom_site_fract_x
 _atom_site_fract_y
 _atom_site_fract_z
 _atom_site_occupancy
  Sm  Sm0  1  0.34148070  0.02233973  0.88948748  1
  Sm  Sm1  1  0.01740353  0.34534943  0.21829883  1
  Sm  Sm2  1  0.66589848  0.67616387  0.55611750  1
  Sm  Sm3  1  0.44387948  0.33410919  0.67615895  1
  Sm  Sm4  1  0.11051013  0.65852056  0.02233577  1
  Sm  Sm5  1  0.78170229  0.98260303  0.34534207  1
  Sm  Sm6  1  0.65465023  0.21829595  0.98259960  1
  Sm  Sm7  1  0.32383550  0.55611607  0.33410497  1
  Sm  Sm8  1  0.97765941  0.88948607  0.65851873  1
  Sm  Sm9  1  0.44464232  0.19175845  0.32083430  1
  Sm  Sm10  1  0.11809376  0.51848035  0.64782642  1
  Sm  Sm11  1  0.79048993  0.86788626  0.98919838  1
  Sm  Sm12  1  0.35217532  0.88190147  0.51848567  1
  Sm  Sm13  1  0.01080345  0.20950171  0.86789216  1
  Sm  Sm14  1  0.67916729  0.55535220  0.19176379  1
  Sm  Sm15  1  0.13211538  0.98919906  0.20950802  1
  Sm  Sm16  1  0.80824289  0.32083500  0.55535287  1
  Sm  Sm17  1  0.48152035  0.64782799  0.88190263  1
  Al  Al18  1  0.23619838  0.76380124  0.76380173  1
  Al  Al19  1  0.73627437  0.26372794  0.26372630  1
  Si  Si20  1  0.95122910  0.71367084  0.38392522  1
  Si  Si21  1  0.61607352  0.04876718  0.71367879  1
  Si  Si22  1  0.28632151  0.38392239  0.04878072  1
  Si  Si23  1  0.44927389  0.88158343  0.21385527  1
  Si  Si24  1  0.11842374  0.21386469  0.55072231  1
  Si  Si25  1  0.78613884  0.55073443  0.88157584  1
  S  S26  1  0.51034518  0.66047009  0.39526618  1
  S  S27  1  0.18178970  0.96682165  0.73181379  1
  S  S28  1  0.83988859  0.31677359  0.07852793  1
  S  S29  1  0.26819167  0.81820556  0.96681971  1
  S  S30  1  0.92147455  0.16011616  0.31677642  1
  S  S31  1  0.60473633  0.48965612  0.66047438  1
  S  S32  1  0.68322260  0.07852406  0.16011356  1
  S  S33  1  0.33952161  0.39526468  0.48965141  1
  S  S34  1  0.03317448  0.73180678  0.81820428  1
  S  S35  1  0.95940896  0.86993123  0.13433390  1
  S  S36  1  0.63978957  0.21051570  0.44507676  1
  S  S37  1  0.29076950  0.55410098  0.79355394  1
  S  S38  1  0.20644423  0.70923058  0.55410508  1
  S  S39  1  0.86566172  0.04058932  0.86992873  1
  S  S40  1  0.55492694  0.36020542  0.21051594  1
  S  S41  1  0.78948653  0.44508044  0.36021225  1
  S  S42  1  0.44589694  0.79355779  0.70923212  1
  S  S43  1  0.13006995  0.13433841  0.04059321  1
  S  S44  1  0.73480131  0.92161608  0.59162448  1
  S  S45  1  0.40837792  0.26519353  0.92161671  1
  S  S46  1  0.07838358  0.59162172  0.26520350  1
  S  S47  1  0.57686357  0.76481498  0.09048026  1
  S  S48  1  0.23518566  0.09048055  0.42313641  1
  S  S49  1  0.90951861  0.42313324  0.76480993  1
  S  S50  1  0.91939678  0.66014734  0.55440104  1
  S  S51  1  0.58831031  0.99639012  0.88571617  1
  S  S52  1  0.26417317  0.33325368  0.22090204  1
  S  S53  1  0.77909086  0.73583238  0.33324175  1
  S  S54  1  0.44558997  0.08060222  0.66014070  1
  S  S55  1  0.11427396  0.41169173  0.99638377  1
  S  S56  1  0.00361553  0.88572745  0.41168548  1
  S  S57  1  0.66675408  0.22091661  0.73582649  1
  S  S58  1  0.33985527  0.55441142  0.08059932  1
  S  S59  1  0.37678526  0.03070225  0.14066598  1
  S  S60  1  0.04496027  0.36158525  0.47439736  1
  S  S61  1  0.72007315  0.70361486  0.80957694  1
  S  S62  1  0.52560793  0.95504481  0.36159702  1
  S  S63  1  0.19042767  0.27993293  0.70362488  1
  S  S64  1  0.85933871  0.62321672  0.03070918  1
  S  S65  1  0.29637765  0.80957211  0.27993404  1
  S  S66  1  0.96929007  0.14065953  0.62322314  1
  S  S67  1  0.63840587  0.47439141  0.95504952  1
