# generated using pymatgen
data_MgCd2
_symmetry_space_group_name_H-M   'P 1'
_cell_length_a   4.97676188
_cell_length_b   3.20515020
_cell_length_c   16.02517255
_cell_angle_alpha   90.00000000
_cell_angle_beta   90.00000000
_cell_angle_gamma   90.00000000
_symmetry_Int_Tables_number   1
_chemical_formula_structural   MgCd2
_chemical_formula_sum   'Mg4 Cd8'
_cell_volume   255.62184349
_cell_formula_units_Z   4
loop_
 _symmetry_equiv_pos_site_id
 _symmetry_equiv_pos_as_xyz
  1  'x, y, z'
loop_
 _atom_site_type_symbol
 _atom_site_label
 _atom_site_symmetry_multiplicity
 _atom_site_fract_x
 _atom_site_fract_y
 _atom_site_fract_z
 _atom_site_occupancy
  Mg  Mg0  1  0.50000000  0.50000000  0.38981323  1
  Mg  Mg1  1  0.50000000  -0.00000000  0.21863822  1
  Mg  Mg2  1  0.50000000  -0.00000000  0.88981323  1
  Mg  Mg3  1  0.50000000  0.50000000  0.71863822  1
  Cd  Cd4  1  0.00000000  -0.00000000  0.99981541  1
  Cd  Cd5  1  0.00000000  0.50000000  0.16844839  1
  Cd  Cd6  1  0.00000000  -0.00000000  0.33323141  1
  Cd  Cd7  1  0.50000000  0.50000000  0.05672234  1
  Cd  Cd8  1  0.00000000  0.50000000  0.49981541  1
  Cd  Cd9  1  0.00000000  -0.00000000  0.66844839  1
  Cd  Cd10  1  0.00000000  0.50000000  0.83323141  1
  Cd  Cd11  1  0.50000000  -0.00000000  0.55672234  1
