# generated using pymatgen
data_Sb4Cl13F7
_symmetry_space_group_name_H-M   'P 1'
_cell_length_a   7.39306993
_cell_length_b   9.95254987
_cell_length_c   10.04429398
_cell_angle_alpha   83.40303171
_cell_angle_beta   109.93756967
_cell_angle_gamma   110.21692625
_symmetry_Int_Tables_number   1
_chemical_formula_structural   Sb4Cl13F7
_chemical_formula_sum   'Sb4 Cl13 F7'
_cell_volume   651.95517518
_cell_formula_units_Z   1
loop_
 _symmetry_equiv_pos_site_id
 _symmetry_equiv_pos_as_xyz
  1  'x, y, z'
loop_
 _atom_site_type_symbol
 _atom_site_label
 _atom_site_symmetry_multiplicity
 _atom_site_fract_x
 _atom_site_fract_y
 _atom_site_fract_z
 _atom_site_occupancy
  Sb  Sb0  1  0.02858492  0.26362319  0.83230452  1
  Sb  Sb1  1  0.93808348  0.73814951  0.17032851  1
  Sb  Sb2  1  0.23772200  0.17127854  0.25986058  1
  Sb  Sb3  1  0.78372713  0.82945335  0.74165805  1
  Cl  Cl4  1  0.94434305  0.29396590  0.59108125  1
  Cl  Cl5  1  0.05828213  0.70641514  0.41099864  1
  Cl  Cl6  1  0.71524379  0.23754979  0.85063845  1
  Cl  Cl7  1  0.63572448  0.76710099  0.15712348  1
  Cl  Cl8  1  0.34675130  0.09627700  0.49016070  1
  Cl  Cl9  1  0.73395195  0.90281242  0.51052309  1
  Cl  Cl10  1  0.40931641  0.41408705  0.28631817  1
  Cl  Cl11  1  0.67531483  0.58562101  0.71223132  1
  Cl  Cl12  1  0.19433015  0.49750877  0.90541341  1
  Cl  Cl13  1  0.80700411  0.50461863  0.09447024  1
  Cl  Cl14  1  0.46194468  0.11619713  0.18102786  1
  Cl  Cl15  1  0.93481644  0.18180960  0.26728888  1
  Cl  Cl16  1  0.49069030  0.84437516  0.76337828  1
  F  F17  1  0.09746263  0.19731136  0.03969369  1
  F  F18  1  0.87143298  0.80619941  0.96028379  1
  F  F19  1  0.91285625  0.04185959  0.80722098  1
  F  F20  1  0.05419967  0.95677317  0.19643999  1
  F  F21  1  0.26957681  0.22887479  0.84788725  1
  F  F22  1  0.19058124  0.76750300  0.14625840  1
  F  F23  1  0.05906027  0.85063849  0.77741045  1
