# generated using pymatgen
data_BaSbTe3
_symmetry_space_group_name_H-M   'P 1'
_cell_length_a   4.68859283
_cell_length_b   17.31061770
_cell_length_c   18.23603710
_cell_angle_alpha   90.00000000
_cell_angle_beta   90.00000000
_cell_angle_gamma   90.00000000
_symmetry_Int_Tables_number   1
_chemical_formula_structural   BaSbTe3
_chemical_formula_sum   'Ba8 Sb8 Te24'
_cell_volume   1480.08123106
_cell_formula_units_Z   8
loop_
 _symmetry_equiv_pos_site_id
 _symmetry_equiv_pos_as_xyz
  1  'x, y, z'
loop_
 _atom_site_type_symbol
 _atom_site_label
 _atom_site_symmetry_multiplicity
 _atom_site_fract_x
 _atom_site_fract_y
 _atom_site_fract_z
 _atom_site_occupancy
  Ba  Ba0  1  0.26325146  0.53994224  0.66792511  1
  Ba  Ba1  1  0.76325146  0.96005776  0.33207489  1
  Ba  Ba2  1  0.73674854  0.03994224  0.83207489  1
  Ba  Ba3  1  0.23674854  0.46005776  0.16792511  1
  Ba  Ba4  1  0.26702709  0.39561830  0.90519721  1
  Ba  Ba5  1  0.76702709  0.10438170  0.09480279  1
  Ba  Ba6  1  0.73297291  0.89561830  0.59480279  1
  Ba  Ba7  1  0.23297291  0.60438170  0.40519721  1
  Sb  Sb8  1  0.78530666  0.28432430  0.69848367  1
  Sb  Sb9  1  0.28530666  0.21567570  0.30151633  1
  Sb  Sb10  1  0.21469334  0.78432430  0.80151633  1
  Sb  Sb11  1  0.71469334  0.71567570  0.19848367  1
  Sb  Sb12  1  0.71252255  0.62922908  0.97235646  1
  Sb  Sb13  1  0.21252255  0.87077092  0.02764354  1
  Sb  Sb14  1  0.28747745  0.12922908  0.52764354  1
  Sb  Sb15  1  0.78747745  0.37077092  0.47235646  1
  Te  Te16  1  0.75101797  0.47428456  0.02629165  1
  Te  Te17  1  0.25101797  0.02571544  0.97370835  1
  Te  Te18  1  0.24898203  0.97428456  0.47370835  1
  Te  Te19  1  0.74898203  0.52571544  0.52629165  1
  Te  Te20  1  0.67383987  0.28792134  0.19306750  1
  Te  Te21  1  0.17383987  0.21207866  0.80693250  1
  Te  Te22  1  0.32616013  0.78792134  0.30693250  1
  Te  Te23  1  0.82616013  0.71207866  0.69306750  1
  Te  Te24  1  0.28593893  0.67760417  0.09214220  1
  Te  Te25  1  0.78593893  0.82239583  0.90785780  1
  Te  Te26  1  0.71406107  0.17760417  0.40785780  1
  Te  Te27  1  0.21406107  0.32239583  0.59214220  1
  Te  Te28  1  0.20392331  0.73693812  0.56126502  1
  Te  Te29  1  0.70392331  0.76306188  0.43873498  1
  Te  Te30  1  0.79607669  0.23693812  0.93873498  1
  Te  Te31  1  0.29607669  0.26306188  0.06126502  1
  Te  Te32  1  0.23612772  0.39747620  0.36961000  1
  Te  Te33  1  0.73612772  0.10252380  0.63039000  1
  Te  Te34  1  0.76387228  0.89747620  0.13039000  1
  Te  Te35  1  0.26387228  0.60252380  0.86961000  1
  Te  Te36  1  0.73382241  0.56681598  0.26776923  1
  Te  Te37  1  0.23382241  0.93318402  0.73223077  1
  Te  Te38  1  0.26617759  0.06681598  0.23223077  1
  Te  Te39  1  0.76617759  0.43318402  0.76776923  1
