# generated using pymatgen
data_Li2Si2NiO6
_symmetry_space_group_name_H-M   'P 1'
_cell_length_a   5.58344149
_cell_length_b   5.57500503
_cell_length_c   18.80299627
_cell_angle_alpha   90.79371163
_cell_angle_beta   88.99916756
_cell_angle_gamma   62.74932020
_symmetry_Int_Tables_number   1
_chemical_formula_structural   Li2Si2NiO6
_chemical_formula_sum   'Li8 Si8 Ni4 O24'
_cell_volume   520.09689143
_cell_formula_units_Z   4
loop_
 _symmetry_equiv_pos_site_id
 _symmetry_equiv_pos_as_xyz
  1  'x, y, z'
loop_
 _atom_site_type_symbol
 _atom_site_label
 _atom_site_symmetry_multiplicity
 _atom_site_fract_x
 _atom_site_fract_y
 _atom_site_fract_z
 _atom_site_occupancy
  Li  Li0  1  0.60450800  0.73985900  0.44138900  1
  Li  Li1  1  0.60193100  0.73928100  0.93999900  1
  Li  Li2  1  0.26059300  0.39617400  0.19131500  1
  Li  Li3  1  0.26038700  0.39648800  0.69068100  1
  Li  Li4  1  0.73947400  0.60432400  0.30931100  1
  Li  Li5  1  0.73571600  0.60382900  0.80899400  1
  Li  Li6  1  0.39739000  0.26162200  0.05983800  1
  Li  Li7  1  0.39512200  0.26377300  0.55919100  1
  Si  Si8  1  0.14083700  0.80313500  0.31635300  1
  Si  Si9  1  0.13751700  0.80141800  0.81591100  1
  Si  Si10  1  0.19687400  0.86145800  0.06587500  1
  Si  Si11  1  0.19889400  0.86001400  0.56642100  1
  Si  Si12  1  0.80658800  0.13935400  0.43398900  1
  Si  Si13  1  0.80291700  0.13911700  0.93348000  1
  Si  Si14  1  0.86118300  0.19563400  0.18384500  1
  Si  Si15  1  0.85986200  0.19527500  0.68338000  1
  Ni  Ni16  1  0.25160100  0.25850500  0.87658500  1
  Ni  Ni17  1  0.74061500  0.74845300  0.62673500  1
  Ni  Ni18  1  0.25607500  0.25806300  0.37612200  1
  Ni  Ni19  1  0.74483400  0.74220000  0.12457100  1
  O  O20  1  0.88708800  0.88343300  0.37556600  1
  O  O21  1  0.88496600  0.88128600  0.87564900  1
  O  O22  1  0.11593400  0.11567600  0.12484800  1
  O  O23  1  0.11865300  0.11333400  0.62584000  1
  O  O24  1  0.00014000  0.99767200  0.24980200  1
  O  O25  1  0.99252200  0.99180200  0.74893100  1
  O  O26  1  0.00249900  0.00363700  0.99940400  1
  O  O27  1  0.00869000  0.00257500  0.49935300  1
  O  O28  1  0.37365500  0.86738200  0.34991200  1
  O  O29  1  0.36920300  0.86905600  0.84884200  1
  O  O30  1  0.13488100  0.62720200  0.09989900  1
  O  O31  1  0.13042600  0.62867000  0.59966100  1
  O  O32  1  0.86428400  0.37494600  0.39904600  1
  O  O33  1  0.85968700  0.37439300  0.89805300  1
  O  O34  1  0.62736200  0.13401000  0.14974500  1
  O  O35  1  0.62462800  0.14077100  0.64756800  1
  O  O36  1  0.23318500  0.48944400  0.29403800  1
  O  O37  1  0.23258300  0.48670200  0.79427300  1
  O  O38  1  0.50990400  0.76773900  0.04305100  1
  O  O39  1  0.51328300  0.76475900  0.54479900  1
  O  O40  1  0.49467300  0.22990900  0.45723000  1
  O  O41  1  0.49108200  0.23199700  0.95696000  1
  O  O42  1  0.77018000  0.50878600  0.20646000  1
  O  O43  1  0.76757500  0.50684200  0.70708800  1
