# generated using pymatgen
data_Sr2CaV2(Si2O7)2
_symmetry_space_group_name_H-M   'P 1'
_cell_length_a   5.86867121
_cell_length_b   7.34229235
_cell_length_c   8.22269250
_cell_angle_alpha   95.23536785
_cell_angle_beta   113.21306004
_cell_angle_gamma   75.49242997
_symmetry_Int_Tables_number   1
_chemical_formula_structural   Sr2CaV2(Si2O7)2
_chemical_formula_sum   'Sr2 Ca1 V2 Si4 O14'
_cell_volume   315.23459980
_cell_formula_units_Z   1
loop_
 _symmetry_equiv_pos_site_id
 _symmetry_equiv_pos_as_xyz
  1  'x, y, z'
loop_
 _atom_site_type_symbol
 _atom_site_label
 _atom_site_symmetry_multiplicity
 _atom_site_fract_x
 _atom_site_fract_y
 _atom_site_fract_z
 _atom_site_occupancy
  Sr  Sr0  1  0.31601000  0.78422800  0.47642200  1
  Sr  Sr1  1  0.74629100  0.25319500  0.58463400  1
  Ca  Ca2  1  0.95801800  0.51450200  0.99667700  1
  V  V3  1  0.98671900  0.89384000  0.84216000  1
  V  V4  1  0.97723000  0.10017200  0.14611200  1
  Si  Si5  1  0.32480600  0.49359400  0.80633500  1
  Si  Si6  1  0.62647900  0.51788400  0.21150700  1
  Si  Si7  1  0.60300400  0.96200700  0.21531400  1
  Si  Si8  1  0.41764000  0.06630600  0.80407100  1
  O  O9  1  0.65673500  0.73173900  0.18340300  1
  O  O10  1  0.28353400  0.28227500  0.72551700  1
  O  O11  1  0.40136100  0.47179500  0.02292000  1
  O  O12  1  0.55609000  0.06037600  0.02228200  1
  O  O13  1  0.53969500  0.54543000  0.75535200  1
  O  O14  1  0.89700400  0.37965900  0.22199400  1
  O  O15  1  0.38101800  0.04198100  0.29137800  1
  O  O16  1  0.19425400  0.95211700  0.72606600  1
  O  O17  1  0.95636000  0.18224000  0.92421400  1
  O  O18  1  0.04377500  0.82926000  0.07239000  1
  O  O19  1  0.87121500  0.01801900  0.34428900  1
  O  O20  1  0.61590500  0.97201800  0.70652000  1
  O  O21  1  0.03643600  0.62637500  0.74325400  1
  O  O22  1  0.53542000  0.50617200  0.36885500  1
