# generated using pymatgen
data_TiP2O7
_symmetry_space_group_name_H-M   'P 1'
_cell_length_a   8.13268223
_cell_length_b   8.13268223
_cell_length_c   8.13268223
_cell_angle_alpha   90.00000000
_cell_angle_beta   90.00000000
_cell_angle_gamma   90.00000000
_symmetry_Int_Tables_number   1
_chemical_formula_structural   TiP2O7
_chemical_formula_sum   'Ti4 P8 O28'
_cell_volume   537.89983375
_cell_formula_units_Z   4
loop_
 _symmetry_equiv_pos_site_id
 _symmetry_equiv_pos_as_xyz
  1  'x, y, z'
loop_
 _atom_site_type_symbol
 _atom_site_label
 _atom_site_symmetry_multiplicity
 _atom_site_fract_x
 _atom_site_fract_y
 _atom_site_fract_z
 _atom_site_occupancy
  Ti  Ti0  1  0.50000000  0.50000000  0.00000000  1
  Ti  Ti1  1  0.50000000  0.00000000  0.50000000  1
  Ti  Ti2  1  -0.00000000  0.50000000  0.50000000  1
  Ti  Ti3  1  -0.00000000  0.00000000  0.00000000  1
  P  P4  1  0.11133759  0.88866241  0.38866241  1
  P  P5  1  0.88866241  0.38866241  0.11133759  1
  P  P6  1  0.38866241  0.11133759  0.88866241  1
  P  P7  1  0.61133759  0.61133759  0.61133759  1
  P  P8  1  0.88866241  0.11133759  0.61133759  1
  P  P9  1  0.11133759  0.61133759  0.88866241  1
  P  P10  1  0.61133759  0.88866241  0.11133759  1
  P  P11  1  0.38866241  0.38866241  0.38866241  1
  O  O12  1  0.08471483  0.94202137  0.21365696  1
  O  O13  1  0.91528517  0.44202137  0.28634304  1
  O  O14  1  0.41528517  0.05797863  0.71365696  1
  O  O15  1  0.58471483  0.55797863  0.78634304  1
  O  O16  1  0.21365696  0.08471483  0.94202137  1
  O  O17  1  0.28634304  0.91528517  0.44202137  1
  O  O18  1  0.71365696  0.41528517  0.05797863  1
  O  O19  1  0.78634304  0.58471483  0.55797863  1
  O  O20  1  0.94202137  0.21365696  0.08471483  1
  O  O21  1  0.44202137  0.28634304  0.91528517  1
  O  O22  1  0.05797863  0.71365696  0.41528517  1
  O  O23  1  0.55797863  0.78634304  0.58471483  1
  O  O24  1  0.91528517  0.05797863  0.78634304  1
  O  O25  1  0.08471483  0.55797863  0.71365696  1
  O  O26  1  0.58471483  0.94202137  0.28634304  1
  O  O27  1  0.41528517  0.44202137  0.21365696  1
  O  O28  1  0.78634304  0.91528517  0.05797863  1
  O  O29  1  0.71365696  0.08471483  0.55797863  1
  O  O30  1  0.28634304  0.58471483  0.94202137  1
  O  O31  1  0.21365696  0.41528517  0.44202137  1
  O  O32  1  0.05797863  0.78634304  0.91528517  1
  O  O33  1  0.55797863  0.71365696  0.08471483  1
  O  O34  1  0.94202137  0.28634304  0.58471483  1
  O  O35  1  0.44202137  0.21365696  0.41528517  1
  O  O36  1  -0.00000000  0.00000000  0.50000000  1
  O  O37  1  -0.00000000  0.50000000  0.00000000  1
  O  O38  1  0.50000000  0.00000000  0.00000000  1
  O  O39  1  0.50000000  0.50000000  0.50000000  1
