# generated using pymatgen
data_Sr2Tl2O5
_symmetry_space_group_name_H-M   'P 1'
_cell_length_a   3.52276093
_cell_length_b   6.03649637
_cell_length_c   13.94110889
_cell_angle_alpha   89.99975599
_cell_angle_beta   90.00028567
_cell_angle_gamma   73.04387955
_symmetry_Int_Tables_number   1
_chemical_formula_structural   Sr2Tl2O5
_chemical_formula_sum   'Sr4 Tl4 O10'
_cell_volume   283.57196798
_cell_formula_units_Z   2
loop_
 _symmetry_equiv_pos_site_id
 _symmetry_equiv_pos_as_xyz
  1  'x, y, z'
loop_
 _atom_site_type_symbol
 _atom_site_label
 _atom_site_symmetry_multiplicity
 _atom_site_fract_x
 _atom_site_fract_y
 _atom_site_fract_z
 _atom_site_occupancy
  Sr  Sr0  1  0.96836814  0.06337755  0.26375861  1
  Sr  Sr1  1  0.03163032  0.93662112  0.76373792  1
  Sr  Sr2  1  0.21307179  0.57377314  0.11122349  1
  Sr  Sr3  1  0.78694438  0.42621595  0.61123926  1
  Tl  Tl4  1  0.48875947  0.02305559  0.99820508  1
  Tl  Tl5  1  0.51123724  0.97693836  0.49824290  1
  Tl  Tl6  1  0.76197974  0.47545737  0.89176653  1
  Tl  Tl7  1  0.23803642  0.52448656  0.39180157  1
  O  O8  1  0.87968290  0.24046728  0.44371101  1
  O  O9  1  0.16050148  0.67934895  0.53274969  1
  O  O10  1  0.83949998  0.32065990  0.03270176  1
  O  O11  1  0.12030593  0.75954651  0.94368280  1
  O  O12  1  0.31806879  0.36401126  0.25916228  1
  O  O13  1  0.68190195  0.63603226  0.75913555  1
  O  O14  1  0.59469357  0.81080590  0.36086620  1
  O  O15  1  0.44149484  0.11688898  0.63860517  1
  O  O16  1  0.55850719  0.88311720  0.13858925  1
  O  O17  1  0.40531587  0.18919812  0.86081893  1
