# generated using pymatgen
data_Li9Mn2Co5O16
_symmetry_space_group_name_H-M   'P 1'
_cell_length_a   4.87150692
_cell_length_b   5.68870718
_cell_length_c   9.80326224
_cell_angle_alpha   89.19100727
_cell_angle_beta   99.51577875
_cell_angle_gamma   106.70553752
_symmetry_Int_Tables_number   1
_chemical_formula_structural   Li9Mn2Co5O16
_chemical_formula_sum   'Li9 Mn2 Co5 O16'
_cell_volume   256.46667091
_cell_formula_units_Z   1
loop_
 _symmetry_equiv_pos_site_id
 _symmetry_equiv_pos_as_xyz
  1  'x, y, z'
loop_
 _atom_site_type_symbol
 _atom_site_label
 _atom_site_symmetry_multiplicity
 _atom_site_fract_x
 _atom_site_fract_y
 _atom_site_fract_z
 _atom_site_occupancy
  Li  Li0  1  0.99709815  0.25336997  0.25931503  1
  Li  Li1  1  0.50573589  0.87680584  0.62140692  1
  Li  Li2  1  0.99952082  0.00925883  0.50798858  1
  Li  Li3  1  0.48080954  0.61553310  0.86158034  1
  Li  Li4  1  0.00332107  0.73854136  0.73976703  1
  Li  Li5  1  0.50330999  0.38183839  0.13031541  1
  Li  Li6  1  0.00395371  0.49820824  0.99444944  1
  Li  Li7  1  0.50260842  0.12489071  0.38415385  1
  Li  Li8  1  0.99778533  0.25461888  0.74070335  1
  Mn  Mn9  1  0.99903666  0.00024517  0.99927530  1
  Mn  Mn10  1  0.49963942  0.13020177  0.86836958  1
  Co  Co11  1  0.50043357  0.62537390  0.37594543  1
  Co  Co12  1  0.50031713  0.87483457  0.12620828  1
  Co  Co13  1  0.00053926  0.49863361  0.50173159  1
  Co  Co14  1  0.00060681  0.74995539  0.25171470  1
  Co  Co15  1  0.50046922  0.37416263  0.62537639  1
  O  O16  1  0.74732824  0.16772442  0.05595007  1
  O  O17  1  0.23923682  0.79026763  0.42769930  1
  O  O18  1  0.73896777  0.91412239  0.30261808  1
  O  O19  1  0.25136720  0.55375172  0.67511661  1
  O  O20  1  0.73981753  0.66330521  0.55388358  1
  O  O21  1  0.25101806  0.28553347  0.94194248  1
  O  O22  1  0.72349388  0.41825916  0.81124084  1
  O  O23  1  0.24083812  0.04097364  0.18014631  1
  O  O24  1  0.26154998  0.33679207  0.44583129  1
  O  O25  1  0.74975849  0.94664249  0.82940084  1
  O  O26  1  0.27746461  0.07458252  0.69671884  1
  O  O27  1  0.76019094  0.71050439  0.07113536  1
  O  O28  1  0.25243727  0.83214921  0.94470532  1
  O  O29  1  0.76010877  0.46201917  0.31880664  1
  O  O30  1  0.26119831  0.58857748  0.19518018  1
  O  O31  1  0.75003705  0.20831967  0.56132901  1
