# generated using pymatgen
data_PRuS
_symmetry_space_group_name_H-M   'P 1'
_cell_length_a   5.77208556
_cell_length_b   5.74396314
_cell_length_c   5.81108362
_cell_angle_alpha   69.39807935
_cell_angle_beta   90.00000000
_cell_angle_gamma   90.00000000
_symmetry_Int_Tables_number   1
_chemical_formula_structural   PRuS
_chemical_formula_sum   'P4 Ru4 S4'
_cell_volume   180.34309912
_cell_formula_units_Z   4
loop_
 _symmetry_equiv_pos_site_id
 _symmetry_equiv_pos_as_xyz
  1  'x, y, z'
loop_
 _atom_site_type_symbol
 _atom_site_label
 _atom_site_symmetry_multiplicity
 _atom_site_fract_x
 _atom_site_fract_y
 _atom_site_fract_z
 _atom_site_occupancy
  P  P0  1  0.12140815  0.84884333  0.87239092  1
  P  P1  1  0.62140815  0.15115667  0.62760908  1
  P  P2  1  0.87859185  0.15115667  0.12760908  1
  P  P3  1  0.37859185  0.84884333  0.37239092  1
  Ru  Ru4  1  0.49754805  0.72619171  0.79275704  1
  Ru  Ru5  1  0.99754805  0.27380829  0.70724296  1
  Ru  Ru6  1  0.50245195  0.27380829  0.20724296  1
  Ru  Ru7  1  0.00245195  0.72619171  0.29275704  1
  S  S8  1  0.87919808  0.66467089  0.69137589  1
  S  S9  1  0.37919808  0.33532911  0.80862411  1
  S  S10  1  0.12080192  0.33532911  0.30862411  1
  S  S11  1  0.62080192  0.66467089  0.19137589  1
