# generated using pymatgen
data_Rh2(Se3Br2)3
_symmetry_space_group_name_H-M   'P 1'
_cell_length_a   15.51897934
_cell_length_b   15.51897934
_cell_length_c   15.51897934
_cell_angle_alpha   132.06129446
_cell_angle_beta   132.06129446
_cell_angle_gamma   70.13223617
_symmetry_Int_Tables_number   1
_chemical_formula_structural   Rh2(Se3Br2)3
_chemical_formula_sum   'Rh8 Se36 Br24'
_cell_volume   2019.50510247
_cell_formula_units_Z   4
loop_
 _symmetry_equiv_pos_site_id
 _symmetry_equiv_pos_as_xyz
  1  'x, y, z'
loop_
 _atom_site_type_symbol
 _atom_site_label
 _atom_site_symmetry_multiplicity
 _atom_site_fract_x
 _atom_site_fract_y
 _atom_site_fract_z
 _atom_site_occupancy
  Rh  Rh0  1  0.12027477  0.58877422  0.74421576  1
  Rh  Rh1  1  0.84455847  0.37605902  0.25578424  1
  Rh  Rh2  1  0.12605902  0.37027477  0.03150055  1
  Rh  Rh3  1  0.33877422  0.09455847  0.96849945  1
  Rh  Rh4  1  0.62972523  0.66122578  0.75578424  1
  Rh  Rh5  1  0.90544153  0.87394098  0.24421576  1
  Rh  Rh6  1  0.62394098  0.87972523  0.46849945  1
  Rh  Rh7  1  0.41122578  0.15544153  0.53150055  1
  Se  Se8  1  0.04630350  0.40428454  0.36159037  1
  Se  Se9  1  0.04269418  0.68471314  0.63840963  1
  Se  Se10  1  0.43471314  0.29630350  0.14201896  1
  Se  Se11  1  0.15428454  0.29269418  0.85798104  1
  Se  Se12  1  0.70369650  0.84571546  0.13840963  1
  Se  Se13  1  0.70730582  0.56528686  0.86159037  1
  Se  Se14  1  0.31528686  0.95369650  0.35798104  1
  Se  Se15  1  0.59571546  0.95730582  0.64201896  1
  Se  Se16  1  0.93615719  0.49598946  0.62481645  1
  Se  Se17  1  0.87117400  0.31134074  0.37518355  1
  Se  Se18  1  0.06134074  0.18615719  0.94016773  1
  Se  Se19  1  0.24598946  0.12117400  0.05983227  1
  Se  Se20  1  0.81384281  0.75401054  0.87518355  1
  Se  Se21  1  0.87882600  0.93865926  0.12481645  1
  Se  Se22  1  0.68865926  0.06384281  0.55983227  1
  Se  Se23  1  0.50401054  0.12882600  0.44016773  1
  Se  Se24  1  0.58233402  0.82864254  0.91039441  1
  Se  Se25  1  0.91824913  0.67193960  0.08960559  1
  Se  Se26  1  0.42193960  0.83233402  0.25369147  1
  Se  Se27  1  0.57864254  0.16824913  0.74630853  1
  Se  Se28  1  0.16766598  0.42135746  0.58960559  1
  Se  Se29  1  0.83175087  0.57806040  0.41039441  1
  Se  Se30  1  0.32806040  0.41766598  0.24630853  1
  Se  Se31  1  0.17135746  0.08175087  0.75369147  1
  Se  Se32  1  0.69166788  -0.00221689  0.02762745  1
  Se  Se33  1  0.97015566  0.66403944  0.97237255  1
  Se  Se34  1  0.41403944  0.94166788  0.19388377  1
  Se  Se35  1  0.74778311  0.22015566  0.80611623  1
  Se  Se36  1  0.05833212  0.25221689  0.47237255  1
  Se  Se37  1  0.77984434  0.58596056  0.52762745  1
  Se  Se38  1  0.33596056  0.30833212  0.30611623  1
  Se  Se39  1  0.00221689  0.02984434  0.69388377  1
  Se  Se40  1  0.10614692  0.60614692  0.50000000  1
  Se  Se41  1  0.35614692  0.35614692  0.00000000  1
  Se  Se42  1  0.64385308  0.64385308  0.00000000  1
  Se  Se43  1  0.39385308  0.89385308  0.50000000  1
  Br  Br44  1  0.26686415  0.87789561  0.80584810  1
  Br  Br45  1  0.07204751  0.46101605  0.19415190  1
  Br  Br46  1  0.21101605  0.51686415  0.88896854  1
  Br  Br47  1  0.62789561  0.32204751  0.11103146  1
  Br  Br48  1  0.48313585  0.37210439  0.69415190  1
  Br  Br49  1  0.67795249  0.78898395  0.30584810  1
  Br  Br50  1  0.53898395  0.73313585  0.61103146  1
  Br  Br51  1  0.12210439  0.92795249  0.38896854  1
  Br  Br52  1  0.43553214  0.04005707  0.86031552  1
  Br  Br53  1  0.17974155  0.57521661  0.13968448  1
  Br  Br54  1  0.32521661  0.68553214  0.89547506  1
  Br  Br55  1  0.79005707  0.42974155  0.10452494  1
  Br  Br56  1  0.31446786  0.20994293  0.63968448  1
  Br  Br57  1  0.57025845  0.67478339  0.36031552  1
  Br  Br58  1  0.42478339  0.56446786  0.60452494  1
  Br  Br59  1  0.95994293  0.82025845  0.39547506  1
  Br  Br60  1  0.65829236  0.47901944  0.56992795  1
  Br  Br61  1  0.90909150  0.08836442  0.43007205  1
  Br  Br62  1  0.83836442  0.90829236  0.67927292  1
  Br  Br63  1  0.22901944  0.15909150  0.32072708  1
  Br  Br64  1  0.09170764  0.77098056  0.93007205  1
  Br  Br65  1  0.84090850  0.16163558  0.06992795  1
  Br  Br66  1  0.91163558  0.34170764  0.82072708  1
  Br  Br67  1  0.52098056  0.09090850  0.17927292  1
