# generated using pymatgen
data_Ho2PbS4
_symmetry_space_group_name_H-M   'P 1'
_cell_length_a   3.95670308
_cell_length_b   12.02689431
_cell_length_c   14.35508194
_cell_angle_alpha   90.00116474
_cell_angle_beta   90.00045438
_cell_angle_gamma   90.00300183
_symmetry_Int_Tables_number   1
_chemical_formula_structural   Ho2PbS4
_chemical_formula_sum   'Ho8 Pb4 S16'
_cell_volume   683.11312701
_cell_formula_units_Z   4
loop_
 _symmetry_equiv_pos_site_id
 _symmetry_equiv_pos_as_xyz
  1  'x, y, z'
loop_
 _atom_site_type_symbol
 _atom_site_label
 _atom_site_symmetry_multiplicity
 _atom_site_fract_x
 _atom_site_fract_y
 _atom_site_fract_z
 _atom_site_occupancy
  Ho  Ho0  1  0.25000043  0.44025550  0.39115452  1
  Ho  Ho1  1  0.24998406  0.94027010  0.10885105  1
  Ho  Ho2  1  0.75000287  0.55974482  0.60884015  1
  Ho  Ho3  1  0.74998722  0.05974744  0.89116216  1
  Ho  Ho4  1  0.24999273  0.41557618  0.89942479  1
  Ho  Ho5  1  0.24998711  0.91557441  0.60056877  1
  Ho  Ho6  1  0.75002329  0.58442127  0.10055522  1
  Ho  Ho7  1  0.75000637  0.08441041  0.39943791  1
  Pb  Pb8  1  0.24987458  0.77824333  0.33648167  1
  Pb  Pb9  1  0.24992513  0.27826354  0.16350049  1
  Pb  Pb10  1  0.75027688  0.22173087  0.66351727  1
  Pb  Pb11  1  0.75000438  0.72176606  0.83652056  1
  S  S12  1  0.24999921  0.20528712  0.82974127  1
  S  S13  1  0.25002077  0.70528390  0.67026341  1
  S  S14  1  0.74996741  0.79470920  0.17026604  1
  S  S15  1  0.74999205  0.29471505  0.32973005  1
  S  S16  1  0.25002128  0.12658513  0.52749995  1
  S  S17  1  0.25002845  0.62658897  0.97249014  1
  S  S18  1  0.74994452  0.87341482  0.47250754  1
  S  S19  1  0.74997263  0.37342345  0.02748830  1
  S  S20  1  0.24996778  0.01702402  0.28812396  1
  S  S21  1  0.25003527  0.51702139  0.21186376  1
  S  S22  1  0.75001295  0.98297703  0.71188917  1
  S  S23  1  0.74999907  0.48296776  0.78812613  1
  S  S24  1  0.24998413  0.41194612  0.57688819  1
  S  S25  1  0.24995849  0.91194963  0.92311408  1
  S  S26  1  0.75002394  0.58804942  0.42309764  1
  S  S27  1  0.75000601  0.08805505  0.07689778  1
