# generated using pymatgen
data_NaMg14FeO16
_symmetry_space_group_name_H-M   'P 1'
_cell_length_a   8.55951755
_cell_length_b   8.55407082
_cell_length_c   4.29057060
_cell_angle_alpha   90.00000000
_cell_angle_beta   90.00000000
_cell_angle_gamma   90.00000000
_symmetry_Int_Tables_number   1
_chemical_formula_structural   NaMg14FeO16
_chemical_formula_sum   'Na1 Mg14 Fe1 O16'
_cell_volume   314.15008443
_cell_formula_units_Z   1
loop_
 _symmetry_equiv_pos_site_id
 _symmetry_equiv_pos_as_xyz
  1  'x, y, z'
loop_
 _atom_site_type_symbol
 _atom_site_label
 _atom_site_symmetry_multiplicity
 _atom_site_fract_x
 _atom_site_fract_y
 _atom_site_fract_z
 _atom_site_occupancy
  Na  Na0  1  0.00000000  0.50000000  0.00000000  1
  Mg  Mg1  1  0.50000000  0.00000000  0.00000000  1
  Mg  Mg2  1  0.50000000  0.50000000  0.00000000  1
  Mg  Mg3  1  0.00000000  0.25810037  0.50000000  1
  Mg  Mg4  1  0.00000000  0.74189963  0.50000000  1
  Mg  Mg5  1  0.50000000  0.25228684  0.50000000  1
  Mg  Mg6  1  0.50000000  0.74771316  0.50000000  1
  Mg  Mg7  1  0.25243328  0.00000000  0.50000000  1
  Mg  Mg8  1  0.24742214  0.50000000  0.50000000  1
  Mg  Mg9  1  0.74756672  0.00000000  0.50000000  1
  Mg  Mg10  1  0.75257786  0.50000000  0.50000000  1
  Mg  Mg11  1  0.25176217  0.25520254  -0.00000000  1
  Mg  Mg12  1  0.25176217  0.74479746  0.00000000  1
  Mg  Mg13  1  0.74823783  0.25520254  -0.00000000  1
  Mg  Mg14  1  0.74823783  0.74479746  -0.00000000  1
  Fe  Fe15  1  0.00000000  0.00000000  0.00000000  1
  O  O16  1  0.24583859  0.00000000  -0.00000000  1
  O  O17  1  0.26382242  0.50000000  0.00000000  1
  O  O18  1  0.75416141  0.00000000  0.00000000  1
  O  O19  1  0.73617758  0.50000000  0.00000000  1
  O  O20  1  0.24920748  0.24791255  0.50000000  1
  O  O21  1  0.24920748  0.75208745  0.50000000  1
  O  O22  1  0.75079252  0.24791255  0.50000000  1
  O  O23  1  0.75079252  0.75208745  0.50000000  1
  O  O24  1  0.00000000  0.00000000  0.50000000  1
  O  O25  1  0.00000000  0.50000000  0.50000000  1
  O  O26  1  0.50000000  0.00000000  0.50000000  1
  O  O27  1  0.50000000  0.50000000  0.50000000  1
  O  O28  1  0.00000000  0.23013697  0.00000000  1
  O  O29  1  0.00000000  0.76986303  0.00000000  1
  O  O30  1  0.50000000  0.24441433  0.00000000  1
  O  O31  1  0.50000000  0.75558567  0.00000000  1
