# generated using pymatgen
data_CaSi2(AgO)8
_symmetry_space_group_name_H-M   'P 1'
_cell_length_a   6.26306700
_cell_length_b   7.48221052
_cell_length_c   6.93516075
_cell_angle_alpha   87.42884566
_cell_angle_beta   90.00000000
_cell_angle_gamma   90.00000000
_symmetry_Int_Tables_number   1
_chemical_formula_structural   CaSi2(AgO)8
_chemical_formula_sum   'Ca1 Si2 Ag8 O8'
_cell_volume   324.66545436
_cell_formula_units_Z   1
loop_
 _symmetry_equiv_pos_site_id
 _symmetry_equiv_pos_as_xyz
  1  'x, y, z'
loop_
 _atom_site_type_symbol
 _atom_site_label
 _atom_site_symmetry_multiplicity
 _atom_site_fract_x
 _atom_site_fract_y
 _atom_site_fract_z
 _atom_site_occupancy
  Ca  Ca0  1  0.60072900  0.25000000  0.75000000  1
  Si  Si1  1  0.62492900  0.25000000  0.25000000  1
  Si  Si2  1  0.36785300  0.75000000  0.75000000  1
  Ag  Ag3  1  0.06555400  0.03931800  0.44361400  1
  Ag  Ag4  1  0.66642700  0.63710600  0.06351900  1
  Ag  Ag5  1  0.66642700  0.86289400  0.43648100  1
  Ag  Ag6  1  0.90089200  0.57202000  0.41800600  1
  Ag  Ag7  1  0.90089200  0.92798000  0.08199400  1
  Ag  Ag8  1  0.34631800  0.57930900  0.37503200  1
  Ag  Ag9  1  0.06555400  0.46068200  0.05638600  1
  Ag  Ag10  1  0.34631800  0.92069100  0.12496800  1
  O  O11  1  0.51236400  0.56309700  0.74258000  1
  O  O12  1  0.77718800  0.27898600  0.44584600  1
  O  O13  1  0.20493100  0.73376300  0.94137200  1
  O  O14  1  0.45456900  0.40432000  0.16626600  1
  O  O15  1  0.77718800  0.22101400  0.05415400  1
  O  O16  1  0.51236400  0.93690300  0.75742000  1
  O  O17  1  0.20493100  0.76623700  0.55862800  1
  O  O18  1  0.45456900  0.09568000  0.33373400  1
