# generated using pymatgen
data_UCoO4
_symmetry_space_group_name_H-M   'P 1'
_cell_length_a   5.82812553
_cell_length_b   5.82812553
_cell_length_c   5.82812553
_cell_angle_alpha   73.81680748
_cell_angle_beta   68.92575560
_cell_angle_gamma   111.20544768
_symmetry_Int_Tables_number   1
_chemical_formula_structural   UCoO4
_chemical_formula_sum   'U2 Co2 O8'
_cell_volume   152.01907385
_cell_formula_units_Z   2
loop_
 _symmetry_equiv_pos_site_id
 _symmetry_equiv_pos_as_xyz
  1  'x, y, z'
loop_
 _atom_site_type_symbol
 _atom_site_label
 _atom_site_symmetry_multiplicity
 _atom_site_fract_x
 _atom_site_fract_y
 _atom_site_fract_z
 _atom_site_occupancy
  U  U0  1  0.97683500  0.22683500  0.75000000  1
  U  U1  1  0.02316500  0.77316500  0.25000000  1
  Co  Co2  1  0.50000000  0.00000000  0.50000000  1
  Co  Co3  1  0.50000000  0.50000000  0.00000000  1
  O  O4  1  0.19410000  0.21110900  0.98299100  1
  O  O5  1  0.19410000  0.67709100  0.51700900  1
  O  O6  1  0.80590000  0.78889100  0.01700900  1
  O  O7  1  0.80590000  0.32290900  0.48299100  1
  O  O8  1  0.27673600  0.22774500  0.45100900  1
  O  O9  1  0.67875300  0.22774400  0.04899200  1
  O  O10  1  0.32124700  0.77225600  0.95100800  1
  O  O11  1  0.72326400  0.77225500  0.54899100  1
