# generated using pymatgen
data_SiC
_symmetry_space_group_name_H-M   'P 1'
_cell_length_a   3.09771965
_cell_length_b   3.09771965
_cell_length_c   73.25353158
_cell_angle_alpha   88.78845798
_cell_angle_beta   88.78845798
_cell_angle_gamma   59.99999554
_symmetry_Int_Tables_number   1
_chemical_formula_structural   SiC
_chemical_formula_sum   'Si29 C29'
_cell_volume   608.57474273
_cell_formula_units_Z   29
loop_
 _symmetry_equiv_pos_site_id
 _symmetry_equiv_pos_as_xyz
  1  'x, y, z'
loop_
 _atom_site_type_symbol
 _atom_site_label
 _atom_site_symmetry_multiplicity
 _atom_site_fract_x
 _atom_site_fract_y
 _atom_site_fract_z
 _atom_site_occupancy
  Si  Si0  1  0.00001388  0.00001388  0.99995837  1
  Si  Si1  1  0.97701720  0.97701720  0.06894839  1
  Si  Si2  1  0.93105079  0.93105079  0.20684763  1
  Si  Si3  1  0.90805699  0.90805699  0.27582902  1
  Si  Si4  1  0.86208745  0.86208745  0.41373764  1
  Si  Si5  1  0.83908584  0.83908584  0.48274248  1
  Si  Si6  1  0.79311881  0.79311881  0.62064356  1
  Si  Si7  1  0.77011955  0.77011955  0.68964136  1
  Si  Si8  1  0.72415758  0.72415758  0.82752726  1
  Si  Si9  1  0.70115760  0.70115760  0.89652720  1
  Si  Si10  1  0.65518231  0.65518231  0.03445307  1
  Si  Si11  1  0.62069857  0.62069857  0.13790429  1
  Si  Si12  1  0.58621860  0.58621860  0.24134421  1
  Si  Si13  1  0.55173582  0.55173582  0.34479254  1
  Si  Si14  1  0.51725074  0.51725074  0.44824779  1
  Si  Si15  1  0.48276739  0.48276739  0.55169783  1
  Si  Si16  1  0.44828516  0.44828516  0.65514451  1
  Si  Si17  1  0.41380253  0.41380253  0.75859240  1
  Si  Si18  1  0.37932216  0.37932216  0.86203352  1
  Si  Si19  1  0.34484013  0.34484013  0.96547960  1
  Si  Si20  1  0.29886689  0.29886689  0.10339932  1
  Si  Si21  1  0.27586641  0.27586641  0.17240076  1
  Si  Si22  1  0.22990603  0.22990603  0.31028192  1
  Si  Si23  1  0.20690552  0.20690552  0.37928344  1
  Si  Si24  1  0.16093584  0.16093584  0.51719247  1
  Si  Si25  1  0.13793654  0.13793654  0.58619037  1
  Si  Si26  1  0.09196735  0.09196735  0.72409795  1
  Si  Si27  1  0.06897413  0.06897413  0.79307760  1
  Si  Si28  1  0.02300835  0.02300835  0.93097496  1
  C  C29  1  0.99138405  0.99138405  0.02584784  1
  C  C30  1  0.96838129  0.96838129  0.09485613  1
  C  C31  1  0.92241443  0.92241443  0.23275671  1
  C  C32  1  0.89941760  0.89941760  0.30174721  1
  C  C33  1  0.85345112  0.85345112  0.43964663  1
  C  C34  1  0.83045208  0.83045208  0.50864377  1
  C  C35  1  0.78448607  0.78448607  0.64654179  1
  C  C36  1  0.76148482  0.76148482  0.71554555  1
  C  C37  1  0.71551841  0.71551841  0.85344476  1
  C  C38  1  0.69251978  0.69251978  0.92244066  1
  C  C39  1  0.64652451  0.64652451  0.06042647  1
  C  C40  1  0.61204225  0.61204225  0.16387326  1
  C  C41  1  0.57755921  0.57755921  0.26732237  1
  C  C42  1  0.54307437  0.54307437  0.37077688  1
  C  C43  1  0.50859372  0.50859372  0.47421884  1
  C  C44  1  0.47411147  0.47411147  0.57766558  1
  C  C45  1  0.43962728  0.43962728  0.68111816  1
  C  C46  1  0.40514019  0.40514019  0.78457942  1
  C  C47  1  0.37066108  0.37066108  0.88801675  1
  C  C48  1  0.33618200  0.33618200  0.99145400  1
  C  C49  1  0.29023125  0.29023125  0.12930624  1
  C  C50  1  0.26723085  0.26723085  0.19830744  1
  C  C51  1  0.22126345  0.22126345  0.33620965  1
  C  C52  1  0.19826958  0.19826958  0.40519125  1
  C  C53  1  0.15230233  0.15230233  0.54309302  1
  C  C54  1  0.12930173  0.12930173  0.61209482  1
  C  C55  1  0.08333246  0.08333246  0.75000261  1
  C  C56  1  0.06033395  0.06033395  0.81899814  1
  C  C57  1  0.01437246  0.01437246  0.95688262  1
