# generated using pymatgen
data_MgCr4(PO4)4
_symmetry_space_group_name_H-M   'P 1'
_cell_length_a   9.57842420
_cell_length_b   5.72685651
_cell_length_c   6.53781709
_cell_angle_alpha   100.46340466
_cell_angle_beta   109.49811418
_cell_angle_gamma   78.48571483
_symmetry_Int_Tables_number   1
_chemical_formula_structural   MgCr4(PO4)4
_chemical_formula_sum   'Mg1 Cr4 P4 O16'
_cell_volume   328.68070022
_cell_formula_units_Z   1
loop_
 _symmetry_equiv_pos_site_id
 _symmetry_equiv_pos_as_xyz
  1  'x, y, z'
loop_
 _atom_site_type_symbol
 _atom_site_label
 _atom_site_symmetry_multiplicity
 _atom_site_fract_x
 _atom_site_fract_y
 _atom_site_fract_z
 _atom_site_occupancy
  Mg  Mg0  1  0.31236200  0.00451000  0.12415100  1
  Cr  Cr1  1  0.04463500  0.28236200  0.32513600  1
  Cr  Cr2  1  0.31236200  0.87278000  0.57945200  1
  Cr  Cr3  1  0.68954700  0.12473100  0.41304200  1
  Cr  Cr4  1  0.93126900  0.69624900  0.67583700  1
  P  P5  1  0.05316400  0.16882500  0.79593500  1
  P  P6  1  0.42530900  0.29909000  0.64539100  1
  P  P7  1  0.57418800  0.69976400  0.33689600  1
  P  P8  1  0.95047100  0.81460700  0.21089800  1
  O  O9  1  0.06049900  0.35950800  0.66177500  1
  O  O10  1  0.18067300  0.94867400  0.78264500  1
  O  O11  1  0.10381200  0.24992300  0.04428300  1
  O  O12  1  0.11160800  0.89575700  0.30447600  1
  O  O13  1  0.31022400  0.17886900  0.43085900  1
  O  O14  1  0.43506200  0.11538400  0.80169200  1
  O  O15  1  0.35807800  0.55780100  0.71022100  1
  O  O16  1  0.41388800  0.71540300  0.35765200  1
  O  O17  1  0.57312600  0.29797600  0.60287300  1
  O  O18  1  0.63508000  0.44286000  0.26597100  1
  O  O19  1  0.54138100  0.90365100  0.18148600  1
  O  O20  1  0.69152900  0.81787800  0.53832400  1
  O  O21  1  0.89664600  0.09151200  0.70288500  1
  O  O22  1  0.91998400  0.70371000  0.97615900  1
  O  O23  1  0.84086400  0.04441700  0.24819200  1
  O  O24  1  0.94673700  0.63042600  0.35668600  1
