# generated using pymatgen
data_TmSbO4
_symmetry_space_group_name_H-M   'P 1'
_cell_length_a   5.27649515
_cell_length_b   7.52593740
_cell_length_c   7.41255754
_cell_angle_alpha   81.47662823
_cell_angle_beta   90.32121199
_cell_angle_gamma   91.78179305
_symmetry_Int_Tables_number   1
_chemical_formula_structural   TmSbO4
_chemical_formula_sum   'Tm4 Sb4 O16'
_cell_volume   290.96497246
_cell_formula_units_Z   4
loop_
 _symmetry_equiv_pos_site_id
 _symmetry_equiv_pos_as_xyz
  1  'x, y, z'
loop_
 _atom_site_type_symbol
 _atom_site_label
 _atom_site_symmetry_multiplicity
 _atom_site_fract_x
 _atom_site_fract_y
 _atom_site_fract_z
 _atom_site_occupancy
  Tm  Tm0  1  0.26425198  0.13329263  0.61552109  1
  Tm  Tm1  1  0.73574802  0.86670737  0.38447891  1
  Tm  Tm2  1  0.21564705  0.15462702  0.11144501  1
  Tm  Tm3  1  0.78435295  0.84537298  0.88855499  1
  Sb  Sb4  1  0.23791736  0.66429285  0.19327076  1
  Sb  Sb5  1  0.76208264  0.33570715  0.80672924  1
  Sb  Sb6  1  0.72537894  0.33584086  0.30937811  1
  Sb  Sb7  1  0.27462106  0.66415914  0.69062189  1
  O  O8  1  0.08960949  0.43261281  0.68850487  1
  O  O9  1  0.91039051  0.56738719  0.31149513  1
  O  O10  1  0.60507774  0.32645685  0.56193994  1
  O  O11  1  0.39492226  0.67354315  0.43806006  1
  O  O12  1  0.87770259  0.32997707  0.06285684  1
  O  O13  1  0.12229741  0.67002293  0.93714316  1
  O  O14  1  0.40055058  0.43035014  0.19291740  1
  O  O15  1  0.59944942  0.56964986  0.80708260  1
  O  O16  1  0.03846805  0.88817109  0.17442578  1
  O  O17  1  0.96153195  0.11182891  0.82557422  1
  O  O18  1  0.51121640  0.10946192  0.32278276  1
  O  O19  1  0.48878360  0.89053808  0.67721724  1
  O  O20  1  0.46677635  0.18507052  0.88140025  1
  O  O21  1  0.53322365  0.81492948  0.11859975  1
  O  O22  1  0.99772882  0.17082048  0.38464475  1
  O  O23  1  0.00227118  0.82917952  0.61535525  1
