# generated using pymatgen
data_CaTa2O6
_symmetry_space_group_name_H-M   'P 1'
_cell_length_a   5.37464724
_cell_length_b   7.51218638
_cell_length_c   11.11173257
_cell_angle_alpha   90.00000000
_cell_angle_beta   90.00000000
_cell_angle_gamma   90.00000000
_symmetry_Int_Tables_number   1
_chemical_formula_structural   CaTa2O6
_chemical_formula_sum   'Ca4 Ta8 O24'
_cell_volume   448.64011155
_cell_formula_units_Z   4
loop_
 _symmetry_equiv_pos_site_id
 _symmetry_equiv_pos_as_xyz
  1  'x, y, z'
loop_
 _atom_site_type_symbol
 _atom_site_label
 _atom_site_symmetry_multiplicity
 _atom_site_fract_x
 _atom_site_fract_y
 _atom_site_fract_z
 _atom_site_occupancy
  Ca  Ca0  1  0.45886050  0.75000000  0.04188565  1
  Ca  Ca1  1  0.95886050  0.25000000  0.45811435  1
  Ca  Ca2  1  0.54113950  0.25000000  0.95811435  1
  Ca  Ca3  1  0.04113950  0.75000000  0.54188565  1
  Ta  Ta4  1  0.53756774  0.49422883  0.64120758  1
  Ta  Ta5  1  0.03756774  0.50577117  0.85879242  1
  Ta  Ta6  1  0.46243226  0.99422883  0.35879242  1
  Ta  Ta7  1  0.96243226  0.00577117  0.14120758  1
  Ta  Ta8  1  0.03756774  0.99422883  0.85879242  1
  Ta  Ta9  1  0.53756774  0.00577117  0.64120758  1
  Ta  Ta10  1  0.96243226  0.49422883  0.14120758  1
  Ta  Ta11  1  0.46243226  0.50577117  0.35879242  1
  O  O12  1  0.66365703  0.25000000  0.62186835  1
  O  O13  1  0.16365703  0.75000000  0.87813165  1
  O  O14  1  0.33634297  0.75000000  0.37813165  1
  O  O15  1  0.83634297  0.25000000  0.12186835  1
  O  O16  1  0.44798609  0.75000000  0.64460399  1
  O  O17  1  0.94798609  0.25000000  0.85539601  1
  O  O18  1  0.55201391  0.25000000  0.35539601  1
  O  O19  1  0.05201391  0.75000000  0.14460399  1
  O  O20  1  0.13044027  0.43892281  0.28760802  1
  O  O21  1  0.63044027  0.56107719  0.21239198  1
  O  O22  1  0.86955973  0.93892281  0.71239198  1
  O  O23  1  0.36955973  0.06107719  0.78760802  1
  O  O24  1  0.77104196  0.95922822  0.97598699  1
  O  O25  1  0.27104196  0.04077178  0.52401301  1
  O  O26  1  0.22895804  0.45922822  0.02401301  1
  O  O27  1  0.72895804  0.54077178  0.47598699  1
  O  O28  1  0.22895804  0.04077178  0.02401301  1
  O  O29  1  0.72895804  0.95922822  0.47598699  1
  O  O30  1  0.77104196  0.54077178  0.97598699  1
  O  O31  1  0.27104196  0.45922822  0.52401301  1
  O  O32  1  0.63044027  0.93892281  0.21239198  1
  O  O33  1  0.13044027  0.06107719  0.28760802  1
  O  O34  1  0.36955973  0.43892281  0.78760802  1
  O  O35  1  0.86955973  0.56107719  0.71239198  1
