# generated using pymatgen
data_Ba3AlAs3
_symmetry_space_group_name_H-M   'P 1'
_cell_length_a   10.59960318
_cell_length_b   10.59960318
_cell_length_c   13.41282689
_cell_angle_alpha   90.00000000
_cell_angle_beta   90.00000000
_cell_angle_gamma   141.81973189
_symmetry_Int_Tables_number   1
_chemical_formula_structural   Ba3AlAs3
_chemical_formula_sum   'Ba12 Al4 As12'
_cell_volume   931.50411830
_cell_formula_units_Z   4
loop_
 _symmetry_equiv_pos_site_id
 _symmetry_equiv_pos_as_xyz
  1  'x, y, z'
loop_
 _atom_site_type_symbol
 _atom_site_label
 _atom_site_symmetry_multiplicity
 _atom_site_fract_x
 _atom_site_fract_y
 _atom_site_fract_z
 _atom_site_occupancy
  Ba  Ba0  1  0.83170412  0.83170412  0.34679459  1
  Ba  Ba1  1  0.16829588  0.16829588  0.65320541  1
  Ba  Ba2  1  0.66829588  0.66829588  0.84679459  1
  Ba  Ba3  1  0.33170412  0.33170412  0.15320541  1
  Ba  Ba4  1  0.86352141  0.51165701  0.13005112  1
  Ba  Ba5  1  0.48834299  0.13647859  0.86994888  1
  Ba  Ba6  1  0.98834299  0.63647859  0.63005112  1
  Ba  Ba7  1  0.36352141  0.01165701  0.36994888  1
  Ba  Ba8  1  0.13647859  0.48834299  0.86994888  1
  Ba  Ba9  1  0.51165701  0.86352141  0.13005112  1
  Ba  Ba10  1  0.01165701  0.36352141  0.36994888  1
  Ba  Ba11  1  0.63647859  0.98834299  0.63005112  1
  Al  Al12  1  0.08264183  0.91735817  0.00000000  1
  Al  Al13  1  0.58264183  0.41735817  0.50000000  1
  Al  Al14  1  0.91735817  0.08264183  0.00000000  1
  Al  Al15  1  0.41735817  0.58264183  0.50000000  1
  As  As16  1  0.79862953  0.79862953  0.09528179  1
  As  As17  1  0.20137047  0.20137047  0.90471821  1
  As  As18  1  0.70137047  0.70137047  0.59528179  1
  As  As19  1  0.29862953  0.29862953  0.40471821  1
  As  As20  1  0.03447318  0.34658872  0.11720901  1
  As  As21  1  0.65341128  0.96552682  0.88279099  1
  As  As22  1  0.15341128  0.46552682  0.61720901  1
  As  As23  1  0.53447318  0.84658872  0.38279099  1
  As  As24  1  0.96552682  0.65341128  0.88279099  1
  As  As25  1  0.34658872  0.03447318  0.11720901  1
  As  As26  1  0.84658872  0.53447318  0.38279099  1
  As  As27  1  0.46552682  0.15341128  0.61720901  1
