# generated using pymatgen
data_Gd2HfS5
_symmetry_space_group_name_H-M   'P 1'
_cell_length_a   7.28299396
_cell_length_b   7.81218055
_cell_length_c   11.52045254
_cell_angle_alpha   90.00000000
_cell_angle_beta   90.00000000
_cell_angle_gamma   90.00000000
_symmetry_Int_Tables_number   1
_chemical_formula_structural   Gd2HfS5
_chemical_formula_sum   'Gd8 Hf4 S20'
_cell_volume   655.46840226
_cell_formula_units_Z   4
loop_
 _symmetry_equiv_pos_site_id
 _symmetry_equiv_pos_as_xyz
  1  'x, y, z'
loop_
 _atom_site_type_symbol
 _atom_site_label
 _atom_site_symmetry_multiplicity
 _atom_site_fract_x
 _atom_site_fract_y
 _atom_site_fract_z
 _atom_site_occupancy
  Gd  Gd0  1  0.52820898  0.49810296  0.32255097  1
  Gd  Gd1  1  0.97179102  0.00189704  0.82255097  1
  Gd  Gd2  1  0.47179102  0.99810296  0.67744903  1
  Gd  Gd3  1  0.02820898  0.50189704  0.17744903  1
  Gd  Gd4  1  0.47179102  0.50189704  0.67744903  1
  Gd  Gd5  1  0.02820898  0.99810296  0.17744903  1
  Gd  Gd6  1  0.52820898  0.00189704  0.32255097  1
  Gd  Gd7  1  0.97179102  0.49810296  0.82255097  1
  Hf  Hf8  1  0.07367814  0.75000000  0.49371954  1
  Hf  Hf9  1  0.42632186  0.75000000  0.99371954  1
  Hf  Hf10  1  0.92632186  0.25000000  0.50628046  1
  Hf  Hf11  1  0.57367814  0.25000000  0.00628046  1
  S  S12  1  0.83703734  0.96457552  0.58957648  1
  S  S13  1  0.66296266  0.53542448  0.08957648  1
  S  S14  1  0.16296266  0.46457552  0.41042352  1
  S  S15  1  0.33703734  0.03542448  0.91042352  1
  S  S16  1  0.16296266  0.03542448  0.41042352  1
  S  S17  1  0.33703734  0.46457552  0.91042352  1
  S  S18  1  0.83703734  0.53542448  0.58957648  1
  S  S19  1  0.66296266  0.96457552  0.08957648  1
  S  S20  1  0.83812670  0.75000000  0.31751117  1
  S  S21  1  0.66187330  0.75000000  0.81751117  1
  S  S22  1  0.16187330  0.25000000  0.68248883  1
  S  S23  1  0.33812670  0.25000000  0.18248883  1
  S  S24  1  0.44514238  0.75000000  0.49591827  1
  S  S25  1  0.05485762  0.75000000  0.99591827  1
  S  S26  1  0.55485762  0.25000000  0.50408173  1
  S  S27  1  0.94514238  0.25000000  0.00408173  1
  S  S28  1  0.18340082  0.75000000  0.70653872  1
  S  S29  1  0.31659918  0.75000000  0.20653872  1
  S  S30  1  0.81659918  0.25000000  0.29346128  1
  S  S31  1  0.68340082  0.25000000  0.79346128  1
