# generated using pymatgen
data_YSeF
_symmetry_space_group_name_H-M   'P 1'
_cell_length_a   4.08844944
_cell_length_b   5.59974361
_cell_length_c   11.47458117
_cell_angle_alpha   90.00000000
_cell_angle_beta   90.00000000
_cell_angle_gamma   90.00000000
_symmetry_Int_Tables_number   1
_chemical_formula_structural   YSeF
_chemical_formula_sum   'Y4 Se4 F4'
_cell_volume   262.70214368
_cell_formula_units_Z   4
loop_
 _symmetry_equiv_pos_site_id
 _symmetry_equiv_pos_as_xyz
  1  'x, y, z'
loop_
 _atom_site_type_symbol
 _atom_site_label
 _atom_site_symmetry_multiplicity
 _atom_site_fract_x
 _atom_site_fract_y
 _atom_site_fract_z
 _atom_site_occupancy
  Y  Y0  1  0.75000000  0.98650012  0.35443515  1
  Y  Y1  1  0.75000000  0.51349988  0.85443515  1
  Y  Y2  1  0.25000000  0.48650012  0.14556485  1
  Y  Y3  1  0.25000000  0.01349988  0.64556485  1
  Se  Se4  1  0.75000000  0.48684841  0.33094595  1
  Se  Se5  1  0.75000000  0.01315159  0.83094595  1
  Se  Se6  1  0.25000000  0.98684841  0.16905405  1
  Se  Se7  1  0.25000000  0.51315159  0.66905405  1
  F  F8  1  0.75000000  0.47989916  0.05690203  1
  F  F9  1  0.75000000  0.02010084  0.55690203  1
  F  F10  1  0.25000000  0.52010084  0.94309797  1
  F  F11  1  0.25000000  0.97989916  0.44309797  1
