# generated using pymatgen
data_SrGe(PO4)2
_symmetry_space_group_name_H-M   'P 1'
_cell_length_a   5.06357470
_cell_length_b   8.49883636
_cell_length_c   7.88985554
_cell_angle_alpha   114.22675835
_cell_angle_beta   90.00000000
_cell_angle_gamma   107.33140958
_symmetry_Int_Tables_number   1
_chemical_formula_structural   SrGe(PO4)2
_chemical_formula_sum   'Sr2 Ge2 P4 O16'
_cell_volume   292.64577439
_cell_formula_units_Z   2
loop_
 _symmetry_equiv_pos_site_id
 _symmetry_equiv_pos_as_xyz
  1  'x, y, z'
loop_
 _atom_site_type_symbol
 _atom_site_label
 _atom_site_symmetry_multiplicity
 _atom_site_fract_x
 _atom_site_fract_y
 _atom_site_fract_z
 _atom_site_occupancy
  Sr  Sr0  1  0.80175268  0.00000000  0.25000000  1
  Sr  Sr1  1  0.19824732  -0.00000000  0.75000000  1
  Ge  Ge2  1  -0.00000000  0.50000000  0.50000000  1
  Ge  Ge3  1  0.50000000  0.50000000  -0.00000000  1
  P  P4  1  0.59394833  0.70604929  0.73774870  1
  P  P5  1  0.88789904  0.29395071  0.76225130  1
  P  P6  1  0.40605167  0.29395071  0.26225130  1
  P  P7  1  0.11210096  0.70604929  0.23774870  1
  O  O8  1  0.80713825  0.67084513  0.59679135  1
  O  O9  1  0.13629112  0.32915487  0.90320865  1
  O  O10  1  0.19286175  0.32915487  0.40320865  1
  O  O11  1  0.86370888  0.67084513  0.09679135  1
  O  O12  1  0.32778309  0.69916158  0.63273526  1
  O  O13  1  0.62862151  0.30083842  0.86726474  1
  O  O14  1  0.67221691  0.30083842  0.36726474  1
  O  O15  1  0.37137849  0.69916158  0.13273526  1
  O  O16  1  0.51013871  0.55114766  0.79658597  1
  O  O17  1  0.95899204  0.44885234  0.70341403  1
  O  O18  1  0.48986129  0.44885234  0.20341403  1
  O  O19  1  0.04100796  0.55114766  0.29658597  1
  O  O20  1  0.72076960  0.89579633  0.89087850  1
  O  O21  1  0.82497327  0.10420367  0.60912150  1
  O  O22  1  0.27923040  0.10420367  0.10912150  1
  O  O23  1  0.17502673  0.89579633  0.39087850  1
