# generated using pymatgen
data_Sr4Se3S
_symmetry_space_group_name_H-M   'P 1'
_cell_length_a   14.59430638
_cell_length_b   14.59430638
_cell_length_c   14.59430701
_cell_angle_alpha   17.33042198
_cell_angle_beta   17.33042198
_cell_angle_gamma   17.33042494
_symmetry_Int_Tables_number   1
_chemical_formula_structural   Sr4Se3S
_chemical_formula_sum   'Sr4 Se3 S1'
_cell_volume   240.69496494
_cell_formula_units_Z   1
loop_
 _symmetry_equiv_pos_site_id
 _symmetry_equiv_pos_as_xyz
  1  'x, y, z'
loop_
 _atom_site_type_symbol
 _atom_site_label
 _atom_site_symmetry_multiplicity
 _atom_site_fract_x
 _atom_site_fract_y
 _atom_site_fract_z
 _atom_site_occupancy
  Sr  Sr0  1  0.87570932  0.87570932  0.87570932  1
  Sr  Sr1  1  0.12429068  0.12429068  0.12429068  1
  Sr  Sr2  1  0.37289100  0.37289100  0.37289100  1
  Sr  Sr3  1  0.62710900  0.62710900  0.62710900  1
  Se  Se4  1  0.25142701  0.25142701  0.25142701  1
  Se  Se5  1  0.50000000  0.50000000  0.50000000  1
  Se  Se6  1  0.74857299  0.74857299  0.74857299  1
  S  S7  1  0.00000000  0.00000000  -0.00000000  1
