# generated using pymatgen
data_SiS2
_symmetry_space_group_name_H-M   'P 1'
_cell_length_a   5.87957118
_cell_length_b   6.42397861
_cell_length_c   7.94685621
_cell_angle_alpha   90.00000000
_cell_angle_beta   90.00000000
_cell_angle_gamma   104.07442127
_symmetry_Int_Tables_number   1
_chemical_formula_structural   SiS2
_chemical_formula_sum   'Si4 S8'
_cell_volume   291.14422223
_cell_formula_units_Z   4
loop_
 _symmetry_equiv_pos_site_id
 _symmetry_equiv_pos_as_xyz
  1  'x, y, z'
loop_
 _atom_site_type_symbol
 _atom_site_label
 _atom_site_symmetry_multiplicity
 _atom_site_fract_x
 _atom_site_fract_y
 _atom_site_fract_z
 _atom_site_occupancy
  Si  Si0  1  0.61256878  0.11659341  0.36453094  1
  Si  Si1  1  0.88743122  0.88340659  0.86453094  1
  Si  Si2  1  0.38743122  0.88340659  0.63546906  1
  Si  Si3  1  0.11256878  0.11659341  0.13546906  1
  S  S4  1  0.51437941  0.22138226  0.60322235  1
  S  S5  1  0.98562059  0.77861774  0.10322235  1
  S  S6  1  0.48562059  0.77861774  0.39677765  1
  S  S7  1  0.01437941  0.22138226  0.89677765  1
  S  S8  1  0.48416408  0.24226523  0.14643501  1
  S  S9  1  0.01583592  0.75773477  0.64643501  1
  S  S10  1  0.51583592  0.75773477  0.85356499  1
  S  S11  1  0.98416408  0.24226523  0.35356499  1
