# generated using pymatgen
data_Ba6MgSc2C2(O3F7)2
_symmetry_space_group_name_H-M   'P 1'
_cell_length_a   6.38778558
_cell_length_b   9.11859636
_cell_length_c   9.11859691
_cell_angle_alpha   96.04581234
_cell_angle_beta   92.46422102
_cell_angle_gamma   87.53577916
_symmetry_Int_Tables_number   1
_chemical_formula_structural   Ba6MgSc2C2(O3F7)2
_chemical_formula_sum   'Ba6 Mg1 Sc2 C2 O6 F14'
_cell_volume   527.29844573
_cell_formula_units_Z   1
loop_
 _symmetry_equiv_pos_site_id
 _symmetry_equiv_pos_as_xyz
  1  'x, y, z'
loop_
 _atom_site_type_symbol
 _atom_site_label
 _atom_site_symmetry_multiplicity
 _atom_site_fract_x
 _atom_site_fract_y
 _atom_site_fract_z
 _atom_site_occupancy
  Ba  Ba0  1  0.27515317  0.87312387  0.61997158  1
  Ba  Ba1  1  0.78188736  0.61017848  0.84450277  1
  Ba  Ba2  1  0.27515317  0.38002842  0.12687613  1
  Ba  Ba3  1  0.79388990  0.10666186  0.89333814  1
  Ba  Ba4  1  0.32327119  0.93152675  0.06847325  1
  Ba  Ba5  1  0.78188736  0.15549723  0.38982152  1
  Mg  Mg6  1  0.95829200  0.75078463  0.24921537  1
  Sc  Sc7  1  0.26846030  0.28596465  0.71403535  1
  Sc  Sc8  1  0.51294223  0.68607024  0.31392976  1
  C  C9  1  0.23298582  0.48108701  0.51891299  1
  C  C10  1  0.68612694  0.50864958  0.49135042  1
  O  O11  1  0.23094296  0.57684132  0.42315868  1
  O  O12  1  0.64265763  0.64880209  0.53526021  1
  O  O13  1  0.23562538  0.52141977  0.66071544  1
  O  O14  1  0.23562538  0.33928456  0.47858023  1
  O  O15  1  0.76776138  0.42083648  0.57916352  1
  O  O16  1  0.64265763  0.46473979  0.35119791  1
  F  F17  1  0.55686220  0.16354289  0.13830502  1
  F  F18  1  0.28636577  0.12651193  0.87348807  1
  F  F19  1  0.81882224  0.88546692  0.11453308  1
  F  F20  1  0.55686220  0.86169498  0.83645711  1
  F  F21  1  0.50313979  0.13631636  0.63111953  1
  F  F22  1  0.49453357  0.63890384  0.09112525  1
  F  F23  1  0.03843566  0.36008098  0.86428088  1
  F  F24  1  0.50313979  0.36888047  0.86368364  1
  F  F25  1  0.03843566  0.13571912  0.63991902  1
  F  F26  1  0.98654919  0.90466821  0.41503782  1
  F  F27  1  0.04001718  0.85096966  0.83951802  1
  F  F28  1  0.04001718  0.16048198  0.14903034  1
  F  F29  1  0.98654919  0.58496218  0.09533179  1
  F  F30  1  0.49453357  0.90887475  0.36109616  1
