# generated using pymatgen
data_Rb3V5O14
_symmetry_space_group_name_H-M   'P 1'
_cell_length_a   8.67828377
_cell_length_b   8.67826909
_cell_length_c   5.33815268
_cell_angle_alpha   90.00017283
_cell_angle_beta   89.99972046
_cell_angle_gamma   120.00016372
_symmetry_Int_Tables_number   1
_chemical_formula_structural   Rb3V5O14
_chemical_formula_sum   'Rb3 V5 O14'
_cell_volume   348.16720830
_cell_formula_units_Z   1
loop_
 _symmetry_equiv_pos_site_id
 _symmetry_equiv_pos_as_xyz
  1  'x, y, z'
loop_
 _atom_site_type_symbol
 _atom_site_label
 _atom_site_symmetry_multiplicity
 _atom_site_fract_x
 _atom_site_fract_y
 _atom_site_fract_z
 _atom_site_occupancy
  Rb  Rb0  1  0.00000075  0.61434802  0.17680652  1
  Rb  Rb1  1  0.61434863  0.00000053  0.17680760  1
  Rb  Rb2  1  0.38565226  0.38565169  0.17680410  1
  V  V3  1  0.76974680  0.76974651  0.67315536  1
  V  V4  1  0.00000025  0.23025263  0.67315606  1
  V  V5  1  0.23025014  0.00000059  0.67315758  1
  V  V6  1  0.33333418  0.66666845  0.65656321  1
  V  V7  1  0.66666743  0.33333316  0.65656162  1
  O  O8  1  0.16831649  0.46053803  0.54476983  1
  O  O9  1  0.29222079  0.83168426  0.54477573  1
  O  O10  1  0.53946242  0.70777868  0.54477062  1
  O  O11  1  0.70777847  0.53946131  0.54476885  1
  O  O12  1  0.83168429  0.29222063  0.54477120  1
  O  O13  1  0.46053723  0.16831600  0.54477466  1
  O  O14  1  -0.00000047  0.83225179  0.61358929  1
  O  O15  1  0.83225293  0.00000017  0.61359067  1
  O  O16  1  0.16774953  0.16775017  0.61359001  1
  O  O17  1  0.74514728  0.74514605  0.97370743  1
  O  O18  1  0.00000079  0.25485261  0.97370599  1
  O  O19  1  0.25484688  -0.00000015  0.97371307  1
  O  O20  1  0.33333464  0.66666734  0.96392281  1
  O  O21  1  0.66666728  0.33333353  0.96392379  1
