# generated using pymatgen
data_Ge3(SbO3)4
_symmetry_space_group_name_H-M   'P 1'
_cell_length_a   9.09561455
_cell_length_b   9.09561495
_cell_length_c   9.09561936
_cell_angle_alpha   109.47111746
_cell_angle_beta   109.47113510
_cell_angle_gamma   109.47105998
_symmetry_Int_Tables_number   1
_chemical_formula_structural   Ge3(SbO3)4
_chemical_formula_sum   'Ge6 Sb8 O24'
_cell_volume   579.26377952
_cell_formula_units_Z   2
loop_
 _symmetry_equiv_pos_site_id
 _symmetry_equiv_pos_as_xyz
  1  'x, y, z'
loop_
 _atom_site_type_symbol
 _atom_site_label
 _atom_site_symmetry_multiplicity
 _atom_site_fract_x
 _atom_site_fract_y
 _atom_site_fract_z
 _atom_site_occupancy
  Ge  Ge0  1  0.37499751  0.62499882  0.74999793  1
  Ge  Ge1  1  0.12499843  0.87499756  0.24999854  1
  Ge  Ge2  1  0.24999798  0.12499768  0.87499684  1
  Ge  Ge3  1  0.74999819  0.37499776  0.62499864  1
  Ge  Ge4  1  0.62499904  0.74999856  0.37499776  1
  Ge  Ge5  1  0.87499704  0.24999769  0.12499846  1
  Sb  Sb6  1  0.50000109  0.00000083  0.69212119  1
  Sb  Sb7  1  0.69212079  0.50000074  0.00000049  1
  Sb  Sb8  1  0.80787951  0.80787918  0.80787927  1
  Sb  Sb9  1  0.00000087  0.69212128  0.50000035  1
  Sb  Sb10  1  0.19212153  0.50000109  0.00000110  1
  Sb  Sb11  1  0.50000133  0.00000117  0.19212151  1
  Sb  Sb12  1  0.30787853  0.30787850  0.30787854  1
  Sb  Sb13  1  0.00000115  0.19212129  0.50000135  1
  O  O14  1  0.21223901  0.41314054  0.55823463  1
  O  O15  1  0.14509430  0.08685952  0.29909864  1
  O  O16  1  0.35490639  0.65400507  0.94176586  1
  O  O17  1  0.28776248  0.84599644  0.20090253  1
  O  O18  1  0.05823462  0.91314031  0.71223871  1
  O  O19  1  0.79909795  0.58685953  0.64509444  1
  O  O20  1  0.44176583  0.15400433  0.85490623  1
  O  O21  1  0.70090251  0.34599673  0.78776224  1
  O  O22  1  0.41314033  0.55823480  0.21223871  1
  O  O23  1  0.08685944  0.29909787  0.14509410  1
  O  O24  1  0.65400454  0.94176613  0.35490660  1
  O  O25  1  0.84599648  0.20090244  0.28776232  1
  O  O26  1  0.91314030  0.71223909  0.05823479  1
  O  O27  1  0.58685994  0.64509481  0.79909890  1
  O  O28  1  0.15400501  0.85490647  0.44176573  1
  O  O29  1  0.34599609  0.78776186  0.70090201  1
  O  O30  1  0.55823403  0.21223857  0.41314007  1
  O  O31  1  0.29909796  0.14509391  0.08685952  1
  O  O32  1  0.94176589  0.35490639  0.65400479  1
  O  O33  1  0.20090267  0.28776265  0.84599702  1
  O  O34  1  0.71223851  0.05823394  0.91314032  1
  O  O35  1  0.64509438  0.79909828  0.58685952  1
  O  O36  1  0.85490594  0.44176525  0.15400396  1
  O  O37  1  0.78776238  0.70090290  0.34599639  1
