# generated using pymatgen
data_Rb2UBr5
_symmetry_space_group_name_H-M   'P 1'
_cell_length_a   8.65044998
_cell_length_b   9.41000362
_cell_length_c   13.82912759
_cell_angle_alpha   90.00000000
_cell_angle_beta   90.00000000
_cell_angle_gamma   90.00000000
_symmetry_Int_Tables_number   1
_chemical_formula_structural   Rb2UBr5
_chemical_formula_sum   'Rb8 U4 Br20'
_cell_volume   1125.70157377
_cell_formula_units_Z   4
loop_
 _symmetry_equiv_pos_site_id
 _symmetry_equiv_pos_as_xyz
  1  'x, y, z'
loop_
 _atom_site_type_symbol
 _atom_site_label
 _atom_site_symmetry_multiplicity
 _atom_site_fract_x
 _atom_site_fract_y
 _atom_site_fract_z
 _atom_site_occupancy
  Rb  Rb0  1  0.55778956  0.49384670  0.82840618  1
  Rb  Rb1  1  0.44221044  0.50615330  0.17159382  1
  Rb  Rb2  1  0.05778956  0.50615330  0.67159382  1
  Rb  Rb3  1  0.44221044  -0.00615330  0.17159382  1
  Rb  Rb4  1  0.94221044  0.49384670  0.32840618  1
  Rb  Rb5  1  0.55778956  0.00615330  0.82840618  1
  Rb  Rb6  1  0.94221044  0.00615330  0.32840618  1
  Rb  Rb7  1  0.05778956  -0.00615330  0.67159382  1
  U  U8  1  0.57354361  0.75000000  0.50400977  1
  U  U9  1  0.42645639  0.25000000  0.49599023  1
  U  U10  1  0.07354361  0.25000000  0.99599023  1
  U  U11  1  0.92645639  0.75000000  0.00400977  1
  Br  Br12  1  0.84132628  0.75000000  0.79724429  1
  Br  Br13  1  0.15867372  0.25000000  0.20275571  1
  Br  Br14  1  0.34132628  0.25000000  0.70275571  1
  Br  Br15  1  0.65867372  0.75000000  0.29724429  1
  Br  Br16  1  0.38012720  0.75000000  0.67965785  1
  Br  Br17  1  0.61987280  0.25000000  0.32034215  1
  Br  Br18  1  0.88012720  0.25000000  0.82034215  1
  Br  Br19  1  0.11987280  0.75000000  0.17965785  1
  Br  Br20  1  0.91904559  0.75000000  0.50807653  1
  Br  Br21  1  0.08095441  0.25000000  0.49192347  1
  Br  Br22  1  0.41904559  0.25000000  0.99192347  1
  Br  Br23  1  0.58095441  0.75000000  0.00807653  1
  Br  Br24  1  0.66528307  0.04390625  0.57450707  1
  Br  Br25  1  0.33471693  0.95609375  0.42549293  1
  Br  Br26  1  0.16528307  0.95609375  0.92549293  1
  Br  Br27  1  0.33471693  0.54390625  0.42549293  1
  Br  Br28  1  0.83471693  0.04390625  0.07450707  1
  Br  Br29  1  0.66528307  0.45609375  0.57450707  1
  Br  Br30  1  0.83471693  0.45609375  0.07450707  1
  Br  Br31  1  0.16528307  0.54390625  0.92549293  1
