# generated using pymatgen
data_Rb12Mg(ClO)4
_symmetry_space_group_name_H-M   'P 1'
_cell_length_a   8.16944157
_cell_length_b   7.82643393
_cell_length_c   11.40859194
_cell_angle_alpha   82.43535195
_cell_angle_beta   91.07211897
_cell_angle_gamma   91.96682154
_symmetry_Int_Tables_number   1
_chemical_formula_structural   Rb12Mg(ClO)4
_chemical_formula_sum   'Rb12 Mg1 Cl4 O4'
_cell_volume   722.58944206
_cell_formula_units_Z   1
loop_
 _symmetry_equiv_pos_site_id
 _symmetry_equiv_pos_as_xyz
  1  'x, y, z'
loop_
 _atom_site_type_symbol
 _atom_site_label
 _atom_site_symmetry_multiplicity
 _atom_site_fract_x
 _atom_site_fract_y
 _atom_site_fract_z
 _atom_site_occupancy
  Rb  Rb0  1  0.04021800  0.53099900  0.24082900  1
  Rb  Rb1  1  0.24545700  0.31513200  0.61819700  1
  Rb  Rb2  1  0.18958400  0.20076000  0.02889500  1
  Rb  Rb3  1  0.24036600  0.72848300  0.90849900  1
  Rb  Rb4  1  0.21582300  0.81107900  0.52538500  1
  Rb  Rb5  1  0.45707600  0.85903000  0.19838400  1
  Rb  Rb6  1  0.56836100  0.01181900  0.74159000  1
  Rb  Rb7  1  0.70707400  0.24689500  0.04979900  1
  Rb  Rb8  1  0.82867500  0.23162900  0.46847400  1
  Rb  Rb9  1  0.77010800  0.75286700  0.00009600  1
  Rb  Rb10  1  0.74720700  0.72956100  0.47401600  1
  Rb  Rb11  1  0.88822000  0.48805800  0.75825500  1
  Mg  Mg12  1  0.40930000  0.22273200  0.35917900  1
  Cl  Cl13  1  0.91067600  0.95372100  0.22728300  1
  Cl  Cl14  1  0.64096100  0.49630800  0.25856500  1
  Cl  Cl15  1  0.50208100  0.59324700  0.72326500  1
  Cl  Cl16  1  0.97479400  0.98333800  0.73089000  1
  O  O17  1  0.98976300  0.48735100  0.99240200  1
  O  O18  1  0.00379300  0.52789300  0.52978700  1
  O  O19  1  0.47619400  0.97446100  0.97764900  1
  O  O20  1  0.49427000  0.11297100  0.50403700  1
