# generated using pymatgen
data_SrMg14ZnO16
_symmetry_space_group_name_H-M   'P 1'
_cell_length_a   8.69497341
_cell_length_b   8.61288869
_cell_length_c   4.40321688
_cell_angle_alpha   90.00000000
_cell_angle_beta   90.00000000
_cell_angle_gamma   90.00000000
_symmetry_Int_Tables_number   1
_chemical_formula_structural   SrMg14ZnO16
_chemical_formula_sum   'Sr1 Mg14 Zn1 O16'
_cell_volume   329.75179623
_cell_formula_units_Z   1
loop_
 _symmetry_equiv_pos_site_id
 _symmetry_equiv_pos_as_xyz
  1  'x, y, z'
loop_
 _atom_site_type_symbol
 _atom_site_label
 _atom_site_symmetry_multiplicity
 _atom_site_fract_x
 _atom_site_fract_y
 _atom_site_fract_z
 _atom_site_occupancy
  Sr  Sr0  1  -0.00000000  0.50000000  -0.00000000  1
  Mg  Mg1  1  0.50000000  0.00000000  -0.00000000  1
  Mg  Mg2  1  0.50000000  0.50000000  -0.00000000  1
  Mg  Mg3  1  -0.00000000  0.24010165  0.50000000  1
  Mg  Mg4  1  -0.00000000  0.75989835  0.50000000  1
  Mg  Mg5  1  0.50000000  0.24850234  0.50000000  1
  Mg  Mg6  1  0.50000000  0.75149766  0.50000000  1
  Mg  Mg7  1  0.25088911  -0.00000000  0.50000000  1
  Mg  Mg8  1  0.25943013  0.50000000  0.50000000  1
  Mg  Mg9  1  0.74911089  0.00000000  0.50000000  1
  Mg  Mg10  1  0.74056987  0.50000000  0.50000000  1
  Mg  Mg11  1  0.25658329  0.24387342  -0.00000000  1
  Mg  Mg12  1  0.25658329  0.75612658  0.00000000  1
  Mg  Mg13  1  0.74341671  0.24387342  -0.00000000  1
  Mg  Mg14  1  0.74341671  0.75612658  0.00000000  1
  Zn  Zn15  1  -0.00000000  0.00000000  -0.00000000  1
  O  O16  1  0.26091726  0.00000000  -0.00000000  1
  O  O17  1  0.27119172  0.50000000  -0.00000000  1
  O  O18  1  0.73908274  0.00000000  0.00000000  1
  O  O19  1  0.72880828  0.50000000  -0.00000000  1
  O  O20  1  0.24962978  0.24957282  0.50000000  1
  O  O21  1  0.24962978  0.75042718  0.50000000  1
  O  O22  1  0.75037022  0.24957282  0.50000000  1
  O  O23  1  0.75037022  0.75042718  0.50000000  1
  O  O24  1  -0.00000000  0.00000000  0.50000000  1
  O  O25  1  -0.00000000  0.50000000  0.50000000  1
  O  O26  1  0.50000000  0.00000000  0.50000000  1
  O  O27  1  0.50000000  0.50000000  0.50000000  1
  O  O28  1  -0.00000000  0.22915411  -0.00000000  1
  O  O29  1  -0.00000000  0.77084589  0.00000000  1
  O  O30  1  0.50000000  0.24660152  -0.00000000  1
  O  O31  1  0.50000000  0.75339848  0.00000000  1
