# generated using pymatgen
data_NaNbO3
_symmetry_space_group_name_H-M   'P 1'
_cell_length_a   5.63061416
_cell_length_b   5.64571163
_cell_length_c   47.84336804
_cell_angle_alpha   90.00000000
_cell_angle_beta   90.00000000
_cell_angle_gamma   90.00000000
_symmetry_Int_Tables_number   1
_chemical_formula_structural   NaNbO3
_chemical_formula_sum   'Na24 Nb24 O72'
_cell_volume   1520.88439888
_cell_formula_units_Z   24
loop_
 _symmetry_equiv_pos_site_id
 _symmetry_equiv_pos_as_xyz
  1  'x, y, z'
loop_
 _atom_site_type_symbol
 _atom_site_label
 _atom_site_symmetry_multiplicity
 _atom_site_fract_x
 _atom_site_fract_y
 _atom_site_fract_z
 _atom_site_occupancy
  Na  Na0  1  0.99851880  0.48739533  0.04099110  1
  Na  Na1  1  0.50148120  0.98739533  0.45900890  1
  Na  Na2  1  0.00148120  0.51260467  0.54099110  1
  Na  Na3  1  0.49851880  0.01260467  0.95900890  1
  Na  Na4  1  0.00148120  0.51260467  0.95900890  1
  Na  Na5  1  0.49851880  0.01260467  0.54099110  1
  Na  Na6  1  0.99851880  0.48739533  0.45900890  1
  Na  Na7  1  0.50148120  0.98739533  0.04099110  1
  Na  Na8  1  0.99507607  0.47558839  0.12433903  1
  Na  Na9  1  0.50492393  0.97558839  0.37566097  1
  Na  Na10  1  0.00492393  0.52441161  0.62433903  1
  Na  Na11  1  0.49507607  0.02441161  0.87566097  1
  Na  Na12  1  0.00492393  0.52441161  0.87566097  1
  Na  Na13  1  0.49507607  0.02441161  0.62433903  1
  Na  Na14  1  0.99507607  0.47558839  0.37566097  1
  Na  Na15  1  0.50492393  0.97558839  0.12433903  1
  Na  Na16  1  0.98574439  0.47621742  0.20826726  1
  Na  Na17  1  0.51425561  0.97621742  0.29173274  1
  Na  Na18  1  0.01425561  0.52378258  0.70826726  1
  Na  Na19  1  0.48574439  0.02378258  0.79173274  1
  Na  Na20  1  0.01425561  0.52378258  0.79173274  1
  Na  Na21  1  0.48574439  0.02378258  0.70826726  1
  Na  Na22  1  0.98574439  0.47621742  0.29173274  1
  Na  Na23  1  0.51425561  0.97621742  0.20826726  1
  Nb  Nb24  1  0.50000000  0.50000000  -0.00000000  1
  Nb  Nb25  1  0.00000000  -0.00000000  0.50000000  1
  Nb  Nb26  1  0.50000000  0.50000000  0.50000000  1
  Nb  Nb27  1  0.00000000  0.00000000  -0.00000000  1
  Nb  Nb28  1  0.50290380  0.47923594  0.08330034  1
  Nb  Nb29  1  0.99709620  0.97923594  0.41669966  1
  Nb  Nb30  1  0.49709620  0.52076406  0.58330034  1
  Nb  Nb31  1  0.00290380  0.02076406  0.91669966  1
  Nb  Nb32  1  0.49709620  0.52076406  0.91669966  1
  Nb  Nb33  1  0.00290380  0.02076406  0.58330034  1
  Nb  Nb34  1  0.50290380  0.47923594  0.41669966  1
  Nb  Nb35  1  0.99709620  0.97923594  0.08330034  1
  Nb  Nb36  1  0.49270751  0.47631761  0.16655697  1
  Nb  Nb37  1  0.00729249  0.97631761  0.33344303  1
  Nb  Nb38  1  0.50729249  0.52368239  0.66655697  1
  Nb  Nb39  1  0.99270751  0.02368239  0.83344303  1
  Nb  Nb40  1  0.50729249  0.52368239  0.83344303  1
  Nb  Nb41  1  0.99270751  0.02368239  0.66655697  1
  Nb  Nb42  1  0.49270751  0.47631761  0.33344303  1
  Nb  Nb43  1  0.00729249  0.97631761  0.16655697  1
  Nb  Nb44  1  0.49326185  0.47553978  0.25000000  1
  Nb  Nb45  1  0.00673815  0.97553978  0.25000000  1
  Nb  Nb46  1  0.50673815  0.52446022  0.75000000  1
  Nb  Nb47  1  0.99326185  0.02446022  0.75000000  1
  O  O48  1  0.48965943  0.50889147  0.04164122  1
  O  O49  1  0.01034057  0.00889147  0.45835878  1
  O  O50  1  0.51034057  0.49110853  0.54164122  1
  O  O51  1  0.98965943  0.99110853  0.95835878  1
  O  O52  1  0.51034057  0.49110853  0.95835878  1
  O  O53  1  0.98965943  0.99110853  0.54164122  1
  O  O54  1  0.48965943  0.50889147  0.45835878  1
  O  O55  1  0.01034057  0.00889147  0.04164122  1
  O  O56  1  0.49849665  0.51946979  0.12504255  1
  O  O57  1  0.00150335  0.01946979  0.37495745  1
  O  O58  1  0.50150335  0.48053021  0.62504255  1
  O  O59  1  0.99849665  0.98053021  0.87495745  1
  O  O60  1  0.50150335  0.48053021  0.87495745  1
  O  O61  1  0.99849665  0.98053021  0.62504255  1
  O  O62  1  0.49849665  0.51946979  0.37495745  1
  O  O63  1  0.00150335  0.01946979  0.12504255  1
  O  O64  1  0.50996822  0.51623157  0.20831986  1
  O  O65  1  0.99003178  0.01623157  0.29168014  1
  O  O66  1  0.49003178  0.48376843  0.70831986  1
  O  O67  1  0.00996822  0.98376843  0.79168014  1
  O  O68  1  0.49003178  0.48376843  0.79168014  1
  O  O69  1  0.00996822  0.98376843  0.70831986  1
  O  O70  1  0.50996822  0.51623157  0.29168014  1
  O  O71  1  0.99003178  0.01623157  0.20831986  1
  O  O72  1  0.29432791  0.79403102  0.99898063  1
  O  O73  1  0.20567209  0.29403102  0.50101937  1
  O  O74  1  0.70567209  0.20596898  0.49898063  1
  O  O75  1  0.79432791  0.70596898  0.00101937  1
  O  O76  1  0.70567209  0.20596898  0.00101937  1
  O  O77  1  0.79432791  0.70596898  0.49898063  1
  O  O78  1  0.29432791  0.79403102  0.50101937  1
  O  O79  1  0.20567209  0.29403102  0.99898063  1
  O  O80  1  0.21199562  0.72026243  0.08356860  1
  O  O81  1  0.28800438  0.22026243  0.41643140  1
  O  O82  1  0.78800438  0.27973757  0.58356860  1
  O  O83  1  0.71199562  0.77973757  0.91643140  1
  O  O84  1  0.78800438  0.27973757  0.91643140  1
  O  O85  1  0.71199562  0.77973757  0.58356860  1
  O  O86  1  0.21199562  0.72026243  0.41643140  1
  O  O87  1  0.28800438  0.22026243  0.08356860  1
  O  O88  1  0.78916898  0.29670939  0.08266164  1
  O  O89  1  0.71083102  0.79670939  0.41733836  1
  O  O90  1  0.21083102  0.70329061  0.58266164  1
  O  O91  1  0.28916898  0.20329061  0.91733836  1
  O  O92  1  0.21083102  0.70329061  0.91733836  1
  O  O93  1  0.28916898  0.20329061  0.58266164  1
  O  O94  1  0.78916898  0.29670939  0.41733836  1
  O  O95  1  0.71083102  0.79670939  0.08266164  1
  O  O96  1  0.29888354  0.80763139  0.16710956  1
  O  O97  1  0.20111646  0.30763139  0.33289044  1
  O  O98  1  0.70111646  0.19236861  0.66710956  1
  O  O99  1  0.79888354  0.69236861  0.83289044  1
  O  O100  1  0.70111646  0.19236861  0.83289044  1
  O  O101  1  0.79888354  0.69236861  0.66710956  1
  O  O102  1  0.29888354  0.80763139  0.33289044  1
  O  O103  1  0.20111646  0.30763139  0.16710956  1
  O  O104  1  0.70018127  0.21184017  0.16595769  1
  O  O105  1  0.79981873  0.71184017  0.33404231  1
  O  O106  1  0.29981873  0.78815983  0.66595769  1
  O  O107  1  0.20018127  0.28815983  0.83404231  1
  O  O108  1  0.29981873  0.78815983  0.83404231  1
  O  O109  1  0.20018127  0.28815983  0.66595769  1
  O  O110  1  0.70018127  0.21184017  0.33404231  1
  O  O111  1  0.79981873  0.71184017  0.16595769  1
  O  O112  1  0.29784079  0.80631276  0.25000000  1
  O  O113  1  0.20215921  0.30631276  0.25000000  1
  O  O114  1  0.70215921  0.19368724  0.75000000  1
  O  O115  1  0.79784079  0.69368724  0.75000000  1
  O  O116  1  0.69938689  0.20924252  0.25000000  1
  O  O117  1  0.80061311  0.70924252  0.25000000  1
  O  O118  1  0.30061311  0.79075748  0.75000000  1
  O  O119  1  0.19938689  0.29075748  0.75000000  1
