# generated using pymatgen
data_Ba4Ta2O9
_symmetry_space_group_name_H-M   'P 1'
_cell_length_a   6.12352716
_cell_length_b   6.12353090
_cell_length_c   16.61737786
_cell_angle_alpha   90.00002683
_cell_angle_beta   89.99995798
_cell_angle_gamma   120.00005265
_symmetry_Int_Tables_number   1
_chemical_formula_structural   Ba4Ta2O9
_chemical_formula_sum   'Ba8 Ta4 O18'
_cell_volume   539.63046406
_cell_formula_units_Z   2
loop_
 _symmetry_equiv_pos_site_id
 _symmetry_equiv_pos_as_xyz
  1  'x, y, z'
loop_
 _atom_site_type_symbol
 _atom_site_label
 _atom_site_symmetry_multiplicity
 _atom_site_fract_x
 _atom_site_fract_y
 _atom_site_fract_z
 _atom_site_occupancy
  Ba  Ba0  1  -0.00000032  -0.00000045  0.75000101  1
  Ba  Ba1  1  0.00000019  0.00000054  0.25000256  1
  Ba  Ba2  1  0.66666694  0.33333313  0.63365031  1
  Ba  Ba3  1  0.33333379  0.66666751  0.13363824  1
  Ba  Ba4  1  0.33333333  0.66666648  0.36636539  1
  Ba  Ba5  1  0.66666584  0.33333277  0.86635415  1
  Ba  Ba6  1  -0.00000005  -0.00000008  0.50001809  1
  Ba  Ba7  1  -0.00000046  0.00000000  0.99998572  1
  Ta  Ta8  1  0.66666635  0.33333396  0.34012122  1
  Ta  Ta9  1  0.33333219  0.66666491  0.84010486  1
  Ta  Ta10  1  0.33333416  0.66666588  0.65988218  1
  Ta  Ta11  1  0.66666815  0.33333502  0.15987908  1
  O  O12  1  0.52472600  0.95319490  0.75000247  1
  O  O13  1  0.04680402  0.57153051  0.75000257  1
  O  O14  1  0.42846895  0.47527253  0.75000271  1
  O  O15  1  0.47528859  0.04682110  0.25000119  1
  O  O16  1  0.95317952  0.42846776  0.25000133  1
  O  O17  1  0.57153269  0.52471288  0.25000116  1
  O  O18  1  0.11058765  0.35667038  0.60865114  1
  O  O19  1  0.64332786  0.75391543  0.60865092  1
  O  O20  1  0.24608333  0.88941119  0.60865068  1
  O  O21  1  0.88941650  0.64331299  0.10864654  1
  O  O22  1  0.35668818  0.24610473  0.10864629  1
  O  O23  1  0.75389666  0.11058535  0.10864647  1
  O  O24  1  0.88941553  0.64331080  0.39135195  1
  O  O25  1  0.35668920  0.24610500  0.39135172  1
  O  O26  1  0.75389516  0.11058450  0.39135197  1
  O  O27  1  0.11058019  0.35666156  0.89134619  1
  O  O28  1  0.64333646  0.75391772  0.89134650  1
  O  O29  1  0.24608040  0.88941803  0.89134640  1
