# generated using pymatgen
data_MnTe6O13
_symmetry_space_group_name_H-M   'P 1'
_cell_length_a   8.73479893
_cell_length_b   8.73479870
_cell_length_c   8.73479876
_cell_angle_alpha   71.66402911
_cell_angle_beta   71.66402516
_cell_angle_gamma   71.66402153
_symmetry_Int_Tables_number   1
_chemical_formula_structural   MnTe6O13
_chemical_formula_sum   'Mn2 Te12 O26'
_cell_volume   583.03447146
_cell_formula_units_Z   2
loop_
 _symmetry_equiv_pos_site_id
 _symmetry_equiv_pos_as_xyz
  1  'x, y, z'
loop_
 _atom_site_type_symbol
 _atom_site_label
 _atom_site_symmetry_multiplicity
 _atom_site_fract_x
 _atom_site_fract_y
 _atom_site_fract_z
 _atom_site_occupancy
  Mn  Mn0  1  0.75609732  0.75609732  0.75609732  1
  Mn  Mn1  1  0.24390268  0.24390268  0.24390268  1
  Te  Te2  1  0.83380242  0.51376876  0.44124887  1
  Te  Te3  1  0.44124887  0.83380242  0.51376876  1
  Te  Te4  1  0.51376876  0.44124887  0.83380242  1
  Te  Te5  1  0.16619758  0.48623124  0.55875113  1
  Te  Te6  1  0.55875113  0.16619758  0.48623124  1
  Te  Te7  1  0.48623124  0.55875113  0.16619758  1
  Te  Te8  1  0.96993666  0.07996846  0.67618659  1
  Te  Te9  1  0.67618659  0.96993666  0.07996846  1
  Te  Te10  1  0.07996846  0.67618659  0.96993666  1
  Te  Te11  1  0.03006334  0.92003154  0.32381341  1
  Te  Te12  1  0.32381341  0.03006334  0.92003154  1
  Te  Te13  1  0.92003154  0.32381341  0.03006334  1
  O  O14  1  0.89764490  0.57369354  0.60461549  1
  O  O15  1  0.60461549  0.89764490  0.57369354  1
  O  O16  1  0.57369354  0.60461549  0.89764490  1
  O  O17  1  0.10235510  0.42630646  0.39538451  1
  O  O18  1  0.39538451  0.10235510  0.42630646  1
  O  O19  1  0.42630646  0.39538451  0.10235510  1
  O  O20  1  0.86349270  0.96022000  0.61777210  1
  O  O21  1  0.61777210  0.86349270  0.96022000  1
  O  O22  1  0.96022000  0.61777210  0.86349270  1
  O  O23  1  0.13650730  0.03978000  0.38222790  1
  O  O24  1  0.38222790  0.13650730  0.03978000  1
  O  O25  1  0.03978000  0.38222790  0.13650730  1
  O  O26  1  0.58906522  0.58906522  0.58906522  1
  O  O27  1  0.41093478  0.41093478  0.41093478  1
  O  O28  1  0.80551329  0.30120518  0.55235231  1
  O  O29  1  0.55235231  0.80551329  0.30120518  1
  O  O30  1  0.30120518  0.55235231  0.80551329  1
  O  O31  1  0.19448671  0.69879482  0.44764769  1
  O  O32  1  0.44764769  0.19448671  0.69879482  1
  O  O33  1  0.69879482  0.44764769  0.19448671  1
  O  O34  1  0.11110758  0.87460191  0.80063704  1
  O  O35  1  0.80063704  0.11110758  0.87460191  1
  O  O36  1  0.87460191  0.80063704  0.11110758  1
  O  O37  1  0.88889242  0.12539809  0.19936296  1
  O  O38  1  0.19936296  0.88889242  0.12539809  1
  O  O39  1  0.12539809  0.19936296  0.88889242  1
