# generated using pymatgen
data_LiMg14WO16
_symmetry_space_group_name_H-M   'P 1'
_cell_length_a   8.56117332
_cell_length_b   8.60875800
_cell_length_c   4.28056458
_cell_angle_alpha   90.00000000
_cell_angle_beta   90.00000000
_cell_angle_gamma   90.00000000
_symmetry_Int_Tables_number   1
_chemical_formula_structural   LiMg14WO16
_chemical_formula_sum   'Li1 Mg14 W1 O16'
_cell_volume   315.48218679
_cell_formula_units_Z   1
loop_
 _symmetry_equiv_pos_site_id
 _symmetry_equiv_pos_as_xyz
  1  'x, y, z'
loop_
 _atom_site_type_symbol
 _atom_site_label
 _atom_site_symmetry_multiplicity
 _atom_site_fract_x
 _atom_site_fract_y
 _atom_site_fract_z
 _atom_site_occupancy
  Li  Li0  1  0.00000000  0.00000000  0.00000000  1
  Mg  Mg1  1  0.50000000  0.00000000  0.00000000  1
  Mg  Mg2  1  0.50000000  0.50000000  0.00000000  1
  Mg  Mg3  1  0.00000000  0.23361440  0.50000000  1
  Mg  Mg4  1  0.00000000  0.76638560  0.50000000  1
  Mg  Mg5  1  0.50000000  0.24700642  0.50000000  1
  Mg  Mg6  1  0.50000000  0.75299358  0.50000000  1
  Mg  Mg7  1  0.24475535  0.00000000  0.50000000  1
  Mg  Mg8  1  0.25729633  0.50000000  0.50000000  1
  Mg  Mg9  1  0.75524465  0.00000000  0.50000000  1
  Mg  Mg10  1  0.74270367  0.50000000  0.50000000  1
  Mg  Mg11  1  0.25047315  0.24019482  0.00000000  1
  Mg  Mg12  1  0.25047315  0.75980518  0.00000000  1
  Mg  Mg13  1  0.74952685  0.24019482  0.00000000  1
  Mg  Mg14  1  0.74952685  0.75980518  0.00000000  1
  W  W15  1  0.00000000  0.50000000  0.00000000  1
  O  O16  1  0.25860365  0.00000000  0.00000000  1
  O  O17  1  0.25403764  0.50000000  0.00000000  1
  O  O18  1  0.74139635  0.00000000  0.00000000  1
  O  O19  1  0.74596236  0.50000000  0.00000000  1
  O  O20  1  0.24880672  0.25232932  0.50000000  1
  O  O21  1  0.24880672  0.74767068  0.50000000  1
  O  O22  1  0.75119328  0.25232932  0.50000000  1
  O  O23  1  0.75119328  0.74767068  0.50000000  1
  O  O24  1  0.00000000  0.00000000  0.50000000  1
  O  O25  1  0.00000000  0.50000000  0.50000000  1
  O  O26  1  0.50000000  0.00000000  0.50000000  1
  O  O27  1  0.50000000  0.50000000  0.50000000  1
  O  O28  1  0.00000000  0.25026755  0.00000000  1
  O  O29  1  0.00000000  0.74973245  0.00000000  1
  O  O30  1  0.50000000  0.25285584  0.00000000  1
  O  O31  1  0.50000000  0.74714416  0.00000000  1
