# generated using pymatgen
data_Sn(PO3)3
_symmetry_space_group_name_H-M   'P 1'
_cell_length_a   6.83028364
_cell_length_b   6.83028350
_cell_length_c   10.41483676
_cell_angle_alpha   90.00015525
_cell_angle_beta   90.00014820
_cell_angle_gamma   120.00024690
_symmetry_Int_Tables_number   1
_chemical_formula_structural   Sn(PO3)3
_chemical_formula_sum   'Sn2 P6 O18'
_cell_volume   420.78426132
_cell_formula_units_Z   2
loop_
 _symmetry_equiv_pos_site_id
 _symmetry_equiv_pos_as_xyz
  1  'x, y, z'
loop_
 _atom_site_type_symbol
 _atom_site_label
 _atom_site_symmetry_multiplicity
 _atom_site_fract_x
 _atom_site_fract_y
 _atom_site_fract_z
 _atom_site_occupancy
  Sn  Sn0  1  0.99999979  0.00000033  0.49999999  1
  Sn  Sn1  1  0.00000016  -0.00000005  -0.00000000  1
  P  P2  1  0.72636874  0.12218965  0.77805044  1
  P  P3  1  0.87781037  0.27363134  0.22194957  1
  P  P4  1  0.72636389  0.60417869  0.22194603  1
  P  P5  1  0.87781764  0.60418396  0.77804985  1
  P  P6  1  0.39582133  0.27363611  0.77805398  1
  P  P7  1  0.39581603  0.12218230  0.22195016  1
  O  O8  1  0.89732490  0.51270089  0.19724414  1
  O  O9  1  0.89733285  0.38462974  0.80275840  1
  O  O10  1  0.48729908  0.10267503  0.80275590  1
  O  O11  1  0.61537033  0.10266716  0.19724152  1
  O  O12  1  0.74610891  0.05167839  0.64810707  1
  O  O13  1  0.75428602  0.99764702  0.88969839  1
  O  O14  1  0.48729259  0.38462054  0.19724455  1
  O  O15  1  0.74610779  0.69444018  0.35188649  1
  O  O16  1  0.75427610  0.75662700  0.11029237  1
  O  O17  1  0.61537950  0.51270744  0.80275542  1
  O  O18  1  0.94832140  0.25389107  0.35189302  1
  O  O19  1  0.00235302  0.24571404  0.11030168  1
  O  O20  1  0.24337298  0.24572392  0.88970763  1
  O  O21  1  0.30555996  0.25389226  0.64811347  1
  O  O22  1  0.00236199  0.75664503  0.88969753  1
  O  O23  1  0.94832766  0.69443198  0.64810522  1
  O  O24  1  0.24335498  0.99763791  0.11030244  1
  O  O25  1  0.30556796  0.05167209  0.35189474  1
