# generated using pymatgen
data_TbCuSe2
_symmetry_space_group_name_H-M   'P 1'
_cell_length_a   6.59944730
_cell_length_b   7.06749155
_cell_length_c   7.30369010
_cell_angle_alpha   90.00000000
_cell_angle_beta   90.00000000
_cell_angle_gamma   96.24186041
_symmetry_Int_Tables_number   1
_chemical_formula_structural   TbCuSe2
_chemical_formula_sum   'Tb4 Cu4 Se8'
_cell_volume   338.63586451
_cell_formula_units_Z   4
loop_
 _symmetry_equiv_pos_site_id
 _symmetry_equiv_pos_as_xyz
  1  'x, y, z'
loop_
 _atom_site_type_symbol
 _atom_site_label
 _atom_site_symmetry_multiplicity
 _atom_site_fract_x
 _atom_site_fract_y
 _atom_site_fract_z
 _atom_site_occupancy
  Tb  Tb0  1  0.19437432  0.29895571  0.54379775  1
  Tb  Tb1  1  0.80562568  0.20104429  0.04379775  1
  Tb  Tb2  1  0.80562568  0.70104429  0.45620225  1
  Tb  Tb3  1  0.19437432  0.79895571  0.95620225  1
  Cu  Cu4  1  0.42875191  0.95420364  0.34239713  1
  Cu  Cu5  1  0.57124809  0.04579636  0.65760287  1
  Cu  Cu6  1  0.42875191  0.45420364  0.15760287  1
  Cu  Cu7  1  0.57124809  0.54579636  0.84239713  1
  Se  Se8  1  0.92538844  0.50340889  0.77509124  1
  Se  Se9  1  0.92538844  0.00340889  0.72490876  1
  Se  Se10  1  0.07461156  0.99659111  0.27509124  1
  Se  Se11  1  0.07461156  0.49659111  0.22490876  1
  Se  Se12  1  0.59732729  0.28088179  0.38771830  1
  Se  Se13  1  0.40267271  0.21911821  0.88771930  1
  Se  Se14  1  0.40267271  0.71911821  0.61228070  1
  Se  Se15  1  0.59732729  0.78088179  0.11228170  1
