# generated using pymatgen
data_Si
_symmetry_space_group_name_H-M   'P 1'
_cell_length_a   9.82752687
_cell_length_b   14.74034577
_cell_length_c   14.74034577
_cell_angle_alpha   118.39081307
_cell_angle_beta   93.69838506
_cell_angle_gamma   86.30161494
_symmetry_Int_Tables_number   1
_chemical_formula_structural   Si
_chemical_formula_sum   Si82
_cell_volume   1873.17465786
_cell_formula_units_Z   82
loop_
 _symmetry_equiv_pos_site_id
 _symmetry_equiv_pos_as_xyz
  1  'x, y, z'
loop_
 _atom_site_type_symbol
 _atom_site_label
 _atom_site_symmetry_multiplicity
 _atom_site_fract_x
 _atom_site_fract_y
 _atom_site_fract_z
 _atom_site_occupancy
  Si  Si0  1  0.10096820  0.45502430  0.34660559  1
  Si  Si1  1  0.39903180  0.34660559  0.45502430  1
  Si  Si2  1  0.89903180  0.54497570  0.65339441  1
  Si  Si3  1  0.60096820  0.65339441  0.54497570  1
  Si  Si4  1  0.10615234  0.59909161  0.32125617  1
  Si  Si5  1  0.39384766  0.32125617  0.59909161  1
  Si  Si6  1  0.89384766  0.40090839  0.67874383  1
  Si  Si7  1  0.60615234  0.67874383  0.40090839  1
  Si  Si8  1  0.23359941  0.72402229  0.45677832  1
  Si  Si9  1  0.26640059  0.45677832  0.72402229  1
  Si  Si10  1  0.76640059  0.27597771  0.54322168  1
  Si  Si11  1  0.73359941  0.54322168  0.27597771  1
  Si  Si12  1  0.11908908  0.88436915  0.54646986  1
  Si  Si13  1  0.38091092  0.54646986  0.88436915  1
  Si  Si14  1  0.88091092  0.11563085  0.45353014  1
  Si  Si15  1  0.61908908  0.45353014  0.11563085  1
  Si  Si16  1  0.14038119  0.55468083  0.65658947  1
  Si  Si17  1  0.35961881  0.65658947  0.55468083  1
  Si  Si18  1  0.85961881  0.44531917  0.34341053  1
  Si  Si19  1  0.64038119  0.34341053  0.44531917  1
  Si  Si20  1  0.99276552  0.95499324  0.82376775  1
  Si  Si21  1  0.50723448  0.82376775  0.95499324  1
  Si  Si22  1  0.00723448  0.04500676  0.17623225  1
  Si  Si23  1  0.49276552  0.17623225  0.04500676  1
  Si  Si24  1  0.17797895  0.93026713  0.71893429  1
  Si  Si25  1  0.32202105  0.71893429  0.93026713  1
  Si  Si26  1  0.82202105  0.06973287  0.28106571  1
  Si  Si27  1  0.67797895  0.28106571  0.06973287  1
  Si  Si28  1  0.99508179  0.82342067  0.87313414  1
  Si  Si29  1  0.50491821  0.87313414  0.82342067  1
  Si  Si30  1  0.00491821  0.17657933  0.12686586  1
  Si  Si31  1  0.49508179  0.12686586  0.17657933  1
  Si  Si32  1  0.31250848  0.79405864  0.72029653  1
  Si  Si33  1  0.18749152  0.72029653  0.79405864  1
  Si  Si34  1  0.68749152  0.20594136  0.27970347  1
  Si  Si35  1  0.81250848  0.27970347  0.20594136  1
  Si  Si36  1  0.09621925  0.35122878  0.88440352  1
  Si  Si37  1  0.40378075  0.88440352  0.35122878  1
  Si  Si38  1  0.90378075  0.64877122  0.11559648  1
  Si  Si39  1  0.59621925  0.11559648  0.64877122  1
  Si  Si40  1  0.10379613  0.34777597  0.72509290  1
  Si  Si41  1  0.39620387  0.72509290  0.34777597  1
  Si  Si42  1  0.89620387  0.65222403  0.27490710  1
  Si  Si43  1  0.60379613  0.27490710  0.65222403  1
  Si  Si44  1  0.26657205  0.60102928  0.21343810  1
  Si  Si45  1  0.23342795  0.21343810  0.60102928  1
  Si  Si46  1  0.73342795  0.39897072  0.78656190  1
  Si  Si47  1  0.76657205  0.78656190  0.39897072  1
  Si  Si48  1  0.37863608  0.45007788  0.09713559  1
  Si  Si49  1  0.12136392  0.09713559  0.45007788  1
  Si  Si50  1  0.62136392  0.54992212  0.90286441  1
  Si  Si51  1  0.87863608  0.90286441  0.54992212  1
  Si  Si52  1  0.25345246  0.48669799  0.97518073  1
  Si  Si53  1  0.24654754  0.97518073  0.48669799  1
  Si  Si54  1  0.74654754  0.51330201  0.02481927  1
  Si  Si55  1  0.75345246  0.02481927  0.51330201  1
  Si  Si56  1  0.14162206  0.64038238  0.09404845  1
  Si  Si57  1  0.35837794  0.09404845  0.64038238  1
  Si  Si58  1  0.85837794  0.35961762  0.90595155  1
  Si  Si59  1  0.64162206  0.90595155  0.35961762  1
  Si  Si60  1  0.18239456  0.29299130  0.21180929  1
  Si  Si61  1  0.31760544  0.21180929  0.29299130  1
  Si  Si62  1  0.81760544  0.70700870  0.78819071  1
  Si  Si63  1  0.68239456  0.78819071  0.70700870  1
  Si  Si64  1  0.30313813  0.29205233  0.07579112  1
  Si  Si65  1  0.19686187  0.07579112  0.29205233  1
  Si  Si66  1  0.69686187  0.70794767  0.92420888  1
  Si  Si67  1  0.80313813  0.92420888  0.70794767  1
  Si  Si68  1  0.99755497  0.13170784  0.94916148  1
  Si  Si69  1  0.50244503  0.94916148  0.13170784  1
  Si  Si70  1  0.00244503  0.86829216  0.05083852  1
  Si  Si71  1  0.49755497  0.05083852  0.86829216  1
  Si  Si72  1  0.17434180  0.21458577  0.91757246  1
  Si  Si73  1  0.32565820  0.91757246  0.21458577  1
  Si  Si74  1  0.82565820  0.78541423  0.08242754  1
  Si  Si75  1  0.67434180  0.08242754  0.78541423  1
  Si  Si76  1  0.30091862  0.08063414  0.78627195  1
  Si  Si77  1  0.19908138  0.78627195  0.08063414  1
  Si  Si78  1  0.69908138  0.91936586  0.21372805  1
  Si  Si79  1  0.80091862  0.21372805  0.91936586  1
  Si  Si80  1  0.25000000  0.49802317  0.49802317  1
  Si  Si81  1  0.75000000  0.50197683  0.50197683  1
