# generated using pymatgen
data_TbB4W
_symmetry_space_group_name_H-M   'P 1'
_cell_length_a   6.03841645
_cell_length_b   11.66934922
_cell_length_c   3.62914296
_cell_angle_alpha   90.00000000
_cell_angle_beta   90.00000000
_cell_angle_gamma   90.00000000
_symmetry_Int_Tables_number   1
_chemical_formula_structural   TbB4W
_chemical_formula_sum   'Tb4 B16 W4'
_cell_volume   255.72534595
_cell_formula_units_Z   4
loop_
 _symmetry_equiv_pos_site_id
 _symmetry_equiv_pos_as_xyz
  1  'x, y, z'
loop_
 _atom_site_type_symbol
 _atom_site_label
 _atom_site_symmetry_multiplicity
 _atom_site_fract_x
 _atom_site_fract_y
 _atom_site_fract_z
 _atom_site_occupancy
  Tb  Tb0  1  0.62719500  0.35051520  0.00000000  1
  Tb  Tb1  1  0.37280500  0.64948480  0.00000000  1
  Tb  Tb2  1  0.12719500  0.14948480  -0.00000000  1
  Tb  Tb3  1  0.87280500  0.85051520  0.00000000  1
  B  B4  1  0.78580421  0.18608880  0.50000000  1
  B  B5  1  0.21419579  0.81391120  0.50000000  1
  B  B6  1  0.28580421  0.31391120  0.50000000  1
  B  B7  1  0.71419579  0.68608880  0.50000000  1
  B  B8  1  0.86567747  0.03203214  0.50000000  1
  B  B9  1  0.13432253  0.96796786  0.50000000  1
  B  B10  1  0.36567747  0.46796786  0.50000000  1
  B  B11  1  0.63432253  0.53203214  0.50000000  1
  B  B12  1  0.88651754  0.45290952  0.50000000  1
  B  B13  1  0.11348246  0.54709048  0.50000000  1
  B  B14  1  0.38651754  0.04709048  0.50000000  1
  B  B15  1  0.61348246  0.95290952  0.50000000  1
  B  B16  1  0.97597124  0.30724535  0.50000000  1
  B  B17  1  0.02402876  0.69275465  0.50000000  1
  B  B18  1  0.47597124  0.19275465  0.50000000  1
  B  B19  1  0.52402876  0.80724535  0.50000000  1
  W  W20  1  0.62985423  0.08391852  0.00000000  1
  W  W21  1  0.37014577  0.91608148  0.00000000  1
  W  W22  1  0.12985423  0.41608148  -0.00000000  1
  W  W23  1  0.87014577  0.58391852  -0.00000000  1
