# generated using pymatgen
data_Rb6CdO4
_symmetry_space_group_name_H-M   'P 1'
_cell_length_a   9.09122897
_cell_length_b   9.09125047
_cell_length_c   6.93286497
_cell_angle_alpha   90.00003505
_cell_angle_beta   89.99964357
_cell_angle_gamma   119.99990728
_symmetry_Int_Tables_number   1
_chemical_formula_structural   Rb6CdO4
_chemical_formula_sum   'Rb12 Cd2 O8'
_cell_volume   496.23797729
_cell_formula_units_Z   2
loop_
 _symmetry_equiv_pos_site_id
 _symmetry_equiv_pos_as_xyz
  1  'x, y, z'
loop_
 _atom_site_type_symbol
 _atom_site_label
 _atom_site_symmetry_multiplicity
 _atom_site_fract_x
 _atom_site_fract_y
 _atom_site_fract_z
 _atom_site_occupancy
  Rb  Rb0  1  0.53746246  0.46253783  0.11426112  1
  Rb  Rb1  1  0.53746214  0.07492425  0.11425903  1
  Rb  Rb2  1  0.46253031  0.53747072  0.61426518  1
  Rb  Rb3  1  0.92507361  0.46253670  0.11426177  1
  Rb  Rb4  1  0.46252907  0.92506001  0.61426614  1
  Rb  Rb5  1  0.07493889  0.53747006  0.61426312  1
  Rb  Rb6  1  0.14333714  0.85666310  0.28299400  1
  Rb  Rb7  1  0.14333660  0.28667386  0.28299374  1
  Rb  Rb8  1  0.85666255  0.14333554  0.78300267  1
  Rb  Rb9  1  0.71332431  0.85666169  0.28299492  1
  Rb  Rb10  1  0.85666063  0.71332525  0.78300434  1
  Rb  Rb11  1  0.28667346  0.14333808  0.78300305  1
  Cd  Cd12  1  0.33333935  0.66666819  0.00628599  1
  Cd  Cd13  1  0.66667268  0.33333564  0.50629007  1
  O  O14  1  0.33333235  0.66666684  0.32736720  1
  O  O15  1  0.66666597  0.33333304  0.82737564  1
  O  O16  1  0.80355136  0.19644711  0.39952153  1
  O  O17  1  0.80355018  0.60710235  0.39952224  1
  O  O18  1  0.19645014  0.80354945  0.89951796  1
  O  O19  1  0.39289823  0.19644857  0.39952182  1
  O  O20  1  0.19645101  0.39290353  0.89951606  1
  O  O21  1  0.60709657  0.80354816  0.89951740  1
