# generated using pymatgen
data_K2Ga2Sb3
_symmetry_space_group_name_H-M   'P 1'
_cell_length_a   7.24829128
_cell_length_b   14.86368011
_cell_length_c   16.70091518
_cell_angle_alpha   89.48160111
_cell_angle_beta   90.00000000
_cell_angle_gamma   90.00000000
_symmetry_Int_Tables_number   1
_chemical_formula_structural   K2Ga2Sb3
_chemical_formula_sum   'K16 Ga16 Sb24'
_cell_volume   1799.22087600
_cell_formula_units_Z   8
loop_
 _symmetry_equiv_pos_site_id
 _symmetry_equiv_pos_as_xyz
  1  'x, y, z'
loop_
 _atom_site_type_symbol
 _atom_site_label
 _atom_site_symmetry_multiplicity
 _atom_site_fract_x
 _atom_site_fract_y
 _atom_site_fract_z
 _atom_site_occupancy
  K  K0  1  0.97618195  0.85655453  0.99197509  1
  K  K1  1  0.47618195  0.14344547  0.50802491  1
  K  K2  1  0.02381805  0.14344547  0.00802491  1
  K  K3  1  0.52381805  0.85655453  0.49197509  1
  K  K4  1  0.53888919  0.34774058  0.01979055  1
  K  K5  1  0.03888919  0.65225942  0.48020945  1
  K  K6  1  0.46111081  0.65225942  0.98020945  1
  K  K7  1  0.96111081  0.34774058  0.51979055  1
  K  K8  1  0.52527069  0.07429609  0.11233218  1
  K  K9  1  0.02527069  0.92570391  0.38766782  1
  K  K10  1  0.47472931  0.92570391  0.88766782  1
  K  K11  1  0.97472931  0.07429609  0.61233218  1
  K  K12  1  0.95416699  0.55645933  0.89233547  1
  K  K13  1  0.45416699  0.44354067  0.60766453  1
  K  K14  1  0.04583301  0.44354067  0.10766453  1
  K  K15  1  0.54583301  0.55645933  0.39233547  1
  Ga  Ga16  1  0.28424992  0.31461027  0.83020415  1
  Ga  Ga17  1  0.78424992  0.68538973  0.66979585  1
  Ga  Ga18  1  0.71575008  0.68538973  0.16979585  1
  Ga  Ga19  1  0.21575008  0.31461027  0.33020415  1
  Ga  Ga20  1  0.79104054  0.90950697  0.73038066  1
  Ga  Ga21  1  0.29104054  0.09049303  0.76961934  1
  Ga  Ga22  1  0.20895946  0.09049303  0.26961934  1
  Ga  Ga23  1  0.70895946  0.90950697  0.23038066  1
  Ga  Ga24  1  0.77090936  0.18216781  0.82389287  1
  Ga  Ga25  1  0.27090936  0.81783219  0.67610713  1
  Ga  Ga26  1  0.22909064  0.81783219  0.17610713  1
  Ga  Ga27  1  0.72909064  0.18216781  0.32389287  1
  Ga  Ga28  1  0.76628780  0.40793505  0.76017696  1
  Ga  Ga29  1  0.26628780  0.59206495  0.73982304  1
  Ga  Ga30  1  0.23371220  0.59206495  0.23982304  1
  Ga  Ga31  1  0.73371220  0.40793505  0.26017696  1
  Sb  Sb32  1  0.96685626  0.02746919  0.82640910  1
  Sb  Sb33  1  0.46685626  0.97253081  0.67359090  1
  Sb  Sb34  1  0.03314374  0.97253081  0.17359090  1
  Sb  Sb35  1  0.53314374  0.02746919  0.32640910  1
  Sb  Sb36  1  0.45124872  0.16395741  0.90038725  1
  Sb  Sb37  1  0.95124872  0.83604259  0.59961275  1
  Sb  Sb38  1  0.54875128  0.83604259  0.09961275  1
  Sb  Sb39  1  0.04875128  0.16395741  0.40038725  1
  Sb  Sb40  1  0.94292566  0.32912359  0.88632766  1
  Sb  Sb41  1  0.44292566  0.67087641  0.61367234  1
  Sb  Sb42  1  0.05707434  0.67087641  0.11367234  1
  Sb  Sb43  1  0.55707434  0.32912359  0.38632766  1
  Sb  Sb44  1  0.81709317  0.25231675  0.17854594  1
  Sb  Sb45  1  0.31709317  0.74768325  0.32145406  1
  Sb  Sb46  1  0.18290683  0.74768325  0.82145406  1
  Sb  Sb47  1  0.68290683  0.25231675  0.67854594  1
  Sb  Sb48  1  0.46334127  0.47465102  0.83430470  1
  Sb  Sb49  1  0.96334127  0.52534898  0.66569530  1
  Sb  Sb50  1  0.53665873  0.52534898  0.16569530  1
  Sb  Sb51  1  0.03665873  0.47465102  0.33430470  1
  Sb  Sb52  1  0.21364343  0.24591903  0.18233637  1
  Sb  Sb53  1  0.71364343  0.75408097  0.31766363  1
  Sb  Sb54  1  0.78635657  0.75408097  0.81766363  1
  Sb  Sb55  1  0.28635657  0.24591903  0.68233637  1
