# generated using pymatgen
data_MgGa4P6(HO3)6
_symmetry_space_group_name_H-M   'P 1'
_cell_length_a   8.66963615
_cell_length_b   8.66963578
_cell_length_c   7.48362243
_cell_angle_alpha   90.00000000
_cell_angle_beta   90.00000000
_cell_angle_gamma   119.99999670
_symmetry_Int_Tables_number   1
_chemical_formula_structural   MgGa4P6(HO3)6
_chemical_formula_sum   'Mg1 Ga4 P6 H6 O18'
_cell_volume   487.12928381
_cell_formula_units_Z   1
loop_
 _symmetry_equiv_pos_site_id
 _symmetry_equiv_pos_as_xyz
  1  'x, y, z'
loop_
 _atom_site_type_symbol
 _atom_site_label
 _atom_site_symmetry_multiplicity
 _atom_site_fract_x
 _atom_site_fract_y
 _atom_site_fract_z
 _atom_site_occupancy
  Mg  Mg0  1  0.66666700  0.33333300  0.75000000  1
  Ga  Ga1  1  0.33333300  0.66666700  0.53885454  1
  Ga  Ga2  1  0.66666700  0.33333300  0.09708381  1
  Ga  Ga3  1  0.66666700  0.33333300  0.40291619  1
  Ga  Ga4  1  0.33333300  0.66666700  0.96114546  1
  P  P5  1  0.97297150  0.35893292  0.75000000  1
  P  P6  1  0.64007026  0.89970999  0.25000000  1
  P  P7  1  0.25963873  0.35992974  0.25000000  1
  P  P8  1  0.64106708  0.61403759  0.75000000  1
  P  P9  1  0.38596241  0.02702850  0.75000000  1
  P  P10  1  0.10029001  0.74036127  0.25000000  1
  H  H11  1  0.77290672  0.79443943  0.75000000  1
  H  H12  1  0.07734185  0.89012607  0.25000000  1
  H  H13  1  0.81278422  0.92265815  0.25000000  1
  H  H14  1  0.20556057  0.97846730  0.75000000  1
  H  H15  1  0.02153270  0.22709328  0.75000000  1
  H  H16  1  0.10987393  0.18721578  0.25000000  1
  O  O17  1  0.14195572  0.54426258  0.75000000  1
  O  O18  1  0.65239471  0.08148368  0.25000000  1
  O  O19  1  0.42908897  0.34760529  0.25000000  1
  O  O20  1  0.45573742  0.59769314  0.75000000  1
  O  O21  1  0.20784620  0.76586838  0.07603001  1
  O  O22  1  0.47763493  0.14770560  0.58549698  1
  O  O23  1  0.67007066  0.52236507  0.58549698  1
  O  O24  1  0.23413162  0.44197782  0.07603001  1
  O  O25  1  0.55802218  0.79215380  0.07603001  1
  O  O26  1  0.85229440  0.32992934  0.58549698  1
  O  O27  1  0.85229440  0.32992934  0.91450302  1
  O  O28  1  0.55802218  0.79215380  0.42396999  1
  O  O29  1  0.23413162  0.44197782  0.42396999  1
  O  O30  1  0.67007066  0.52236507  0.91450302  1
  O  O31  1  0.47763493  0.14770560  0.91450302  1
  O  O32  1  0.20784620  0.76586838  0.42396999  1
  O  O33  1  0.91851632  0.57091103  0.25000000  1
  O  O34  1  0.40230686  0.85804428  0.75000000  1
