# generated using pymatgen
data_YMg30NiO32
_symmetry_space_group_name_H-M   'P 1'
_cell_length_a   8.59494776
_cell_length_b   8.59494776
_cell_length_c   8.55948099
_cell_angle_alpha   90.00000000
_cell_angle_beta   90.00000000
_cell_angle_gamma   90.00000000
_symmetry_Int_Tables_number   1
_chemical_formula_structural   YMg30NiO32
_chemical_formula_sum   'Y1 Mg30 Ni1 O32'
_cell_volume   632.31562620
_cell_formula_units_Z   1
loop_
 _symmetry_equiv_pos_site_id
 _symmetry_equiv_pos_as_xyz
  1  'x, y, z'
loop_
 _atom_site_type_symbol
 _atom_site_label
 _atom_site_symmetry_multiplicity
 _atom_site_fract_x
 _atom_site_fract_y
 _atom_site_fract_z
 _atom_site_occupancy
  Y  Y0  1  0.00000000  0.00000000  0.00000000  1
  Mg  Mg1  1  0.00000000  0.50000000  0.00000000  1
  Mg  Mg2  1  0.00000000  0.50000000  0.50000000  1
  Mg  Mg3  1  0.50000000  0.00000000  0.00000000  1
  Mg  Mg4  1  0.50000000  0.00000000  0.50000000  1
  Mg  Mg5  1  0.50000000  0.50000000  0.00000000  1
  Mg  Mg6  1  0.50000000  0.50000000  0.50000000  1
  Mg  Mg7  1  0.00000000  0.25431447  0.25993064  1
  Mg  Mg8  1  0.00000000  0.25431447  0.74006936  1
  Mg  Mg9  1  0.00000000  0.74568553  0.25993064  1
  Mg  Mg10  1  0.00000000  0.74568553  0.74006936  1
  Mg  Mg11  1  0.50000000  0.25024082  0.25206239  1
  Mg  Mg12  1  0.50000000  0.25024082  0.74793761  1
  Mg  Mg13  1  0.50000000  0.74975918  0.25206239  1
  Mg  Mg14  1  0.50000000  0.74975918  0.74793761  1
  Mg  Mg15  1  0.25431447  0.00000000  0.25993064  1
  Mg  Mg16  1  0.25431447  0.00000000  0.74006936  1
  Mg  Mg17  1  0.25024082  0.50000000  0.25206239  1
  Mg  Mg18  1  0.25024082  0.50000000  0.74793761  1
  Mg  Mg19  1  0.74568553  0.00000000  0.25993064  1
  Mg  Mg20  1  0.74568553  0.00000000  0.74006936  1
  Mg  Mg21  1  0.74975918  0.50000000  0.25206239  1
  Mg  Mg22  1  0.74975918  0.50000000  0.74793761  1
  Mg  Mg23  1  0.25593048  0.25593048  0.00000000  1
  Mg  Mg24  1  0.24809328  0.24809328  0.50000000  1
  Mg  Mg25  1  0.25593048  0.74406952  0.00000000  1
  Mg  Mg26  1  0.24809328  0.75190672  0.50000000  1
  Mg  Mg27  1  0.74406952  0.25593048  0.00000000  1
  Mg  Mg28  1  0.75190672  0.24809328  0.50000000  1
  Mg  Mg29  1  0.74406952  0.74406952  0.00000000  1
  Mg  Mg30  1  0.75190672  0.75190672  0.50000000  1
  Ni  Ni31  1  0.00000000  0.00000000  0.50000000  1
  O  O32  1  0.25925909  0.00000000  0.00000000  1
  O  O33  1  0.26697686  0.00000000  0.50000000  1
  O  O34  1  0.25183720  0.50000000  0.00000000  1
  O  O35  1  0.25256976  0.50000000  0.50000000  1
  O  O36  1  0.74074091  0.00000000  0.00000000  1
  O  O37  1  0.73302314  0.00000000  0.50000000  1
  O  O38  1  0.74816280  0.50000000  0.00000000  1
  O  O39  1  0.74743024  0.50000000  0.50000000  1
  O  O40  1  0.24925719  0.24925719  0.24917256  1
  O  O41  1  0.24925719  0.24925719  0.75082744  1
  O  O42  1  0.24925719  0.75074281  0.24917256  1
  O  O43  1  0.24925719  0.75074281  0.75082744  1
  O  O44  1  0.75074281  0.24925719  0.24917256  1
  O  O45  1  0.75074281  0.24925719  0.75082744  1
  O  O46  1  0.75074281  0.75074281  0.24917256  1
  O  O47  1  0.75074281  0.75074281  0.75082744  1
  O  O48  1  0.00000000  0.00000000  0.25553984  1
  O  O49  1  0.00000000  0.00000000  0.74446016  1
  O  O50  1  0.00000000  0.50000000  0.24817249  1
  O  O51  1  0.00000000  0.50000000  0.75182751  1
  O  O52  1  0.50000000  0.00000000  0.24817249  1
  O  O53  1  0.50000000  0.00000000  0.75182751  1
  O  O54  1  0.50000000  0.50000000  0.24901470  1
  O  O55  1  0.50000000  0.50000000  0.75098530  1
  O  O56  1  0.00000000  0.25925909  0.00000000  1
  O  O57  1  0.00000000  0.26697686  0.50000000  1
  O  O58  1  0.00000000  0.74074091  0.00000000  1
  O  O59  1  0.00000000  0.73302314  0.50000000  1
  O  O60  1  0.50000000  0.25183720  0.00000000  1
  O  O61  1  0.50000000  0.25256976  0.50000000  1
  O  O62  1  0.50000000  0.74816280  0.00000000  1
  O  O63  1  0.50000000  0.74743024  0.50000000  1
