# generated using pymatgen
data_Cs2Ni3Se4
_symmetry_space_group_name_H-M   'P 1'
_cell_length_a   6.13681511
_cell_length_b   6.13681549
_cell_length_c   7.99306266
_cell_angle_alpha   101.32411201
_cell_angle_beta   101.32411109
_cell_angle_gamma   119.24163707
_symmetry_Int_Tables_number   1
_chemical_formula_structural   Cs2Ni3Se4
_chemical_formula_sum   'Cs2 Ni3 Se4'
_cell_volume   242.05498993
_cell_formula_units_Z   1
loop_
 _symmetry_equiv_pos_site_id
 _symmetry_equiv_pos_as_xyz
  1  'x, y, z'
loop_
 _atom_site_type_symbol
 _atom_site_label
 _atom_site_symmetry_multiplicity
 _atom_site_fract_x
 _atom_site_fract_y
 _atom_site_fract_z
 _atom_site_occupancy
  Cs  Cs0  1  0.34117374  0.34117374  0.68234849  1
  Cs  Cs1  1  0.65882626  0.65882626  0.31765151  1
  Ni  Ni2  1  -0.00000000  0.50000000  -0.00000000  1
  Ni  Ni3  1  -0.00000000  -0.00000000  -0.00000000  1
  Ni  Ni4  1  0.50000000  -0.00000000  -0.00000000  1
  Se  Se5  1  0.26992528  0.93508650  0.20501178  1
  Se  Se6  1  0.73007472  0.06491350  0.79498822  1
  Se  Se7  1  0.06491350  0.73007472  0.79498822  1
  Se  Se8  1  0.93508650  0.26992528  0.20501178  1
