# generated using pymatgen
data_MgFe4(PO4)4
_symmetry_space_group_name_H-M   'P 1'
_cell_length_a   8.60349670
_cell_length_b   9.50201275
_cell_length_c   5.28253783
_cell_angle_alpha   89.69358140
_cell_angle_beta   106.73946252
_cell_angle_gamma   92.60490695
_symmetry_Int_Tables_number   1
_chemical_formula_structural   MgFe4(PO4)4
_chemical_formula_sum   'Mg1 Fe4 P4 O16'
_cell_volume   413.10949846
_cell_formula_units_Z   1
loop_
 _symmetry_equiv_pos_site_id
 _symmetry_equiv_pos_as_xyz
  1  'x, y, z'
loop_
 _atom_site_type_symbol
 _atom_site_label
 _atom_site_symmetry_multiplicity
 _atom_site_fract_x
 _atom_site_fract_y
 _atom_site_fract_z
 _atom_site_occupancy
  Mg  Mg0  1  0.00912300  0.89206800  0.64544000  1
  Fe  Fe1  1  0.20412900  0.45783800  0.42793800  1
  Fe  Fe2  1  0.34317900  0.97744000  0.04820700  1
  Fe  Fe3  1  0.70616200  0.01775200  0.97916700  1
  Fe  Fe4  1  0.80282500  0.52079900  0.53835300  1
  P  P5  1  0.17184100  0.65067500  0.86593700  1
  P  P6  1  0.29698300  0.12589100  0.58869300  1
  P  P7  1  0.70355400  0.83828400  0.41401900  1
  P  P8  1  0.80317300  0.35902700  0.12202900  1
  O  O9  1  0.99205500  0.66166300  0.67958200  1
  O  O10  1  0.16161400  0.06471600  0.71076600  1
  O  O11  1  0.20526800  0.81590100  0.92994000  1
  O  O12  1  0.27064200  0.05684100  0.31476600  1
  O  O13  1  0.28667500  0.60368100  0.71606300  1
  O  O14  1  0.17881700  0.57244800  0.11560200  1
  O  O15  1  0.30800800  0.28368100  0.57791600  1
  O  O16  1  0.45268600  0.06665500  0.79543400  1
  O  O17  1  0.55745700  0.91719600  0.23345200  1
  O  O18  1  0.66009700  0.68235800  0.43731000  1
  O  O19  1  0.79598100  0.42988200  0.85494800  1
  O  O20  1  0.66495100  0.40491600  0.23519500  1
  O  O21  1  0.77410500  0.91151000  0.69143000  1
  O  O22  1  0.81209100  0.19969400  0.09487300  1
  O  O23  1  0.84292600  0.86915300  0.28168100  1
  O  O24  1  0.95399100  0.41992800  0.35125800  1
