# generated using pymatgen
data_Pm2Se3
_symmetry_space_group_name_H-M   'P 1'
_cell_length_a   14.70586310
_cell_length_b   14.70586310
_cell_length_c   14.70586310
_cell_angle_alpha   144.86627394
_cell_angle_beta   144.86627394
_cell_angle_gamma   50.53385136
_symmetry_Int_Tables_number   1
_chemical_formula_structural   Pm2Se3
_chemical_formula_sum   'Pm16 Se24'
_cell_volume   1047.97264106
_cell_formula_units_Z   8
loop_
 _symmetry_equiv_pos_site_id
 _symmetry_equiv_pos_as_xyz
  1  'x, y, z'
loop_
 _atom_site_type_symbol
 _atom_site_label
 _atom_site_symmetry_multiplicity
 _atom_site_fract_x
 _atom_site_fract_y
 _atom_site_fract_z
 _atom_site_occupancy
  Pm  Pm0  1  0.84596451  0.95194227  0.37671610  1
  Pm  Pm1  1  0.57522617  0.46924841  0.62328390  1
  Pm  Pm2  1  0.16623175  0.16623175  0.00000000  1
  Pm  Pm3  1  0.87500000  0.50624714  0.13124714  1
  Pm  Pm4  1  0.17477383  0.29805773  0.39402124  1
  Pm  Pm5  1  0.58376825  0.08376825  0.50000000  1
  Pm  Pm6  1  0.90403549  0.78075159  0.60597876  1
  Pm  Pm7  1  0.37500000  0.74375286  0.86875286  1
  Pm  Pm8  1  0.21924841  0.82522617  0.12328390  1
  Pm  Pm9  1  0.91623175  0.41623175  0.50000000  1
  Pm  Pm10  1  0.49375286  0.62500000  0.36875286  1
  Pm  Pm11  1  0.25624714  0.12500000  0.63124714  1
  Pm  Pm12  1  0.70194227  0.09596451  0.87671610  1
  Pm  Pm13  1  0.83376825  0.83376825  0.00000000  1
  Pm  Pm14  1  0.53075159  0.15403549  0.10597876  1
  Pm  Pm15  1  0.04805773  0.42477383  0.89402124  1
  Se  Se16  1  0.50651518  0.11431786  0.25348123  1
  Se  Se17  1  0.07359378  0.82707739  0.61000955  1
  Se  Se18  1  0.86083662  0.25303394  0.74651877  1
  Se  Se19  1  0.88916338  0.13568214  0.89219732  1
  Se  Se20  1  0.24348482  0.99696606  0.10780268  1
  Se  Se21  1  0.67640622  0.78641577  0.25348261  1
  Se  Se22  1  0.21706684  0.46358423  0.38999045  1
  Se  Se23  1  0.84235085  0.43736722  0.24639304  1
  Se  Se24  1  0.53293316  0.42292261  0.74651739  1
  Se  Se25  1  0.40404218  0.15764915  0.59501637  1
  Se  Se26  1  0.19097418  0.59595782  0.75360696  1
  Se  Se27  1  0.21358423  0.46706684  0.88999045  1
  Se  Se28  1  0.57707739  0.32359378  0.11000955  1
  Se  Se29  1  0.00303394  0.11083662  0.24651877  1
  Se  Se30  1  0.56263278  0.80902582  0.40498363  1
  Se  Se31  1  0.17292261  0.78293316  0.24651739  1
  Se  Se32  1  0.86431786  0.75651518  0.75348123  1
  Se  Se33  1  0.74696606  0.49348482  0.60780268  1
  Se  Se34  1  0.53641577  0.92640622  0.75348261  1
  Se  Se35  1  0.55902582  0.81263278  0.90498363  1
  Se  Se36  1  0.90764915  0.65404218  0.09501637  1
  Se  Se37  1  0.34595782  0.44097418  0.25360696  1
  Se  Se38  1  0.88568214  0.13916338  0.39219732  1
  Se  Se39  1  0.18736722  0.09235085  0.74639304  1
