# generated using pymatgen
data_Mn2Sb3I3O5
_symmetry_space_group_name_H-M   'P 1'
_cell_length_a   6.42278719
_cell_length_b   9.89844813
_cell_length_c   10.35689578
_cell_angle_alpha   97.46921920
_cell_angle_beta   106.39057176
_cell_angle_gamma   91.95909171
_symmetry_Int_Tables_number   1
_chemical_formula_structural   Mn2Sb3I3O5
_chemical_formula_sum   'Mn4 Sb6 I6 O10'
_cell_volume   624.58653466
_cell_formula_units_Z   2
loop_
 _symmetry_equiv_pos_site_id
 _symmetry_equiv_pos_as_xyz
  1  'x, y, z'
loop_
 _atom_site_type_symbol
 _atom_site_label
 _atom_site_symmetry_multiplicity
 _atom_site_fract_x
 _atom_site_fract_y
 _atom_site_fract_z
 _atom_site_occupancy
  Mn  Mn0  1  0.71692480  0.41883006  0.99648607  1
  Mn  Mn1  1  0.25735504  0.29528320  0.73833248  1
  Mn  Mn2  1  0.28280871  0.58114627  0.00349720  1
  Mn  Mn3  1  0.74253406  0.70459787  0.26166393  1
  Sb  Sb4  1  0.21790881  0.85292220  0.21573603  1
  Sb  Sb5  1  0.78196608  0.14707081  0.78431866  1
  Sb  Sb6  1  0.23260908  0.27510525  0.08164966  1
  Sb  Sb7  1  0.76722837  0.72489054  0.91831194  1
  Sb  Sb8  1  0.28059129  0.56759150  0.33198557  1
  Sb  Sb9  1  0.71929038  0.43242304  0.66805911  1
  I  I10  1  0.74596574  0.41210515  0.29562981  1
  I  I11  1  0.25476995  0.58769609  0.70412927  1
  I  I12  1  0.75574757  0.97614399  0.17397978  1
  I  I13  1  0.24335005  0.02387929  0.82580183  1
  I  I14  1  0.68851952  0.79364729  0.53390992  1
  I  I15  1  0.31275107  0.20641445  0.46626328  1
  O  O16  1  0.14554599  0.46225636  0.14279646  1
  O  O17  1  0.85469056  0.53785362  0.85722225  1
  O  O18  1  0.34924608  0.37448920  0.95901615  1
  O  O19  1  0.65052196  0.62547250  0.04094775  1
  O  O20  1  0.40887218  0.68606122  0.21960262  1
  O  O21  1  0.59105034  0.31406117  0.78054032  1
  O  O22  1  0.08447929  0.74887756  0.02901674  1
  O  O23  1  0.91537992  0.25119828  0.97103366  1
  O  O24  1  0.07333268  0.72002232  0.30213944  1
  O  O25  1  0.92655846  0.27996178  0.69793106  1
