# generated using pymatgen
data_RbY(MoO4)2
_symmetry_space_group_name_H-M   'P 1'
_cell_length_a   5.07975688
_cell_length_b   8.01402345
_cell_length_c   19.05487415
_cell_angle_alpha   90.00000000
_cell_angle_beta   90.00000000
_cell_angle_gamma   90.00000000
_symmetry_Int_Tables_number   1
_chemical_formula_structural   RbY(MoO4)2
_chemical_formula_sum   'Rb4 Y4 Mo8 O32'
_cell_volume   775.71041210
_cell_formula_units_Z   4
loop_
 _symmetry_equiv_pos_site_id
 _symmetry_equiv_pos_as_xyz
  1  'x, y, z'
loop_
 _atom_site_type_symbol
 _atom_site_label
 _atom_site_symmetry_multiplicity
 _atom_site_fract_x
 _atom_site_fract_y
 _atom_site_fract_z
 _atom_site_occupancy
  Rb  Rb0  1  0.00000000  0.75000000  0.77170542  1
  Rb  Rb1  1  0.00000000  0.25000000  0.22829458  1
  Rb  Rb2  1  0.50000000  0.25000000  0.72829458  1
  Rb  Rb3  1  0.50000000  0.75000000  0.27170542  1
  Y  Y4  1  0.00000000  0.75000000  0.00566544  1
  Y  Y5  1  0.00000000  0.25000000  0.99433456  1
  Y  Y6  1  0.50000000  0.25000000  0.49433456  1
  Y  Y7  1  0.50000000  0.75000000  0.50566544  1
  Mo  Mo8  1  0.02259130  0.51429176  0.40255838  1
  Mo  Mo9  1  0.97740870  0.48570824  0.59744162  1
  Mo  Mo10  1  0.47740870  0.01429176  0.09744162  1
  Mo  Mo11  1  0.97740870  0.98570824  0.40255838  1
  Mo  Mo12  1  0.52259130  0.98570824  0.90255838  1
  Mo  Mo13  1  0.02259130  0.01429176  0.59744162  1
  Mo  Mo14  1  0.52259130  0.48570824  0.09744162  1
  Mo  Mo15  1  0.47740870  0.51429176  0.90255838  1
  O  O16  1  0.09707600  0.97671425  0.31814208  1
  O  O17  1  0.90292400  0.02328575  0.68185792  1
  O  O18  1  0.40292400  0.47671425  0.18185792  1
  O  O19  1  0.90292400  0.52328575  0.31814208  1
  O  O20  1  0.59707600  0.52328575  0.81814208  1
  O  O21  1  0.09707600  0.47671425  0.68185792  1
  O  O22  1  0.59707600  0.02328575  0.18185792  1
  O  O23  1  0.40292400  0.97671425  0.81814208  1
  O  O24  1  0.26947814  0.83782870  0.09498565  1
  O  O25  1  0.73052186  0.16217130  0.90501435  1
  O  O26  1  0.23052186  0.33782870  0.40501435  1
  O  O27  1  0.73052186  0.66217130  0.09498565  1
  O  O28  1  0.76947814  0.66217130  0.59498565  1
  O  O29  1  0.26947814  0.33782870  0.90501435  1
  O  O30  1  0.76947814  0.16217130  0.40501435  1
  O  O31  1  0.23052186  0.83782870  0.59498565  1
  O  O32  1  0.24936480  0.50387812  0.03463401  1
  O  O33  1  0.75063520  0.49612188  0.96536599  1
  O  O34  1  0.25063520  0.00387812  0.46536599  1
  O  O35  1  0.75063520  0.99612188  0.03463401  1
  O  O36  1  0.74936480  0.99612188  0.53463401  1
  O  O37  1  0.24936480  0.00387812  0.96536599  1
  O  O38  1  0.74936480  0.49612188  0.46536599  1
  O  O39  1  0.25063520  0.50387812  0.53463401  1
  O  O40  1  0.24066212  0.68763115  0.41184958  1
  O  O41  1  0.75933788  0.31236885  0.58815042  1
  O  O42  1  0.25933788  0.18763115  0.08815042  1
  O  O43  1  0.75933788  0.81236885  0.41184958  1
  O  O44  1  0.74066212  0.81236885  0.91184958  1
  O  O45  1  0.24066212  0.18763115  0.58815042  1
  O  O46  1  0.74066212  0.31236885  0.08815042  1
  O  O47  1  0.25933788  0.68763115  0.91184958  1
