# generated using pymatgen
data_Ba6MgSc2C2(O3F7)2
_symmetry_space_group_name_H-M   'P 1'
_cell_length_a   6.12561732
_cell_length_b   8.89152595
_cell_length_c   9.99134860
_cell_angle_alpha   95.58471021
_cell_angle_beta   90.00000000
_cell_angle_gamma   90.00000000
_symmetry_Int_Tables_number   1
_chemical_formula_structural   Ba6MgSc2C2(O3F7)2
_chemical_formula_sum   'Ba6 Mg1 Sc2 C2 O6 F14'
_cell_volume   541.60659834
_cell_formula_units_Z   1
loop_
 _symmetry_equiv_pos_site_id
 _symmetry_equiv_pos_as_xyz
  1  'x, y, z'
loop_
 _atom_site_type_symbol
 _atom_site_label
 _atom_site_symmetry_multiplicity
 _atom_site_fract_x
 _atom_site_fract_y
 _atom_site_fract_z
 _atom_site_occupancy
  Ba  Ba0  1  0.25000000  0.81610997  0.59729023  1
  Ba  Ba1  1  0.75000000  0.57597730  0.87275059  1
  Ba  Ba2  1  0.25000000  0.40895893  0.19929537  1
  Ba  Ba3  1  0.75000000  0.03966272  0.81775879  1
  Ba  Ba4  1  0.25000000  0.89286485  0.09362864  1
  Ba  Ba5  1  0.75000000  0.22227891  0.46840515  1
  Mg  Mg6  1  0.75000000  0.15816583  0.13179824  1
  Sc  Sc7  1  0.25000000  0.24892589  0.71721537  1
  Sc  Sc8  1  0.75000000  0.74222083  0.26903226  1
  C  C9  1  0.25000000  0.45973117  0.54175471  1
  C  C10  1  0.75000000  0.58759344  0.48416946  1
  O  O11  1  0.25000000  0.54823465  0.44706967  1
  O  O12  1  0.75000000  0.73417398  0.49978217  1
  O  O13  1  0.25000000  0.50883688  0.66743023  1
  O  O14  1  0.25000000  0.31184802  0.51132964  1
  O  O15  1  0.75000000  0.50579277  0.58226856  1
  O  O16  1  0.75000000  0.52504781  0.35742617  1
  F  F17  1  0.50087168  0.17480193  0.25498672  1
  F  F18  1  0.25000000  0.09936299  0.86250228  1
  F  F19  1  0.75000000  0.91424117  0.11873941  1
  F  F20  1  0.49389318  0.80736829  0.83689673  1
  F  F21  1  0.47663707  0.08132398  0.61995229  1
  F  F22  1  0.51599186  0.63731066  0.12046791  1
  F  F23  1  0.97637283  0.32745176  0.80249429  1
  F  F24  1  0.52362717  0.32745176  0.80249429  1
  F  F25  1  0.02336293  0.08132398  0.61995229  1
  F  F26  1  0.01802582  0.85744382  0.32752159  1
  F  F27  1  0.00610682  0.80736829  0.83689673  1
  F  F28  1  0.99912832  0.17480193  0.25498672  1
  F  F29  1  0.98400814  0.63731066  0.12046791  1
  F  F30  1  0.48197418  0.85744382  0.32752159  1
