# generated using pymatgen
data_Tb4Te3N2
_symmetry_space_group_name_H-M   'P 1'
_cell_length_a   7.31724535
_cell_length_b   11.05867908
_cell_length_c   11.67184055
_cell_angle_alpha   90.00000000
_cell_angle_beta   90.00000000
_cell_angle_gamma   90.00000000
_symmetry_Int_Tables_number   1
_chemical_formula_structural   Tb4Te3N2
_chemical_formula_sum   'Tb16 Te12 N8'
_cell_volume   944.47446003
_cell_formula_units_Z   4
loop_
 _symmetry_equiv_pos_site_id
 _symmetry_equiv_pos_as_xyz
  1  'x, y, z'
loop_
 _atom_site_type_symbol
 _atom_site_label
 _atom_site_symmetry_multiplicity
 _atom_site_fract_x
 _atom_site_fract_y
 _atom_site_fract_z
 _atom_site_occupancy
  Tb  Tb0  1  0.16417703  0.38250583  0.65312536  1
  Tb  Tb1  1  0.33582297  0.38250583  0.34687464  1
  Tb  Tb2  1  0.16417703  0.11749417  0.84687464  1
  Tb  Tb3  1  0.33582297  0.11749417  0.15312536  1
  Tb  Tb4  1  0.83582297  0.61749417  0.34687464  1
  Tb  Tb5  1  0.66417703  0.61749417  0.65312536  1
  Tb  Tb6  1  0.83582297  0.88250583  0.15312536  1
  Tb  Tb7  1  0.66417703  0.88250583  0.84687464  1
  Tb  Tb8  1  0.47468816  0.32285856  0.90856940  1
  Tb  Tb9  1  0.02531184  0.32285856  0.09143060  1
  Tb  Tb10  1  0.47468816  0.17714144  0.59143060  1
  Tb  Tb11  1  0.02531184  0.17714144  0.40856940  1
  Tb  Tb12  1  0.52531184  0.67714144  0.09143060  1
  Tb  Tb13  1  0.97468816  0.67714144  0.90856940  1
  Tb  Tb14  1  0.52531184  0.82285856  0.40856940  1
  Tb  Tb15  1  0.97468816  0.82285856  0.59143060  1
  Te  Te16  1  0.25000000  0.89074849  -0.00000000  1
  Te  Te17  1  0.25000000  0.60925151  0.50000000  1
  Te  Te18  1  0.75000000  0.10925151  -0.00000000  1
  Te  Te19  1  0.75000000  0.39074849  0.50000000  1
  Te  Te20  1  0.36888219  0.58141231  0.83803411  1
  Te  Te21  1  0.13111781  0.58141231  0.16196589  1
  Te  Te22  1  0.36888219  0.91858769  0.66196589  1
  Te  Te23  1  0.13111781  0.91858769  0.33803411  1
  Te  Te24  1  0.63111781  0.41858769  0.16196589  1
  Te  Te25  1  0.86888219  0.41858769  0.83803411  1
  Te  Te26  1  0.63111781  0.08141231  0.33803411  1
  Te  Te27  1  0.86888219  0.08141231  0.66196589  1
  N  N28  1  0.25000000  0.22546438  -0.00000000  1
  N  N29  1  0.25000000  0.27453562  0.50000000  1
  N  N30  1  0.75000000  0.77453562  -0.00000000  1
  N  N31  1  0.75000000  0.72546438  0.50000000  1
  N  N32  1  0.34221638  0.25000000  0.75000000  1
  N  N33  1  0.15778362  0.25000000  0.25000000  1
  N  N34  1  0.65778362  0.75000000  0.25000000  1
  N  N35  1  0.84221638  0.75000000  0.75000000  1
