# generated using pymatgen
data_Sr2V3O9
_symmetry_space_group_name_H-M   'P 1'
_cell_length_a   8.97241156
_cell_length_b   8.97241156
_cell_length_c   6.96405567
_cell_angle_alpha   77.86269138
_cell_angle_beta   77.86269138
_cell_angle_gamma   130.12036420
_symmetry_Int_Tables_number   1
_chemical_formula_structural   Sr2V3O9
_chemical_formula_sum   'Sr4 V6 O18'
_cell_volume   371.61554123
_cell_formula_units_Z   2
loop_
 _symmetry_equiv_pos_site_id
 _symmetry_equiv_pos_as_xyz
  1  'x, y, z'
loop_
 _atom_site_type_symbol
 _atom_site_label
 _atom_site_symmetry_multiplicity
 _atom_site_fract_x
 _atom_site_fract_y
 _atom_site_fract_z
 _atom_site_occupancy
  Sr  Sr0  1  0.87288469  0.12375855  0.24984472  1
  Sr  Sr1  1  0.12375855  0.87288469  0.74984472  1
  Sr  Sr2  1  0.45364853  0.55080790  0.24715499  1
  Sr  Sr3  1  0.55080790  0.45364853  0.74715499  1
  V  V4  1  0.07987857  0.92161966  0.24886989  1
  V  V5  1  0.92161966  0.07987857  0.74886989  1
  V  V6  1  0.65975641  0.33979645  0.25066550  1
  V  V7  1  0.33979645  0.65975641  0.75066550  1
  V  V8  1  0.03644181  0.52677151  0.46841710  1
  V  V9  1  0.52677151  0.03644181  0.96841710  1
  O  O10  1  0.18264731  0.14507512  0.28109598  1
  O  O11  1  0.85490914  0.81824373  0.21904056  1
  O  O12  1  0.81824373  0.85490914  0.71904056  1
  O  O13  1  0.14507512  0.18264731  0.78109598  1
  O  O14  1  0.48285924  0.28618631  0.47781942  1
  O  O15  1  0.71102902  0.51675901  0.02565796  1
  O  O16  1  0.51675901  0.71102902  0.52565796  1
  O  O17  1  0.28618631  0.48285924  0.97781942  1
  O  O18  1  0.89374222  0.44347911  0.27639515  1
  O  O19  1  0.55623829  0.10812075  0.22020324  1
  O  O20  1  0.10812075  0.55623829  0.72020324  1
  O  O21  1  0.44347911  0.89374222  0.77639515  1
  O  O22  1  0.28836272  0.71467498  0.25509020  1
  O  O23  1  0.71467498  0.28836272  0.75509020  1
  O  O24  1  0.99846103  0.71839030  0.48702902  1
  O  O25  1  0.28124622  0.00326841  0.00881528  1
  O  O26  1  0.00326841  0.28124622  0.50881528  1
  O  O27  1  0.71839030  0.99846103  0.98702902  1
