# generated using pymatgen
data_Sb2H12Pd(CCl)4
_symmetry_space_group_name_H-M   'P 1'
_cell_length_a   10.20566858
_cell_length_b   10.45607756
_cell_length_c   14.00170460
_cell_angle_alpha   90.00000000
_cell_angle_beta   105.42488136
_cell_angle_gamma   90.00000000
_symmetry_Int_Tables_number   1
_chemical_formula_structural   Sb2H12Pd(CCl)4
_chemical_formula_sum   'Sb8 H48 Pd4 C16 Cl16'
_cell_volume   1440.32065255
_cell_formula_units_Z   4
loop_
 _symmetry_equiv_pos_site_id
 _symmetry_equiv_pos_as_xyz
  1  'x, y, z'
loop_
 _atom_site_type_symbol
 _atom_site_label
 _atom_site_symmetry_multiplicity
 _atom_site_fract_x
 _atom_site_fract_y
 _atom_site_fract_z
 _atom_site_occupancy
  Sb  Sb0  1  0.20218447  0.42843929  0.39354845  1
  Sb  Sb1  1  0.79781553  0.92843929  0.10645155  1
  Sb  Sb2  1  0.79781553  0.57156071  0.60645155  1
  Sb  Sb3  1  0.20218447  0.07156071  0.89354845  1
  Sb  Sb4  1  0.35579845  0.75055124  0.38692754  1
  Sb  Sb5  1  0.64420155  0.25055124  0.11307246  1
  Sb  Sb6  1  0.64420155  0.24944876  0.61307246  1
  Sb  Sb7  1  0.35579845  0.74944876  0.88692754  1
  H  H8  1  0.02822223  0.27125563  0.44999924  1
  H  H9  1  0.97177777  0.77125563  0.05000076  1
  H  H10  1  0.97177777  0.72874437  0.55000076  1
  H  H11  1  0.02822223  0.22874437  0.94999924  1
  H  H12  1  0.13433464  0.17956560  0.38979275  1
  H  H13  1  0.86566536  0.67956560  0.11020725  1
  H  H14  1  0.86566536  0.82043440  0.61020725  1
  H  H15  1  0.13433464  0.32043440  0.88979275  1
  H  H16  1  0.19912326  0.23127726  0.51722438  1
  H  H17  1  0.80087674  0.73127726  0.98277562  1
  H  H18  1  0.80087674  0.76872274  0.48277562  1
  H  H19  1  0.19912326  0.26872274  0.01722438  1
  H  H20  1  0.19619300  0.30035957  0.22529455  1
  H  H21  1  0.80380700  0.80035957  0.27470545  1
  H  H22  1  0.80380700  0.69964043  0.77470545  1
  H  H23  1  0.19619300  0.19964043  0.72529455  1
  H  H24  1  0.07195898  0.42785862  0.19920964  1
  H  H25  1  0.92804102  0.92785862  0.30079036  1
  H  H26  1  0.92804102  0.57214138  0.80079036  1
  H  H27  1  0.07195898  0.07214138  0.69920964  1
  H  H28  1  0.24984461  0.46224478  0.21398825  1
  H  H29  1  0.75015539  0.96224478  0.28601175  1
  H  H30  1  0.75015539  0.53775522  0.78601175  1
  H  H31  1  0.24984461  0.03775522  0.71398825  1
  H  H32  1  0.30191299  0.69252984  0.19173081  1
  H  H33  1  0.69808701  0.19252984  0.30826919  1
  H  H34  1  0.69808701  0.30747016  0.80826919  1
  H  H35  1  0.30191299  0.80747016  0.69173081  1
  H  H36  1  0.14646833  0.69381799  0.23117168  1
  H  H37  1  0.85353167  0.19381799  0.26882832  1
  H  H38  1  0.85353167  0.30618201  0.76882832  1
  H  H39  1  0.14646833  0.80618201  0.73117168  1
  H  H40  1  0.22330520  0.84240019  0.20870365  1
  H  H41  1  0.77669480  0.34240019  0.29129635  1
  H  H42  1  0.77669480  0.15759981  0.79129635  1
  H  H43  1  0.22330520  0.65759981  0.70870365  1
  H  H44  1  0.58070221  0.89256658  0.45796175  1
  H  H45  1  0.41929779  0.39256658  0.04203825  1
  H  H46  1  0.41929779  0.10743342  0.54203825  1
  H  H47  1  0.58070221  0.60743342  0.95796175  1
  H  H48  1  0.54151992  0.87846983  0.32382713  1
  H  H49  1  0.45848008  0.37846983  0.17617287  1
  H  H50  1  0.45848008  0.12153017  0.67617287  1
  H  H51  1  0.54151992  0.62153017  0.82382713  1
  H  H52  1  0.44752682  0.98881386  0.37924362  1
  H  H53  1  0.55247318  0.48881386  0.12075638  1
  H  H54  1  0.55247318  0.01118614  0.62075638  1
  H  H55  1  0.44752682  0.51118614  0.87924362  1
  Pd  Pd56  1  0.37852617  0.56910485  0.51047384  1
  Pd  Pd57  1  0.62147383  0.06910485  0.98952616  1
  Pd  Pd58  1  0.62147383  0.43089515  0.48952616  1
  Pd  Pd59  1  0.37852617  0.93089515  0.01047384  1
  C  C60  1  0.13182927  0.25400837  0.44452404  1
  C  C61  1  0.86817073  0.75400837  0.05547596  1
  C  C62  1  0.86817073  0.74599163  0.55547596  1
  C  C63  1  0.13182927  0.24599163  0.94452404  1
  C  C64  1  0.17654008  0.40150678  0.23710239  1
  C  C65  1  0.82345992  0.90150678  0.26289761  1
  C  C66  1  0.82345992  0.59849322  0.76289761  1
  C  C67  1  0.17654008  0.09849322  0.73710239  1
  C  C68  1  0.24197180  0.74311930  0.23415787  1
  C  C69  1  0.75802820  0.24311930  0.26584213  1
  C  C70  1  0.75802820  0.25688070  0.76584213  1
  C  C71  1  0.24197180  0.75688070  0.73415787  1
  C  C72  1  0.50203968  0.89733385  0.38795949  1
  C  C73  1  0.49796032  0.39733385  0.11204051  1
  C  C74  1  0.49796032  0.10266615  0.61204051  1
  C  C75  1  0.50203968  0.60266615  0.88795949  1
  Cl  Cl76  1  0.98976584  0.54567643  0.36648563  1
  Cl  Cl77  1  0.01023416  0.04567643  0.13351437  1
  Cl  Cl78  1  0.01023416  0.45432357  0.63351437  1
  Cl  Cl79  1  0.98976584  0.95432357  0.86648563  1
  Cl  Cl80  1  0.19776615  0.88680122  0.44147295  1
  Cl  Cl81  1  0.80223385  0.38680122  0.05852705  1
  Cl  Cl82  1  0.80223385  0.11319878  0.55852705  1
  Cl  Cl83  1  0.19776615  0.61319878  0.94147295  1
  Cl  Cl84  1  0.40509882  0.41197152  0.63966076  1
  Cl  Cl85  1  0.59490118  0.91197152  0.86033924  1
  Cl  Cl86  1  0.59490118  0.58802848  0.36033924  1
  Cl  Cl87  1  0.40509882  0.08802848  0.13966076  1
  Cl  Cl88  1  0.54221500  0.71042246  0.61320364  1
  Cl  Cl89  1  0.45778500  0.21042246  0.88679636  1
  Cl  Cl90  1  0.45778500  0.28957754  0.38679636  1
  Cl  Cl91  1  0.54221500  0.78957754  0.11320364  1
