# generated using pymatgen
data_V2(OF)3
_symmetry_space_group_name_H-M   'P 1'
_cell_length_a   5.10362814
_cell_length_b   12.96830751
_cell_length_c   5.07080335
_cell_angle_alpha   89.18033585
_cell_angle_beta   119.66884135
_cell_angle_gamma   90.58034368
_symmetry_Int_Tables_number   1
_chemical_formula_structural   V2(OF)3
_chemical_formula_sum   'V6 O9 F9'
_cell_volume   291.58299179
_cell_formula_units_Z   3
loop_
 _symmetry_equiv_pos_site_id
 _symmetry_equiv_pos_as_xyz
  1  'x, y, z'
loop_
 _atom_site_type_symbol
 _atom_site_label
 _atom_site_symmetry_multiplicity
 _atom_site_fract_x
 _atom_site_fract_y
 _atom_site_fract_z
 _atom_site_occupancy
  V  V0  1  0.99536782  0.49410053  0.01842932  1
  V  V1  1  0.02195667  0.00509283  0.99441774  1
  V  V2  1  0.61713232  0.83212373  0.33344204  1
  V  V3  1  0.30734878  0.66988966  0.69204018  1
  V  V4  1  0.68541834  0.34099372  0.37008265  1
  V  V5  1  0.37258351  0.16537516  0.65697914  1
  O  O6  1  0.41282446  0.75356266  0.97692509  1
  O  O7  1  0.32793279  0.91174650  0.24834197  1
  O  O8  1  0.09079408  0.58773248  0.75092121  1
  O  O9  1  0.41531401  0.24933979  0.42715805  1
  O  O10  1  0.58564511  0.74634509  0.55918109  1
  O  O11  1  0.91678301  0.41474968  0.23580283  1
  O  O12  1  0.23324093  0.08291981  0.92002730  1
  O  O13  1  0.76017234  0.41805285  0.65800687  1
  O  O14  1  0.65431549  0.08307125  0.75336067  1
  F  F15  1  0.00338848  0.74996824  0.39431038  1
  F  F16  1  0.34074170  0.41773446  0.06649830  1
  F  F17  1  0.06998607  0.08252804  0.34489919  1
  F  F18  1  0.26520812  0.58458356  0.33909427  1
  F  F19  1  0.57999013  0.24717367  0.00445924  1
  F  F20  1  -0.00080008  0.24436229  0.59282139  1
  F  F21  1  0.75442895  0.91610263  0.08409951  1
  F  F22  1  0.92358664  0.91376582  0.65644553  1
  F  F23  1  0.66664434  0.58868656  0.92225405  1
