# generated using pymatgen
data_Ca(ErS2)2
_symmetry_space_group_name_H-M   'P 1'
_cell_length_a   6.66895561
_cell_length_b   6.66895561
_cell_length_c   13.15682557
_cell_angle_alpha   90.00000000
_cell_angle_beta   90.00000000
_cell_angle_gamma   146.32380023
_symmetry_Int_Tables_number   1
_chemical_formula_structural   Ca(ErS2)2
_chemical_formula_sum   'Ca2 Er4 S8'
_cell_volume   324.46464039
_cell_formula_units_Z   2
loop_
 _symmetry_equiv_pos_site_id
 _symmetry_equiv_pos_as_xyz
  1  'x, y, z'
loop_
 _atom_site_type_symbol
 _atom_site_label
 _atom_site_symmetry_multiplicity
 _atom_site_fract_x
 _atom_site_fract_y
 _atom_site_fract_z
 _atom_site_occupancy
  Ca  Ca0  1  0.88726974  0.11273026  0.01180192  1
  Ca  Ca1  1  0.11273026  0.88726974  0.51180192  1
  Er  Er2  1  0.35989735  0.64010265  0.32348157  1
  Er  Er3  1  0.64010265  0.35989735  0.82348157  1
  Er  Er4  1  0.62822599  0.37177401  0.18148513  1
  Er  Er5  1  0.37177401  0.62822599  0.68148513  1
  S  S6  1  0.54247376  0.45752624  0.99968531  1
  S  S7  1  0.45752624  0.54247376  0.49968531  1
  S  S8  1  0.73383870  0.26616130  0.63631197  1
  S  S9  1  0.26616130  0.73383870  0.13631197  1
  S  S10  1  0.72222786  0.27777214  0.36987088  1
  S  S11  1  0.27777214  0.72222786  0.86987088  1
  S  S12  1  0.99073140  0.00926860  0.24466322  1
  S  S13  1  0.00926860  0.99073140  0.74466322  1
