# generated using pymatgen
data_Ta3Sb(PO4)6
_symmetry_space_group_name_H-M   'P 1'
_cell_length_a   8.97237282
_cell_length_b   8.97237282
_cell_length_c   8.97237289
_cell_angle_alpha   58.12359937
_cell_angle_beta   58.12359933
_cell_angle_gamma   58.12359898
_symmetry_Int_Tables_number   1
_chemical_formula_structural   Ta3Sb(PO4)6
_chemical_formula_sum   'Ta3 Sb1 P6 O24'
_cell_volume   488.77914420
_cell_formula_units_Z   1
loop_
 _symmetry_equiv_pos_site_id
 _symmetry_equiv_pos_as_xyz
  1  'x, y, z'
loop_
 _atom_site_type_symbol
 _atom_site_label
 _atom_site_symmetry_multiplicity
 _atom_site_fract_x
 _atom_site_fract_y
 _atom_site_fract_z
 _atom_site_occupancy
  Ta  Ta0  1  0.86002546  0.86002546  0.86002546  1
  Ta  Ta1  1  0.64177516  0.64177516  0.64177516  1
  Ta  Ta2  1  0.14069693  0.14069693  0.14069693  1
  Sb  Sb3  1  0.36249766  0.36249766  0.36249766  1
  P  P4  1  0.96487693  0.53469356  0.25006259  1
  P  P5  1  0.25006259  0.96487693  0.53469356  1
  P  P6  1  0.53469356  0.25006259  0.96487693  1
  P  P7  1  0.77231239  0.00818431  0.46951669  1
  P  P8  1  0.46951669  0.77231239  0.00818431  1
  P  P9  1  0.00818431  0.46951669  0.77231239  1
  O  O10  1  0.14168911  0.52633921  0.23838279  1
  O  O11  1  0.23838279  0.14168911  0.52633921  1
  O  O12  1  0.52633921  0.23838279  0.14168911  1
  O  O13  1  0.85304338  0.95611879  0.61103346  1
  O  O14  1  0.61103346  0.85304338  0.95611879  1
  O  O15  1  0.95611879  0.61103346  0.85304338  1
  O  O16  1  0.82995782  0.48740011  0.76723625  1
  O  O17  1  0.76723625  0.82995782  0.48740011  1
  O  O18  1  0.48740011  0.76723625  0.82995782  1
  O  O19  1  0.21173006  0.99838084  0.36916759  1
  O  O20  1  0.36916759  0.21173006  0.99838084  1
  O  O21  1  0.99838084  0.36916759  0.21173006  1
  O  O22  1  0.15615387  0.49861630  0.58439628  1
  O  O23  1  0.58439628  0.15615387  0.49861630  1
  O  O24  1  0.49861630  0.58439628  0.15615387  1
  O  O25  1  0.10682446  0.88738784  0.72199974  1
  O  O26  1  0.72199974  0.10682446  0.88738784  1
  O  O27  1  0.88738784  0.72199974  0.10682446  1
  O  O28  1  0.80763970  0.53172363  0.44304495  1
  O  O29  1  0.44304495  0.80763970  0.53172363  1
  O  O30  1  0.53172363  0.44304495  0.80763970  1
  O  O31  1  0.91796639  0.07196068  0.27716506  1
  O  O32  1  0.27716506  0.91796639  0.07196068  1
  O  O33  1  0.07196068  0.27716506  0.91796639  1
