# generated using pymatgen
data_KHfMg14O15
_symmetry_space_group_name_H-M   'P 1'
_cell_length_a   8.69165083
_cell_length_b   8.68006673
_cell_length_c   4.43717411
_cell_angle_alpha   90.00000000
_cell_angle_beta   90.00000000
_cell_angle_gamma   90.00000000
_symmetry_Int_Tables_number   1
_chemical_formula_structural   KHfMg14O15
_chemical_formula_sum   'K1 Hf1 Mg14 O15'
_cell_volume   334.75864809
_cell_formula_units_Z   1
loop_
 _symmetry_equiv_pos_site_id
 _symmetry_equiv_pos_as_xyz
  1  'x, y, z'
loop_
 _atom_site_type_symbol
 _atom_site_label
 _atom_site_symmetry_multiplicity
 _atom_site_fract_x
 _atom_site_fract_y
 _atom_site_fract_z
 _atom_site_occupancy
  K  K0  1  0.00068115  0.00000000  0.00000000  1
  Hf  Hf1  1  0.49330539  0.50000000  0.00000000  1
  Mg  Mg2  1  0.99675334  0.50000000  0.00000000  1
  Mg  Mg3  1  0.50048602  0.00000000  0.00000000  1
  Mg  Mg4  1  0.00102684  0.24980172  0.50000000  1
  Mg  Mg5  1  0.00102684  0.75019828  0.50000000  1
  Mg  Mg6  1  0.49886435  0.24025030  0.50000000  1
  Mg  Mg7  1  0.49886435  0.75974970  0.50000000  1
  Mg  Mg8  1  0.24832379  0.00000000  0.50000000  1
  Mg  Mg9  1  0.24494100  0.50000000  0.50000000  1
  Mg  Mg10  1  0.75173342  0.00000000  0.50000000  1
  Mg  Mg11  1  0.75801611  0.50000000  0.50000000  1
  Mg  Mg12  1  0.24189462  0.24313345  -0.00000000  1
  Mg  Mg13  1  0.24189462  0.75686655  0.00000000  1
  Mg  Mg14  1  0.75784393  0.24569862  0.00000000  1
  Mg  Mg15  1  0.75784393  0.75430138  -0.00000000  1
  O  O16  1  0.27716105  0.00000000  0.00000000  1
  O  O17  1  0.72394235  0.00000000  0.00000000  1
  O  O18  1  0.74838930  0.50000000  0.00000000  1
  O  O19  1  0.25102918  0.24411175  0.50000000  1
  O  O20  1  0.25102918  0.75588825  0.50000000  1
  O  O21  1  0.74792778  0.25060076  0.50000000  1
  O  O22  1  0.74792778  0.74939924  0.50000000  1
  O  O23  1  0.99753347  0.00000000  0.50000000  1
  O  O24  1  0.99931760  0.50000000  0.50000000  1
  O  O25  1  0.50116444  0.00000000  0.50000000  1
  O  O26  1  0.50752943  0.50000000  0.50000000  1
  O  O27  1  0.00085161  0.27580294  0.00000000  1
  O  O28  1  0.00085161  0.72419706  -0.00000000  1
  O  O29  1  0.50092275  0.25947896  0.00000000  1
  O  O30  1  0.50092275  0.74052104  0.00000000  1
