# generated using pymatgen
data_Sr(HoS2)2
_symmetry_space_group_name_H-M   'P 1'
_cell_length_a   3.96700583
_cell_length_b   12.01980537
_cell_length_c   14.26577097
_cell_angle_alpha   90.00000000
_cell_angle_beta   90.00000000
_cell_angle_gamma   90.00000000
_symmetry_Int_Tables_number   1
_chemical_formula_structural   Sr(HoS2)2
_chemical_formula_sum   'Sr4 Ho8 S16'
_cell_volume   680.22959264
_cell_formula_units_Z   4
loop_
 _symmetry_equiv_pos_site_id
 _symmetry_equiv_pos_as_xyz
  1  'x, y, z'
loop_
 _atom_site_type_symbol
 _atom_site_label
 _atom_site_symmetry_multiplicity
 _atom_site_fract_x
 _atom_site_fract_y
 _atom_site_fract_z
 _atom_site_occupancy
  Sr  Sr0  1  0.25000000  0.75905558  0.33737632  1
  Sr  Sr1  1  0.25000000  0.25905558  0.16262368  1
  Sr  Sr2  1  0.75000000  0.24094442  0.66262368  1
  Sr  Sr3  1  0.75000000  0.74094442  0.83737632  1
  Ho  Ho4  1  0.25000000  0.43550092  0.38932075  1
  Ho  Ho5  1  0.25000000  0.93550092  0.11067925  1
  Ho  Ho6  1  0.75000000  0.56449908  0.61067925  1
  Ho  Ho7  1  0.75000000  0.06449908  0.88932075  1
  Ho  Ho8  1  0.25000000  0.41742763  0.89983809  1
  Ho  Ho9  1  0.25000000  0.91742763  0.60016191  1
  Ho  Ho10  1  0.75000000  0.58257237  0.10016191  1
  Ho  Ho11  1  0.75000000  0.08257237  0.39983809  1
  S  S12  1  0.25000000  0.20536354  0.82813976  1
  S  S13  1  0.25000000  0.70536354  0.67186024  1
  S  S14  1  0.75000000  0.79463646  0.17186024  1
  S  S15  1  0.75000000  0.29463646  0.32813976  1
  S  S16  1  0.25000000  0.12769838  0.52822619  1
  S  S17  1  0.25000000  0.62769838  0.97177381  1
  S  S18  1  0.75000000  0.87230162  0.47177381  1
  S  S19  1  0.75000000  0.37230162  0.02822619  1
  S  S20  1  0.25000000  0.02608920  0.28400353  1
  S  S21  1  0.25000000  0.52608920  0.21599647  1
  S  S22  1  0.75000000  0.97391080  0.71599647  1
  S  S23  1  0.75000000  0.47391080  0.78400353  1
  S  S24  1  0.25000000  0.41259229  0.57710958  1
  S  S25  1  0.25000000  0.91259229  0.92289042  1
  S  S26  1  0.75000000  0.58740771  0.42289042  1
  S  S27  1  0.75000000  0.08740771  0.07710958  1
