# generated using pymatgen
data_Nd2ZrSe5
_symmetry_space_group_name_H-M   'P 1'
_cell_length_a   7.73846305
_cell_length_b   8.31723391
_cell_length_c   12.25538468
_cell_angle_alpha   90.00000000
_cell_angle_beta   90.00000000
_cell_angle_gamma   90.00000000
_symmetry_Int_Tables_number   1
_chemical_formula_structural   Nd2ZrSe5
_chemical_formula_sum   'Nd8 Zr4 Se20'
_cell_volume   788.78851136
_cell_formula_units_Z   4
loop_
 _symmetry_equiv_pos_site_id
 _symmetry_equiv_pos_as_xyz
  1  'x, y, z'
loop_
 _atom_site_type_symbol
 _atom_site_label
 _atom_site_symmetry_multiplicity
 _atom_site_fract_x
 _atom_site_fract_y
 _atom_site_fract_z
 _atom_site_occupancy
  Nd  Nd0  1  0.46863479  0.49766428  0.17743955  1
  Nd  Nd1  1  0.03136521  0.00233572  0.67743955  1
  Nd  Nd2  1  0.53136521  0.99766428  0.82256045  1
  Nd  Nd3  1  0.96863479  0.50233572  0.32256045  1
  Nd  Nd4  1  0.53136521  0.50233572  0.82256045  1
  Nd  Nd5  1  0.96863479  0.99766428  0.32256045  1
  Nd  Nd6  1  0.46863479  0.00233572  0.17743955  1
  Nd  Nd7  1  0.03136521  0.49766428  0.67743955  1
  Zr  Zr8  1  0.92289044  0.75000000  0.00693384  1
  Zr  Zr9  1  0.57710956  0.75000000  0.50693384  1
  Zr  Zr10  1  0.07710956  0.25000000  0.99306616  1
  Zr  Zr11  1  0.42289044  0.25000000  0.49306616  1
  Se  Se12  1  0.16138083  0.75000000  0.18201631  1
  Se  Se13  1  0.33861917  0.75000000  0.68201631  1
  Se  Se14  1  0.83861917  0.25000000  0.81798369  1
  Se  Se15  1  0.66138083  0.25000000  0.31798369  1
  Se  Se16  1  0.68133758  0.75000000  0.29328906  1
  Se  Se17  1  0.81866242  0.75000000  0.79328906  1
  Se  Se18  1  0.31866242  0.25000000  0.70671094  1
  Se  Se19  1  0.18133758  0.25000000  0.20671094  1
  Se  Se20  1  0.55444681  0.75000000  0.00406546  1
  Se  Se21  1  0.94555319  0.75000000  0.50406546  1
  Se  Se22  1  0.44555319  0.25000000  0.99593454  1
  Se  Se23  1  0.05444681  0.25000000  0.49593454  1
  Se  Se24  1  0.83632665  0.46365107  0.08815915  1
  Se  Se25  1  0.66367335  0.03634893  0.58815915  1
  Se  Se26  1  0.16367335  0.96365107  0.91184085  1
  Se  Se27  1  0.33632665  0.53634893  0.41184085  1
  Se  Se28  1  0.16367335  0.53634893  0.91184085  1
  Se  Se29  1  0.33632665  0.96365107  0.41184085  1
  Se  Se30  1  0.83632665  0.03634893  0.08815915  1
  Se  Se31  1  0.66367335  0.46365107  0.58815915  1
