# generated using pymatgen
data_SmAsO4
_symmetry_space_group_name_H-M   'P 1'
_cell_length_a   5.06708674
_cell_length_b   5.06708733
_cell_length_c   6.74249106
_cell_angle_alpha   112.07115857
_cell_angle_beta   112.07116371
_cell_angle_gamma   89.99999826
_symmetry_Int_Tables_number   1
_chemical_formula_structural   SmAsO4
_chemical_formula_sum   'Sm2 As2 O8'
_cell_volume   146.64996815
_cell_formula_units_Z   2
loop_
 _symmetry_equiv_pos_site_id
 _symmetry_equiv_pos_as_xyz
  1  'x, y, z'
loop_
 _atom_site_type_symbol
 _atom_site_label
 _atom_site_symmetry_multiplicity
 _atom_site_fract_x
 _atom_site_fract_y
 _atom_site_fract_z
 _atom_site_occupancy
  Sm  Sm0  1  0.37500000  0.12500000  0.75000000  1
  Sm  Sm1  1  0.62500000  0.87500000  0.25000000  1
  As  As2  1  0.87500000  0.62500000  0.75000000  1
  As  As3  1  0.12500000  0.37500000  0.25000000  1
  O  O4  1  0.93791449  0.29794380  0.59304656  1
  O  O5  1  0.29510076  0.43791449  0.09304656  1
  O  O6  1  0.79794380  0.15513207  0.09304656  1
  O  O7  1  0.65513207  0.79510076  0.59304656  1
  O  O8  1  0.34486793  0.20489924  0.40695344  1
  O  O9  1  0.20205620  0.84486793  0.90695344  1
  O  O10  1  0.70489924  0.56208551  0.90695344  1
  O  O11  1  0.06208551  0.70205620  0.40695344  1
