# generated using pymatgen
data_Pr3ReO8
_symmetry_space_group_name_H-M   'P 1'
_cell_length_a   6.20950775
_cell_length_b   7.50310395
_cell_length_c   15.02020728
_cell_angle_alpha   69.48239440
_cell_angle_beta   90.00000000
_cell_angle_gamma   90.00000000
_symmetry_Int_Tables_number   1
_chemical_formula_structural   Pr3ReO8
_chemical_formula_sum   'Pr12 Re4 O32'
_cell_volume   655.40804926
_cell_formula_units_Z   4
loop_
 _symmetry_equiv_pos_site_id
 _symmetry_equiv_pos_as_xyz
  1  'x, y, z'
loop_
 _atom_site_type_symbol
 _atom_site_label
 _atom_site_symmetry_multiplicity
 _atom_site_fract_x
 _atom_site_fract_y
 _atom_site_fract_z
 _atom_site_occupancy
  Pr  Pr0  1  0.23850246  0.40157265  0.70041385  1
  Pr  Pr1  1  0.73850246  0.59842735  0.79958615  1
  Pr  Pr2  1  0.76149754  0.59842735  0.29958615  1
  Pr  Pr3  1  0.26149754  0.40157265  0.20041385  1
  Pr  Pr4  1  0.29692982  0.33822761  0.44658350  1
  Pr  Pr5  1  0.79692982  0.66177239  0.05341650  1
  Pr  Pr6  1  0.70307018  0.66177239  0.55341650  1
  Pr  Pr7  1  0.20307018  0.33822761  0.94658350  1
  Pr  Pr8  1  0.31246930  0.89662383  0.16584002  1
  Pr  Pr9  1  0.81246930  0.10337617  0.33415998  1
  Pr  Pr10  1  0.68753070  0.10337617  0.83415998  1
  Pr  Pr11  1  0.18753070  0.89662383  0.66584002  1
  Re  Re12  1  0.24492764  0.82044817  0.90894190  1
  Re  Re13  1  0.74492764  0.17955183  0.59105810  1
  Re  Re14  1  0.75507236  0.17955183  0.09105810  1
  Re  Re15  1  0.25507236  0.82044817  0.40894190  1
  O  O16  1  0.20001657  0.97276069  0.47778982  1
  O  O17  1  0.70001657  0.02723931  0.02221018  1
  O  O18  1  0.79998343  0.02723931  0.52221018  1
  O  O19  1  0.29998343  0.97276069  0.97778982  1
  O  O20  1  0.96080351  0.75284981  0.40436806  1
  O  O21  1  0.46080351  0.24715019  0.09563194  1
  O  O22  1  0.03919649  0.24715019  0.59563194  1
  O  O23  1  0.53919649  0.75284981  0.90436806  1
  O  O24  1  0.34433535  0.67112192  0.33194752  1
  O  O25  1  0.84433535  0.32887808  0.16805248  1
  O  O26  1  0.65566465  0.32887808  0.66805248  1
  O  O27  1  0.15566465  0.67112192  0.83194752  1
  O  O28  1  0.04686202  0.12548359  0.09035767  1
  O  O29  1  0.54686202  0.87451641  0.40964233  1
  O  O30  1  0.95313798  0.87451641  0.90964233  1
  O  O31  1  0.45313798  0.12548359  0.59035767  1
  O  O32  1  0.47092855  0.68369832  0.67313167  1
  O  O33  1  0.97092855  0.31630168  0.82686833  1
  O  O34  1  0.52907145  0.31630168  0.32686833  1
  O  O35  1  0.02907145  0.68369832  0.17313167  1
  O  O36  1  0.97082316  0.64553058  0.66066622  1
  O  O37  1  0.47082316  0.35446942  0.83933378  1
  O  O38  1  0.02917684  0.35446942  0.33933378  1
  O  O39  1  0.52917684  0.64553058  0.16066622  1
  O  O40  1  0.29993196  0.59598256  0.51591401  1
  O  O41  1  0.79993196  0.40401744  0.98408599  1
  O  O42  1  0.70006804  0.40401744  0.48408599  1
  O  O43  1  0.20006804  0.59598256  0.01591401  1
  O  O44  1  0.29496404  0.02530590  0.79163644  1
  O  O45  1  0.79496404  0.97469410  0.70836356  1
  O  O46  1  0.70503596  0.97469410  0.20836356  1
  O  O47  1  0.20503596  0.02530590  0.29163644  1
