# generated using pymatgen
data_Rb4MgH12(SeO3)8
_symmetry_space_group_name_H-M   'P 1'
_cell_length_a   6.15928342
_cell_length_b   6.36722689
_cell_length_c   22.60894316
_cell_angle_alpha   90.00000000
_cell_angle_beta   89.04925883
_cell_angle_gamma   90.00000000
_symmetry_Int_Tables_number   1
_chemical_formula_structural   Rb4MgH12(SeO3)8
_chemical_formula_sum   'Rb4 Mg1 H12 Se8 O24'
_cell_volume   886.54540439
_cell_formula_units_Z   1
loop_
 _symmetry_equiv_pos_site_id
 _symmetry_equiv_pos_as_xyz
  1  'x, y, z'
loop_
 _atom_site_type_symbol
 _atom_site_label
 _atom_site_symmetry_multiplicity
 _atom_site_fract_x
 _atom_site_fract_y
 _atom_site_fract_z
 _atom_site_occupancy
  Rb  Rb0  1  0.27816583  0.24885753  0.37988688  1
  Rb  Rb1  1  0.22183417  0.24885753  0.62011312  1
  Rb  Rb2  1  0.79677240  0.75267805  0.12475303  1
  Rb  Rb3  1  0.70322760  0.75267805  0.87524697  1
  Mg  Mg4  1  0.75000000  0.19491900  -0.00000000  1
  H  H5  1  0.29635277  0.02682079  0.06476852  1
  H  H6  1  0.20364723  0.02682079  0.93523148  1
  H  H7  1  0.79387468  0.93799378  0.44716564  1
  H  H8  1  0.70612532  0.93799378  0.55283436  1
  H  H9  1  0.98606313  0.45939545  0.26315321  1
  H  H10  1  0.51393687  0.45939545  0.73684679  1
  H  H11  1  0.48546250  0.54043880  0.24056344  1
  H  H12  1  0.01453750  0.54043880  0.75943656  1
  H  H13  1  0.61667012  0.27920405  0.13969032  1
  H  H14  1  0.88332988  0.27920405  0.86030968  1
  H  H15  1  0.10966535  0.72640722  0.36327412  1
  H  H16  1  0.39033465  0.72640722  0.63672588  1
  Se  Se17  1  0.23737009  0.30177002  0.13046200  1
  Se  Se18  1  0.26262991  0.30177002  0.86953800  1
  Se  Se19  1  0.73025089  0.69066133  0.37525016  1
  Se  Se20  1  0.76974911  0.69066133  0.62474984  1
  Se  Se21  1  0.73989291  0.16786991  0.25593068  1
  Se  Se22  1  0.76010709  0.16786991  0.74406932  1
  Se  Se23  1  0.24179542  0.83434752  0.24758811  1
  Se  Se24  1  0.25820458  0.83434752  0.75241189  1
  O  O25  1  0.22121684  0.02719505  0.10353184  1
  O  O26  1  0.27878316  0.02719505  0.89646816  1
  O  O27  1  0.69288729  0.94664805  0.41419745  1
  O  O28  1  0.80711271  0.94664805  0.58580255  1
  O  O29  1  0.52153111  0.32387526  0.27005765  1
  O  O30  1  0.97846889  0.32387526  0.72994235  1
  O  O31  1  0.02116644  0.68031083  0.23576351  1
  O  O32  1  0.47883356  0.68031083  0.76423649  1
  O  O33  1  0.51667372  0.34373483  0.10739701  1
  O  O34  1  0.98332628  0.34373483  0.89260299  1
  O  O35  1  0.00890452  0.66003021  0.39583114  1
  O  O36  1  0.49109548  0.66003021  0.60416886  1
  O  O37  1  0.78365816  0.18263944  0.18103458  1
  O  O38  1  0.71634184  0.18263944  0.81896542  1
  O  O39  1  0.28167247  0.82506809  0.32228883  1
  O  O40  1  0.21832753  0.82506809  0.67771117  1
  O  O41  1  0.11108689  0.44153803  0.08037588  1
  O  O42  1  0.38891311  0.44153803  0.91962412  1
  O  O43  1  0.61219093  0.51872394  0.41908952  1
  O  O44  1  0.88780907  0.51872394  0.58091048  1
  O  O45  1  0.96484417  0.31653198  0.28451906  1
  O  O46  1  0.53515583  0.31653198  0.71548094  1
  O  O47  1  0.46463460  0.68021685  0.21794103  1
  O  O48  1  0.03536540  0.68021685  0.78205897  1
