# generated using pymatgen
data_KSbS2
_symmetry_space_group_name_H-M   'P 1'
_cell_length_a   6.38908142
_cell_length_b   6.38908047
_cell_length_c   6.91117894
_cell_angle_alpha   111.58914983
_cell_angle_beta   111.58914333
_cell_angle_gamma   92.15927638
_symmetry_Int_Tables_number   1
_chemical_formula_structural   KSbS2
_chemical_formula_sum   'K2 Sb2 S4'
_cell_volume   238.98576690
_cell_formula_units_Z   2
loop_
 _symmetry_equiv_pos_site_id
 _symmetry_equiv_pos_as_xyz
  1  'x, y, z'
loop_
 _atom_site_type_symbol
 _atom_site_label
 _atom_site_symmetry_multiplicity
 _atom_site_fract_x
 _atom_site_fract_y
 _atom_site_fract_z
 _atom_site_occupancy
  K  K0  1  0.85681273  0.14318727  0.75000000  1
  K  K1  1  0.14318727  0.85681273  0.25000000  1
  Sb  Sb2  1  0.59129259  0.40870741  0.25000000  1
  Sb  Sb3  1  0.40870741  0.59129259  0.75000000  1
  S  S4  1  0.22297758  0.37089556  0.27795477  1
  S  S5  1  0.62910444  0.77702242  0.22204523  1
  S  S6  1  0.37089556  0.22297758  0.77795477  1
  S  S7  1  0.77702242  0.62910444  0.72204523  1
