# generated using pymatgen
data_Er2MgSe4
_symmetry_space_group_name_H-M   'P 1'
_cell_length_a   13.16700003
_cell_length_b   7.85403656
_cell_length_c   13.40522308
_cell_angle_alpha   90.00000000
_cell_angle_beta   90.00000000
_cell_angle_gamma   90.00000000
_symmetry_Int_Tables_number   1
_chemical_formula_structural   Er2MgSe4
_chemical_formula_sum   'Er16 Mg8 Se32'
_cell_volume   1386.28907504
_cell_formula_units_Z   8
loop_
 _symmetry_equiv_pos_site_id
 _symmetry_equiv_pos_as_xyz
  1  'x, y, z'
loop_
 _atom_site_type_symbol
 _atom_site_label
 _atom_site_symmetry_multiplicity
 _atom_site_fract_x
 _atom_site_fract_y
 _atom_site_fract_z
 _atom_site_occupancy
  Er  Er0  1  0.10790198  0.88345848  0.68643813  1
  Er  Er1  1  0.89209802  0.11654152  0.18643813  1
  Er  Er2  1  0.39209802  0.88345848  0.18643813  1
  Er  Er3  1  0.60790198  0.11654152  0.68643813  1
  Er  Er4  1  0.12705941  0.38213009  0.32647083  1
  Er  Er5  1  0.87294059  0.61786991  0.82647083  1
  Er  Er6  1  0.37294059  0.38213009  0.82647083  1
  Er  Er7  1  0.62705941  0.61786991  0.32647083  1
  Er  Er8  1  0.13357398  0.62999519  0.99083835  1
  Er  Er9  1  0.86642602  0.37000481  0.49083835  1
  Er  Er10  1  0.36642602  0.62999519  0.49083835  1
  Er  Er11  1  0.63357398  0.37000481  0.99083835  1
  Er  Er12  1  0.13361097  0.12982533  0.99123443  1
  Er  Er13  1  0.86638903  0.87017467  0.49123443  1
  Er  Er14  1  0.36638903  0.12982533  0.49123443  1
  Er  Er15  1  0.63361097  0.87017467  0.99123443  1
  Mg  Mg16  1  0.11131166  0.38251179  0.69005506  1
  Mg  Mg17  1  0.88868834  0.61748821  0.19005506  1
  Mg  Mg18  1  0.38868834  0.38251179  0.19005506  1
  Mg  Mg19  1  0.61131166  0.61748821  0.69005506  1
  Mg  Mg20  1  0.12625291  0.87851685  0.32082087  1
  Mg  Mg21  1  0.87374709  0.12148315  0.82082087  1
  Mg  Mg22  1  0.37374709  0.87851685  0.82082087  1
  Mg  Mg23  1  0.62625291  0.12148315  0.32082087  1
  Se  Se24  1  0.01327148  0.87738190  0.87797944  1
  Se  Se25  1  0.98672852  0.12261810  0.37797944  1
  Se  Se26  1  0.48672852  0.87738190  0.37797944  1
  Se  Se27  1  0.51327148  0.12261810  0.87797944  1
  Se  Se28  1  0.03334254  0.37741093  0.13073390  1
  Se  Se29  1  0.96665746  0.62258907  0.63073390  1
  Se  Se30  1  0.46665746  0.37741093  0.63073390  1
  Se  Se31  1  0.53334254  0.62258907  0.13073390  1
  Se  Se32  1  0.02249174  0.37506462  0.87006939  1
  Se  Se33  1  0.97750826  0.62493538  0.37006939  1
  Se  Se34  1  0.47750826  0.37506462  0.37006939  1
  Se  Se35  1  0.52249174  0.62493538  0.87006939  1
  Se  Se36  1  0.04342379  0.87507726  0.13593442  1
  Se  Se37  1  0.95657621  0.12492274  0.63593442  1
  Se  Se38  1  0.45657621  0.87507726  0.63593442  1
  Se  Se39  1  0.54342379  0.12492274  0.13593442  1
  Se  Se40  1  0.21135709  0.88069974  0.50367475  1
  Se  Se41  1  0.78864291  0.11930026  0.00367475  1
  Se  Se42  1  0.28864291  0.88069974  0.00367475  1
  Se  Se43  1  0.71135709  0.11930026  0.50367475  1
  Se  Se44  1  0.21293841  0.38049895  0.51814016  1
  Se  Se45  1  0.78706159  0.61950105  0.01814016  1
  Se  Se46  1  0.28706159  0.38049895  0.01814016  1
  Se  Se47  1  0.71293841  0.61950105  0.51814016  1
  Se  Se48  1  0.23140523  0.13104591  0.77652886  1
  Se  Se49  1  0.76859477  0.86895409  0.27652886  1
  Se  Se50  1  0.26859477  0.13104591  0.27652886  1
  Se  Se51  1  0.73140523  0.86895409  0.77652886  1
  Se  Se52  1  0.23219433  0.63411837  0.77808244  1
  Se  Se53  1  0.76780567  0.36588163  0.27808244  1
  Se  Se54  1  0.26780567  0.63411837  0.27808244  1
  Se  Se55  1  0.73219433  0.36588163  0.77808244  1
