# generated using pymatgen
data_CsLaMg14O16
_symmetry_space_group_name_H-M   'P 1'
_cell_length_a   8.90660857
_cell_length_b   9.21493554
_cell_length_c   4.57373241
_cell_angle_alpha   89.99999819
_cell_angle_beta   90.00001936
_cell_angle_gamma   89.99998964
_symmetry_Int_Tables_number   1
_chemical_formula_structural   CsLaMg14O16
_chemical_formula_sum   'Cs1 La1 Mg14 O16'
_cell_volume   375.38370817
_cell_formula_units_Z   1
loop_
 _symmetry_equiv_pos_site_id
 _symmetry_equiv_pos_as_xyz
  1  'x, y, z'
loop_
 _atom_site_type_symbol
 _atom_site_label
 _atom_site_symmetry_multiplicity
 _atom_site_fract_x
 _atom_site_fract_y
 _atom_site_fract_z
 _atom_site_occupancy
  Cs  Cs0  1  0.00000506  0.49999713  0.00000057  1
  La  La1  1  -0.00000049  -0.00000250  0.99999507  1
  Mg  Mg2  1  0.49999984  -0.00000123  0.00000030  1
  Mg  Mg3  1  0.50000074  0.50000133  0.00000071  1
  Mg  Mg4  1  -0.00000103  0.25968304  0.49999814  1
  Mg  Mg5  1  -0.00000069  0.74031581  0.49999653  1
  Mg  Mg6  1  0.50000078  0.25215685  0.50000005  1
  Mg  Mg7  1  0.50000042  0.74784246  0.50000117  1
  Mg  Mg8  1  0.26917305  0.00000013  0.49999881  1
  Mg  Mg9  1  0.26599382  0.50000005  0.50000020  1
  Mg  Mg10  1  0.73082603  -0.00000037  0.49999817  1
  Mg  Mg11  1  0.73400852  0.50000078  0.50000136  1
  Mg  Mg12  1  0.26661655  0.25742567  -0.00000096  1
  Mg  Mg13  1  0.26661477  0.74257322  0.00000034  1
  Mg  Mg14  1  0.73338366  0.25742736  0.00000115  1
  Mg  Mg15  1  0.73338592  0.74257350  0.00000106  1
  O  O16  1  0.27368822  0.00000043  0.00000008  1
  O  O17  1  0.28833638  0.50000026  -0.00000001  1
  O  O18  1  0.72631114  -0.00000014  -0.00000011  1
  O  O19  1  0.71166775  0.50000003  0.00000022  1
  O  O20  1  0.25234344  0.25104491  0.50000076  1
  O  O21  1  0.25234319  0.74895539  0.50000085  1
  O  O22  1  0.74765612  0.25104339  0.50000043  1
  O  O23  1  0.74765665  0.74895733  0.50000082  1
  O  O24  1  0.00000040  0.00000066  0.49999681  1
  O  O25  1  0.99999194  0.50000401  0.49999850  1
  O  O26  1  0.49999948  0.00000052  0.49999982  1
  O  O27  1  0.50000088  0.50000010  0.50000015  1
  O  O28  1  0.99999884  0.23482111  0.00000220  1
  O  O29  1  0.99999849  0.76517886  0.00000604  1
  O  O30  1  0.49999999  0.24453934  0.00000066  1
  O  O31  1  0.50000013  0.75546057  0.00000010  1
