# generated using pymatgen
data_BaV10O15
_symmetry_space_group_name_H-M   'P 1'
_cell_length_a   7.64389987
_cell_length_b   7.64389987
_cell_length_c   9.53851025
_cell_angle_alpha   90.00000000
_cell_angle_beta   90.00000000
_cell_angle_gamma   97.07415836
_symmetry_Int_Tables_number   1
_chemical_formula_structural   BaV10O15
_chemical_formula_sum   'Ba2 V20 O30'
_cell_volume   553.08496309
_cell_formula_units_Z   2
loop_
 _symmetry_equiv_pos_site_id
 _symmetry_equiv_pos_as_xyz
  1  'x, y, z'
loop_
 _atom_site_type_symbol
 _atom_site_label
 _atom_site_symmetry_multiplicity
 _atom_site_fract_x
 _atom_site_fract_y
 _atom_site_fract_z
 _atom_site_occupancy
  Ba  Ba0  1  -0.00000000  -0.00000000  0.50000000  1
  Ba  Ba1  1  0.50000000  0.50000000  -0.00000000  1
  V  V2  1  0.42293108  0.91430522  0.11578635  1
  V  V3  1  0.07706892  0.58569478  0.61578635  1
  V  V4  1  0.41430522  0.92293108  0.38421365  1
  V  V5  1  0.08569478  0.57706892  0.88421365  1
  V  V6  1  0.57706892  0.08569478  0.88421365  1
  V  V7  1  0.92293108  0.41430522  0.38421365  1
  V  V8  1  0.58569478  0.07706892  0.61578635  1
  V  V9  1  0.91430522  0.42293108  0.11578635  1
  V  V10  1  0.78648523  0.03936067  0.13971472  1
  V  V11  1  0.71351477  0.46063933  0.63971472  1
  V  V12  1  0.53936067  0.28648523  0.36028528  1
  V  V13  1  0.96063933  0.21351477  0.86028528  1
  V  V14  1  0.21351477  0.96063933  0.86028528  1
  V  V15  1  0.28648523  0.53936067  0.36028528  1
  V  V16  1  0.46063933  0.71351477  0.63971472  1
  V  V17  1  0.03936067  0.78648523  0.13971472  1
  V  V18  1  0.81697064  0.81697064  0.86204937  1
  V  V19  1  0.68302936  0.68302936  0.36204937  1
  V  V20  1  0.31697064  0.31697064  0.63795063  1
  V  V21  1  0.18302936  0.18302936  0.13795063  1
  O  O22  1  0.50000000  0.50000000  0.50000000  1
  O  O23  1  -0.00000000  -0.00000000  -0.00000000  1
  O  O24  1  0.16159024  0.16159024  0.74640177  1
  O  O25  1  0.33840976  0.33840976  0.24640177  1
  O  O26  1  0.66159024  0.66159024  0.75359823  1
  O  O27  1  0.83840976  0.83840976  0.25359823  1
  O  O28  1  0.21856650  0.95851274  0.24522675  1
  O  O29  1  0.28143350  0.54148726  0.74522675  1
  O  O30  1  0.45851274  0.71856650  0.25477325  1
  O  O31  1  0.04148726  0.78143350  0.75477325  1
  O  O32  1  0.78143350  0.04148726  0.75477325  1
  O  O33  1  0.71856650  0.45851274  0.25477325  1
  O  O34  1  0.54148726  0.28143350  0.74522675  1
  O  O35  1  0.95851274  0.21856650  0.24522675  1
  O  O36  1  0.57722199  0.07722199  0.25000000  1
  O  O37  1  0.92277801  0.42277801  0.75000000  1
  O  O38  1  0.42277801  0.92277801  0.75000000  1
  O  O39  1  0.07722199  0.57722199  0.25000000  1
  O  O40  1  0.36707587  0.12150274  -0.00064293  1
  O  O41  1  0.13292413  0.37849726  0.49935707  1
  O  O42  1  0.62150274  0.86707587  0.50064293  1
  O  O43  1  0.87849726  0.63292413  0.00064293  1
  O  O44  1  0.75785345  0.24214655  -0.00000000  1
  O  O45  1  0.74214655  0.25785345  0.50000000  1
  O  O46  1  0.24214655  0.75785345  -0.00000000  1
  O  O47  1  0.25785345  0.74214655  0.50000000  1
  O  O48  1  0.12150274  0.36707587  -0.00064293  1
  O  O49  1  0.37849726  0.13292413  0.49935707  1
  O  O50  1  0.86707587  0.62150274  0.50064293  1
  O  O51  1  0.63292413  0.87849726  0.00064293  1
