# generated using pymatgen
data_Rb7GdFe6(P4O17)2
_symmetry_space_group_name_H-M   'P 1'
_cell_length_a   9.30359266
_cell_length_b   9.88326351
_cell_length_c   10.01771166
_cell_angle_alpha   92.15063001
_cell_angle_beta   93.96891510
_cell_angle_gamma   116.09424166
_symmetry_Int_Tables_number   1
_chemical_formula_structural   Rb7GdFe6(P4O17)2
_chemical_formula_sum   'Rb7 Gd1 Fe6 P8 O34'
_cell_volume   822.87593505
_cell_formula_units_Z   1
loop_
 _symmetry_equiv_pos_site_id
 _symmetry_equiv_pos_as_xyz
  1  'x, y, z'
loop_
 _atom_site_type_symbol
 _atom_site_label
 _atom_site_symmetry_multiplicity
 _atom_site_fract_x
 _atom_site_fract_y
 _atom_site_fract_z
 _atom_site_occupancy
  Rb  Rb0  1  0.07342094  0.20825358  0.34039987  1
  Rb  Rb1  1  0.92657906  0.79174642  0.65960013  1
  Rb  Rb2  1  0.62585687  0.97470514  0.37432984  1
  Rb  Rb3  1  0.37414313  0.02529486  0.62567016  1
  Rb  Rb4  1  0.67896008  0.43960979  0.91164486  1
  Rb  Rb5  1  0.32103992  0.56039021  0.08835514  1
  Rb  Rb6  1  0.50000000  -0.00000000  0.00000000  1
  Gd  Gd7  1  0.50000000  0.50000000  0.50000000  1
  Fe  Fe8  1  0.15621438  0.10680356  0.96565063  1
  Fe  Fe9  1  0.84378562  0.89319644  0.03434937  1
  Fe  Fe10  1  0.83280979  0.09282930  0.75239612  1
  Fe  Fe11  1  0.16719021  0.90717070  0.24760388  1
  Fe  Fe12  1  0.84397621  0.42281139  0.27610000  1
  Fe  Fe13  1  0.15602379  0.57718861  0.72390000  1
  P  P14  1  0.78844892  0.33085990  0.56884512  1
  P  P15  1  0.21155108  0.66914010  0.43115488  1
  P  P16  1  0.19403687  0.26613001  0.69314457  1
  P  P17  1  0.80596313  0.73386999  0.30685543  1
  P  P18  1  0.91077387  0.23290661  0.03667788  1
  P  P19  1  0.08922613  0.76709339  0.96332212  1
  P  P20  1  0.55731782  0.75493572  0.78339980  1
  P  P21  1  0.44268218  0.24506428  0.21660020  1
  O  O22  1  0.37410421  0.21979968  0.06822964  1
  O  O23  1  0.62589579  0.78020032  0.93177036  1
  O  O24  1  0.83679463  0.30523827  0.42847785  1
  O  O25  1  0.16320537  0.69476173  0.57152215  1
  O  O26  1  0.01554469  0.16041840  0.64397657  1
  O  O27  1  0.98445531  0.83958160  0.35602343  1
  O  O28  1  0.17877437  0.91291252  0.89296917  1
  O  O29  1  0.82122563  0.08708748  0.10703083  1
  O  O30  1  0.25717368  0.19335918  0.79976036  1
  O  O31  1  0.74282632  0.80664082  0.20023964  1
  O  O32  1  0.93140877  0.00478508  0.87523781  1
  O  O33  1  0.06859123  0.99521492  0.12476219  1
  O  O34  1  0.21155938  0.41782664  0.75425244  1
  O  O35  1  0.78844062  0.58217336  0.24574756  1
  O  O36  1  0.08681802  0.26722823  0.02546450  1
  O  O37  1  0.91318198  0.73277177  0.97453550  1
  O  O38  1  0.61782543  0.27212308  0.21677974  1
  O  O39  1  0.38217457  0.72787692  0.78322026  1
  O  O40  1  0.29225636  0.29027516  0.57250517  1
  O  O41  1  0.70774364  0.70972484  0.42749483  1
  O  O42  1  0.71476275  0.17487626  0.62684568  1
  O  O43  1  0.28523725  0.82512374  0.37315432  1
  O  O44  1  0.66227986  0.39040542  0.55356254  1
  O  O45  1  0.33772014  0.60959458  0.44643746  1
  O  O46  1  0.81672376  0.21866718  0.89844574  1
  O  O47  1  0.18327624  0.78133282  0.10155426  1
  O  O48  1  0.91236048  0.36896029  0.11693597  1
  O  O49  1  0.08763952  0.63103971  0.88306403  1
  O  O50  1  0.57721139  0.62573173  0.71186441  1
  O  O51  1  0.42278861  0.37426827  0.28813559  1
  O  O52  1  0.64553865  0.90109468  0.70959558  1
  O  O53  1  0.35446135  0.09890532  0.29040442  1
  O  O54  1  0.93235048  0.44209690  0.66090404  1
  O  O55  1  0.06764952  0.55790310  0.33909596  1
