# generated using pymatgen
data_RbSbS2
_symmetry_space_group_name_H-M   'P 1'
_cell_length_a   6.57823344
_cell_length_b   6.56534199
_cell_length_c   12.19450455
_cell_angle_alpha   99.13982028
_cell_angle_beta   101.15427571
_cell_angle_gamma   104.16940148
_symmetry_Int_Tables_number   1
_chemical_formula_structural   RbSbS2
_chemical_formula_sum   'Rb4 Sb4 S8'
_cell_volume   489.07996331
_cell_formula_units_Z   4
loop_
 _symmetry_equiv_pos_site_id
 _symmetry_equiv_pos_as_xyz
  1  'x, y, z'
loop_
 _atom_site_type_symbol
 _atom_site_label
 _atom_site_symmetry_multiplicity
 _atom_site_fract_x
 _atom_site_fract_y
 _atom_site_fract_z
 _atom_site_occupancy
  Rb  Rb0  1  0.63740366  0.76460721  0.46860519  1
  Rb  Rb1  1  0.50509962  0.10437219  0.16157029  1
  Rb  Rb2  1  0.96589263  0.14798082  0.89560342  1
  Rb  Rb3  1  0.17500268  0.71997266  0.73430530  1
  Sb  Sb4  1  0.65562967  0.62333945  0.96809517  1
  Sb  Sb5  1  0.06175196  0.22472055  0.40324429  1
  Sb  Sb6  1  0.07978428  0.64545347  0.22642689  1
  Sb  Sb7  1  0.48533362  0.24489571  0.66180787  1
  S  S8  1  0.05225519  0.26475134  0.18348321  1
  S  S9  1  0.09055181  0.60552518  0.44663499  1
  S  S10  1  0.49808719  0.23992802  0.90696342  1
  S  S11  1  0.44280881  0.23139379  0.44025910  1
  S  S12  1  0.64295174  0.62822910  0.72329253  1
  S  S13  1  0.09865086  0.19917075  0.63328499  1
  S  S14  1  0.04232884  0.66905665  0.99659772  1
  S  S15  1  0.69847046  0.63760511  0.18982563  1
