# generated using pymatgen
data_Sr2CrWO6
_symmetry_space_group_name_H-M   'P 1'
_cell_length_a   5.67273535
_cell_length_b   7.97347500
_cell_length_c   5.67233923
_cell_angle_alpha   89.99854309
_cell_angle_beta   89.39944064
_cell_angle_gamma   90.00271631
_symmetry_Int_Tables_number   1
_chemical_formula_structural   Sr2CrWO6
_chemical_formula_sum   'Sr4 Cr2 W2 O12'
_cell_volume   256.55382715
_cell_formula_units_Z   2
loop_
 _symmetry_equiv_pos_site_id
 _symmetry_equiv_pos_as_xyz
  1  'x, y, z'
loop_
 _atom_site_type_symbol
 _atom_site_label
 _atom_site_symmetry_multiplicity
 _atom_site_fract_x
 _atom_site_fract_y
 _atom_site_fract_z
 _atom_site_occupancy
  Sr  Sr0  1  0.49999300  0.75628700  0.99997000  1
  Sr  Sr1  1  0.00001200  0.24379700  0.50000100  1
  Sr  Sr2  1  0.50000500  0.24370200  0.99997600  1
  Sr  Sr3  1  0.99999700  0.75619200  0.50000600  1
  Cr  Cr4  1  0.99994700  0.50004000  0.00008900  1
  Cr  Cr5  1  0.50003500  0.99998900  0.49994900  1
  W  W6  1  0.49997600  0.49999300  0.50004900  1
  W  W7  1  0.00001200  0.00003200  0.99997300  1
  O  O8  1  0.25382200  0.50001300  0.74588600  1
  O  O9  1  0.74874200  0.99998300  0.25121000  1
  O  O10  1  0.74612700  0.49999300  0.25418600  1
  O  O11  1  0.25127000  0.99998300  0.74872700  1
  O  O12  1  0.24731400  0.50000500  0.24760600  1
  O  O13  1  0.74983400  0.99997800  0.74982900  1
  O  O14  1  0.75270400  0.50000000  0.75245600  1
  O  O15  1  0.25018700  0.99999200  0.25011900  1
  O  O16  1  0.99999300  0.75361400  0.00000400  1
  O  O17  1  0.50002800  0.24859000  0.49996400  1
  O  O18  1  0.00000600  0.24643500  0.00001600  1
  O  O19  1  0.49999500  0.75138400  0.49998400  1
