# generated using pymatgen
data_Mg14ZnSnO16
_symmetry_space_group_name_H-M   'P 1'
_cell_length_a   8.69974580
_cell_length_b   8.64046179
_cell_length_c   4.37134653
_cell_angle_alpha   90.00000000
_cell_angle_beta   90.00000000
_cell_angle_gamma   90.00000000
_symmetry_Int_Tables_number   1
_chemical_formula_structural   Mg14ZnSnO16
_chemical_formula_sum   'Mg14 Zn1 Sn1 O16'
_cell_volume   328.59333692
_cell_formula_units_Z   1
loop_
 _symmetry_equiv_pos_site_id
 _symmetry_equiv_pos_as_xyz
  1  'x, y, z'
loop_
 _atom_site_type_symbol
 _atom_site_label
 _atom_site_symmetry_multiplicity
 _atom_site_fract_x
 _atom_site_fract_y
 _atom_site_fract_z
 _atom_site_occupancy
  Mg  Mg0  1  0.50000000  0.00000000  -0.00000000  1
  Mg  Mg1  1  0.50000000  0.50000000  -0.00000000  1
  Mg  Mg2  1  0.00000000  0.24020385  0.50000000  1
  Mg  Mg3  1  0.00000000  0.75979615  0.50000000  1
  Mg  Mg4  1  0.50000000  0.24831822  0.50000000  1
  Mg  Mg5  1  0.50000000  0.75168178  0.50000000  1
  Mg  Mg6  1  0.25121186  0.00000000  0.50000000  1
  Mg  Mg7  1  0.25927764  0.50000000  0.50000000  1
  Mg  Mg8  1  0.74878814  0.00000000  0.50000000  1
  Mg  Mg9  1  0.74072236  0.50000000  0.50000000  1
  Mg  Mg10  1  0.25544260  0.24480752  0.00000000  1
  Mg  Mg11  1  0.25544260  0.75519248  -0.00000000  1
  Mg  Mg12  1  0.74455740  0.24480752  -0.00000000  1
  Mg  Mg13  1  0.74455740  0.75519248  -0.00000000  1
  Zn  Zn14  1  0.00000000  0.00000000  -0.00000000  1
  Sn  Sn15  1  0.00000000  0.50000000  -0.00000000  1
  O  O16  1  0.26030552  0.00000000  0.00000000  1
  O  O17  1  0.27127493  0.50000000  -0.00000000  1
  O  O18  1  0.73969448  0.00000000  -0.00000000  1
  O  O19  1  0.72872507  0.50000000  -0.00000000  1
  O  O20  1  0.24905774  0.25016421  0.50000000  1
  O  O21  1  0.24905774  0.74983579  0.50000000  1
  O  O22  1  0.75094226  0.25016421  0.50000000  1
  O  O23  1  0.75094226  0.74983579  0.50000000  1
  O  O24  1  0.00000000  0.00000000  0.50000000  1
  O  O25  1  0.00000000  0.50000000  0.50000000  1
  O  O26  1  0.50000000  0.00000000  0.50000000  1
  O  O27  1  0.50000000  0.50000000  0.50000000  1
  O  O28  1  0.00000000  0.22989474  0.00000000  1
  O  O29  1  0.00000000  0.77010526  -0.00000000  1
  O  O30  1  0.50000000  0.24723579  -0.00000000  1
  O  O31  1  0.50000000  0.75276421  -0.00000000  1
