# generated using pymatgen
data_LiNdGdFeO6
_symmetry_space_group_name_H-M   'P 1'
_cell_length_a   7.83618317
_cell_length_b   7.94299753
_cell_length_c   7.85265804
_cell_angle_alpha   90.00000000
_cell_angle_beta   90.00000000
_cell_angle_gamma   90.00000000
_symmetry_Int_Tables_number   1
_chemical_formula_structural   LiNdGdFeO6
_chemical_formula_sum   'Li4 Nd4 Gd4 Fe4 O24'
_cell_volume   488.77129479
_cell_formula_units_Z   4
loop_
 _symmetry_equiv_pos_site_id
 _symmetry_equiv_pos_as_xyz
  1  'x, y, z'
loop_
 _atom_site_type_symbol
 _atom_site_label
 _atom_site_symmetry_multiplicity
 _atom_site_fract_x
 _atom_site_fract_y
 _atom_site_fract_z
 _atom_site_occupancy
  Li  Li0  1  0.25000000  0.25000000  0.25000000  1
  Li  Li1  1  0.75000000  0.75000000  0.25000000  1
  Li  Li2  1  0.75000000  0.25000000  0.75000000  1
  Li  Li3  1  0.25000000  0.75000000  0.75000000  1
  Nd  Nd4  1  0.50000000  -0.00000000  0.50000000  1
  Nd  Nd5  1  0.50000000  0.50000000  0.00000000  1
  Nd  Nd6  1  -0.00000000  0.50000000  0.00000000  1
  Nd  Nd7  1  -0.00000000  -0.00000000  0.50000000  1
  Gd  Gd8  1  -0.00000000  0.50000000  0.50000000  1
  Gd  Gd9  1  0.50000000  -0.00000000  0.00000000  1
  Gd  Gd10  1  -0.00000000  -0.00000000  0.00000000  1
  Gd  Gd11  1  0.50000000  0.50000000  0.50000000  1
  Fe  Fe12  1  0.75000000  0.75000000  0.75000000  1
  Fe  Fe13  1  0.25000000  0.25000000  0.75000000  1
  Fe  Fe14  1  0.25000000  0.75000000  0.25000000  1
  Fe  Fe15  1  0.75000000  0.25000000  0.25000000  1
  O  O16  1  0.98629253  0.20755724  0.27747451  1
  O  O17  1  0.01370747  0.79244276  0.27747451  1
  O  O18  1  0.01370747  0.20755724  0.72252549  1
  O  O19  1  0.98629253  0.79244276  0.72252549  1
  O  O20  1  0.28115837  0.98734729  0.20456525  1
  O  O21  1  0.28115837  0.01265271  0.79543475  1
  O  O22  1  0.71884163  0.01265271  0.20456525  1
  O  O23  1  0.71884163  0.98734729  0.79543475  1
  O  O24  1  0.20735853  0.27881224  0.98834457  1
  O  O25  1  0.79264147  0.27881224  0.01165543  1
  O  O26  1  0.20735853  0.72118776  0.01165543  1
  O  O27  1  0.79264147  0.72118776  0.98834457  1
  O  O28  1  0.51370747  0.29244276  0.22252549  1
  O  O29  1  0.48629253  0.70755724  0.22252549  1
  O  O30  1  0.48629253  0.29244276  0.77747451  1
  O  O31  1  0.51370747  0.70755724  0.77747451  1
  O  O32  1  0.21884163  0.51265271  0.29543475  1
  O  O33  1  0.21884163  0.48734729  0.70456525  1
  O  O34  1  0.78115837  0.48734729  0.29543475  1
  O  O35  1  0.78115837  0.51265271  0.70456525  1
  O  O36  1  0.29264147  0.22118776  0.51165543  1
  O  O37  1  0.70735853  0.22118776  0.48834457  1
  O  O38  1  0.29264147  0.77881224  0.48834457  1
  O  O39  1  0.70735853  0.77881224  0.51165543  1
