# generated using pymatgen
data_Rb3HoCl6
_symmetry_space_group_name_H-M   'P 1'
_cell_length_a   13.46680766
_cell_length_b   13.46680766
_cell_length_c   12.78380477
_cell_angle_alpha   80.99798892
_cell_angle_beta   80.99798892
_cell_angle_gamma   34.22381227
_symmetry_Int_Tables_number   1
_chemical_formula_structural   Rb3HoCl6
_chemical_formula_sum   'Rb12 Ho4 Cl24'
_cell_volume   1286.34070609
_cell_formula_units_Z   4
loop_
 _symmetry_equiv_pos_site_id
 _symmetry_equiv_pos_as_xyz
  1  'x, y, z'
loop_
 _atom_site_type_symbol
 _atom_site_label
 _atom_site_symmetry_multiplicity
 _atom_site_fract_x
 _atom_site_fract_y
 _atom_site_fract_z
 _atom_site_occupancy
  Rb  Rb0  1  0.29425276  0.80919875  0.06311991  1
  Rb  Rb1  1  0.70574724  0.19080125  0.93688009  1
  Rb  Rb2  1  0.19080125  0.70574724  0.43688009  1
  Rb  Rb3  1  0.80919875  0.29425276  0.56311991  1
  Rb  Rb4  1  0.47032649  0.83721346  0.35504298  1
  Rb  Rb5  1  0.52967351  0.16278654  0.64495702  1
  Rb  Rb6  1  0.16278654  0.52967351  0.14495702  1
  Rb  Rb7  1  0.83721346  0.47032649  0.85504298  1
  Rb  Rb8  1  0.65266038  0.02303166  0.30234710  1
  Rb  Rb9  1  0.34733962  0.97696834  0.69765290  1
  Rb  Rb10  1  0.97696834  0.34733962  0.19765290  1
  Rb  Rb11  1  0.02303166  0.65266038  0.80234710  1
  Ho  Ho12  1  0.79299154  0.20700846  0.25000000  1
  Ho  Ho13  1  0.20700846  0.79299154  0.75000000  1
  Ho  Ho14  1  0.50000000  -0.00000000  -0.00000000  1
  Ho  Ho15  1  0.00000000  0.50000000  0.50000000  1
  Cl  Cl16  1  0.62184991  0.72088845  0.07808194  1
  Cl  Cl17  1  0.37815009  0.27911155  0.92191806  1
  Cl  Cl18  1  0.27911155  0.37815009  0.42191806  1
  Cl  Cl19  1  0.72088845  0.62184991  0.57808194  1
  Cl  Cl20  1  0.50779288  0.37108981  0.17959638  1
  Cl  Cl21  1  0.49220712  0.62891019  0.82040362  1
  Cl  Cl22  1  0.62891019  0.49220712  0.32040362  1
  Cl  Cl23  1  0.37108981  0.50779288  0.67959638  1
  Cl  Cl24  1  0.78653460  0.85870695  0.03408161  1
  Cl  Cl25  1  0.21346540  0.14129305  0.96591839  1
  Cl  Cl26  1  0.14129305  0.21346540  0.46591839  1
  Cl  Cl27  1  0.85870695  0.78653460  0.53408161  1
  Cl  Cl28  1  0.89920631  0.97977839  0.70157878  1
  Cl  Cl29  1  0.10079369  0.02022161  0.29842122  1
  Cl  Cl30  1  0.02022161  0.10079369  0.79842122  1
  Cl  Cl31  1  0.97977839  0.89920631  0.20157878  1
  Cl  Cl32  1  0.72880824  0.15738905  0.43749508  1
  Cl  Cl33  1  0.27119176  0.84261095  0.56250492  1
  Cl  Cl34  1  0.84261095  0.27119176  0.06250492  1
  Cl  Cl35  1  0.15738905  0.72880824  0.93749508  1
  Cl  Cl36  1  0.36442538  0.13612836  0.18835230  1
  Cl  Cl37  1  0.63557462  0.86387164  0.81164770  1
  Cl  Cl38  1  0.86387164  0.63557462  0.31164770  1
  Cl  Cl39  1  0.13612836  0.36442538  0.68835230  1
