# generated using pymatgen
data_Rb2Cd3Se4
_symmetry_space_group_name_H-M   'P 1'
_cell_length_a   6.86574491
_cell_length_b   11.10268949
_cell_length_c   14.77745728
_cell_angle_alpha   90.00000000
_cell_angle_beta   90.00000000
_cell_angle_gamma   90.00000000
_symmetry_Int_Tables_number   1
_chemical_formula_structural   Rb2Cd3Se4
_chemical_formula_sum   'Rb8 Cd12 Se16'
_cell_volume   1126.45946930
_cell_formula_units_Z   4
loop_
 _symmetry_equiv_pos_site_id
 _symmetry_equiv_pos_as_xyz
  1  'x, y, z'
loop_
 _atom_site_type_symbol
 _atom_site_label
 _atom_site_symmetry_multiplicity
 _atom_site_fract_x
 _atom_site_fract_y
 _atom_site_fract_z
 _atom_site_occupancy
  Rb  Rb0  1  0.02168063  0.25000000  0.53778830  1
  Rb  Rb1  1  0.52168063  0.75000000  0.96221170  1
  Rb  Rb2  1  0.97831937  0.75000000  0.46221170  1
  Rb  Rb3  1  0.47831937  0.25000000  0.03778830  1
  Rb  Rb4  1  0.50000000  0.50000000  0.50000000  1
  Rb  Rb5  1  0.00000000  -0.00000000  -0.00000000  1
  Rb  Rb6  1  0.50000000  -0.00000000  0.50000000  1
  Rb  Rb7  1  0.00000000  0.50000000  -0.00000000  1
  Cd  Cd8  1  0.81472116  0.59462405  0.75494541  1
  Cd  Cd9  1  0.31472116  0.40537595  0.74505459  1
  Cd  Cd10  1  0.18527884  0.09462405  0.24505459  1
  Cd  Cd11  1  0.68527884  0.90537595  0.25494541  1
  Cd  Cd12  1  0.18527884  0.40537595  0.24505459  1
  Cd  Cd13  1  0.68527884  0.59462405  0.25494541  1
  Cd  Cd14  1  0.81472116  0.90537595  0.75494541  1
  Cd  Cd15  1  0.31472116  0.09462405  0.74505459  1
  Cd  Cd16  1  0.75313850  0.25000000  0.29337748  1
  Cd  Cd17  1  0.25313850  0.75000000  0.20662252  1
  Cd  Cd18  1  0.24686150  0.75000000  0.70662252  1
  Cd  Cd19  1  0.74686150  0.25000000  0.79337748  1
  Se  Se20  1  0.09604601  0.53748430  0.63799445  1
  Se  Se21  1  0.59604601  0.46251570  0.86200555  1
  Se  Se22  1  0.90395399  0.03748430  0.36200555  1
  Se  Se23  1  0.40395399  0.96251570  0.13799445  1
  Se  Se24  1  0.90395399  0.46251570  0.36200555  1
  Se  Se25  1  0.40395399  0.53748430  0.13799445  1
  Se  Se26  1  0.09604601  0.96251570  0.63799445  1
  Se  Se27  1  0.59604601  0.03748430  0.86200555  1
  Se  Se28  1  0.96067893  0.25000000  0.13964853  1
  Se  Se29  1  0.46067893  0.75000000  0.36035147  1
  Se  Se30  1  0.03932107  0.75000000  0.86035147  1
  Se  Se31  1  0.53932107  0.25000000  0.63964853  1
  Se  Se32  1  0.89115529  0.75000000  0.15255258  1
  Se  Se33  1  0.60884471  0.75000000  0.65255258  1
  Se  Se34  1  0.10884471  0.25000000  0.84744742  1
  Se  Se35  1  0.39115529  0.25000000  0.34744742  1
