# generated using pymatgen
data_Rb3TmO3
_symmetry_space_group_name_H-M   'P 1'
_cell_length_a   7.17717613
_cell_length_b   7.17717613
_cell_length_c   7.16923783
_cell_angle_alpha   84.98459698
_cell_angle_beta   84.98459698
_cell_angle_gamma   115.98312666
_symmetry_Int_Tables_number   1
_chemical_formula_structural   Rb3TmO3
_chemical_formula_sum   'Rb6 Tm2 O6'
_cell_volume   327.42635020
_cell_formula_units_Z   2
loop_
 _symmetry_equiv_pos_site_id
 _symmetry_equiv_pos_as_xyz
  1  'x, y, z'
loop_
 _atom_site_type_symbol
 _atom_site_label
 _atom_site_symmetry_multiplicity
 _atom_site_fract_x
 _atom_site_fract_y
 _atom_site_fract_z
 _atom_site_occupancy
  Rb  Rb0  1  0.63814135  0.63814135  0.64088156  1
  Rb  Rb1  1  0.20499296  0.79500704  0.50000000  1
  Rb  Rb2  1  0.79500704  0.20499296  0.50000000  1
  Rb  Rb3  1  0.74015434  0.25984566  -0.00000000  1
  Rb  Rb4  1  0.25984566  0.74015434  -0.00000000  1
  Rb  Rb5  1  0.36185865  0.36185865  0.35911844  1
  Tm  Tm6  1  0.82381641  0.82381641  0.14890004  1
  Tm  Tm7  1  0.17618359  0.17618359  0.85109996  1
  O  O8  1  0.89719953  0.89719953  0.84646465  1
  O  O9  1  0.83400958  0.55604919  0.26828106  1
  O  O10  1  0.55604919  0.83400958  0.26828106  1
  O  O11  1  0.16599042  0.44395081  0.73171894  1
  O  O12  1  0.44395081  0.16599042  0.73171894  1
  O  O13  1  0.10280047  0.10280047  0.15353535  1
