# generated using pymatgen
data_RbMoP2O7
_symmetry_space_group_name_H-M   'P 1'
_cell_length_a   10.41572371
_cell_length_b   7.52290926
_cell_length_c   8.43097885
_cell_angle_alpha   74.18116820
_cell_angle_beta   90.00000000
_cell_angle_gamma   90.00000000
_symmetry_Int_Tables_number   1
_chemical_formula_structural   RbMoP2O7
_chemical_formula_sum   'Rb4 Mo4 P8 O28'
_cell_volume   635.60357459
_cell_formula_units_Z   4
loop_
 _symmetry_equiv_pos_site_id
 _symmetry_equiv_pos_as_xyz
  1  'x, y, z'
loop_
 _atom_site_type_symbol
 _atom_site_label
 _atom_site_symmetry_multiplicity
 _atom_site_fract_x
 _atom_site_fract_y
 _atom_site_fract_z
 _atom_site_occupancy
  Rb  Rb0  1  0.82010981  0.18597654  0.44497623  1
  Rb  Rb1  1  0.32010981  0.81402346  0.05502377  1
  Rb  Rb2  1  0.17989019  0.81402346  0.55502377  1
  Rb  Rb3  1  0.67989019  0.18597654  0.94497623  1
  Mo  Mo4  1  0.09979142  0.23514012  0.74074901  1
  Mo  Mo5  1  0.59979142  0.76485988  0.75925099  1
  Mo  Mo6  1  0.90020858  0.76485988  0.25925099  1
  Mo  Mo7  1  0.40020858  0.23514012  0.24074901  1
  P  P8  1  0.39998908  0.12983096  0.67257389  1
  P  P9  1  0.89998908  0.87016904  0.82742611  1
  P  P10  1  0.60001092  0.87016904  0.32742611  1
  P  P11  1  0.10001092  0.12983096  0.17257389  1
  P  P12  1  0.13581648  0.43782402  0.30862470  1
  P  P13  1  0.63581648  0.56217598  0.19137530  1
  P  P14  1  0.86418352  0.56217598  0.69137530  1
  P  P15  1  0.36418352  0.43782402  0.80862470  1
  O  O16  1  0.27825067  0.45026724  0.26621628  1
  O  O17  1  0.77825067  0.54973276  0.23378372  1
  O  O18  1  0.72174933  0.54973276  0.73378372  1
  O  O19  1  0.22174933  0.45026724  0.76621628  1
  O  O20  1  0.00115175  0.00238562  0.27827352  1
  O  O21  1  0.50115175  -0.00238562  0.22172648  1
  O  O22  1  0.99884825  -0.00238562  0.72172648  1
  O  O23  1  0.49884825  0.00238562  0.77827352  1
  O  O24  1  0.10348748  0.32349265  0.48047323  1
  O  O25  1  0.60348748  0.67650735  0.01952677  1
  O  O26  1  0.89651252  0.67650735  0.51952677  1
  O  O27  1  0.39651252  0.32349265  0.98047323  1
  O  O28  1  0.09448556  0.13556501  0.99454974  1
  O  O29  1  0.59448556  0.86443499  0.50545026  1
  O  O30  1  0.90551444  0.86443499  0.00545026  1
  O  O31  1  0.40551444  0.13556501  0.49454974  1
  O  O32  1  0.43297467  0.33352280  0.68717387  1
  O  O33  1  0.93297467  0.66647720  0.81282613  1
  O  O34  1  0.56702533  0.66647720  0.31282613  1
  O  O35  1  0.06702533  0.33352280  0.18717387  1
  O  O36  1  0.26721352  0.07832936  0.74731853  1
  O  O37  1  0.76721352  0.92167064  0.75268147  1
  O  O38  1  0.73278648  0.92167064  0.25268147  1
  O  O39  1  0.23278648  0.07832936  0.24731853  1
  O  O40  1  0.41990390  0.63086603  0.76275938  1
  O  O41  1  0.91990390  0.36913397  0.73724062  1
  O  O42  1  0.58009610  0.36913397  0.23724062  1
  O  O43  1  0.08009610  0.63086603  0.26275938  1
