# generated using pymatgen
data_NbF5
_symmetry_space_group_name_H-M   'P 1'
_cell_length_a   4.94144809
_cell_length_b   8.61937738
_cell_length_c   8.61937798
_cell_angle_alpha   113.03569136
_cell_angle_beta   94.71698421
_cell_angle_gamma   94.71699061
_symmetry_Int_Tables_number   1
_chemical_formula_structural   NbF5
_chemical_formula_sum   'Nb4 F20'
_cell_volume   334.07033376
_cell_formula_units_Z   4
loop_
 _symmetry_equiv_pos_site_id
 _symmetry_equiv_pos_as_xyz
  1  'x, y, z'
loop_
 _atom_site_type_symbol
 _atom_site_label
 _atom_site_symmetry_multiplicity
 _atom_site_fract_x
 _atom_site_fract_y
 _atom_site_fract_z
 _atom_site_occupancy
  Nb  Nb0  1  0.74193903  0.26261476  0.26261476  1
  Nb  Nb1  1  0.25806097  0.73738524  0.73738524  1
  Nb  Nb2  1  -0.00000000  0.20512689  0.79487311  1
  Nb  Nb3  1  0.00000000  0.79487311  0.20512689  1
  F  F4  1  0.12697450  0.16835929  0.58761235  1
  F  F5  1  0.87302550  0.41238765  0.83164071  1
  F  F6  1  0.87302550  0.83164071  0.41238765  1
  F  F7  1  0.12697450  0.58761235  0.16835929  1
  F  F8  1  0.57727255  0.87242688  0.87242688  1
  F  F9  1  0.42272745  0.12757312  0.12757312  1
  F  F10  1  0.88469487  0.65315930  0.65315930  1
  F  F11  1  0.11530513  0.34684070  0.34684070  1
  F  F12  1  0.35375827  0.52938254  0.72516334  1
  F  F13  1  0.64624173  0.27483666  0.47061746  1
  F  F14  1  0.64624173  0.47061746  0.27483666  1
  F  F15  1  0.35375827  0.72516334  0.52938254  1
  F  F16  1  0.12014003  0.78019414  0.97285931  1
  F  F17  1  0.87985997  0.02714069  0.21980586  1
  F  F18  1  0.87985997  0.21980586  0.02714069  1
  F  F19  1  0.12014003  0.97285931  0.78019414  1
  F  F20  1  0.65664725  0.70104954  0.07315948  1
  F  F21  1  0.34335275  0.92684052  0.29895046  1
  F  F22  1  0.34335275  0.29895046  0.92684052  1
  F  F23  1  0.65664725  0.07315948  0.70104954  1
