# generated using pymatgen
data_Re2MoSe4
_symmetry_space_group_name_H-M   'P 1'
_cell_length_a   6.73161786
_cell_length_b   6.72947420
_cell_length_c   6.73398488
_cell_angle_alpha   93.24509120
_cell_angle_beta   93.71242598
_cell_angle_gamma   93.73500155
_symmetry_Int_Tables_number   1
_chemical_formula_structural   Re2MoSe4
_chemical_formula_sum   'Re4 Mo2 Se8'
_cell_volume   303.19728636
_cell_formula_units_Z   2
loop_
 _symmetry_equiv_pos_site_id
 _symmetry_equiv_pos_as_xyz
  1  'x, y, z'
loop_
 _atom_site_type_symbol
 _atom_site_label
 _atom_site_symmetry_multiplicity
 _atom_site_fract_x
 _atom_site_fract_y
 _atom_site_fract_z
 _atom_site_occupancy
  Re  Re0  1  0.54753147  0.41295354  0.24107266  1
  Re  Re1  1  0.76052817  0.45434943  0.58857555  1
  Re  Re2  1  0.58537107  0.76134124  0.45140565  1
  Re  Re3  1  0.45154909  0.58748441  0.76078031  1
  Mo  Mo4  1  0.23783589  0.54413380  0.41162123  1
  Mo  Mo5  1  0.41189498  0.23867877  0.54900053  1
  Se  Se6  1  0.37544877  0.72703551  0.12175255  1
  Se  Se7  1  0.12271134  0.37351307  0.73325201  1
  Se  Se8  1  0.73490404  0.12708593  0.37395483  1
  Se  Se9  1  0.62555147  0.27529629  0.87916157  1
  Se  Se10  1  0.87161429  0.62674515  0.27241516  1
  Se  Se11  1  0.27366468  0.87312664  0.62283517  1
  Se  Se12  1  0.21801512  0.21191552  0.21112801  1
  Se  Se13  1  0.78337964  0.78633870  0.78304475  1
