# generated using pymatgen
data_Tm(IO3)3
_symmetry_space_group_name_H-M   'P 1'
_cell_length_a   8.42746523
_cell_length_b   6.99374385
_cell_length_c   13.22318534
_cell_angle_alpha   80.12114406
_cell_angle_beta   90.00000000
_cell_angle_gamma   90.00000000
_symmetry_Int_Tables_number   1
_chemical_formula_structural   Tm(IO3)3
_chemical_formula_sum   'Tm4 I12 O36'
_cell_volume   767.81244641
_cell_formula_units_Z   4
loop_
 _symmetry_equiv_pos_site_id
 _symmetry_equiv_pos_as_xyz
  1  'x, y, z'
loop_
 _atom_site_type_symbol
 _atom_site_label
 _atom_site_symmetry_multiplicity
 _atom_site_fract_x
 _atom_site_fract_y
 _atom_site_fract_z
 _atom_site_occupancy
  Tm  Tm0  1  0.75531962  0.82826749  0.14677637  1
  Tm  Tm1  1  0.24468038  0.17173251  0.85322363  1
  Tm  Tm2  1  0.25531962  0.17173251  0.35322363  1
  Tm  Tm3  1  0.74468038  0.82826749  0.64677637  1
  I  I4  1  0.29077720  0.83776550  0.10998960  1
  I  I5  1  0.70922280  0.16223450  0.89001040  1
  I  I6  1  0.79077720  0.16223450  0.39001040  1
  I  I7  1  0.20922280  0.83776550  0.60998960  1
  I  I8  1  0.51866589  0.72964527  0.38909343  1
  I  I9  1  0.48133411  0.27035473  0.61090657  1
  I  I10  1  0.01866589  0.27035473  0.11090657  1
  I  I11  1  0.98133411  0.72964527  0.88909343  1
  I  I12  1  0.54077043  0.33181345  0.14250312  1
  I  I13  1  0.45922957  0.66818655  0.85749688  1
  I  I14  1  0.04077043  0.66818655  0.35749688  1
  I  I15  1  0.95922957  0.33181345  0.64250312  1
  O  O16  1  0.47372116  0.84863592  0.18084423  1
  O  O17  1  0.52627884  0.15136408  0.81915577  1
  O  O18  1  0.97372116  0.15136408  0.31915577  1
  O  O19  1  0.02627884  0.84863592  0.68084423  1
  O  O20  1  0.19353279  0.85120712  0.32227891  1
  O  O21  1  0.80646721  0.14879288  0.67772109  1
  O  O22  1  0.69353279  0.14879288  0.17772109  1
  O  O23  1  0.30646721  0.85120712  0.82227891  1
  O  O24  1  0.83233758  0.96390735  0.49301400  1
  O  O25  1  0.16766242  0.03609265  0.50698600  1
  O  O26  1  0.33233758  0.03609265  0.00698600  1
  O  O27  1  0.66766242  0.96390735  0.99301400  1
  O  O28  1  0.67109690  0.53527597  0.13741561  1
  O  O29  1  0.32890310  0.46472403  0.86258439  1
  O  O30  1  0.17109690  0.46472403  0.36258439  1
  O  O31  1  0.82890310  0.53527597  0.63741561  1
  O  O32  1  0.70920755  0.77729078  0.32333846  1
  O  O33  1  0.29079245  0.22270922  0.67666154  1
  O  O34  1  0.20920755  0.22270922  0.17666154  1
  O  O35  1  0.79079245  0.77729078  0.82333846  1
  O  O36  1  0.96504583  0.65801299  0.23019338  1
  O  O37  1  0.03495417  0.34198701  0.76980662  1
  O  O38  1  0.46504583  0.34198701  0.26980662  1
  O  O39  1  0.53495417  0.65801299  0.73019338  1
  O  O40  1  0.33218565  0.63435196  0.04589373  1
  O  O41  1  0.66781435  0.36564804  0.95410627  1
  O  O42  1  0.83218565  0.36564804  0.45410627  1
  O  O43  1  0.16781435  0.63435196  0.54589373  1
  O  O44  1  0.46858444  0.98127218  0.38728668  1
  O  O45  1  0.53141556  0.01872782  0.61271332  1
  O  O46  1  0.96858444  0.01872782  0.11271332  1
  O  O47  1  0.03141556  0.98127218  0.88728668  1
  O  O48  1  0.92218892  0.67843613  0.02160390  1
  O  O49  1  0.07781108  0.32156387  0.97839610  1
  O  O50  1  0.42218892  0.32156387  0.47839610  1
  O  O51  1  0.57781108  0.67843613  0.52160390  1
