# generated using pymatgen
data_AsPO5
_symmetry_space_group_name_H-M   'P 1'
_cell_length_a   4.54588337
_cell_length_b   8.21278296
_cell_length_c   8.43484632
_cell_angle_alpha   90.00000000
_cell_angle_beta   90.00000000
_cell_angle_gamma   90.00000000
_symmetry_Int_Tables_number   1
_chemical_formula_structural   AsPO5
_chemical_formula_sum   'As4 P4 O20'
_cell_volume   314.90953405
_cell_formula_units_Z   4
loop_
 _symmetry_equiv_pos_site_id
 _symmetry_equiv_pos_as_xyz
  1  'x, y, z'
loop_
 _atom_site_type_symbol
 _atom_site_label
 _atom_site_symmetry_multiplicity
 _atom_site_fract_x
 _atom_site_fract_y
 _atom_site_fract_z
 _atom_site_occupancy
  As  As0  1  0.62325088  0.34978649  0.59933789  1
  As  As1  1  0.12325088  0.15021351  0.40066211  1
  As  As2  1  0.37674912  0.84978649  0.90066211  1
  As  As3  1  0.87674912  0.65021351  0.09933789  1
  P  P4  1  0.61490726  0.96629234  0.21593300  1
  P  P5  1  0.11490726  0.53370766  0.78406700  1
  P  P6  1  0.38509274  0.46629234  0.28406700  1
  P  P7  1  0.88509274  0.03370766  0.71593300  1
  O  O8  1  0.04535329  0.50414709  0.96125251  1
  O  O9  1  0.54535329  0.99585291  0.03874749  1
  O  O10  1  0.95464671  0.00414709  0.53874749  1
  O  O11  1  0.45464671  0.49585291  0.46125251  1
  O  O12  1  0.21040404  0.71134526  0.75279470  1
  O  O13  1  0.71040404  0.78865474  0.24720530  1
  O  O14  1  0.78959596  0.21134526  0.74720530  1
  O  O15  1  0.28959596  0.28865474  0.25279470  1
  O  O16  1  0.90450173  0.31845703  0.45662187  1
  O  O17  1  0.40450173  0.18154297  0.54337813  1
  O  O18  1  0.09549827  0.81845703  0.04337813  1
  O  O19  1  0.59549827  0.68154297  0.95662187  1
  O  O20  1  0.15012717  0.59403537  0.25017082  1
  O  O21  1  0.65012717  0.90596463  0.74982918  1
  O  O22  1  0.84987283  0.09403537  0.24982918  1
  O  O23  1  0.34987283  0.40596463  0.75017082  1
  O  O24  1  0.65673260  0.48202993  0.17753155  1
  O  O25  1  0.15673260  0.01797007  0.82246845  1
  O  O26  1  0.34326740  0.98202993  0.32246845  1
  O  O27  1  0.84326740  0.51797007  0.67753155  1
