# generated using pymatgen
data_Sr4LiMn2(GaO5)2
_symmetry_space_group_name_H-M   'P 1'
_cell_length_a   5.82015685
_cell_length_b   5.82630219
_cell_length_c   9.02221128
_cell_angle_alpha   72.64129449
_cell_angle_beta   72.88944872
_cell_angle_gamma   94.23546542
_symmetry_Int_Tables_number   1
_chemical_formula_structural   Sr4LiMn2(GaO5)2
_chemical_formula_sum   'Sr4 Li1 Mn2 Ga2 O10'
_cell_volume   274.66834601
_cell_formula_units_Z   1
loop_
 _symmetry_equiv_pos_site_id
 _symmetry_equiv_pos_as_xyz
  1  'x, y, z'
loop_
 _atom_site_type_symbol
 _atom_site_label
 _atom_site_symmetry_multiplicity
 _atom_site_fract_x
 _atom_site_fract_y
 _atom_site_fract_z
 _atom_site_occupancy
  Sr  Sr0  1  0.13502400  0.57313800  0.80589700  1
  Sr  Sr1  1  0.91746700  0.35253500  0.22851000  1
  Sr  Sr2  1  0.56021100  0.12659800  0.80690200  1
  Sr  Sr3  1  0.35110500  0.91601700  0.22880300  1
  Li  Li4  1  0.89119300  0.89422200  0.70780100  1
  Mn  Mn5  1  0.50155600  0.49866000  0.01952200  1
  Mn  Mn6  1  0.98415300  0.98695900  0.01175300  1
  Ga  Ga7  1  0.67410900  0.67828200  0.49716100  1
  Ga  Ga8  1  0.33345100  0.32616200  0.49229100  1
  O  O9  1  0.24432700  0.24550700  0.99860200  1
  O  O10  1  0.22712200  0.75481100  0.01468200  1
  O  O11  1  0.75707000  0.23255000  0.00841200  1
  O  O12  1  0.77168300  0.77531300  0.96329500  1
  O  O13  1  0.65341900  0.67026100  0.70671800  1
  O  O14  1  0.33084000  0.32395700  0.28937100  1
  O  O15  1  0.14111600  0.11611100  0.69423100  1
  O  O16  1  0.88308900  0.88926100  0.30091100  1
  O  O17  1  0.33517500  0.65499400  0.50184700  1
  O  O18  1  0.66503400  0.34180500  0.50186200  1
