# generated using pymatgen
data_Li7PN4
_symmetry_space_group_name_H-M   'P 1'
_cell_length_a   9.28790592
_cell_length_b   9.28790592
_cell_length_c   9.28790592
_cell_angle_alpha   90.00000000
_cell_angle_beta   90.00000000
_cell_angle_gamma   90.00000000
_symmetry_Int_Tables_number   1
_chemical_formula_structural   Li7PN4
_chemical_formula_sum   'Li56 P8 N32'
_cell_volume   801.22302814
_cell_formula_units_Z   8
loop_
 _symmetry_equiv_pos_site_id
 _symmetry_equiv_pos_as_xyz
  1  'x, y, z'
loop_
 _atom_site_type_symbol
 _atom_site_label
 _atom_site_symmetry_multiplicity
 _atom_site_fract_x
 _atom_site_fract_y
 _atom_site_fract_z
 _atom_site_occupancy
  Li  Li0  1  -0.00000000  0.50000000  0.50000000  1
  Li  Li1  1  0.50000000  -0.00000000  -0.00000000  1
  Li  Li2  1  -0.00000000  -0.00000000  0.50000000  1
  Li  Li3  1  -0.00000000  0.50000000  -0.00000000  1
  Li  Li4  1  0.50000000  -0.00000000  0.50000000  1
  Li  Li5  1  0.50000000  0.50000000  -0.00000000  1
  Li  Li6  1  0.25000000  -0.00000000  0.50000000  1
  Li  Li7  1  -0.00000000  0.50000000  0.75000000  1
  Li  Li8  1  -0.00000000  0.50000000  0.25000000  1
  Li  Li9  1  0.50000000  0.25000000  -0.00000000  1
  Li  Li10  1  0.50000000  0.75000000  -0.00000000  1
  Li  Li11  1  0.75000000  -0.00000000  0.50000000  1
  Li  Li12  1  0.22548491  0.22548491  0.22548491  1
  Li  Li13  1  0.27451509  0.72548491  0.27451509  1
  Li  Li14  1  0.27451509  0.27451509  0.72548491  1
  Li  Li15  1  0.72548491  0.27451509  0.27451509  1
  Li  Li16  1  0.77451509  0.77451509  0.22548491  1
  Li  Li17  1  0.22548491  0.77451509  0.77451509  1
  Li  Li18  1  0.77451509  0.22548491  0.77451509  1
  Li  Li19  1  0.72548491  0.72548491  0.72548491  1
  Li  Li20  1  0.25353393  0.23661250  0.97588170  1
  Li  Li21  1  0.24646607  0.47588170  0.26338750  1
  Li  Li22  1  0.24646607  0.52411830  0.73661250  1
  Li  Li23  1  0.52411830  0.26338750  0.75353393  1
  Li  Li24  1  0.47588170  0.26338750  0.24646607  1
  Li  Li25  1  0.73661250  0.24646607  0.52411830  1
  Li  Li26  1  0.26338750  0.75353393  0.52411830  1
  Li  Li27  1  0.97588170  0.25353393  0.23661250  1
  Li  Li28  1  0.23661250  0.97588170  0.25353393  1
  Li  Li29  1  0.76338750  0.02411830  0.25353393  1
  Li  Li30  1  0.97588170  0.74646607  0.76338750  1
  Li  Li31  1  0.76338750  0.97588170  0.74646607  1
  Li  Li32  1  0.02411830  0.74646607  0.23661250  1
  Li  Li33  1  0.02411830  0.25353393  0.76338750  1
  Li  Li34  1  0.23661250  0.02411830  0.74646607  1
  Li  Li35  1  0.25353393  0.76338750  0.02411830  1
  Li  Li36  1  0.74646607  0.23661250  0.02411830  1
  Li  Li37  1  0.74646607  0.76338750  0.97588170  1
  Li  Li38  1  0.26338750  0.24646607  0.47588170  1
  Li  Li39  1  0.73661250  0.75353393  0.47588170  1
  Li  Li40  1  0.52411830  0.73661250  0.24646607  1
  Li  Li41  1  0.47588170  0.73661250  0.75353393  1
  Li  Li42  1  0.75353393  0.52411830  0.26338750  1
  Li  Li43  1  0.75353393  0.47588170  0.73661250  1
  Li  Li44  1  0.26328985  -0.00000000  -0.00000000  1
  Li  Li45  1  0.23671015  0.50000000  0.50000000  1
  Li  Li46  1  0.50000000  0.50000000  0.76328985  1
  Li  Li47  1  0.50000000  0.50000000  0.23671015  1
  Li  Li48  1  0.50000000  0.23671015  0.50000000  1
  Li  Li49  1  0.50000000  0.76328985  0.50000000  1
  Li  Li50  1  -0.00000000  0.26328985  -0.00000000  1
  Li  Li51  1  -0.00000000  -0.00000000  0.26328985  1
  Li  Li52  1  -0.00000000  0.73671015  -0.00000000  1
  Li  Li53  1  -0.00000000  -0.00000000  0.73671015  1
  Li  Li54  1  0.73671015  -0.00000000  -0.00000000  1
  Li  Li55  1  0.76328985  0.50000000  0.50000000  1
  P  P56  1  0.50000000  0.50000000  0.50000000  1
  P  P57  1  -0.00000000  -0.00000000  -0.00000000  1
  P  P58  1  0.50000000  -0.00000000  0.75000000  1
  P  P59  1  0.75000000  0.50000000  -0.00000000  1
  P  P60  1  0.25000000  0.50000000  -0.00000000  1
  P  P61  1  -0.00000000  0.25000000  0.50000000  1
  P  P62  1  -0.00000000  0.75000000  0.50000000  1
  P  P63  1  0.50000000  -0.00000000  0.25000000  1
  N  N64  1  0.60380173  0.60380173  0.60380173  1
  N  N65  1  0.89619827  0.10380173  0.89619827  1
  N  N66  1  0.10380173  0.89619827  0.89619827  1
  N  N67  1  0.89619827  0.89619827  0.10380173  1
  N  N68  1  0.60380173  0.39619827  0.39619827  1
  N  N69  1  0.39619827  0.39619827  0.60380173  1
  N  N70  1  0.39619827  0.60380173  0.39619827  1
  N  N71  1  0.10380173  0.10380173  0.10380173  1
  N  N72  1  0.35085225  0.38716544  0.10005729  1
  N  N73  1  0.14914775  0.60005729  0.11283456  1
  N  N74  1  0.14914775  0.39994271  0.88716544  1
  N  N75  1  0.39994271  0.11283456  0.85085225  1
  N  N76  1  0.60005729  0.11283456  0.14914775  1
  N  N77  1  0.88716544  0.14914775  0.39994271  1
  N  N78  1  0.11283456  0.85085225  0.39994271  1
  N  N79  1  0.10005729  0.35085225  0.38716544  1
  N  N80  1  0.38716544  0.10005729  0.35085225  1
  N  N81  1  0.61283456  0.89994271  0.35085225  1
  N  N82  1  0.10005729  0.64914775  0.61283456  1
  N  N83  1  0.61283456  0.10005729  0.64914775  1
  N  N84  1  0.89994271  0.64914775  0.38716544  1
  N  N85  1  0.89994271  0.35085225  0.61283456  1
  N  N86  1  0.38716544  0.89994271  0.64914775  1
  N  N87  1  0.35085225  0.61283456  0.89994271  1
  N  N88  1  0.64914775  0.38716544  0.89994271  1
  N  N89  1  0.64914775  0.61283456  0.10005729  1
  N  N90  1  0.11283456  0.14914775  0.60005729  1
  N  N91  1  0.88716544  0.85085225  0.60005729  1
  N  N92  1  0.39994271  0.88716544  0.14914775  1
  N  N93  1  0.60005729  0.88716544  0.85085225  1
  N  N94  1  0.85085225  0.39994271  0.11283456  1
  N  N95  1  0.85085225  0.60005729  0.88716544  1
