# generated using pymatgen
data_Na7La7Th2Ti18O54
_symmetry_space_group_name_H-M   'P 1'
_cell_length_a   5.47095164
_cell_length_b   5.47095151
_cell_length_c   49.75348350
_cell_angle_alpha   119.66041250
_cell_angle_beta   119.66041164
_cell_angle_gamma   89.99440362
_symmetry_Int_Tables_number   1
_chemical_formula_structural   Na7La7Th2Ti18O54
_chemical_formula_sum   'Na7 La7 Th2 Ti18 O54'
_cell_volume   1063.78225670
_cell_formula_units_Z   1
loop_
 _symmetry_equiv_pos_site_id
 _symmetry_equiv_pos_as_xyz
  1  'x, y, z'
loop_
 _atom_site_type_symbol
 _atom_site_label
 _atom_site_symmetry_multiplicity
 _atom_site_fract_x
 _atom_site_fract_y
 _atom_site_fract_z
 _atom_site_occupancy
  Na  Na0  1  0.23519150  0.73519150  0.94115447  1
  Na  Na1  1  0.25200971  0.75200971  0.72265977  1
  Na  Na2  1  0.25354150  0.75354150  0.61190172  1
  Na  Na3  1  0.25204945  0.75204945  0.50046070  1
  Na  Na4  1  0.25313779  0.75313779  0.38959250  1
  Na  Na5  1  0.76111502  0.26111502  0.16914641  1
  Na  Na6  1  0.74555148  0.24555148  0.05457556  1
  La  La7  1  0.73011026  0.23011026  0.94002340  1
  La  La8  1  0.74371712  0.24371712  0.83193335  1
  La  La9  1  0.75503870  0.25503870  0.72334024  1
  La  La10  1  0.75147255  0.25147255  0.61143791  1
  La  La11  1  0.75193764  0.25193764  0.50042941  1
  La  La12  1  0.74784894  0.24784894  0.38840525  1
  La  La13  1  0.76520037  0.26520037  0.28114992  1
  Th  Th14  1  0.26381641  0.76381641  0.16973794  1
  Th  Th15  1  0.24230770  0.74230770  0.05386252  1
  Ti  Ti16  1  0.98610474  0.98610099  0.88579590  1
  Ti  Ti17  1  0.99990227  0.99988839  0.77775133  1
  Ti  Ti18  1  0.48610099  0.48610474  0.88579590  1
  Ti  Ti19  1  0.00272339  0.00273245  0.66727485  1
  Ti  Ti20  1  0.49988839  0.49990227  0.77775133  1
  Ti  Ti21  1  0.00323157  0.00323499  0.55627312  1
  Ti  Ti22  1  0.50273245  0.50272339  0.66727485  1
  Ti  Ti23  1  0.00353961  0.00353393  0.44522338  1
  Ti  Ti24  1  0.50323499  0.50323157  0.55627312  1
  Ti  Ti25  1  0.00558097  0.00555818  0.33456021  1
  Ti  Ti26  1  0.50353393  0.50353961  0.44522338  1
  Ti  Ti27  1  0.01288083  0.01286888  0.22508511  1
  Ti  Ti28  1  0.50555818  0.50558097  0.33456021  1
  Ti  Ti29  1  0.00202211  0.00204232  0.11157014  1
  Ti  Ti30  1  0.51286888  0.51288083  0.22508511  1
  Ti  Ti31  1  0.99265216  0.99264571  0.99836909  1
  Ti  Ti32  1  0.50204232  0.50202211  0.11157014  1
  Ti  Ti33  1  0.49264571  0.49265216  0.99836909  1
  O  O34  1  0.25768463  0.25772110  0.94615707  1
  O  O35  1  0.21688131  0.71688131  0.88961263  1
  O  O36  1  0.29336753  0.23344653  0.89186783  1
  O  O37  1  0.25000516  0.24999037  0.83333189  1
  O  O38  1  0.75772110  0.75768463  0.94615707  1
  O  O39  1  0.20041034  0.70041034  0.77498234  1
  O  O40  1  0.73344653  0.79336753  0.89186783  1
  O  O41  1  0.29828952  0.20946568  0.77863907  1
  O  O42  1  0.78962505  0.28962505  0.88961107  1
  O  O43  1  0.24825084  0.24825728  0.72183456  1
  O  O44  1  0.74999037  0.75000516  0.83333189  1
  O  O45  1  0.19548163  0.69548163  0.66504075  1
  O  O46  1  0.70946568  0.79828952  0.77863907  1
  O  O47  1  0.30294443  0.20786938  0.66786731  1
  O  O48  1  0.77441152  0.27441152  0.77498268  1
  O  O49  1  0.24880787  0.24877243  0.61084143  1
  O  O50  1  0.74825728  0.74825084  0.72183456  1
  O  O51  1  0.19694884  0.69694884  0.55411924  1
  O  O52  1  0.70786938  0.80294443  0.66786731  1
  O  O53  1  0.30119369  0.20738259  0.55650876  1
  O  O54  1  0.78992659  0.28992659  0.66504542  1
  O  O55  1  0.24895698  0.24888840  0.49975998  1
  O  O56  1  0.74877243  0.74880787  0.61084143  1
  O  O57  1  0.19396753  0.69396753  0.44265888  1
  O  O58  1  0.70738259  0.80119369  0.55650876  1
  O  O59  1  0.30292597  0.20704159  0.44555289  1
  O  O60  1  0.79018247  0.29018247  0.55413000  1
  O  O61  1  0.24954847  0.24950457  0.38878640  1
  O  O62  1  0.74888840  0.74895698  0.49975998  1
  O  O63  1  0.20405436  0.70405436  0.33239269  1
  O  O64  1  0.70704159  0.80292597  0.44555289  1
  O  O65  1  0.29168948  0.22265685  0.33493035  1
  O  O66  1  0.79002813  0.29002813  0.44267204  1
  O  O67  1  0.24550003  0.24546933  0.27677619  1
  O  O68  1  0.74950457  0.74954847  0.38878640  1
  O  O69  1  0.21573590  0.71573590  0.21716294  1
  O  O70  1  0.72265685  0.79168948  0.33493035  1
  O  O71  1  0.28185453  0.19489663  0.21964228  1
  O  O72  1  0.78746746  0.28746746  0.33239953  1
  O  O73  1  0.24287291  0.24283693  0.16507959  1
  O  O74  1  0.74546933  0.74550003  0.27677619  1
  O  O75  1  0.19627870  0.69627870  0.11379103  1
  O  O76  1  0.69489663  0.78185453  0.21964228  1
  O  O77  1  0.30166088  0.16967122  0.10792372  1
  O  O78  1  0.73875305  0.23875305  0.21717203  1
  O  O79  1  0.25495810  0.25508894  0.05666359  1
  O  O80  1  0.74283693  0.74287291  0.16507959  1
  O  O81  1  0.20745807  0.70745807  0.00239437  1
  O  O82  1  0.66967122  0.80166088  0.10792372  1
  O  O83  1  0.29241305  0.23733703  0.00330415  1
  O  O84  1  0.82785134  0.32785134  0.11379054  1
  O  O85  1  0.75508894  0.75495810  0.05666359  1
  O  O86  1  0.73733703  0.79241305  0.00330415  1
  O  O87  1  0.81402720  0.31402720  0.00237938  1
