# generated using pymatgen
data_K2HfO3
_symmetry_space_group_name_H-M   'P 1'
_cell_length_a   5.80882499
_cell_length_b   5.80882008
_cell_length_c   12.33531846
_cell_angle_alpha   90.00004878
_cell_angle_beta   90.00001927
_cell_angle_gamma   119.99998620
_symmetry_Int_Tables_number   1
_chemical_formula_structural   K2HfO3
_chemical_formula_sum   'K8 Hf4 O12'
_cell_volume   360.46016395
_cell_formula_units_Z   4
loop_
 _symmetry_equiv_pos_site_id
 _symmetry_equiv_pos_as_xyz
  1  'x, y, z'
loop_
 _atom_site_type_symbol
 _atom_site_label
 _atom_site_symmetry_multiplicity
 _atom_site_fract_x
 _atom_site_fract_y
 _atom_site_fract_z
 _atom_site_occupancy
  K  K0  1  0.68894242  0.68894182  0.74999999  1
  K  K1  1  0.31106983  0.31107047  0.24999999  1
  K  K2  1  0.00000175  0.31105739  0.75000031  1
  K  K3  1  0.00000007  0.68892969  0.25000011  1
  K  K4  1  0.31105724  0.00000114  0.74999987  1
  K  K5  1  0.68892896  -0.00000023  0.25000024  1
  K  K6  1  -0.00000004  -0.00000006  0.00002812  1
  K  K7  1  0.00000054  -0.00000017  0.49997208  1
  Hf  Hf8  1  0.66666485  0.33333372  0.00003483  1
  Hf  Hf9  1  0.33333474  0.66666580  0.00003491  1
  Hf  Hf10  1  0.33333439  0.66666605  0.49996382  1
  Hf  Hf11  1  0.66666608  0.33333393  0.49996367  1
  O  O12  1  0.39959617  0.39959664  0.90592842  1
  O  O13  1  0.60039839  0.60039791  0.09410486  1
  O  O14  1  -0.00000004  0.60040383  0.90592797  1
  O  O15  1  0.60039837  0.60039809  0.40589518  1
  O  O16  1  0.00000017  0.60040385  0.59407194  1
  O  O17  1  0.00000002  0.39960150  0.09410526  1
  O  O18  1  0.39959646  0.39959603  0.59407194  1
  O  O19  1  0.00000001  0.39960160  0.40589506  1
  O  O20  1  0.60040435  0.00000050  0.90592807  1
  O  O21  1  0.39960114  0.99999925  0.09410526  1
  O  O22  1  0.39960204  0.00000019  0.40589513  1
  O  O23  1  0.60040407  0.00000007  0.59407196  1
