# generated using pymatgen
data_Sr2MnMoO6
_symmetry_space_group_name_H-M   'P 1'
_cell_length_a   7.68676523
_cell_length_b   7.68685213
_cell_length_c   8.23580724
_cell_angle_alpha   89.98363989
_cell_angle_beta   89.97993520
_cell_angle_gamma   90.00199741
_symmetry_Int_Tables_number   1
_chemical_formula_structural   Sr2MnMoO6
_chemical_formula_sum   'Sr8 Mn4 Mo4 O24'
_cell_volume   486.62932073
_cell_formula_units_Z   4
loop_
 _symmetry_equiv_pos_site_id
 _symmetry_equiv_pos_as_xyz
  1  'x, y, z'
loop_
 _atom_site_type_symbol
 _atom_site_label
 _atom_site_symmetry_multiplicity
 _atom_site_fract_x
 _atom_site_fract_y
 _atom_site_fract_z
 _atom_site_occupancy
  Sr  Sr0  1  0.25002398  0.25000411  0.24991949  1
  Sr  Sr1  1  0.75000572  0.25000231  0.25132453  1
  Sr  Sr2  1  0.24998157  0.75002235  0.74869170  1
  Sr  Sr3  1  0.75006863  0.74997989  0.24997168  1
  Sr  Sr4  1  0.24991014  0.25002980  0.75004226  1
  Sr  Sr5  1  0.25004793  0.74991567  0.24865102  1
  Sr  Sr6  1  0.74999088  0.74999669  0.75012922  1
  Sr  Sr7  1  0.74997140  0.25010849  0.75138640  1
  Mn  Mn8  1  0.50001783  1.00000497  0.49995900  1
  Mn  Mn9  1  1.00000614  0.00001300  0.99992219  1
  Mn  Mn10  1  0.99999203  0.50001123  0.49992353  1
  Mn  Mn11  1  0.49999309  0.49999521  0.99994349  1
  Mo  Mo12  1  0.49997369  0.49998583  0.50001190  1
  Mo  Mo13  1  0.00001394  0.99999524  0.50001810  1
  Mo  Mo14  1  0.49998984  -0.00001809  0.00002791  1
  Mo  Mo15  1  -0.00002449  0.50001619  1.00001690  1
  O  O16  1  0.75101789  0.53460592  0.49875332  1
  O  O17  1  0.99892773  0.50162284  0.76417170  1
  O  O18  1  0.24902105  0.46535889  0.50120998  1
  O  O19  1  0.53467966  0.74905721  0.00248408  1
  O  O20  1  0.46537672  0.75098158  0.49788715  1
  O  O21  1  0.74902727  0.96536789  0.49733686  1
  O  O22  1  0.00272216  0.00156113  0.26426592  1
  O  O23  1  0.03468855  0.24905285  0.99830355  1
  O  O24  1  0.53464367  0.24900539  0.50207061  1
  O  O25  1  0.00101661  0.49840717  0.23579446  1
  O  O26  1  0.03468085  0.74897535  0.49864748  1
  O  O27  1  0.25098806  0.03460346  0.50271293  1
  O  O28  1  0.24907160  0.96529517  0.99763156  1
  O  O29  1  0.74906461  0.46529384  0.00097600  1
  O  O30  1  0.49897416  0.49777063  0.26422644  1
  O  O31  1  0.99730185  0.99843785  0.73576546  1
  O  O32  1  0.96538170  0.25099542  0.50139775  1
  O  O33  1  0.75092052  0.03467503  0.00242339  1
  O  O34  1  0.96530137  0.75094150  0.00165037  1
  O  O35  1  0.25094390  0.53472233  0.99898376  1
  O  O36  1  0.50268316  0.99768676  0.76424838  1
  O  O37  1  0.46533252  0.25095873  0.99757627  1
  O  O38  1  0.49728075  0.00232643  0.23579855  1
  O  O39  1  0.50099635  0.50223977  0.73574569  1
