# generated using pymatgen
data_Sr3Sc(BO3)3
_symmetry_space_group_name_H-M   'P 1'
_cell_length_a   7.64373575
_cell_length_b   7.64373575
_cell_length_c   7.64373641
_cell_angle_alpha   104.96056537
_cell_angle_beta   104.96056539
_cell_angle_gamma   104.96056600
_symmetry_Int_Tables_number   1
_chemical_formula_structural   Sr3Sc(BO3)3
_chemical_formula_sum   'Sr6 Sc2 B6 O18'
_cell_volume   390.78257441
_cell_formula_units_Z   2
loop_
 _symmetry_equiv_pos_site_id
 _symmetry_equiv_pos_as_xyz
  1  'x, y, z'
loop_
 _atom_site_type_symbol
 _atom_site_label
 _atom_site_symmetry_multiplicity
 _atom_site_fract_x
 _atom_site_fract_y
 _atom_site_fract_z
 _atom_site_occupancy
  Sr  Sr0  1  0.16221015  0.26034456  0.65095712  1
  Sr  Sr1  1  0.65095712  0.16221015  0.26034456  1
  Sr  Sr2  1  0.26034456  0.65095712  0.16221015  1
  Sr  Sr3  1  0.83778985  0.73965544  0.34904288  1
  Sr  Sr4  1  0.34904288  0.83778985  0.73965544  1
  Sr  Sr5  1  0.73965544  0.34904288  0.83778985  1
  Sc  Sc6  1  0.00000000  -0.00000000  -0.00000000  1
  Sc  Sc7  1  0.50000000  0.50000000  0.50000000  1
  B  B8  1  0.29078424  0.04022099  0.36979053  1
  B  B9  1  0.36979053  0.29078424  0.04022099  1
  B  B10  1  0.04022099  0.36979053  0.29078424  1
  B  B11  1  0.63020947  0.70921576  0.95977901  1
  B  B12  1  0.95977901  0.63020947  0.70921576  1
  B  B13  1  0.70921576  0.95977901  0.63020947  1
  O  O14  1  0.17335303  0.26131546  0.98487675  1
  O  O15  1  0.98487675  0.17335303  0.26131546  1
  O  O16  1  0.44433432  0.19158421  0.92110320  1
  O  O17  1  0.19158421  0.92110320  0.44433432  1
  O  O18  1  0.92110320  0.44433432  0.19158421  1
  O  O19  1  0.07889680  0.55566568  0.80841579  1
  O  O20  1  0.55566568  0.80841679  0.07889680  1
  O  O21  1  0.80841679  0.07889680  0.55566568  1
  O  O22  1  0.49196311  0.43347704  0.21507642  1
  O  O23  1  0.43347704  0.21507642  0.49196311  1
  O  O24  1  0.21507642  0.49196311  0.43347704  1
  O  O25  1  0.50803689  0.56652296  0.78492358  1
  O  O26  1  0.56652296  0.78492358  0.50803689  1
  O  O27  1  0.78492358  0.50803689  0.56652296  1
  O  O28  1  0.73868454  0.01512325  0.82664697  1
  O  O29  1  0.01512325  0.82664697  0.73868454  1
  O  O30  1  0.82664697  0.73868454  0.01512325  1
  O  O31  1  0.26131546  0.98487675  0.17335303  1
