# generated using pymatgen
data_CsPb2Br5
_symmetry_space_group_name_H-M   'P 1'
_cell_length_a   9.85759737
_cell_length_b   9.85759737
_cell_length_c   9.85759737
_cell_angle_alpha   128.68028022
_cell_angle_beta   128.68028022
_cell_angle_gamma   75.52556316
_symmetry_Int_Tables_number   1
_chemical_formula_structural   CsPb2Br5
_chemical_formula_sum   'Cs2 Pb4 Br10'
_cell_volume   567.98329617
_cell_formula_units_Z   2
loop_
 _symmetry_equiv_pos_site_id
 _symmetry_equiv_pos_as_xyz
  1  'x, y, z'
loop_
 _atom_site_type_symbol
 _atom_site_label
 _atom_site_symmetry_multiplicity
 _atom_site_fract_x
 _atom_site_fract_y
 _atom_site_fract_z
 _atom_site_occupancy
  Cs  Cs0  1  0.75000000  0.75000000  0.00000000  1
  Cs  Cs1  1  0.25000000  0.25000000  0.00000000  1
  Pb  Pb2  1  0.66742019  0.83257981  0.50000000  1
  Pb  Pb3  1  0.33257981  0.16742019  0.50000000  1
  Pb  Pb4  1  0.83257981  0.33257981  0.16515962  1
  Pb  Pb5  1  0.16742019  0.66742019  0.83484038  1
  Br  Br6  1  0.50000000  0.50000000  0.00000000  1
  Br  Br7  1  0.00000000  0.00000000  0.00000000  1
  Br  Br8  1  0.71988282  0.52738758  0.50000000  1
  Br  Br9  1  0.28011718  0.47261242  0.50000000  1
  Br  Br10  1  0.02738758  0.21988282  0.50000000  1
  Br  Br11  1  0.97261242  0.78011718  0.50000000  1
  Br  Br12  1  0.52738758  0.02738758  0.80750376  1
  Br  Br13  1  0.47261242  0.97261242  0.19249624  1
  Br  Br14  1  0.21988282  0.71988282  0.19249624  1
  Br  Br15  1  0.78011718  0.28011718  0.80750376  1
