# generated using pymatgen
data_K2NdI5
_symmetry_space_group_name_H-M   'P 1'
_cell_length_a   9.18348374
_cell_length_b   9.84495386
_cell_length_c   14.42812037
_cell_angle_alpha   90.00000000
_cell_angle_beta   90.00000000
_cell_angle_gamma   90.00000000
_symmetry_Int_Tables_number   1
_chemical_formula_structural   K2NdI5
_chemical_formula_sum   'K8 Nd4 I20'
_cell_volume   1304.46041123
_cell_formula_units_Z   4
loop_
 _symmetry_equiv_pos_site_id
 _symmetry_equiv_pos_as_xyz
  1  'x, y, z'
loop_
 _atom_site_type_symbol
 _atom_site_label
 _atom_site_symmetry_multiplicity
 _atom_site_fract_x
 _atom_site_fract_y
 _atom_site_fract_z
 _atom_site_occupancy
  K  K0  1  0.94488861  0.00284736  0.82658806  1
  K  K1  1  0.05511139  0.99715264  0.17341194  1
  K  K2  1  0.44488861  0.99715264  0.67341194  1
  K  K3  1  0.05511139  0.50284736  0.17341194  1
  K  K4  1  0.55511139  0.00284736  0.32658806  1
  K  K5  1  0.94488861  0.49715264  0.82658806  1
  K  K6  1  0.55511139  0.49715264  0.32658806  1
  K  K7  1  0.44488861  0.50284736  0.67341194  1
  Nd  Nd8  1  0.91827984  0.75000000  0.50582812  1
  Nd  Nd9  1  0.08172016  0.25000000  0.49417188  1
  Nd  Nd10  1  0.41827984  0.25000000  0.99417188  1
  Nd  Nd11  1  0.58172016  0.75000000  0.00582812  1
  I  I12  1  0.12966910  0.75000000  0.68146140  1
  I  I13  1  0.87033090  0.25000000  0.31853860  1
  I  I14  1  0.62966910  0.25000000  0.81853860  1
  I  I15  1  0.37033090  0.75000000  0.18146140  1
  I  I16  1  0.83135093  0.04614875  0.57794137  1
  I  I17  1  0.16864907  0.95385125  0.42205863  1
  I  I18  1  0.33135093  0.95385125  0.92205863  1
  I  I19  1  0.16864907  0.54614875  0.42205863  1
  I  I20  1  0.66864907  0.04614875  0.07794137  1
  I  I21  1  0.83135093  0.45385125  0.57794137  1
  I  I22  1  0.66864907  0.45385125  0.07794137  1
  I  I23  1  0.33135093  0.54614875  0.92205863  1
  I  I24  1  0.56580614  0.75000000  0.50743263  1
  I  I25  1  0.43419386  0.25000000  0.49256737  1
  I  I26  1  0.06580614  0.25000000  0.99256737  1
  I  I27  1  0.93419386  0.75000000  0.00743263  1
  I  I28  1  0.66471930  0.75000000  0.79192138  1
  I  I29  1  0.33528070  0.25000000  0.20807862  1
  I  I30  1  0.16471930  0.25000000  0.70807862  1
  I  I31  1  0.83528070  0.75000000  0.29192138  1
