# generated using pymatgen
data_RbLiMg6O7
_symmetry_space_group_name_H-M   'P 1'
_cell_length_a   8.08591697
_cell_length_b   4.51669502
_cell_length_c   4.51669502
_cell_angle_alpha   90.00000000
_cell_angle_beta   90.00000000
_cell_angle_gamma   90.00000000
_symmetry_Int_Tables_number   1
_chemical_formula_structural   RbLiMg6O7
_chemical_formula_sum   'Rb1 Li1 Mg6 O7'
_cell_volume   164.95702329
_cell_formula_units_Z   1
loop_
 _symmetry_equiv_pos_site_id
 _symmetry_equiv_pos_as_xyz
  1  'x, y, z'
loop_
 _atom_site_type_symbol
 _atom_site_label
 _atom_site_symmetry_multiplicity
 _atom_site_fract_x
 _atom_site_fract_y
 _atom_site_fract_z
 _atom_site_occupancy
  Rb  Rb0  1  0.41808042  0.00000000  -0.00000000  1
  Li  Li1  1  0.97428510  0.00000000  0.00000000  1
  Mg  Mg2  1  0.00454309  0.50000000  0.50000000  1
  Mg  Mg3  1  0.51710965  0.50000000  0.50000000  1
  Mg  Mg4  1  0.25327881  0.00000000  0.50000000  1
  Mg  Mg5  1  0.75493168  0.00000000  0.50000000  1
  Mg  Mg6  1  0.25327881  0.50000000  -0.00000000  1
  Mg  Mg7  1  0.75493168  0.50000000  0.00000000  1
  O  O8  1  0.75452504  0.00000000  -0.00000000  1
  O  O9  1  0.26098136  0.50000000  0.50000000  1
  O  O10  1  0.76061560  0.50000000  0.50000000  1
  O  O11  1  0.02002885  0.00000000  0.50000000  1
  O  O12  1  0.50169053  0.00000000  0.50000000  1
  O  O13  1  0.02002885  0.50000000  0.00000000  1
  O  O14  1  0.50169053  0.50000000  -0.00000000  1
