# generated using pymatgen
data_SrLiTi4CrO11
_symmetry_space_group_name_H-M   'P 1'
_cell_length_a   5.83632382
_cell_length_b   10.01627229
_cell_length_c   13.97670538
_cell_angle_alpha   90.00000000
_cell_angle_beta   90.00000000
_cell_angle_gamma   90.00000000
_symmetry_Int_Tables_number   1
_chemical_formula_structural   SrLiTi4CrO11
_chemical_formula_sum   'Sr4 Li4 Ti16 Cr4 O44'
_cell_volume   817.05315800
_cell_formula_units_Z   4
loop_
 _symmetry_equiv_pos_site_id
 _symmetry_equiv_pos_as_xyz
  1  'x, y, z'
loop_
 _atom_site_type_symbol
 _atom_site_label
 _atom_site_symmetry_multiplicity
 _atom_site_fract_x
 _atom_site_fract_y
 _atom_site_fract_z
 _atom_site_occupancy
  Sr  Sr0  1  0.25000000  0.39566110  0.59423145  1
  Sr  Sr1  1  0.25000000  0.10433890  0.09423145  1
  Sr  Sr2  1  0.75000000  0.60433890  0.40576855  1
  Sr  Sr3  1  0.75000000  0.89566110  0.90576855  1
  Li  Li4  1  0.25000000  0.08120489  0.54127030  1
  Li  Li5  1  0.25000000  0.41879511  0.04127030  1
  Li  Li6  1  0.75000000  0.91879511  0.45872970  1
  Li  Li7  1  0.75000000  0.58120489  0.95872970  1
  Ti  Ti8  1  0.00159029  0.83646455  0.67186282  1
  Ti  Ti9  1  0.49840971  0.66353545  0.17186282  1
  Ti  Ti10  1  0.50159029  0.16353545  0.32813718  1
  Ti  Ti11  1  0.99840971  0.33646455  0.82813718  1
  Ti  Ti12  1  0.99840971  0.16353545  0.32813718  1
  Ti  Ti13  1  0.50159029  0.33646455  0.82813718  1
  Ti  Ti14  1  0.49840971  0.83646455  0.67186282  1
  Ti  Ti15  1  0.00159029  0.66353545  0.17186282  1
  Ti  Ti16  1  0.25000000  0.07140365  0.83789992  1
  Ti  Ti17  1  0.25000000  0.42859635  0.33789992  1
  Ti  Ti18  1  0.75000000  0.92859635  0.16210008  1
  Ti  Ti19  1  0.75000000  0.57140365  0.66210008  1
  Ti  Ti20  1  0.25000000  0.73672377  0.49134518  1
  Ti  Ti21  1  0.25000000  0.76327623  0.99134518  1
  Ti  Ti22  1  0.75000000  0.26327623  0.50865482  1
  Ti  Ti23  1  0.75000000  0.23672377  0.00865482  1
  Cr  Cr24  1  0.25000000  0.60096926  0.82501482  1
  Cr  Cr25  1  0.25000000  0.89903074  0.32501482  1
  Cr  Cr26  1  0.75000000  0.39903074  0.17498518  1
  Cr  Cr27  1  0.75000000  0.10096926  0.67498518  1
  O  O28  1  0.25000000  0.89544475  0.58718092  1
  O  O29  1  0.25000000  0.60455525  0.08718092  1
  O  O30  1  0.75000000  0.10455525  0.41281908  1
  O  O31  1  0.75000000  0.39544475  0.91281908  1
  O  O32  1  0.00225477  0.49923196  0.74483516  1
  O  O33  1  0.49774523  0.00076804  0.24483516  1
  O  O34  1  0.50225477  0.50076804  0.25516484  1
  O  O35  1  0.99774523  0.99923196  0.75516484  1
  O  O36  1  0.99774523  0.50076804  0.25516484  1
  O  O37  1  0.50225477  0.99923196  0.75516484  1
  O  O38  1  0.49774523  0.49923196  0.74483516  1
  O  O39  1  0.00225477  0.00076804  0.24483516  1
  O  O40  1  0.25000000  0.42810385  0.89820941  1
  O  O41  1  0.25000000  0.07189615  0.39820941  1
  O  O42  1  0.75000000  0.57189615  0.10179059  1
  O  O43  1  0.75000000  0.92810385  0.60179059  1
  O  O44  1  0.25000000  0.24836813  0.76024558  1
  O  O45  1  0.25000000  0.25163187  0.26024558  1
  O  O46  1  0.75000000  0.75163187  0.23975442  1
  O  O47  1  0.75000000  0.74836813  0.73975442  1
  O  O48  1  0.02443239  0.68804280  0.91666789  1
  O  O49  1  0.47556761  0.81195720  0.41666789  1
  O  O50  1  0.52443239  0.31195720  0.08333211  1
  O  O51  1  0.97556761  0.18804280  0.58333211  1
  O  O52  1  0.97556761  0.31195720  0.08333211  1
  O  O53  1  0.52443239  0.18804280  0.58333211  1
  O  O54  1  0.47556761  0.68804280  0.91666789  1
  O  O55  1  0.02443239  0.81195720  0.41666789  1
  O  O56  1  0.00891625  0.17448924  0.91030948  1
  O  O57  1  0.49108375  0.32551076  0.41030948  1
  O  O58  1  0.50891625  0.82551076  0.08969052  1
  O  O59  1  0.99108375  0.67448924  0.58969052  1
  O  O60  1  0.99108375  0.82551076  0.08969052  1
  O  O61  1  0.50891625  0.67448924  0.58969052  1
  O  O62  1  0.49108375  0.17448924  0.91030948  1
  O  O63  1  0.00891625  0.32551076  0.41030948  1
  O  O64  1  0.25000000  0.94184286  0.93425360  1
  O  O65  1  0.25000000  0.55815714  0.43425360  1
  O  O66  1  0.75000000  0.05815714  0.06574640  1
  O  O67  1  0.75000000  0.44184286  0.56574640  1
  O  O68  1  0.25000000  0.76432728  0.74623067  1
  O  O69  1  0.25000000  0.73567272  0.24623067  1
  O  O70  1  0.75000000  0.23567272  0.25376933  1
  O  O71  1  0.75000000  0.26432728  0.75376933  1
