# generated using pymatgen
data_CaFe2F10
_symmetry_space_group_name_H-M   'P 1'
_cell_length_a   9.95265990
_cell_length_b   5.25632896
_cell_length_c   7.51452219
_cell_angle_alpha   68.71768420
_cell_angle_beta   90.00000000
_cell_angle_gamma   90.00000000
_symmetry_Int_Tables_number   1
_chemical_formula_structural   CaFe2F10
_chemical_formula_sum   'Ca2 Fe4 F20'
_cell_volume   366.30876927
_cell_formula_units_Z   2
loop_
 _symmetry_equiv_pos_site_id
 _symmetry_equiv_pos_as_xyz
  1  'x, y, z'
loop_
 _atom_site_type_symbol
 _atom_site_label
 _atom_site_symmetry_multiplicity
 _atom_site_fract_x
 _atom_site_fract_y
 _atom_site_fract_z
 _atom_site_occupancy
  Ca  Ca0  1  0.76378350  0.45998736  0.76460775  1
  Ca  Ca1  1  0.23621650  0.45998736  0.26460775  1
  Fe  Fe2  1  0.00997840  0.10828743  0.61979833  1
  Fe  Fe3  1  0.49635262  0.89283153  0.88065731  1
  Fe  Fe4  1  0.50364738  0.89283153  0.38065731  1
  Fe  Fe5  1  0.99002160  0.10828743  0.11979833  1
  F  F6  1  0.12219240  0.39472185  0.56192937  1
  F  F7  1  0.59281370  0.59171327  0.91567315  1
  F  F8  1  0.40718630  0.59171327  0.41567315  1
  F  F9  1  0.87780760  0.39472185  0.06192937  1
  F  F10  1  0.87523207  0.33570821  0.51901381  1
  F  F11  1  0.35719573  0.68380624  0.00206544  1
  F  F12  1  0.64280427  0.68380624  0.50206544  1
  F  F13  1  0.12476793  0.33570821  0.01901381  1
  F  F14  1  0.64594561  0.08780032  0.77444893  1
  F  F15  1  0.13869005  0.89305058  0.73227129  1
  F  F16  1  0.86130995  0.89305058  0.23227129  1
  F  F17  1  0.35405439  0.08780032  0.27444893  1
  F  F18  1  0.40718384  0.18558725  0.84624330  1
  F  F19  1  0.90307455  0.82170296  0.64536901  1
  F  F20  1  0.09692545  0.82170296  0.14536901  1
  F  F21  1  0.59281616  0.18558725  0.34624330  1
  F  F22  1  0.93370049  0.12270225  0.86039285  1
  F  F23  1  0.43730464  0.89295374  0.63206947  1
  F  F24  1  0.56269536  0.89295374  0.13206947  1
  F  F25  1  0.06629951  0.12270225  0.36039285  1
