# generated using pymatgen
data_Sm3CuSe6
_symmetry_space_group_name_H-M   'P 1'
_cell_length_a   7.18020103
_cell_length_b   7.90049180
_cell_length_c   17.08517744
_cell_angle_alpha   90.00000000
_cell_angle_beta   90.00000000
_cell_angle_gamma   90.00000000
_symmetry_Int_Tables_number   1
_chemical_formula_structural   Sm3CuSe6
_chemical_formula_sum   'Sm12 Cu4 Se24'
_cell_volume   969.19289992
_cell_formula_units_Z   4
loop_
 _symmetry_equiv_pos_site_id
 _symmetry_equiv_pos_as_xyz
  1  'x, y, z'
loop_
 _atom_site_type_symbol
 _atom_site_label
 _atom_site_symmetry_multiplicity
 _atom_site_fract_x
 _atom_site_fract_y
 _atom_site_fract_z
 _atom_site_occupancy
  Sm  Sm0  1  0.26554541  0.94456400  0.24736725  1
  Sm  Sm1  1  0.73445459  0.05543600  0.74736725  1
  Sm  Sm2  1  0.26554541  0.55543600  0.74736725  1
  Sm  Sm3  1  0.73445459  0.44456400  0.24736725  1
  Sm  Sm4  1  0.22615329  0.55539324  0.41177919  1
  Sm  Sm5  1  0.77384671  0.44460676  0.91177919  1
  Sm  Sm6  1  0.24279162  0.94065895  0.59010488  1
  Sm  Sm7  1  0.75720838  0.05934105  0.09010488  1
  Sm  Sm8  1  0.75720838  0.44065895  0.59010488  1
  Sm  Sm9  1  0.24279162  0.55934105  0.09010488  1
  Sm  Sm10  1  0.77384671  0.05539324  0.41177919  1
  Sm  Sm11  1  0.22615329  0.94460676  0.91177919  1
  Cu  Cu12  1  0.40468560  0.20980744  0.47778279  1
  Cu  Cu13  1  0.59531440  0.79019256  0.97778279  1
  Cu  Cu14  1  0.59531440  0.70980744  0.47778279  1
  Cu  Cu15  1  0.40468560  0.29019256  0.97778279  1
  Se  Se16  1  0.07558966  0.24811818  0.50044620  1
  Se  Se17  1  0.92441034  0.75188182  0.00044620  1
  Se  Se18  1  0.92441034  0.74811818  0.50044620  1
  Se  Se19  1  0.07558966  0.25188182  0.00044620  1
  Se  Se20  1  0.07474360  0.25163770  0.32096429  1
  Se  Se21  1  0.92525640  0.74836230  0.82096429  1
  Se  Se22  1  0.07429034  0.24684647  0.67518348  1
  Se  Se23  1  0.92570966  0.75315353  0.17518348  1
  Se  Se24  1  0.92570966  0.74684647  0.67518348  1
  Se  Se25  1  0.07429034  0.25315353  0.17518348  1
  Se  Se26  1  0.92525640  0.75163770  0.32096429  1
  Se  Se27  1  0.07474360  0.24836230  0.82096429  1
  Se  Se28  1  0.38889260  0.91020125  0.41742378  1
  Se  Se29  1  0.61110740  0.08979875  0.91742378  1
  Se  Se30  1  0.38408612  0.59613248  0.57995119  1
  Se  Se31  1  0.61591388  0.40386752  0.07995119  1
  Se  Se32  1  0.61591388  0.09613248  0.57995119  1
  Se  Se33  1  0.38408612  0.90386752  0.07995119  1
  Se  Se34  1  0.61110740  0.41020125  0.41742378  1
  Se  Se35  1  0.38889260  0.58979875  0.91742378  1
  Se  Se36  1  0.37888413  0.60000467  0.25109995  1
  Se  Se37  1  0.62111587  0.39999533  0.75109995  1
  Se  Se38  1  0.37888413  0.89999533  0.75109995  1
  Se  Se39  1  0.62111587  0.10000467  0.25109995  1
