# generated using pymatgen
data_RbGeB3O7
_symmetry_space_group_name_H-M   'P 1'
_cell_length_a   6.98405858
_cell_length_b   9.38745139
_cell_length_c   9.46468027
_cell_angle_alpha   90.00000000
_cell_angle_beta   90.00000000
_cell_angle_gamma   90.00000000
_symmetry_Int_Tables_number   1
_chemical_formula_structural   RbGeB3O7
_chemical_formula_sum   'Rb4 Ge4 B12 O28'
_cell_volume   620.52819887
_cell_formula_units_Z   4
loop_
 _symmetry_equiv_pos_site_id
 _symmetry_equiv_pos_as_xyz
  1  'x, y, z'
loop_
 _atom_site_type_symbol
 _atom_site_label
 _atom_site_symmetry_multiplicity
 _atom_site_fract_x
 _atom_site_fract_y
 _atom_site_fract_z
 _atom_site_occupancy
  Rb  Rb0  1  0.75359061  0.51789999  0.17361532  1
  Rb  Rb1  1  0.25359061  0.48210001  0.82638468  1
  Rb  Rb2  1  0.25359061  0.98210001  0.67361532  1
  Rb  Rb3  1  0.75359061  0.01789999  0.32638468  1
  Ge  Ge4  1  0.27081484  0.75728726  0.09952361  1
  Ge  Ge5  1  0.77081484  0.24271274  0.90047639  1
  Ge  Ge6  1  0.77081484  0.74271274  0.59952361  1
  Ge  Ge7  1  0.27081484  0.25728726  0.40047639  1
  B  B8  1  0.30622727  0.52482878  0.27525530  1
  B  B9  1  0.80622727  0.47517122  0.72474470  1
  B  B10  1  0.80622727  0.97517122  0.77525530  1
  B  B11  1  0.30622727  0.02482878  0.22474470  1
  B  B12  1  0.89618817  0.82279838  0.98217554  1
  B  B13  1  0.39618817  0.17720162  0.01782446  1
  B  B14  1  0.39618817  0.67720162  0.48217554  1
  B  B15  1  0.89618817  0.32279838  0.51782446  1
  B  B16  1  0.56480469  0.84872631  0.92438380  1
  B  B17  1  0.06480469  0.15127369  0.07561620  1
  B  B18  1  0.06480469  0.65127369  0.42438380  1
  B  B19  1  0.56480469  0.34872631  0.57561620  1
  O  O20  1  0.60937890  0.93841184  0.81792221  1
  O  O21  1  0.10937890  0.06158816  0.18207779  1
  O  O22  1  0.10937890  0.56158816  0.31792221  1
  O  O23  1  0.60937890  0.43841184  0.68207779  1
  O  O24  1  0.70384662  0.79521716  0.01418625  1
  O  O25  1  0.20384662  0.20478284  0.98581375  1
  O  O26  1  0.20384662  0.70478284  0.51418625  1
  O  O27  1  0.70384662  0.29521716  0.48581375  1
  O  O28  1  0.44554842  0.58413550  0.37979996  1
  O  O29  1  0.94554842  0.41586450  0.62020004  1
  O  O30  1  0.94554842  0.91586450  0.87979996  1
  O  O31  1  0.44554842  0.08413550  0.12020004  1
  O  O32  1  0.02261581  0.74943079  0.06562400  1
  O  O33  1  0.52261581  0.25056921  0.93437600  1
  O  O34  1  0.52261581  0.75056921  0.56562400  1
  O  O35  1  0.02261581  0.24943079  0.43437600  1
  O  O36  1  0.37654372  0.80746828  0.93725542  1
  O  O37  1  0.87654372  0.19253172  0.06274458  1
  O  O38  1  0.87654372  0.69253172  0.43725542  1
  O  O39  1  0.37654372  0.30746828  0.56274458  1
  O  O40  1  0.34594745  0.58417551  0.13425090  1
  O  O41  1  0.84594745  0.41582449  0.86574910  1
  O  O42  1  0.84594745  0.91582449  0.63425090  1
  O  O43  1  0.34594745  0.08417551  0.36574910  1
  O  O44  1  0.33027350  0.87121698  0.23689313  1
  O  O45  1  0.83027350  0.12878302  0.76310687  1
  O  O46  1  0.83027350  0.62878302  0.73689313  1
  O  O47  1  0.33027350  0.37121698  0.26310687  1
