# generated using pymatgen
data_MgVCr2Fe3(PO4)6
_symmetry_space_group_name_H-M   'P 1'
_cell_length_a   8.92336452
_cell_length_b   8.74601507
_cell_length_c   8.71230696
_cell_angle_alpha   59.57997947
_cell_angle_beta   57.54328307
_cell_angle_gamma   58.40296751
_symmetry_Int_Tables_number   1
_chemical_formula_structural   MgVCr2Fe3(PO4)6
_chemical_formula_sum   'Mg1 V1 Cr2 Fe3 P6 O24'
_cell_volume   464.08024622
_cell_formula_units_Z   1
loop_
 _symmetry_equiv_pos_site_id
 _symmetry_equiv_pos_as_xyz
  1  'x, y, z'
loop_
 _atom_site_type_symbol
 _atom_site_label
 _atom_site_symmetry_multiplicity
 _atom_site_fract_x
 _atom_site_fract_y
 _atom_site_fract_z
 _atom_site_occupancy
  Mg  Mg0  1  0.25509900  0.63531600  0.24649800  1
  V  V1  1  0.57318600  0.13820400  0.13944300  1
  Cr  Cr2  1  0.99778600  0.00691200  0.99215600  1
  Cr  Cr3  1  0.50283600  0.50575100  0.50583300  1
  Fe  Fe4  1  0.05678900  0.64608900  0.65401000  1
  Fe  Fe5  1  0.44698500  0.86507800  0.84506400  1
  Fe  Fe6  1  0.93269000  0.34972100  0.36046700  1
  P  P7  1  0.24220300  0.23936500  0.54757500  1
  P  P8  1  0.26033000  0.95169400  0.25213600  1
  P  P9  1  0.24297500  0.53691300  0.96111600  1
  P  P10  1  0.73081400  0.45888000  0.05652900  1
  P  P11  1  0.74103800  0.05185500  0.74597800  1
  P  P12  1  0.77990500  0.74844900  0.43708900  1
  O  O13  1  0.07653400  0.10678000  0.31557000  1
  O  O14  1  0.06204900  0.49489500  0.10926800  1
  O  O15  1  0.06752800  0.29206300  0.51448900  1
  O  O16  1  0.22961800  0.08565800  0.74955900  1
  O  O17  1  0.42940300  0.16888700  0.39318500  1
  O  O18  1  0.25333800  0.41892100  0.53707000  1
  O  O19  1  0.24667300  0.92065700  0.09676900  1
  O  O20  1  0.27527500  0.74432200  0.40628800  1
  O  O21  1  0.53364200  0.60472600  0.04351200  1
  O  O22  1  0.26562300  0.56806300  0.75699800  1
  O  O23  1  0.76360500  0.26492000  0.05874700  1
  O  O24  1  0.56122600  0.01321000  0.81880100  1
  O  O25  1  0.43789500  0.97920100  0.19736700  1
  O  O26  1  0.22030000  0.72298500  0.97653800  1
  O  O27  1  0.72143000  0.44362300  0.24705300  1
  O  O28  1  0.41970300  0.38314900  0.00121700  1
  O  O29  1  0.72108700  0.24893300  0.58832800  1
  O  O30  1  0.76232300  0.06333100  0.90449300  1
  O  O31  1  0.75433200  0.58758800  0.43715500  1
  O  O32  1  0.61723600  0.80646200  0.61354500  1
  O  O33  1  0.78247600  0.91251800  0.24446200  1
  O  O34  1  0.97477000  0.69236200  0.44283500  1
  O  O35  1  0.89127800  0.52547600  0.88164100  1
  O  O36  1  0.92001800  0.89516800  0.67121600  1
