# generated using pymatgen
data_YTlSe2
_symmetry_space_group_name_H-M   'P 1'
_cell_length_a   4.17551269
_cell_length_b   4.17551269
_cell_length_c   8.09402122
_cell_angle_alpha   75.05224589
_cell_angle_beta   75.05224589
_cell_angle_gamma   59.99997705
_symmetry_Int_Tables_number   1
_chemical_formula_structural   YTlSe2
_chemical_formula_sum   'Y1 Tl1 Se2'
_cell_volume   116.66562811
_cell_formula_units_Z   1
loop_
 _symmetry_equiv_pos_site_id
 _symmetry_equiv_pos_as_xyz
  1  'x, y, z'
loop_
 _atom_site_type_symbol
 _atom_site_label
 _atom_site_symmetry_multiplicity
 _atom_site_fract_x
 _atom_site_fract_y
 _atom_site_fract_z
 _atom_site_occupancy
  Y  Y0  1  0.50000000  0.50000000  0.50000000  1
  Tl  Tl1  1  -0.00000000  -0.00000000  -0.00000000  1
  Se  Se2  1  0.23461324  0.23461324  0.29616129  1
  Se  Se3  1  0.76538676  0.76538676  0.70383871  1
