# generated using pymatgen
data_TbCoO3
_symmetry_space_group_name_H-M   'P 1'
_cell_length_a   5.14811318
_cell_length_b   5.40980175
_cell_length_c   7.38391903
_cell_angle_alpha   90.00000000
_cell_angle_beta   90.00000000
_cell_angle_gamma   90.00000000
_symmetry_Int_Tables_number   1
_chemical_formula_structural   TbCoO3
_chemical_formula_sum   'Tb4 Co4 O12'
_cell_volume   205.64415113
_cell_formula_units_Z   4
loop_
 _symmetry_equiv_pos_site_id
 _symmetry_equiv_pos_as_xyz
  1  'x, y, z'
loop_
 _atom_site_type_symbol
 _atom_site_label
 _atom_site_symmetry_multiplicity
 _atom_site_fract_x
 _atom_site_fract_y
 _atom_site_fract_z
 _atom_site_occupancy
  Tb  Tb0  1  0.51742737  0.56773299  0.25000000  1
  Tb  Tb1  1  0.98257263  0.06773299  0.25000000  1
  Tb  Tb2  1  0.48257263  0.43226701  0.75000000  1
  Tb  Tb3  1  0.01742737  0.93226701  0.75000000  1
  Co  Co4  1  -0.00000000  0.50000000  0.00000000  1
  Co  Co5  1  0.50000000  0.00000000  0.50000000  1
  Co  Co6  1  -0.00000000  0.50000000  0.50000000  1
  Co  Co7  1  0.50000000  0.00000000  0.00000000  1
  O  O8  1  0.40591657  0.97651334  0.25000000  1
  O  O9  1  0.09408343  0.47651334  0.25000000  1
  O  O10  1  0.59408343  0.02348666  0.75000000  1
  O  O11  1  0.90591657  0.52348666  0.75000000  1
  O  O12  1  0.80423834  0.79926283  0.04770195  1
  O  O13  1  0.69576166  0.29926283  0.45229805  1
  O  O14  1  0.19576166  0.20073717  0.54770195  1
  O  O15  1  0.30423834  0.70073717  0.95229805  1
  O  O16  1  0.19576166  0.20073717  0.95229805  1
  O  O17  1  0.30423834  0.70073717  0.54770195  1
  O  O18  1  0.80423834  0.79926283  0.45229805  1
  O  O19  1  0.69576166  0.29926283  0.04770195  1
