# generated using pymatgen
data_Bi2O3
_symmetry_space_group_name_H-M   'P 1'
_cell_length_a   11.26512286
_cell_length_b   11.26512286
_cell_length_c   11.26512286
_cell_angle_alpha   90.00000000
_cell_angle_beta   90.00000000
_cell_angle_gamma   90.00000000
_symmetry_Int_Tables_number   1
_chemical_formula_structural   Bi2O3
_chemical_formula_sum   'Bi32 O48'
_cell_volume   1429.57780802
_cell_formula_units_Z   16
loop_
 _symmetry_equiv_pos_site_id
 _symmetry_equiv_pos_as_xyz
  1  'x, y, z'
loop_
 _atom_site_type_symbol
 _atom_site_label
 _atom_site_symmetry_multiplicity
 _atom_site_fract_x
 _atom_site_fract_y
 _atom_site_fract_z
 _atom_site_occupancy
  Bi  Bi0  1  0.24602132  0.75397868  0.25397868  1
  Bi  Bi1  1  0.75397868  0.25397868  0.24602132  1
  Bi  Bi2  1  0.25397868  0.24602132  0.75397868  1
  Bi  Bi3  1  0.74602132  0.74602132  0.74602132  1
  Bi  Bi4  1  0.75397868  0.24602132  0.74602132  1
  Bi  Bi5  1  0.24602132  0.74602132  0.75397868  1
  Bi  Bi6  1  0.74602132  0.75397868  0.24602132  1
  Bi  Bi7  1  0.25397868  0.25397868  0.25397868  1
  Bi  Bi8  1  0.24236766  0.47914024  0.99371817  1
  Bi  Bi9  1  0.75763234  0.97914024  0.50628183  1
  Bi  Bi10  1  0.25763234  0.52085976  0.49371817  1
  Bi  Bi11  1  0.74236766  0.02085976  0.00628183  1
  Bi  Bi12  1  0.99371817  0.24236766  0.47914024  1
  Bi  Bi13  1  0.50628183  0.75763234  0.97914024  1
  Bi  Bi14  1  0.49371817  0.25763234  0.52085976  1
  Bi  Bi15  1  0.00628183  0.74236766  0.02085976  1
  Bi  Bi16  1  0.47914024  0.99371817  0.24236766  1
  Bi  Bi17  1  0.97914024  0.50628183  0.75763234  1
  Bi  Bi18  1  0.52085976  0.49371817  0.25763234  1
  Bi  Bi19  1  0.02085976  0.00628183  0.74236766  1
  Bi  Bi20  1  0.75763234  0.52085976  0.00628183  1
  Bi  Bi21  1  0.24236766  0.02085976  0.49371817  1
  Bi  Bi22  1  0.74236766  0.47914024  0.50628183  1
  Bi  Bi23  1  0.25763234  0.97914024  0.99371817  1
  Bi  Bi24  1  0.00628183  0.75763234  0.52085976  1
  Bi  Bi25  1  0.49371817  0.24236766  0.02085976  1
  Bi  Bi26  1  0.50628183  0.74236766  0.47914024  1
  Bi  Bi27  1  0.99371817  0.25763234  0.97914024  1
  Bi  Bi28  1  0.52085976  0.00628183  0.75763234  1
  Bi  Bi29  1  0.02085976  0.49371817  0.24236766  1
  Bi  Bi30  1  0.47914024  0.50628183  0.74236766  1
  Bi  Bi31  1  0.97914024  0.99371817  0.25763234  1
  O  O32  1  0.36932129  0.11847797  0.08633444  1
  O  O33  1  0.63067871  0.61847797  0.41366556  1
  O  O34  1  0.13067871  0.88152203  0.58633444  1
  O  O35  1  0.86932129  0.38152203  0.91366556  1
  O  O36  1  0.08633444  0.36932129  0.11847797  1
  O  O37  1  0.41366556  0.63067871  0.61847797  1
  O  O38  1  0.58633444  0.13067871  0.88152203  1
  O  O39  1  0.91366556  0.86932129  0.38152203  1
  O  O40  1  0.11847797  0.08633444  0.36932129  1
  O  O41  1  0.61847797  0.41366556  0.63067871  1
  O  O42  1  0.88152203  0.58633444  0.13067871  1
  O  O43  1  0.38152203  0.91366556  0.86932129  1
  O  O44  1  0.63067871  0.88152203  0.91366556  1
  O  O45  1  0.36932129  0.38152203  0.58633444  1
  O  O46  1  0.86932129  0.11847797  0.41366556  1
  O  O47  1  0.13067871  0.61847797  0.08633444  1
  O  O48  1  0.91366556  0.63067871  0.88152203  1
  O  O49  1  0.58633444  0.36932129  0.38152203  1
  O  O50  1  0.41366556  0.86932129  0.11847797  1
  O  O51  1  0.08633444  0.13067871  0.61847797  1
  O  O52  1  0.88152203  0.91366556  0.63067871  1
  O  O53  1  0.38152203  0.58633444  0.36932129  1
  O  O54  1  0.11847797  0.41366556  0.86932129  1
  O  O55  1  0.61847797  0.08633444  0.13067871  1
  O  O56  1  0.81565997  0.59988724  0.64259812  1
  O  O57  1  0.18434003  0.09988724  0.85740188  1
  O  O58  1  0.68434003  0.40011276  0.14259812  1
  O  O59  1  0.31565997  0.90011276  0.35740188  1
  O  O60  1  0.64259812  0.81565997  0.59988724  1
  O  O61  1  0.85740188  0.18434003  0.09988724  1
  O  O62  1  0.14259812  0.68434003  0.40011276  1
  O  O63  1  0.35740188  0.31565997  0.90011276  1
  O  O64  1  0.59988724  0.64259812  0.81565997  1
  O  O65  1  0.09988724  0.85740188  0.18434003  1
  O  O66  1  0.40011276  0.14259812  0.68434003  1
  O  O67  1  0.90011276  0.35740188  0.31565997  1
  O  O68  1  0.18434003  0.40011276  0.35740188  1
  O  O69  1  0.81565997  0.90011276  0.14259812  1
  O  O70  1  0.31565997  0.59988724  0.85740188  1
  O  O71  1  0.68434003  0.09988724  0.64259812  1
  O  O72  1  0.35740188  0.18434003  0.40011276  1
  O  O73  1  0.14259812  0.81565997  0.90011276  1
  O  O74  1  0.85740188  0.31565997  0.59988724  1
  O  O75  1  0.64259812  0.68434003  0.09988724  1
  O  O76  1  0.40011276  0.35740188  0.18434003  1
  O  O77  1  0.90011276  0.14259812  0.81565997  1
  O  O78  1  0.59988724  0.85740188  0.31565997  1
  O  O79  1  0.09988724  0.64259812  0.68434003  1
