# generated using pymatgen
data_K2MoS4
_symmetry_space_group_name_H-M   'P 1'
_cell_length_a   6.89954580
_cell_length_b   9.42208559
_cell_length_c   12.23262277
_cell_angle_alpha   90.00000000
_cell_angle_beta   90.00000000
_cell_angle_gamma   90.00000000
_symmetry_Int_Tables_number   1
_chemical_formula_structural   K2MoS4
_chemical_formula_sum   'K8 Mo4 S16'
_cell_volume   795.21969958
_cell_formula_units_Z   4
loop_
 _symmetry_equiv_pos_site_id
 _symmetry_equiv_pos_as_xyz
  1  'x, y, z'
loop_
 _atom_site_type_symbol
 _atom_site_label
 _atom_site_symmetry_multiplicity
 _atom_site_fract_x
 _atom_site_fract_y
 _atom_site_fract_z
 _atom_site_occupancy
  K  K0  1  0.75000000  0.04549235  0.83586944  1
  K  K1  1  0.25000000  0.95450765  0.16413056  1
  K  K2  1  0.75000000  0.54549235  0.66413056  1
  K  K3  1  0.25000000  0.45450765  0.33586944  1
  K  K4  1  0.25000000  0.15621443  0.61089998  1
  K  K5  1  0.75000000  0.84378557  0.38910002  1
  K  K6  1  0.25000000  0.65621443  0.88910002  1
  K  K7  1  0.75000000  0.34378557  0.11089998  1
  Mo  Mo8  1  0.75000000  0.75357236  0.06715027  1
  Mo  Mo9  1  0.25000000  0.24642764  0.93284973  1
  Mo  Mo10  1  0.75000000  0.25357236  0.43284973  1
  Mo  Mo11  1  0.25000000  0.74642764  0.56715027  1
  S  S12  1  0.25000000  0.77993014  0.39016232  1
  S  S13  1  0.75000000  0.22006986  0.60983768  1
  S  S14  1  0.25000000  0.27993014  0.10983768  1
  S  S15  1  0.75000000  0.72006986  0.89016232  1
  S  S16  1  0.49523144  0.15169588  0.36303808  1
  S  S17  1  0.99523144  0.84830412  0.63696192  1
  S  S18  1  0.00476856  0.65169588  0.13696192  1
  S  S19  1  0.50476856  0.34830412  0.86303808  1
  S  S20  1  0.50476856  0.84830412  0.63696192  1
  S  S21  1  0.00476856  0.15169588  0.36303808  1
  S  S22  1  0.99523144  0.34830412  0.86303808  1
  S  S23  1  0.49523144  0.65169588  0.13696192  1
  S  S24  1  0.75000000  0.98113622  0.10759266  1
  S  S25  1  0.25000000  0.01886378  0.89240734  1
  S  S26  1  0.75000000  0.48113622  0.39240734  1
  S  S27  1  0.25000000  0.51886378  0.60759266  1
