# generated using pymatgen
data_Y2MgS4
_symmetry_space_group_name_H-M   'P 1'
_cell_length_a   13.48704158
_cell_length_b   7.88029332
_cell_length_c   6.51258164
_cell_angle_alpha   90.00000000
_cell_angle_beta   90.00000000
_cell_angle_gamma   90.00000000
_symmetry_Int_Tables_number   1
_chemical_formula_structural   Y2MgS4
_chemical_formula_sum   'Y8 Mg4 S16'
_cell_volume   692.16918375
_cell_formula_units_Z   4
loop_
 _symmetry_equiv_pos_site_id
 _symmetry_equiv_pos_as_xyz
  1  'x, y, z'
loop_
 _atom_site_type_symbol
 _atom_site_label
 _atom_site_symmetry_multiplicity
 _atom_site_fract_x
 _atom_site_fract_y
 _atom_site_fract_z
 _atom_site_occupancy
  Y  Y0  1  0.00000000  0.00000000  0.50000000  1
  Y  Y1  1  0.50000000  0.00000000  -0.00000000  1
  Y  Y2  1  0.50000000  0.50000000  -0.00000000  1
  Y  Y3  1  0.00000000  0.50000000  0.50000000  1
  Y  Y4  1  0.23171386  0.75000000  0.99452868  1
  Y  Y5  1  0.76828614  0.25000000  0.00547132  1
  Y  Y6  1  0.26828614  0.25000000  0.49452868  1
  Y  Y7  1  0.73171386  0.75000000  0.50547132  1
  Mg  Mg8  1  0.09449165  0.25000000  0.92184062  1
  Mg  Mg9  1  0.90550835  0.75000000  0.07815938  1
  Mg  Mg10  1  0.40550835  0.75000000  0.42184062  1
  Mg  Mg11  1  0.59449165  0.25000000  0.57815938  1
  S  S12  1  0.16931980  0.00972286  0.73926616  1
  S  S13  1  0.83068020  0.99027714  0.26073384  1
  S  S14  1  0.33068020  0.99027714  0.23926616  1
  S  S15  1  0.66931980  0.00972286  0.76073384  1
  S  S16  1  0.66931980  0.49027714  0.76073384  1
  S  S17  1  0.33068020  0.50972286  0.23926616  1
  S  S18  1  0.83068020  0.50972286  0.26073384  1
  S  S19  1  0.16931980  0.49027714  0.73926616  1
  S  S20  1  0.06985504  0.75000000  0.24468764  1
  S  S21  1  0.93014496  0.25000000  0.75531236  1
  S  S22  1  0.43014496  0.25000000  0.74468764  1
  S  S23  1  0.56985504  0.75000000  0.25531236  1
  S  S24  1  0.09068471  0.25000000  0.28777106  1
  S  S25  1  0.90931529  0.75000000  0.71222894  1
  S  S26  1  0.40931529  0.75000000  0.78777106  1
  S  S27  1  0.59068471  0.25000000  0.21222894  1
