# generated using pymatgen
data_Mn3V2O8
_symmetry_space_group_name_H-M   'P 1'
_cell_length_a   6.15387484
_cell_length_b   6.62051190
_cell_length_c   8.40920563
_cell_angle_alpha   89.99971852
_cell_angle_beta   90.00001027
_cell_angle_gamma   117.68299913
_symmetry_Int_Tables_number   1
_chemical_formula_structural   Mn3V2O8
_chemical_formula_sum   'Mn6 V4 O16'
_cell_volume   303.38857643
_cell_formula_units_Z   2
loop_
 _symmetry_equiv_pos_site_id
 _symmetry_equiv_pos_as_xyz
  1  'x, y, z'
loop_
 _atom_site_type_symbol
 _atom_site_label
 _atom_site_symmetry_multiplicity
 _atom_site_fract_x
 _atom_site_fract_y
 _atom_site_fract_z
 _atom_site_occupancy
  Mn  Mn0  1  0.11172995  0.72417583  0.24999080  1
  Mn  Mn1  1  0.38827289  0.27582385  0.74998586  1
  Mn  Mn2  1  0.61172407  0.72417575  0.25001525  1
  Mn  Mn3  1  0.88827422  0.27582501  0.75000863  1
  Mn  Mn4  1  0.49999670  0.00000520  0.50000019  1
  Mn  Mn5  1  -0.00000500  -0.00000017  0.00000020  1
  V  V6  1  0.87962644  0.75915672  0.61826644  1
  V  V7  1  0.12037449  0.24084465  0.38173608  1
  V  V8  1  0.62036734  0.24083514  0.11826874  1
  V  V9  1  0.37963062  0.75916215  0.88173211  1
  O  O10  1  0.11185667  0.76580198  0.49923501  1
  O  O11  1  0.34596812  0.23423765  0.50081415  1
  O  O12  1  0.38815063  0.23419364  0.99923882  1
  O  O13  1  0.15404468  0.76576392  0.00080664  1
  O  O14  1  0.88813684  0.23419889  0.50077019  1
  O  O15  1  0.65404058  0.76576276  0.49919103  1
  O  O16  1  0.61185205  0.76580364  0.00076288  1
  O  O17  1  0.84595182  0.23423623  0.99919650  1
  O  O18  1  0.50019567  0.00034031  0.74878003  1
  O  O19  1  0.49981059  -0.00033279  0.25121291  1
  O  O20  1  0.25330493  0.50623264  0.77437627  1
  O  O21  1  0.74669509  0.49376462  0.22561892  1
  O  O22  1  0.24670394  0.49377901  0.27437041  1
  O  O23  1  -0.00020028  -0.00035002  0.24877696  1
  O  O24  1  0.00019804  0.00034208  0.75121614  1
  O  O25  1  0.75330290  0.50622832  0.72562585  1
