# generated using pymatgen
data_Be3N2
_symmetry_space_group_name_H-M   'P 1'
_cell_length_a   5.13496335
_cell_length_b   5.13496335
_cell_length_c   5.13496383
_cell_angle_alpha   32.10256440
_cell_angle_beta   32.10256440
_cell_angle_gamma   32.10255964
_symmetry_Int_Tables_number   1
_chemical_formula_structural   Be3N2
_chemical_formula_sum   'Be3 N2'
_cell_volume   33.98125697
_cell_formula_units_Z   1
loop_
 _symmetry_equiv_pos_site_id
 _symmetry_equiv_pos_as_xyz
  1  'x, y, z'
loop_
 _atom_site_type_symbol
 _atom_site_label
 _atom_site_symmetry_multiplicity
 _atom_site_fract_x
 _atom_site_fract_y
 _atom_site_fract_z
 _atom_site_occupancy
  Be  Be0  1  0.14099892  0.14099892  0.14099892  1
  Be  Be1  1  0.68230544  0.68230544  0.68230544  1
  Be  Be2  1  0.91119323  0.91119323  0.91119323  1
  N  N3  1  0.79583732  0.79583732  0.79583732  1
  N  N4  1  0.29156509  0.29156509  0.29156509  1
