# generated using pymatgen
data_KNb2Cl11
_symmetry_space_group_name_H-M   'P 1'
_cell_length_a   6.91966465
_cell_length_b   6.98670538
_cell_length_c   17.29160289
_cell_angle_alpha   79.38051228
_cell_angle_beta   79.28974108
_cell_angle_gamma   87.56123462
_symmetry_Int_Tables_number   1
_chemical_formula_structural   KNb2Cl11
_chemical_formula_sum   'K2 Nb4 Cl22'
_cell_volume   807.31249981
_cell_formula_units_Z   2
loop_
 _symmetry_equiv_pos_site_id
 _symmetry_equiv_pos_as_xyz
  1  'x, y, z'
loop_
 _atom_site_type_symbol
 _atom_site_label
 _atom_site_symmetry_multiplicity
 _atom_site_fract_x
 _atom_site_fract_y
 _atom_site_fract_z
 _atom_site_occupancy
  K  K0  1  0.74738209  0.74864217  0.50407436  1
  K  K1  1  0.25261791  0.25135783  0.49592564  1
  Nb  Nb2  1  0.32364464  0.82192525  0.34085800  1
  Nb  Nb3  1  0.67635536  0.17807475  0.65914200  1
  Nb  Nb4  1  0.82757308  0.32617990  0.08911955  1
  Nb  Nb5  1  0.17242692  0.67382010  0.91088045  1
  Cl  Cl6  1  0.25206351  0.77658647  0.49077379  1
  Cl  Cl7  1  0.74793649  0.22341353  0.50922621  1
  Cl  Cl8  1  0.58133639  0.02642727  0.34850739  1
  Cl  Cl9  1  0.41866361  0.97357273  0.65149261  1
  Cl  Cl10  1  0.54025479  0.54902788  0.35657677  1
  Cl  Cl11  1  0.45974521  0.45097212  0.64342323  1
  Cl  Cl12  1  0.38606045  0.85861914  0.20423416  1
  Cl  Cl13  1  0.61393955  0.14138086  0.79576584  1
  Cl  Cl14  1  0.05772352  0.60334588  0.35764420  1
  Cl  Cl15  1  0.94227648  0.39665412  0.64235580  1
  Cl  Cl16  1  0.10188056  0.08785462  0.34179113  1
  Cl  Cl17  1  0.89811944  0.91214538  0.65820887  1
  Cl  Cl18  1  0.89858944  0.02173807  0.15111741  1
  Cl  Cl19  1  0.10141056  0.97826193  0.84888259  1
  Cl  Cl20  1  0.51719435  0.37761717  0.15375239  1
  Cl  Cl21  1  0.48280565  0.62238283  0.84624761  1
  Cl  Cl22  1  0.71849592  0.21434525  0.98608042  1
  Cl  Cl23  1  0.28150408  0.78565475  0.01391958  1
  Cl  Cl24  1  0.97477557  0.48040677  0.17132936  1
  Cl  Cl25  1  0.02522443  0.51959323  0.82867064  1
  Cl  Cl26  1  0.17294615  0.33468330  0.99960452  1
  Cl  Cl27  1  0.82705385  0.66531670  0.00039548  1
