# generated using pymatgen
data_Tm2S3
_symmetry_space_group_name_H-M   'P 1'
_cell_length_a   10.81298827
_cell_length_b   10.81298896
_cell_length_c   10.81298977
_cell_angle_alpha   109.47122017
_cell_angle_beta   109.47122152
_cell_angle_gamma   109.47121848
_symmetry_Int_Tables_number   1
_chemical_formula_structural   Tm2S3
_chemical_formula_sum   'Tm16 S24'
_cell_volume   973.22980832
_cell_formula_units_Z   8
loop_
 _symmetry_equiv_pos_site_id
 _symmetry_equiv_pos_as_xyz
  1  'x, y, z'
loop_
 _atom_site_type_symbol
 _atom_site_label
 _atom_site_symmetry_multiplicity
 _atom_site_fract_x
 _atom_site_fract_y
 _atom_site_fract_z
 _atom_site_occupancy
  Tm  Tm0  1  0.95173236  0.25000000  0.20173236  1
  Tm  Tm1  1  0.75000000  0.29826764  0.54826764  1
  Tm  Tm2  1  0.20173236  0.95173236  0.25000000  1
  Tm  Tm3  1  0.29826764  0.54826764  0.75000000  1
  Tm  Tm4  1  0.25000000  0.20173236  0.95173236  1
  Tm  Tm5  1  0.54826764  0.75000000  0.29826764  1
  Tm  Tm6  1  0.04826764  0.75000000  0.79826764  1
  Tm  Tm7  1  0.25000000  0.70173236  0.45173236  1
  Tm  Tm8  1  0.79826764  0.04826764  0.75000000  1
  Tm  Tm9  1  0.70173236  0.45173236  0.25000000  1
  Tm  Tm10  1  0.75000000  0.79826764  0.04826764  1
  Tm  Tm11  1  0.45173236  0.25000000  0.70173236  1
  Tm  Tm12  1  0.00000000  0.50000000  0.00000000  1
  Tm  Tm13  1  0.50000000  0.00000000  0.00000000  1
  Tm  Tm14  1  0.00000000  0.00000000  0.50000000  1
  Tm  Tm15  1  0.50000000  0.50000000  0.50000000  1
  S  S16  1  0.05417074  0.27724099  0.00974148  1
  S  S17  1  0.76749851  0.04442926  0.49025852  1
  S  S18  1  0.73250149  0.22275901  0.27692875  1
  S  S19  1  0.45557074  0.22307125  0.44582926  1
  S  S20  1  0.22307125  0.44582926  0.45557074  1
  S  S21  1  0.00974148  0.05417074  0.27724099  1
  S  S22  1  0.04442926  0.49025852  0.76749851  1
  S  S23  1  0.27692875  0.73250149  0.22275901  1
  S  S24  1  0.27724099  0.00974148  0.05417074  1
  S  S25  1  0.49025852  0.76749851  0.04442926  1
  S  S26  1  0.22275901  0.27692875  0.73250149  1
  S  S27  1  0.44582926  0.45557074  0.22307125  1
  S  S28  1  0.94582926  0.72275901  0.99025852  1
  S  S29  1  0.23250149  0.95557074  0.50974148  1
  S  S30  1  0.26749851  0.77724099  0.72307125  1
  S  S31  1  0.54442926  0.77692875  0.55417074  1
  S  S32  1  0.55417074  0.54442926  0.77692875  1
  S  S33  1  0.77724099  0.72307125  0.26749851  1
  S  S34  1  0.50974148  0.23250149  0.95557074  1
  S  S35  1  0.72275901  0.99025852  0.94582926  1
  S  S36  1  0.72307125  0.26749851  0.77724099  1
  S  S37  1  0.95557074  0.50974148  0.23250149  1
  S  S38  1  0.99025852  0.94582926  0.72275901  1
  S  S39  1  0.77692875  0.55417074  0.54442926  1
