# generated using pymatgen
data_Sm(NO3)3
_symmetry_space_group_name_H-M   'P 1'
_cell_length_a   10.62997272
_cell_length_b   10.62997272
_cell_length_c   12.84053843
_cell_angle_alpha   99.24691921
_cell_angle_beta   99.24691921
_cell_angle_gamma   103.34714232
_symmetry_Int_Tables_number   1
_chemical_formula_structural   Sm(NO3)3
_chemical_formula_sum   'Sm8 N24 O72'
_cell_volume   1363.52579196
_cell_formula_units_Z   8
loop_
 _symmetry_equiv_pos_site_id
 _symmetry_equiv_pos_as_xyz
  1  'x, y, z'
loop_
 _atom_site_type_symbol
 _atom_site_label
 _atom_site_symmetry_multiplicity
 _atom_site_fract_x
 _atom_site_fract_y
 _atom_site_fract_z
 _atom_site_occupancy
  Sm  Sm0  1  0.00000000  0.50000000  0.00000000  1
  Sm  Sm1  1  0.50000000  0.00000000  0.50000000  1
  Sm  Sm2  1  0.72105980  0.27894020  0.25000000  1
  Sm  Sm3  1  0.27894020  0.72105980  0.75000000  1
  Sm  Sm4  1  0.76337511  0.77970083  0.24467166  1
  Sm  Sm5  1  0.22029917  0.23662489  0.25532834  1
  Sm  Sm6  1  0.23662489  0.22029917  0.75532834  1
  Sm  Sm7  1  0.77970083  0.76337511  0.74467166  1
  N  N8  1  0.64003711  0.49186333  0.14157194  1
  N  N9  1  0.50813667  0.35996289  0.35842806  1
  N  N10  1  0.35996289  0.50813667  0.85842806  1
  N  N11  1  0.49186333  0.64003711  0.64157194  1
  N  N12  1  0.74433046  0.17852940  0.45703872  1
  N  N13  1  0.82147060  0.25566954  0.04296128  1
  N  N14  1  0.25566954  0.82147060  0.54296128  1
  N  N15  1  0.17852940  0.74433046  0.95703872  1
  N  N16  1  0.75607666  0.54195358  0.86958765  1
  N  N17  1  0.45804642  0.24392334  0.63041235  1
  N  N18  1  0.24392334  0.45804642  0.13041235  1
  N  N19  1  0.54195358  0.75607666  0.36958765  1
  N  N20  1  0.00184895  0.68072668  0.20648894  1
  N  N21  1  0.31927332  0.99815105  0.29351106  1
  N  N22  1  0.99815105  0.31927332  0.79351106  1
  N  N23  1  0.68072668  0.00184895  0.70648894  1
  N  N24  1  0.83095945  0.86371900  0.97803097  1
  N  N25  1  0.13628100  0.16904055  0.52196903  1
  N  N26  1  0.16904055  0.13628100  0.02196903  1
  N  N27  1  0.86371900  0.83095945  0.47803097  1
  N  N28  1  0.61588384  0.97425948  0.17755988  1
  N  N29  1  0.02574052  0.38411616  0.32244012  1
  N  N30  1  0.38411616  0.02574052  0.82244012  1
  N  N31  1  0.97425948  0.61588384  0.67755988  1
  O  O32  1  0.72622256  0.52347567  0.23212590  1
  O  O33  1  0.47652433  0.27377744  0.26787410  1
  O  O34  1  0.27377744  0.47652433  0.76787410  1
  O  O35  1  0.52347567  0.72622256  0.73212590  1
  O  O36  1  0.58765263  0.37176801  0.10286901  1
  O  O37  1  0.62823199  0.41234737  0.39713099  1
  O  O38  1  0.41234737  0.62823199  0.89713099  1
  O  O39  1  0.37176801  0.58765263  0.60286901  1
  O  O40  1  0.61563360  0.58395921  0.09914951  1
  O  O41  1  0.41604079  0.38436640  0.40085049  1
  O  O42  1  0.38436640  0.41604079  0.90085049  1
  O  O43  1  0.58395921  0.61563360  0.59914951  1
  O  O44  1  0.63077459  0.14761652  0.39007938  1
  O  O45  1  0.85238348  0.36922541  0.10992062  1
  O  O46  1  0.36922541  0.85238348  0.60992062  1
  O  O47  1  0.14761652  0.63077459  0.89007938  1
  O  O48  1  0.75089135  0.12946055  0.53851047  1
  O  O49  1  0.87053945  0.24910865  0.96148953  1
  O  O50  1  0.24910865  0.87053945  0.46148953  1
  O  O51  1  0.12946055  0.75089135  0.03851047  1
  O  O52  1  0.83942561  0.25550161  0.43424156  1
  O  O53  1  0.74449839  0.16057439  0.06575844  1
  O  O54  1  0.16057439  0.74449839  0.56575844  1
  O  O55  1  0.25550161  0.83942561  0.93424156  1
  O  O56  1  0.74479451  0.45762478  0.92713890  1
  O  O57  1  0.54237522  0.25520549  0.57286110  1
  O  O58  1  0.25520549  0.54237522  0.07286110  1
  O  O59  1  0.45762478  0.74479451  0.42713890  1
  O  O60  1  0.87182597  0.62314073  0.88059404  1
  O  O61  1  0.37685927  0.12817403  0.61940596  1
  O  O62  1  0.12817403  0.37685927  0.11940596  1
  O  O63  1  0.62314073  0.87182597  0.38059404  1
  O  O64  1  0.66366699  0.55349134  0.80159787  1
  O  O65  1  0.44650866  0.33633301  0.69840213  1
  O  O66  1  0.33633301  0.44650866  0.19840213  1
  O  O67  1  0.55349134  0.66366699  0.30159787  1
  O  O68  1  0.08997421  0.62146439  0.20127759  1
  O  O69  1  0.37853561  0.91002579  0.29872241  1
  O  O70  1  0.91002579  0.37853561  0.79872241  1
  O  O71  1  0.62146439  0.08997421  0.70127759  1
  O  O72  1  0.00052730  0.76335753  0.28758499  1
  O  O73  1  0.23664247  0.99947270  0.21241501  1
  O  O74  1  0.99947270  0.23664247  0.71241501  1
  O  O75  1  0.76335753  0.00052730  0.78758499  1
  O  O76  1  0.90543563  0.65477331  0.12394509  1
  O  O77  1  0.34522669  0.09456437  0.37605491  1
  O  O78  1  0.09456437  0.34522669  0.87605491  1
  O  O79  1  0.65477331  0.90543563  0.62394509  1
  O  O80  1  0.71426845  0.80669669  0.92266432  1
  O  O81  1  0.19330331  0.28573155  0.57733568  1
  O  O82  1  0.28573155  0.19330331  0.07733568  1
  O  O83  1  0.80669669  0.71426845  0.42266432  1
  O  O84  1  0.85370528  0.88880420  0.07866563  1
  O  O85  1  0.11119580  0.14629472  0.42133437  1
  O  O86  1  0.14629472  0.11119580  0.92133437  1
  O  O87  1  0.88880420  0.85370528  0.57866563  1
  O  O88  1  0.92186408  0.89068962  0.92501287  1
  O  O89  1  0.10931038  0.07813592  0.57498713  1
  O  O90  1  0.07813592  0.10931038  0.07498713  1
  O  O91  1  0.89068962  0.92186408  0.42501287  1
  O  O92  1  0.57255333  0.85095047  0.14654849  1
  O  O93  1  0.14904953  0.42744667  0.35345151  1
  O  O94  1  0.42744667  0.14904953  0.85345151  1
  O  O95  1  0.85095047  0.57255333  0.64654849  1
  O  O96  1  0.54846077  0.05330184  0.15880228  1
  O  O97  1  0.94669816  0.45153923  0.34119772  1
  O  O98  1  0.45153923  0.94669816  0.84119772  1
  O  O99  1  0.05330184  0.54846077  0.65880228  1
  O  O100  1  0.73576964  0.02118610  0.23308376  1
  O  O101  1  0.97881390  0.26423036  0.26691624  1
  O  O102  1  0.26423036  0.97881390  0.76691624  1
  O  O103  1  0.02118610  0.73576964  0.73308376  1
