# generated using pymatgen
data_NaAgI2O3
_symmetry_space_group_name_H-M   'P 1'
_cell_length_a   8.85471862
_cell_length_b   8.02051412
_cell_length_c   21.32143598
_cell_angle_alpha   90.00000000
_cell_angle_beta   90.00000000
_cell_angle_gamma   90.00000000
_symmetry_Int_Tables_number   1
_chemical_formula_structural   NaAgI2O3
_chemical_formula_sum   'Na8 Ag8 I16 O24'
_cell_volume   1514.23549919
_cell_formula_units_Z   8
loop_
 _symmetry_equiv_pos_site_id
 _symmetry_equiv_pos_as_xyz
  1  'x, y, z'
loop_
 _atom_site_type_symbol
 _atom_site_label
 _atom_site_symmetry_multiplicity
 _atom_site_fract_x
 _atom_site_fract_y
 _atom_site_fract_z
 _atom_site_occupancy
  Na  Na0  1  0.60654224  0.17453584  0.38619587  1
  Na  Na1  1  0.10654224  0.82546416  0.11380413  1
  Na  Na2  1  0.39345776  0.32546416  0.88619587  1
  Na  Na3  1  0.89345776  0.67453584  0.61380413  1
  Na  Na4  1  0.39345776  0.82546416  0.61380413  1
  Na  Na5  1  0.89345776  0.17453584  0.88619587  1
  Na  Na6  1  0.60654224  0.67453584  0.11380413  1
  Na  Na7  1  0.10654224  0.32546416  0.38619587  1
  Ag  Ag8  1  0.42139690  0.10486582  0.23449790  1
  Ag  Ag9  1  0.92139690  0.89513418  0.26550210  1
  Ag  Ag10  1  0.57860310  0.39513418  0.73449790  1
  Ag  Ag11  1  0.07860310  0.60486582  0.76550210  1
  Ag  Ag12  1  0.57860310  0.89513418  0.76550210  1
  Ag  Ag13  1  0.07860310  0.10486582  0.73449790  1
  Ag  Ag14  1  0.42139690  0.60486582  0.26550210  1
  Ag  Ag15  1  0.92139690  0.39513418  0.23449790  1
  I  I16  1  0.61674698  0.37327301  0.21112056  1
  I  I17  1  0.11674698  0.62672699  0.28887944  1
  I  I18  1  0.38325302  0.12672699  0.71112056  1
  I  I19  1  0.88325302  0.87327301  0.78887944  1
  I  I20  1  0.38325302  0.62672699  0.78887944  1
  I  I21  1  0.88325302  0.37327301  0.71112056  1
  I  I22  1  0.61674698  0.87327301  0.28887944  1
  I  I23  1  0.11674698  0.12672699  0.21112056  1
  I  I24  1  0.71960089  0.08436949  0.01218750  1
  I  I25  1  0.21960089  0.91563051  0.48781250  1
  I  I26  1  0.28039911  0.41563051  0.51218750  1
  I  I27  1  0.78039911  0.58436949  0.98781250  1
  I  I28  1  0.28039911  0.91563051  0.98781250  1
  I  I29  1  0.78039911  0.08436949  0.51218750  1
  I  I30  1  0.71960089  0.58436949  0.48781250  1
  I  I31  1  0.21960089  0.41563051  0.01218750  1
  O  O32  1  0.86330059  0.31145030  0.43822506  1
  O  O33  1  0.36330059  0.68854970  0.06177494  1
  O  O34  1  0.13669941  0.18854970  0.93822506  1
  O  O35  1  0.63669941  0.81145030  0.56177494  1
  O  O36  1  0.13669941  0.68854970  0.56177494  1
  O  O37  1  0.63669941  0.31145030  0.93822506  1
  O  O38  1  0.86330059  0.81145030  0.06177494  1
  O  O39  1  0.36330059  0.18854970  0.43822506  1
  O  O40  1  0.74154911  0.96334604  0.43817957  1
  O  O41  1  0.24154911  0.03665396  0.06182043  1
  O  O42  1  0.25845089  0.53665396  0.93817957  1
  O  O43  1  0.75845089  0.46334604  0.56182043  1
  O  O44  1  0.25845089  0.03665396  0.56182043  1
  O  O45  1  0.75845089  0.96334604  0.93817957  1
  O  O46  1  0.74154911  0.46334604  0.06182043  1
  O  O47  1  0.24154911  0.53665396  0.43817957  1
  O  O48  1  0.85550056  0.25140883  0.37824892  1
  O  O49  1  0.35550056  0.74859117  0.12175108  1
  O  O50  1  0.14449944  0.24859117  0.87824892  1
  O  O51  1  0.64449944  0.75140883  0.62175108  1
  O  O52  1  0.14449944  0.74859117  0.62175108  1
  O  O53  1  0.64449944  0.25140883  0.87824892  1
  O  O54  1  0.85550056  0.75140883  0.12175108  1
  O  O55  1  0.35550056  0.24859117  0.37824892  1
