# generated using pymatgen
data_Mg2ZnAs2
_symmetry_space_group_name_H-M   'P 1'
_cell_length_a   4.14191813
_cell_length_b   4.14197370
_cell_length_c   13.45936954
_cell_angle_alpha   90.00168914
_cell_angle_beta   89.99853802
_cell_angle_gamma   120.00396627
_symmetry_Int_Tables_number   1
_chemical_formula_structural   Mg2ZnAs2
_chemical_formula_sum   'Mg4 Zn2 As4'
_cell_volume   199.96170761
_cell_formula_units_Z   2
loop_
 _symmetry_equiv_pos_site_id
 _symmetry_equiv_pos_as_xyz
  1  'x, y, z'
loop_
 _atom_site_type_symbol
 _atom_site_label
 _atom_site_symmetry_multiplicity
 _atom_site_fract_x
 _atom_site_fract_y
 _atom_site_fract_z
 _atom_site_occupancy
  Mg  Mg0  1  0.00001218  0.00000964  0.99738919  1
  Mg  Mg1  1  0.00001219  0.00000979  0.49738924  1
  Mg  Mg2  1  0.33333844  0.66667062  0.31522254  1
  Mg  Mg3  1  0.33333847  0.66667096  0.81522162  1
  Zn  Zn4  1  0.66665727  0.33333202  0.18394226  1
  Zn  Zn5  1  0.66665729  0.33333196  0.68394224  1
  As  As6  1  0.33334321  0.66663716  0.11914973  1
  As  As7  1  0.33334337  0.66663714  0.61914983  1
  As  As8  1  0.66664769  0.33335116  0.38429754  1
  As  As9  1  0.66664791  0.33335154  0.88429782  1
