# generated using pymatgen
data_P
_symmetry_space_group_name_H-M   'P 1'
_cell_length_a   7.40790082
_cell_length_b   11.90459325
_cell_length_c   12.74042706
_cell_angle_alpha   70.33288029
_cell_angle_beta   72.20545489
_cell_angle_gamma   80.92640341
_symmetry_Int_Tables_number   1
_chemical_formula_structural   P
_chemical_formula_sum   P42
_cell_volume   1005.50601656
_cell_formula_units_Z   42
loop_
 _symmetry_equiv_pos_site_id
 _symmetry_equiv_pos_as_xyz
  1  'x, y, z'
loop_
 _atom_site_type_symbol
 _atom_site_label
 _atom_site_symmetry_multiplicity
 _atom_site_fract_x
 _atom_site_fract_y
 _atom_site_fract_z
 _atom_site_occupancy
  P  P0  1  0.58305083  0.66953917  0.15031254  1
  P  P1  1  0.41694917  0.33046083  0.84968746  1
  P  P2  1  0.70777779  0.52177918  0.27157352  1
  P  P3  1  0.29222221  0.47822082  0.72842648  1
  P  P4  1  0.83587015  0.41492333  0.15221195  1
  P  P5  1  0.16412985  0.58507667  0.84778805  1
  P  P6  1  0.95788153  0.27290735  0.27660186  1
  P  P7  1  0.04211847  0.72709265  0.72339814  1
  P  P8  1  0.09962140  0.15471928  0.17283281  1
  P  P9  1  0.90037860  0.84528072  0.82716719  1
  P  P10  1  0.23322126  0.02232682  0.29853360  1
  P  P11  1  0.76677874  0.97767318  0.70146640  1
  P  P12  1  0.32859892  0.92692086  0.16943557  1
  P  P13  1  0.67140108  0.07307914  0.83056443  1
  P  P14  1  0.46237782  0.77041323  0.27339607  1
  P  P15  1  0.53762218  0.22958677  0.72660393  1
  P  P16  1  0.20901423  0.51643060  0.33962035  1
  P  P17  1  0.79098577  0.48356940  0.66037965  1
  P  P18  1  0.45667131  0.41941837  0.39886869  1
  P  P19  1  0.54332869  0.58058163  0.60113231  1
  P  P20  1  0.46035550  0.26345099  0.34144415  1
  P  P21  1  0.53964450  0.73654901  0.65855585  1
  P  P22  1  0.70436398  0.17258174  0.40609815  1
  P  P23  1  0.29563602  0.82741826  0.59390185  1
  P  P24  1  0.73494514  0.00280684  0.36919302  1
  P  P25  1  0.26505486  -0.00280684  0.63080698  1
  P  P26  1  0.98306969  0.91710505  0.43272613  1
  P  P27  1  0.01693031  0.08289495  0.56727387  1
  P  P28  1  0.96276208  0.77469526  0.36396510  1
  P  P29  1  0.03723792  0.22530474  0.63603490  1
  P  P30  1  0.21280165  0.66498994  0.40319657  1
  P  P31  1  0.78719835  0.33501006  0.59680343  1
  P  P32  1  0.31891089  0.60589611  0.15301717  1
  P  P33  1  0.68108911  0.39410389  0.84698283  1
  P  P34  1  0.60429078  0.31869447  0.15509170  1
  P  P35  1  0.39570922  0.68130553  0.84490830  1
  P  P36  1  0.87279750  0.04736855  0.17931393  1
  P  P37  1  0.12720250  0.95263145  0.82068607  1
  P  P38  1  0.04898223  0.87255982  0.17523780  1
  P  P39  1  0.95101777  0.12744018  0.82476220  1
  P  P40  1  0.39535972  0.45309195  0.08200113  1
  P  P41  1  0.60464028  0.54690805  0.91799887  1
