# generated using pymatgen
data_Na2TcF6
_symmetry_space_group_name_H-M   'P 1'
_cell_length_a   5.54392115
_cell_length_b   5.54391604
_cell_length_c   4.21389117
_cell_angle_alpha   89.99994359
_cell_angle_beta   90.00012639
_cell_angle_gamma   120.00011557
_symmetry_Int_Tables_number   1
_chemical_formula_structural   Na2TcF6
_chemical_formula_sum   'Na2 Tc1 F6'
_cell_volume   112.16235781
_cell_formula_units_Z   1
loop_
 _symmetry_equiv_pos_site_id
 _symmetry_equiv_pos_as_xyz
  1  'x, y, z'
loop_
 _atom_site_type_symbol
 _atom_site_label
 _atom_site_symmetry_multiplicity
 _atom_site_fract_x
 _atom_site_fract_y
 _atom_site_fract_z
 _atom_site_occupancy
  Na  Na0  1  0.33333300  0.66666700  0.67530387  1
  Na  Na1  1  0.66666700  0.33333300  0.32469613  1
  Tc  Tc2  1  0.00000000  0.00000000  -0.00000000  1
  F  F3  1  0.34286580  0.17143290  0.75683700  1
  F  F4  1  0.82856810  0.65713520  0.75683700  1
  F  F5  1  0.82856810  0.17143190  0.75683800  1
  F  F6  1  0.65713420  0.82856710  0.24316300  1
  F  F7  1  0.17143190  0.34286480  0.24316300  1
  F  F8  1  0.17143190  0.82856810  0.24316200  1
