# generated using pymatgen
data_Na2In2SiS6
_symmetry_space_group_name_H-M   'P 1'
_cell_length_a   7.21557646
_cell_length_b   7.21557646
_cell_length_c   12.29441100
_cell_angle_alpha   74.30953236
_cell_angle_beta   74.30953236
_cell_angle_gamma   65.53708731
_symmetry_Int_Tables_number   1
_chemical_formula_structural   Na2In2SiS6
_chemical_formula_sum   'Na4 In4 Si2 S12'
_cell_volume   551.68378635
_cell_formula_units_Z   2
loop_
 _symmetry_equiv_pos_site_id
 _symmetry_equiv_pos_as_xyz
  1  'x, y, z'
loop_
 _atom_site_type_symbol
 _atom_site_label
 _atom_site_symmetry_multiplicity
 _atom_site_fract_x
 _atom_site_fract_y
 _atom_site_fract_z
 _atom_site_occupancy
  Na  Na0  1  0.90909060  0.52697153  0.33667540  1
  Na  Na1  1  0.52697153  0.90909060  0.83667540  1
  Na  Na2  1  0.07175231  0.92384106  0.50596758  1
  Na  Na3  1  0.92384106  0.07175231  0.00596758  1
  In  In4  1  0.62185602  0.44859473  0.69288597  1
  In  In5  1  0.44859473  0.62185602  0.19288597  1
  In  In6  1  0.29365316  0.41099563  0.99676478  1
  In  In7  1  0.41099563  0.29365316  0.49676478  1
  Si  Si8  1  0.07258071  0.50750351  0.75026393  1
  Si  Si9  1  0.50750351  0.07258071  0.25026393  1
  S  S10  1  0.74012538  0.29401184  0.52016619  1
  S  S11  1  0.29401184  0.74012538  0.02016619  1
  S  S12  1  0.61603942  0.21276567  0.87926336  1
  S  S13  1  0.21276567  0.61603942  0.37926336  1
  S  S14  1  0.25264196  0.69724210  0.70071529  1
  S  S15  1  0.69724210  0.25264196  0.20071529  1
  S  S16  1  0.21916552  0.21653680  0.69649639  1
  S  S17  1  0.21653680  0.21916552  0.19649639  1
  S  S18  1  0.80636440  0.68888706  0.67017039  1
  S  S19  1  0.68888706  0.80636440  0.17017039  1
  S  S20  1  0.97474918  0.46271040  0.93132972  1
  S  S21  1  0.46271040  0.97474918  0.43132972  1
