# generated using pymatgen
data_CaLa4Ni3WO12
_symmetry_space_group_name_H-M   'P 1'
_cell_length_a   5.65292432
_cell_length_b   8.86171500
_cell_length_c   5.68509767
_cell_angle_alpha   90.00000000
_cell_angle_beta   90.02781541
_cell_angle_gamma   90.00000000
_symmetry_Int_Tables_number   1
_chemical_formula_structural   CaLa4Ni3WO12
_chemical_formula_sum   'Ca1 La4 Ni3 W1 O12'
_cell_volume   284.79268442
_cell_formula_units_Z   1
loop_
 _symmetry_equiv_pos_site_id
 _symmetry_equiv_pos_as_xyz
  1  'x, y, z'
loop_
 _atom_site_type_symbol
 _atom_site_label
 _atom_site_symmetry_multiplicity
 _atom_site_fract_x
 _atom_site_fract_y
 _atom_site_fract_z
 _atom_site_occupancy
  Ca  Ca0  1  0.00000000  0.00000000  0.50000000  1
  La  La1  1  0.50000000  0.22375800  0.00000000  1
  La  La2  1  0.00000000  0.67160000  0.50000000  1
  La  La3  1  0.50000000  0.77624200  0.00000000  1
  La  La4  1  0.00000000  0.32840000  0.50000000  1
  Ni  Ni5  1  0.00000000  0.00000000  0.00000000  1
  Ni  Ni6  1  0.50000000  0.50000000  0.50000000  1
  Ni  Ni7  1  0.00000000  0.50000000  0.00000000  1
  W  W8  1  0.50000000  0.00000000  0.50000000  1
  O  O9  1  0.00000000  0.24570700  0.00000000  1
  O  O10  1  0.50000000  0.76458500  0.50000000  1
  O  O11  1  0.23276800  0.50000000  0.27127100  1
  O  O12  1  0.72610100  0.00000000  0.77680700  1
  O  O13  1  0.23347500  0.50000000  0.72942700  1
  O  O14  1  0.72582200  0.00000000  0.22297300  1
  O  O15  1  0.00000000  0.75429300  0.00000000  1
  O  O16  1  0.50000000  0.23541500  0.50000000  1
  O  O17  1  0.76723200  0.50000000  0.72872900  1
  O  O18  1  0.27389900  0.00000000  0.22319300  1
  O  O19  1  0.76652500  0.50000000  0.27057300  1
  O  O20  1  0.27417800  0.00000000  0.77702700  1
