# generated using pymatgen
data_PrH12(NO5)3
_symmetry_space_group_name_H-M   'P 1'
_cell_length_a   6.63922549
_cell_length_b   9.11740036
_cell_length_c   11.63297483
_cell_angle_alpha   68.30935301
_cell_angle_beta   88.63193328
_cell_angle_gamma   69.74212116
_symmetry_Int_Tables_number   1
_chemical_formula_structural   PrH12(NO5)3
_chemical_formula_sum   'Pr2 H24 N6 O30'
_cell_volume   609.44668420
_cell_formula_units_Z   2
loop_
 _symmetry_equiv_pos_site_id
 _symmetry_equiv_pos_as_xyz
  1  'x, y, z'
loop_
 _atom_site_type_symbol
 _atom_site_label
 _atom_site_symmetry_multiplicity
 _atom_site_fract_x
 _atom_site_fract_y
 _atom_site_fract_z
 _atom_site_occupancy
  Pr  Pr0  1  0.69620788  0.90674630  0.27474908  1
  Pr  Pr1  1  0.30379212  0.09325370  0.72525092  1
  H  H2  1  0.70028923  0.03343798  0.49125293  1
  H  H3  1  0.29971077  0.96656202  0.50874707  1
  H  H4  1  0.89730888  0.85992068  0.52946220  1
  H  H5  1  0.10269112  0.14007932  0.47053780  1
  H  H6  1  0.89072702  0.16620769  0.27102458  1
  H  H7  1  0.10927298  0.83379231  0.72897542  1
  H  H8  1  0.88033959  0.18012952  0.12981636  1
  H  H9  1  0.11966041  0.81987048  0.87018364  1
  H  H10  1  0.71930948  0.03121765  0.98354135  1
  H  H11  1  0.28069052  0.96878235  0.01645865  1
  H  H12  1  0.91382976  0.85630695  0.04711753  1
  H  H13  1  0.08617024  0.14369305  0.95288247  1
  H  H14  1  0.19867098  0.75239187  0.29466819  1
  H  H15  1  0.80132902  0.24760813  0.70533181  1
  H  H16  1  0.13670579  0.60483519  0.39150345  1
  H  H17  1  0.86329421  0.39516481  0.60849655  1
  H  H18  1  0.22704198  0.67129515  0.62103717  1
  H  H19  1  0.77295802  0.32870485  0.37896283  1
  H  H20  1  0.04986879  0.62998543  0.70384547  1
  H  H21  1  0.95013121  0.37001457  0.29615453  1
  H  H22  1  0.25871731  0.66271756  0.06595339  1
  H  H23  1  0.74128269  0.33728244  0.93404661  1
  H  H24  1  0.08094138  0.60625630  0.03144602  1
  H  H25  1  0.91905862  0.39374370  0.96855398  1
  N  N26  1  0.31202338  0.23578010  0.18146538  1
  N  N27  1  0.68797662  0.76421990  0.81853462  1
  N  N28  1  0.57240599  0.67124736  0.17778627  1
  N  N29  1  0.42759401  0.32875264  0.82221373  1
  N  N30  1  0.56275937  0.66619029  0.50721010  1
  N  N31  1  0.43724063  0.33380971  0.49278990  1
  O  O32  1  0.39455061  0.16521128  0.29485416  1
  O  O33  1  0.60544939  0.83478872  0.70514584  1
  O  O34  1  0.40229120  0.16482406  0.10830442  1
  O  O35  1  0.59770880  0.83517594  0.89169558  1
  O  O36  1  0.14833915  0.36689486  0.14479225  1
  O  O37  1  0.85166085  0.63310514  0.85520775  1
  O  O38  1  0.42563019  0.80840043  0.17754191  1
  O  O39  1  0.57436981  0.19159957  0.82245809  1
  O  O40  1  0.75989249  0.63465421  0.22645097  1
  O  O41  1  0.24010751  0.36534579  0.77354903  1
  O  O42  1  0.52941409  0.58090431  0.13288435  1
  O  O43  1  0.47058591  0.41909569  0.86711565  1
  O  O44  1  0.75604929  0.61546201  0.48393647  1
  O  O45  1  0.24395071  0.38453799  0.51606353  1
  O  O46  1  0.43621329  0.81273706  0.43525991  1
  O  O47  1  0.56378671  0.18726294  0.56474009  1
  O  O48  1  0.49791150  0.57527825  0.59650620  1
  O  O49  1  0.50208850  0.42472175  0.40349380  1
  O  O50  1  0.78438805  0.94784319  0.46050592  1
  O  O51  1  0.21561195  0.05215681  0.53949408  1
  O  O52  1  0.88091551  0.10640639  0.21710368  1
  O  O53  1  0.11908449  0.89359361  0.78289632  1
  O  O54  1  0.79820899  0.94712177  0.06347816  1
  O  O55  1  0.20179101  0.05287823  0.93652184  1
  O  O56  1  0.07900623  0.72219504  0.33178643  1
  O  O57  1  0.92099377  0.27780496  0.66821357  1
  O  O58  1  0.08459870  0.72280891  0.64408015  1
  O  O59  1  0.91540130  0.27719109  0.35591985  1
  O  O60  1  0.11469859  0.70583626  0.01988171  1
  O  O61  1  0.88530141  0.29416374  0.98011829  1
