# generated using pymatgen
data_Pr6Ge3Se14
_symmetry_space_group_name_H-M   'P 1'
_cell_length_a   10.73898818
_cell_length_b   10.73901106
_cell_length_c   6.10738395
_cell_angle_alpha   90.00201249
_cell_angle_beta   90.00024178
_cell_angle_gamma   119.99979657
_symmetry_Int_Tables_number   1
_chemical_formula_structural   Pr6Ge3Se14
_chemical_formula_sum   'Pr6 Ge3 Se14'
_cell_volume   609.97831958
_cell_formula_units_Z   1
loop_
 _symmetry_equiv_pos_site_id
 _symmetry_equiv_pos_as_xyz
  1  'x, y, z'
loop_
 _atom_site_type_symbol
 _atom_site_label
 _atom_site_symmetry_multiplicity
 _atom_site_fract_x
 _atom_site_fract_y
 _atom_site_fract_z
 _atom_site_occupancy
  Pr  Pr0  1  0.30965621  0.10398335  0.75542732  1
  Pr  Pr1  1  0.79432143  0.69034937  0.75541701  1
  Pr  Pr2  1  0.89602624  0.20567097  0.75542356  1
  Pr  Pr3  1  0.02502510  0.56300118  0.24942093  1
  Pr  Pr4  1  0.53797590  0.97496709  0.24943355  1
  Pr  Pr5  1  0.43699704  0.46201940  0.24944054  1
  Ge  Ge6  1  -0.00000869  0.00000032  0.17096074  1
  Ge  Ge7  1  0.33333340  0.66669725  0.66357170  1
  Ge  Ge8  1  0.66666278  0.33332708  0.51688897  1
  Se  Se9  1  0.00003565  -0.00002387  0.55083904  1
  Se  Se10  1  0.33336221  0.66665477  0.04405388  1
  Se  Se11  1  0.14849740  0.23077144  0.01403843  1
  Se  Se12  1  0.08229034  0.85149962  0.01402430  1
  Se  Se13  1  0.76918895  0.91770192  0.01403514  1
  Se  Se14  1  0.18446435  0.43588028  0.50797898  1
  Se  Se15  1  0.25138402  0.81558913  0.50800928  1
  Se  Se16  1  0.56413694  0.74859854  0.50804494  1
  Se  Se17  1  0.41250264  0.17208254  0.27850989  1
  Se  Se18  1  0.75954712  0.58746167  0.27850524  1
  Se  Se19  1  0.82791945  0.24040225  0.27855518  1
  Se  Se20  1  0.92317924  0.49912859  0.76717345  1
  Se  Se21  1  0.57594490  0.07683660  0.76714365  1
  Se  Se22  1  0.50089035  0.42406452  0.76715327  1
