# generated using pymatgen
data_RbFeI4
_symmetry_space_group_name_H-M   'P 1'
_cell_length_a   18.21493937
_cell_length_b   7.35837453
_cell_length_c   8.34468573
_cell_angle_alpha   72.41740206
_cell_angle_beta   90.00000000
_cell_angle_gamma   90.00000000
_symmetry_Int_Tables_number   1
_chemical_formula_structural   RbFeI4
_chemical_formula_sum   'Rb4 Fe4 I16'
_cell_volume   1066.20620722
_cell_formula_units_Z   4
loop_
 _symmetry_equiv_pos_site_id
 _symmetry_equiv_pos_as_xyz
  1  'x, y, z'
loop_
 _atom_site_type_symbol
 _atom_site_label
 _atom_site_symmetry_multiplicity
 _atom_site_fract_x
 _atom_site_fract_y
 _atom_site_fract_z
 _atom_site_occupancy
  Rb  Rb0  1  0.12816001  0.18607998  0.70444455  1
  Rb  Rb1  1  0.87183999  0.81392002  0.29555545  1
  Rb  Rb2  1  0.62816001  0.81392002  0.79555545  1
  Rb  Rb3  1  0.37183999  0.18607998  0.20444455  1
  Fe  Fe4  1  0.37174096  0.81759766  0.79749678  1
  Fe  Fe5  1  0.62825904  0.18240234  0.20250322  1
  Fe  Fe6  1  0.87174096  0.18240234  0.70250322  1
  Fe  Fe7  1  0.12825904  0.81759766  0.29749678  1
  I  I8  1  0.25202934  0.63630697  0.85081477  1
  I  I9  1  0.74797066  0.36369303  0.14918523  1
  I  I10  1  0.75202934  0.36369303  0.64918523  1
  I  I11  1  0.24797066  0.63630697  0.35081477  1
  I  I12  1  0.05319528  0.72966125  0.57053214  1
  I  I13  1  0.94680472  0.27033875  0.42946786  1
  I  I14  1  0.55319528  0.27033875  0.92946786  1
  I  I15  1  0.44680472  0.72966125  0.07053214  1
  I  I16  1  0.44720442  0.73510300  0.57205761  1
  I  I17  1  0.55279558  0.26489700  0.42794239  1
  I  I18  1  0.94720442  0.26489700  0.92794239  1
  I  I19  1  0.05279558  0.73510300  0.07205761  1
  I  I20  1  0.84178534  0.82441553  0.79348644  1
  I  I21  1  0.15821466  0.17558447  0.20651356  1
  I  I22  1  0.34178534  0.17558447  0.70651356  1
  I  I23  1  0.65821466  0.82441553  0.29348644  1
