# generated using pymatgen
data_ErRhO3
_symmetry_space_group_name_H-M   'P 1'
_cell_length_a   5.18710261
_cell_length_b   5.72004523
_cell_length_c   7.53016477
_cell_angle_alpha   90.00000000
_cell_angle_beta   90.00000000
_cell_angle_gamma   90.00000000
_symmetry_Int_Tables_number   1
_chemical_formula_structural   ErRhO3
_chemical_formula_sum   'Er4 Rh4 O12'
_cell_volume   223.42346421
_cell_formula_units_Z   4
loop_
 _symmetry_equiv_pos_site_id
 _symmetry_equiv_pos_as_xyz
  1  'x, y, z'
loop_
 _atom_site_type_symbol
 _atom_site_label
 _atom_site_symmetry_multiplicity
 _atom_site_fract_x
 _atom_site_fract_y
 _atom_site_fract_z
 _atom_site_occupancy
  Er  Er0  1  0.03054878  0.41514884  0.25000000  1
  Er  Er1  1  0.96945122  0.58485116  0.75000000  1
  Er  Er2  1  0.53054878  0.08485116  0.75000000  1
  Er  Er3  1  0.46945122  0.91514884  0.25000000  1
  Rh  Rh4  1  0.00000000  -0.00000000  0.00000000  1
  Rh  Rh5  1  0.50000000  0.50000000  0.00000000  1
  Rh  Rh6  1  0.00000000  -0.00000000  0.50000000  1
  Rh  Rh7  1  0.50000000  0.50000000  0.50000000  1
  O  O8  1  0.32516915  0.18864793  0.06362986  1
  O  O9  1  0.67483085  0.81135207  0.93637014  1
  O  O10  1  0.82516915  0.31135207  0.93637014  1
  O  O11  1  0.67483085  0.81135207  0.56362986  1
  O  O12  1  0.17483085  0.68864793  0.06362986  1
  O  O13  1  0.32516915  0.18864793  0.43637014  1
  O  O14  1  0.17483085  0.68864793  0.43637014  1
  O  O15  1  0.82516915  0.31135207  0.56362986  1
  O  O16  1  0.63823271  0.55499821  0.25000000  1
  O  O17  1  0.36176729  0.44500179  0.75000000  1
  O  O18  1  0.13823271  0.94500179  0.75000000  1
  O  O19  1  0.86176729  0.05499821  0.25000000  1
