# generated using pymatgen
data_Na2Al2As3
_symmetry_space_group_name_H-M   'P 1'
_cell_length_a   6.72210718
_cell_length_b   13.10571944
_cell_length_c   14.39449922
_cell_angle_alpha   89.74368474
_cell_angle_beta   90.00000000
_cell_angle_gamma   90.00000000
_symmetry_Int_Tables_number   1
_chemical_formula_structural   Na2Al2As3
_chemical_formula_sum   'Na16 Al16 As24'
_cell_volume   1268.11463384
_cell_formula_units_Z   8
loop_
 _symmetry_equiv_pos_site_id
 _symmetry_equiv_pos_as_xyz
  1  'x, y, z'
loop_
 _atom_site_type_symbol
 _atom_site_label
 _atom_site_symmetry_multiplicity
 _atom_site_fract_x
 _atom_site_fract_y
 _atom_site_fract_z
 _atom_site_occupancy
  Na  Na0  1  0.05592852  0.86087484  0.00859477  1
  Na  Na1  1  0.55592852  0.13912516  0.49140523  1
  Na  Na2  1  0.94407148  0.13912516  0.99140523  1
  Na  Na3  1  0.44407148  0.86087484  0.50859477  1
  Na  Na4  1  0.41089778  0.34988689  0.98052280  1
  Na  Na5  1  0.91089778  0.65011311  0.51947720  1
  Na  Na6  1  0.58910222  0.65011311  0.01947720  1
  Na  Na7  1  0.08910222  0.34988689  0.48052280  1
  Na  Na8  1  0.45385876  0.08602871  0.89282360  1
  Na  Na9  1  0.95385876  0.91397129  0.60717640  1
  Na  Na10  1  0.54614124  0.91397129  0.10717640  1
  Na  Na11  1  0.04614124  0.08602871  0.39282360  1
  Na  Na12  1  0.09904472  0.56616288  0.08525711  1
  Na  Na13  1  0.59904472  0.43383712  0.41474289  1
  Na  Na14  1  0.90095528  0.43383712  0.91474289  1
  Na  Na15  1  0.40095528  0.56616288  0.58525711  1
  Al  Al16  1  0.71349732  0.31578100  0.16513720  1
  Al  Al17  1  0.21349732  0.68421900  0.33486280  1
  Al  Al18  1  0.28650268  0.68421900  0.83486280  1
  Al  Al19  1  0.78650268  0.31578100  0.66513720  1
  Al  Al20  1  0.20378994  0.90628224  0.26997005  1
  Al  Al21  1  0.70378994  0.09371776  0.23002995  1
  Al  Al22  1  0.79621006  0.09371776  0.73002995  1
  Al  Al23  1  0.29621006  0.90628224  0.76997005  1
  Al  Al24  1  0.23681859  0.18924944  0.17249884  1
  Al  Al25  1  0.73681859  0.81075056  0.32750116  1
  Al  Al26  1  0.76318141  0.81075056  0.82750116  1
  Al  Al27  1  0.26318141  0.18924944  0.67249884  1
  Al  Al28  1  0.23604681  0.41071425  0.24063030  1
  Al  Al29  1  0.73604681  0.58928575  0.25936970  1
  Al  Al30  1  0.76395319  0.58928575  0.75936970  1
  Al  Al31  1  0.26395319  0.41071425  0.74063030  1
  As  As32  1  0.03051860  0.03426528  0.17427059  1
  As  As33  1  0.53051860  0.96573472  0.32572941  1
  As  As34  1  0.96948140  0.96573472  0.82572941  1
  As  As35  1  0.46948140  0.03426528  0.67427059  1
  As  As36  1  0.54632991  0.16189052  0.08655551  1
  As  As37  1  0.04632991  0.83810948  0.41344449  1
  As  As38  1  0.45367009  0.83810948  0.91344449  1
  As  As39  1  0.95367009  0.16189052  0.58655551  1
  As  As40  1  0.04992879  0.33912035  0.10440457  1
  As  As41  1  0.54992879  0.66087965  0.39559543  1
  As  As42  1  0.95007121  0.66087965  0.89559543  1
  As  As43  1  0.45007121  0.33912035  0.60440457  1
  As  As44  1  0.16225543  0.25330500  0.83004910  1
  As  As45  1  0.66225543  0.74669500  0.66995090  1
  As  As46  1  0.83774457  0.74669500  0.16995090  1
  As  As47  1  0.33774457  0.25330500  0.33004910  1
  As  As48  1  0.53083653  0.47914420  0.15774855  1
  As  As49  1  0.03083653  0.52085580  0.34225145  1
  As  As50  1  0.46916347  0.52085580  0.84225145  1
  As  As51  1  0.96916347  0.47914420  0.65774855  1
  As  As52  1  0.78853157  0.24999152  0.82574656  1
  As  As53  1  0.28853157  0.75000848  0.67425344  1
  As  As54  1  0.21146843  0.75000848  0.17425344  1
  As  As55  1  0.71146843  0.24999152  0.32574656  1
