# generated using pymatgen
data_Tm2Si2O7
_symmetry_space_group_name_H-M   'P 1'
_cell_length_a   6.50796724
_cell_length_b   6.53214894
_cell_length_c   11.88019061
_cell_angle_alpha   94.04005291
_cell_angle_beta   91.86482052
_cell_angle_gamma   92.43916611
_symmetry_Int_Tables_number   1
_chemical_formula_structural   Tm2Si2O7
_chemical_formula_sum   'Tm8 Si8 O28'
_cell_volume   503.00733390
_cell_formula_units_Z   4
loop_
 _symmetry_equiv_pos_site_id
 _symmetry_equiv_pos_as_xyz
  1  'x, y, z'
loop_
 _atom_site_type_symbol
 _atom_site_label
 _atom_site_symmetry_multiplicity
 _atom_site_fract_x
 _atom_site_fract_y
 _atom_site_fract_z
 _atom_site_occupancy
  Tm  Tm0  1  0.82448189  0.32593128  0.11117945  1
  Tm  Tm1  1  0.17551811  0.67406872  0.88882055  1
  Tm  Tm2  1  0.86727875  0.71195566  0.63486304  1
  Tm  Tm3  1  0.13272125  0.28804434  0.36513696  1
  Tm  Tm4  1  0.61880544  0.58635424  0.35419461  1
  Tm  Tm5  1  0.38119456  0.41364576  0.64580539  1
  Tm  Tm6  1  0.54799168  0.82694082  0.11352247  1
  Tm  Tm7  1  0.45200832  0.17305918  0.88647753  1
  Si  Si8  1  0.64348518  0.12107969  0.37499337  1
  Si  Si9  1  0.35651482  0.87892031  0.62500663  1
  Si  Si10  1  0.12248978  0.77790693  0.40661684  1
  Si  Si11  1  0.87750922  0.22209307  0.59338316  1
  Si  Si12  1  0.01366566  0.83544937  0.17435854  1
  Si  Si13  1  0.98633434  0.16455063  0.82564146  1
  Si  Si14  1  0.65722973  0.64875633  0.88595821  1
  Si  Si15  1  0.34277027  0.35124367  0.11404179  1
  O  O16  1  0.50156089  0.48317089  0.81462824  1
  O  O17  1  0.49843911  0.51682911  0.18537176  1
  O  O18  1  0.50051522  0.83445544  0.91792147  1
  O  O19  1  0.49948478  0.16554456  0.08207853  1
  O  O20  1  0.85304969  0.71077858  0.81577973  1
  O  O21  1  0.14695031  0.28922142  0.18422027  1
  O  O22  1  0.73021412  0.58221751  0.00798027  1
  O  O23  1  0.26978488  0.41778249  0.99201973  1
  O  O24  1  0.57482564  0.90783734  0.30592131  1
  O  O25  1  0.42517436  0.09216266  0.69407869  1
  O  O26  1  0.46050717  0.26981097  0.41345406  1
  O  O27  1  0.53949283  0.73018903  0.58654594  1
  O  O28  1  0.79155619  0.28078511  0.30938764  1
  O  O29  1  0.20844381  0.71921489  0.69061236  1
  O  O30  1  0.78142143  0.06996150  0.48744871  1
  O  O31  1  0.21857857  0.93003850  0.51255129  1
  O  O32  1  0.14884964  0.01288730  0.87663355  1
  O  O33  1  0.85115036  0.98711270  0.12336645  1
  O  O34  1  0.11136802  0.36668333  0.78574902  1
  O  O35  1  0.88863198  0.63331667  0.21425098  1
  O  O36  1  0.79756582  0.20459336  0.90709355  1
  O  O37  1  0.20243418  0.79540664  0.09290645  1
  O  O38  1  0.90011955  0.06124385  0.69400011  1
  O  O39  1  0.09988045  0.93875715  0.30599989  1
  O  O40  1  0.08895662  0.32628008  0.55080498  1
  O  O41  1  0.91104338  0.67371992  0.44919502  1
  O  O42  1  0.72406621  0.40158044  0.62157070  1
  O  O43  1  0.27593379  0.59841956  0.37842930  1
