# generated using pymatgen
data_Zn(FeO2)2
_symmetry_space_group_name_H-M   'P 1'
_cell_length_a   5.89671500
_cell_length_b   5.05723700
_cell_length_c   10.23256134
_cell_angle_alpha   89.60404381
_cell_angle_beta   90.00000000
_cell_angle_gamma   90.00000000
_symmetry_Int_Tables_number   1
_chemical_formula_structural   Zn(FeO2)2
_chemical_formula_sum   'Zn4 Fe8 O16'
_cell_volume   305.13879783
_cell_formula_units_Z   4
loop_
 _symmetry_equiv_pos_site_id
 _symmetry_equiv_pos_as_xyz
  1  'x, y, z'
loop_
 _atom_site_type_symbol
 _atom_site_label
 _atom_site_symmetry_multiplicity
 _atom_site_fract_x
 _atom_site_fract_y
 _atom_site_fract_z
 _atom_site_occupancy
  Zn  Zn0  1  0.50000000  0.85558200  0.75093200  1
  Zn  Zn1  1  0.00000000  0.14899900  0.25013700  1
  Zn  Zn2  1  0.50000000  0.53789300  0.24993100  1
  Zn  Zn3  1  0.00000000  0.47073700  0.74997300  1
  Fe  Fe4  1  0.00000000  0.50922000  0.48656800  1
  Fe  Fe5  1  0.00000000  0.50973000  0.01161000  1
  Fe  Fe6  1  0.50000000  0.49056800  0.51530800  1
  Fe  Fe7  1  0.50000000  0.48949000  0.98718000  1
  Fe  Fe8  1  0.75245100  0.99957200  0.49982000  1
  Fe  Fe9  1  0.24938000  0.99937800  0.00059200  1
  Fe  Fe10  1  0.24754900  0.99957200  0.49982000  1
  Fe  Fe11  1  0.75062000  0.99937800  0.00059200  1
  O  O12  1  0.00000000  0.84535800  0.39333200  1
  O  O13  1  0.00000000  0.84584100  0.10736200  1
  O  O14  1  0.50000000  0.14947900  0.60665900  1
  O  O15  1  0.50000000  0.15064100  0.89355400  1
  O  O16  1  0.00000000  0.19967700  0.59697500  1
  O  O17  1  0.00000000  0.20191000  0.90212000  1
  O  O18  1  0.50000000  0.79862800  0.40308000  1
  O  O19  1  0.50000000  0.79922900  0.09741300  1
  O  O20  1  0.75948000  0.66392300  0.61205600  1
  O  O21  1  0.24972300  0.66128200  0.89015000  1
  O  O22  1  0.24436300  0.33547200  0.38658800  1
  O  O23  1  0.74845200  0.33863000  0.10973300  1
  O  O24  1  0.75563700  0.33547200  0.38658800  1
  O  O25  1  0.25154800  0.33863000  0.10973300  1
  O  O26  1  0.24052000  0.66392300  0.61205600  1
  O  O27  1  0.75027700  0.66128200  0.89015000  1
