# generated using pymatgen
data_Cs3CdH5
_symmetry_space_group_name_H-M   'P 1'
_cell_length_a   8.68994054
_cell_length_b   8.68994054
_cell_length_c   8.68994054
_cell_angle_alpha   122.17080419
_cell_angle_beta   122.17080419
_cell_angle_gamma   86.27946064
_symmetry_Int_Tables_number   1
_chemical_formula_structural   Cs3CdH5
_chemical_formula_sum   'Cs6 Cd2 H10'
_cell_volume   447.76535050
_cell_formula_units_Z   2
loop_
 _symmetry_equiv_pos_site_id
 _symmetry_equiv_pos_as_xyz
  1  'x, y, z'
loop_
 _atom_site_type_symbol
 _atom_site_label
 _atom_site_symmetry_multiplicity
 _atom_site_fract_x
 _atom_site_fract_y
 _atom_site_fract_z
 _atom_site_occupancy
  Cs  Cs0  1  0.81940190  0.31940190  0.13880280  1
  Cs  Cs1  1  0.68059810  0.81940190  0.50000000  1
  Cs  Cs2  1  0.31940190  0.18059810  0.50000000  1
  Cs  Cs3  1  0.18059810  0.68059810  0.86119720  1
  Cs  Cs4  1  0.25000000  0.25000000  -0.00000000  1
  Cs  Cs5  1  0.75000000  0.75000000  -0.00000000  1
  Cd  Cd6  1  0.25000000  0.75000000  0.50000000  1
  Cd  Cd7  1  0.75000000  0.25000000  0.50000000  1
  H  H8  1  -0.00000000  0.00000000  -0.00000000  1
  H  H9  1  0.50000000  0.50000000  -0.00000000  1
  H  H10  1  0.28646711  0.53927172  0.50000000  1
  H  H11  1  0.03927172  0.78646711  0.50000000  1
  H  H12  1  0.78646711  0.28646711  0.74719539  1
  H  H13  1  0.53927172  0.03927172  0.25280461  1
  H  H14  1  0.46072828  0.96072828  0.74719539  1
  H  H15  1  0.21353289  0.71353289  0.25280461  1
  H  H16  1  0.96072828  0.21353289  0.50000000  1
  H  H17  1  0.71353289  0.46072828  0.50000000  1
