# generated using pymatgen
data_Ti3O7
_symmetry_space_group_name_H-M   'P 1'
_cell_length_a   3.73691400
_cell_length_b   9.58181450
_cell_length_c   14.22978125
_cell_angle_alpha   90.99782279
_cell_angle_beta   97.54507303
_cell_angle_gamma   90.00000000
_symmetry_Int_Tables_number   1
_chemical_formula_structural   Ti3O7
_chemical_formula_sum   'Ti6 O14'
_cell_volume   505.02807156
_cell_formula_units_Z   2
loop_
 _symmetry_equiv_pos_site_id
 _symmetry_equiv_pos_as_xyz
  1  'x, y, z'
loop_
 _atom_site_type_symbol
 _atom_site_label
 _atom_site_symmetry_multiplicity
 _atom_site_fract_x
 _atom_site_fract_y
 _atom_site_fract_z
 _atom_site_occupancy
  Ti  Ti0  1  0.22595700  0.22620200  0.45191500  1
  Ti  Ti1  1  0.77404300  0.77379800  0.54808500  1
  Ti  Ti2  1  0.20789500  0.54212800  0.41578900  1
  Ti  Ti3  1  0.79210500  0.45787200  0.58421100  1
  Ti  Ti4  1  0.19122600  0.87341500  0.38245200  1
  Ti  Ti5  1  0.80877400  0.12658500  0.61754800  1
  O  O6  1  0.19153500  0.06538700  0.38306900  1
  O  O7  1  0.80846500  0.93461300  0.61693100  1
  O  O8  1  0.18189500  0.36911200  0.36378900  1
  O  O9  1  0.81810500  0.63088800  0.63621100  1
  O  O10  1  0.15673000  0.66268800  0.31346100  1
  O  O11  1  0.84327000  0.33731200  0.68653900  1
  O  O12  1  0.13100300  0.78770000  0.26200700  1
  O  O13  1  0.86899700  0.21230000  0.73799300  1
  O  O14  1  0.29181500  0.14057900  0.58363000  1
  O  O15  1  0.70818500  0.85942100  0.41637000  1
  O  O16  1  0.27248900  0.43922500  0.54497800  1
  O  O17  1  0.72751100  0.56077500  0.45502200  1
  O  O18  1  0.25351300  0.75316900  0.50702600  1
  O  O19  1  0.74648700  0.24683100  0.49297400  1
