# generated using pymatgen
data_H2S
_symmetry_space_group_name_H-M   'P 1'
_cell_length_a   7.84633549
_cell_length_b   7.84633549
_cell_length_c   7.84633549
_cell_angle_alpha   100.23708465
_cell_angle_beta   114.60682060
_cell_angle_gamma   113.94686416
_symmetry_Int_Tables_number   1
_chemical_formula_structural   H2S
_chemical_formula_sum   'H16 S8'
_cell_volume   364.77112896
_cell_formula_units_Z   8
loop_
 _symmetry_equiv_pos_site_id
 _symmetry_equiv_pos_as_xyz
  1  'x, y, z'
loop_
 _atom_site_type_symbol
 _atom_site_label
 _atom_site_symmetry_multiplicity
 _atom_site_fract_x
 _atom_site_fract_y
 _atom_site_fract_z
 _atom_site_occupancy
  H  H0  1  0.16597274  0.27325314  0.76478223  1
  H  H1  1  0.50847091  0.90119151  0.73521777  1
  H  H2  1  0.99152909  0.22674686  0.89271960  1
  H  H3  1  0.33402726  0.59880849  0.60728040  1
  H  H4  1  0.83402726  0.72674686  0.23521777  1
  H  H5  1  0.49152909  0.09880849  0.26478223  1
  H  H6  1  0.00847091  0.77325314  0.10728040  1
  H  H7  1  0.66597274  0.40119151  0.39271960  1
  H  H8  1  0.32465090  0.59957231  0.09845043  1
  H  H9  1  0.50112188  0.72620047  0.40154957  1
  H  H10  1  0.99887812  0.90042769  0.72507859  1
  H  H11  1  0.17534910  0.77379953  0.77492141  1
  H  H12  1  0.67534910  0.40042769  0.90154957  1
  H  H13  1  0.49887812  0.27379953  0.59845043  1
  H  H14  1  0.00112188  0.09957231  0.27492141  1
  H  H15  1  0.82465090  0.22620047  0.22507859  1
  S  S16  1  0.47972690  0.22972690  0.75000000  1
  S  S17  1  0.02027310  0.27027310  0.25000000  1
  S  S18  1  0.52027310  0.77027310  0.25000000  1
  S  S19  1  0.97972690  0.72972690  0.75000000  1
  S  S20  1  0.02977099  0.75000000  0.27977099  1
  S  S21  1  0.47022901  0.25000000  0.22022901  1
  S  S22  1  0.97022901  0.25000000  0.72022901  1
  S  S23  1  0.52977099  0.75000000  0.77977099  1
