# generated using pymatgen
data_Ca(GaS2)2
_symmetry_space_group_name_H-M   'P 1'
_cell_length_a   6.85549147
_cell_length_b   7.23928141
_cell_length_c   27.12208950
_cell_angle_alpha   90.00000000
_cell_angle_beta   90.00000000
_cell_angle_gamma   109.38096692
_symmetry_Int_Tables_number   1
_chemical_formula_structural   Ca(GaS2)2
_chemical_formula_sum   'Ca8 Ga16 S32'
_cell_volume   1269.76163704
_cell_formula_units_Z   8
loop_
 _symmetry_equiv_pos_site_id
 _symmetry_equiv_pos_as_xyz
  1  'x, y, z'
loop_
 _atom_site_type_symbol
 _atom_site_label
 _atom_site_symmetry_multiplicity
 _atom_site_fract_x
 _atom_site_fract_y
 _atom_site_fract_z
 _atom_site_occupancy
  Ca  Ca0  1  0.94446864  0.32736674  0.57130167  1
  Ca  Ca1  1  0.55553136  0.67263326  0.07130167  1
  Ca  Ca2  1  0.05553136  0.67263326  0.42869833  1
  Ca  Ca3  1  0.44446864  0.32736674  0.92869833  1
  Ca  Ca4  1  0.40180056  0.95669541  0.69316840  1
  Ca  Ca5  1  0.09819944  0.04330459  0.19316840  1
  Ca  Ca6  1  0.59819944  0.04330459  0.30683160  1
  Ca  Ca7  1  0.90180056  0.95669541  0.80683160  1
  Ga  Ga8  1  0.08209249  0.45019794  0.73472949  1
  Ga  Ga9  1  0.41790751  0.54980206  0.23472949  1
  Ga  Ga10  1  0.91790751  0.54980206  0.26527051  1
  Ga  Ga11  1  0.58209249  0.45019794  0.76527051  1
  Ga  Ga12  1  0.86845658  0.71052056  0.65006508  1
  Ga  Ga13  1  0.63154342  0.28947944  0.15006508  1
  Ga  Ga14  1  0.13154342  0.28947944  0.34993492  1
  Ga  Ga15  1  0.36845658  0.71052056  0.84993492  1
  Ga  Ga16  1  0.55502705  0.73119994  0.55195897  1
  Ga  Ga17  1  0.94497295  0.26880006  0.05195897  1
  Ga  Ga18  1  0.44497295  0.26880006  0.44804103  1
  Ga  Ga19  1  0.05502705  0.73119994  0.94804103  1
  Ga  Ga20  1  0.26798616  0.98396147  0.56439009  1
  Ga  Ga21  1  0.23201384  0.01603853  0.06439009  1
  Ga  Ga22  1  0.73201384  0.01603853  0.43560991  1
  Ga  Ga23  1  0.76798616  0.98396147  0.93560991  1
  S  S24  1  0.58591988  0.01108870  0.59728302  1
  S  S25  1  0.91408012  0.98891130  0.09728302  1
  S  S26  1  0.41408012  0.98891130  0.40271698  1
  S  S27  1  0.08591988  0.01108870  0.90271698  1
  S  S28  1  0.63769058  0.51026231  0.59856631  1
  S  S29  1  0.86230942  0.48973769  0.09856631  1
  S  S30  1  0.36230942  0.48973769  0.40143369  1
  S  S31  1  0.13769058  0.51026231  0.90143369  1
  S  S32  1  0.25508150  0.24264784  0.75292059  1
  S  S33  1  0.24491850  0.75735216  0.25291959  1
  S  S34  1  0.74491850  0.75735216  0.24707941  1
  S  S35  1  0.75508150  0.24264784  0.74707941  1
  S  S36  1  0.12694926  0.57183641  0.65765557  1
  S  S37  1  0.37305074  0.42816359  0.15765557  1
  S  S38  1  0.87305074  0.42816359  0.34234443  1
  S  S39  1  0.62694926  0.57183641  0.84234443  1
  S  S40  1  0.21851173  0.68628528  0.52907096  1
  S  S41  1  0.28148827  0.31371472  0.02907096  1
  S  S42  1  0.78148827  0.31371472  0.47092904  1
  S  S43  1  0.71851173  0.68628528  0.97092904  1
  S  S44  1  0.19311008  0.73844794  0.77935323  1
  S  S45  1  0.30688992  0.26155206  0.27935323  1
  S  S46  1  0.80688992  0.26155206  0.22064677  1
  S  S47  1  0.69311008  0.73844794  0.72064677  1
  S  S48  1  0.76382959  0.78401859  0.48573505  1
  S  S49  1  0.73617041  0.21598141  0.98573505  1
  S  S50  1  0.23617041  0.21598141  0.51426495  1
  S  S51  1  0.26382959  0.78401859  0.01426495  1
  S  S52  1  0.07278598  0.02141485  0.62996872  1
  S  S53  1  0.42721402  0.97858515  0.12996872  1
  S  S54  1  0.92721402  0.97858515  0.37003128  1
  S  S55  1  0.57278598  0.02141485  0.87003128  1
