# generated using pymatgen
data_Gd3NbO7
_symmetry_space_group_name_H-M   'P 1'
_cell_length_a   6.50974548
_cell_length_b   6.50974548
_cell_length_c   7.59184932
_cell_angle_alpha   90.00000000
_cell_angle_beta   90.00000000
_cell_angle_gamma   109.71568221
_symmetry_Int_Tables_number   1
_chemical_formula_structural   Gd3NbO7
_chemical_formula_sum   'Gd6 Nb2 O14'
_cell_volume   302.85849144
_cell_formula_units_Z   2
loop_
 _symmetry_equiv_pos_site_id
 _symmetry_equiv_pos_as_xyz
  1  'x, y, z'
loop_
 _atom_site_type_symbol
 _atom_site_label
 _atom_site_symmetry_multiplicity
 _atom_site_fract_x
 _atom_site_fract_y
 _atom_site_fract_z
 _atom_site_occupancy
  Gd  Gd0  1  0.50000000  0.50000000  0.50000000  1
  Gd  Gd1  1  0.50000000  0.50000000  0.00000000  1
  Gd  Gd2  1  0.53505737  0.00000514  0.75000000  1
  Gd  Gd3  1  0.00000514  0.53505737  0.25000000  1
  Gd  Gd4  1  0.46494263  -0.00000514  0.25000000  1
  Gd  Gd5  1  -0.00000514  0.46494263  0.75000000  1
  Nb  Nb6  1  -0.00000000  -0.00000000  0.50000000  1
  Nb  Nb7  1  -0.00000000  -0.00000000  0.00000000  1
  O  O8  1  0.67887271  0.92670383  0.46827121  1
  O  O9  1  0.92670383  0.67887271  0.53172879  1
  O  O10  1  0.67887271  0.92670383  0.03172879  1
  O  O11  1  0.92670383  0.67887271  0.96827121  1
  O  O12  1  0.32112729  0.07329617  0.53172879  1
  O  O13  1  0.07329617  0.32112729  0.46827121  1
  O  O14  1  0.32112729  0.07329617  0.96827121  1
  O  O15  1  0.07329617  0.32112729  0.03172879  1
  O  O16  1  0.37067269  0.62932731  0.75000000  1
  O  O17  1  0.62932731  0.37067269  0.25000000  1
  O  O18  1  0.63604263  0.36395737  0.75000000  1
  O  O19  1  0.36395737  0.63604263  0.25000000  1
  O  O20  1  0.93361156  0.06638844  0.75000000  1
  O  O21  1  0.06638844  0.93361156  0.25000000  1
