# generated using pymatgen
data_Ba4Co(ReO6)2
_symmetry_space_group_name_H-M   'P 1'
_cell_length_a   9.87676875
_cell_length_b   9.87676823
_cell_length_c   9.87676876
_cell_angle_alpha   33.75258022
_cell_angle_beta   33.75260162
_cell_angle_gamma   33.75258103
_symmetry_Int_Tables_number   1
_chemical_formula_structural   Ba4Co(ReO6)2
_chemical_formula_sum   'Ba4 Co1 Re2 O12'
_cell_volume   265.01108765
_cell_formula_units_Z   1
loop_
 _symmetry_equiv_pos_site_id
 _symmetry_equiv_pos_as_xyz
  1  'x, y, z'
loop_
 _atom_site_type_symbol
 _atom_site_label
 _atom_site_symmetry_multiplicity
 _atom_site_fract_x
 _atom_site_fract_y
 _atom_site_fract_z
 _atom_site_occupancy
  Ba  Ba0  1  0.70825030  0.70824961  0.70825030  1
  Ba  Ba1  1  0.29174970  0.29175039  0.29174970  1
  Ba  Ba2  1  0.86917427  0.86917511  0.86917427  1
  Ba  Ba3  1  0.13082573  0.13082489  0.13082573  1
  Co  Co4  1  0.00000000  0.00000000  -0.00000000  1
  Re  Re5  1  0.58129146  0.58128586  0.58129146  1
  Re  Re6  1  0.41870854  0.41871414  0.41870854  1
  O  O7  1  0.21846493  0.69264254  0.21846493  1
  O  O8  1  0.21846466  0.21846486  0.69264291  1
  O  O9  1  0.69264291  0.21846486  0.21846466  1
  O  O10  1  0.78153507  0.30735746  0.78153507  1
  O  O11  1  0.78153534  0.78153514  0.30735709  1
  O  O12  1  0.30735709  0.78153514  0.78153534  1
  O  O13  1  0.38950801  0.85916080  0.38950801  1
  O  O14  1  0.38950825  0.38950771  0.85916146  1
  O  O15  1  0.85916146  0.38950771  0.38950825  1
  O  O16  1  0.61049199  0.14083920  0.61049199  1
  O  O17  1  0.61049175  0.61049229  0.14083854  1
  O  O18  1  0.14083854  0.61049229  0.61049175  1
