# generated using pymatgen
data_K2MoS3O
_symmetry_space_group_name_H-M   'P 1'
_cell_length_a   7.13311855
_cell_length_b   9.08450648
_cell_length_c   11.25575161
_cell_angle_alpha   90.00000000
_cell_angle_beta   90.00000000
_cell_angle_gamma   90.00000000
_symmetry_Int_Tables_number   1
_chemical_formula_structural   K2MoS3O
_chemical_formula_sum   'K8 Mo4 S12 O4'
_cell_volume   729.38240330
_cell_formula_units_Z   4
loop_
 _symmetry_equiv_pos_site_id
 _symmetry_equiv_pos_as_xyz
  1  'x, y, z'
loop_
 _atom_site_type_symbol
 _atom_site_label
 _atom_site_symmetry_multiplicity
 _atom_site_fract_x
 _atom_site_fract_y
 _atom_site_fract_z
 _atom_site_occupancy
  K  K0  1  0.25000000  0.45237571  0.19177555  1
  K  K1  1  0.25000000  0.95237571  0.30822445  1
  K  K2  1  0.75000000  0.54762429  0.80822445  1
  K  K3  1  0.75000000  0.04762429  0.69177555  1
  K  K4  1  0.25000000  0.15631975  0.87549916  1
  K  K5  1  0.25000000  0.65631975  0.62450084  1
  K  K6  1  0.75000000  0.84368025  0.12450084  1
  K  K7  1  0.75000000  0.34368025  0.37549916  1
  Mo  Mo8  1  0.25000000  0.23871805  0.54618263  1
  Mo  Mo9  1  0.25000000  0.73871805  0.95381737  1
  Mo  Mo10  1  0.75000000  0.76128195  0.45381737  1
  Mo  Mo11  1  0.75000000  0.26128195  0.04618263  1
  S  S12  1  0.25000000  0.00556324  0.59834595  1
  S  S13  1  0.25000000  0.50556324  0.90165405  1
  S  S14  1  0.75000000  0.99443676  0.40165405  1
  S  S15  1  0.75000000  0.49443676  0.09834595  1
  S  S16  1  0.49910009  0.34585762  0.62255699  1
  S  S17  1  0.00089991  0.84585762  0.87744301  1
  S  S18  1  -0.00089991  0.65414238  0.37744301  1
  S  S19  1  0.50089991  0.15414238  0.12255699  1
  S  S20  1  0.50089991  0.65414238  0.37744301  1
  S  S21  1  -0.00089991  0.15414238  0.12255699  1
  S  S22  1  0.00089991  0.34585762  0.62255699  1
  S  S23  1  0.49910009  0.84585762  0.87744301  1
  O  O24  1  0.25000000  0.25503809  0.39276734  1
  O  O25  1  0.25000000  0.75503809  0.10723266  1
  O  O26  1  0.75000000  0.74496191  0.60723266  1
  O  O27  1  0.75000000  0.24496191  0.89276734  1
