# generated using pymatgen
data_Rb2EuGa(SiO3)4
_symmetry_space_group_name_H-M   'P 1'
_cell_length_a   7.46467125
_cell_length_b   14.23888920
_cell_length_c   14.24760791
_cell_angle_alpha   64.28456919
_cell_angle_beta   74.81347012
_cell_angle_gamma   74.80394688
_symmetry_Int_Tables_number   1
_chemical_formula_structural   Rb2EuGa(SiO3)4
_chemical_formula_sum   'Rb8 Eu4 Ga4 Si16 O48'
_cell_volume   1297.39585053
_cell_formula_units_Z   4
loop_
 _symmetry_equiv_pos_site_id
 _symmetry_equiv_pos_as_xyz
  1  'x, y, z'
loop_
 _atom_site_type_symbol
 _atom_site_label
 _atom_site_symmetry_multiplicity
 _atom_site_fract_x
 _atom_site_fract_y
 _atom_site_fract_z
 _atom_site_occupancy
  Rb  Rb0  1  0.31022797  0.91847511  0.96513714  1
  Rb  Rb1  1  0.69384021  0.58152489  0.53486286  1
  Rb  Rb2  1  0.68977203  0.08152489  0.03486286  1
  Rb  Rb3  1  0.30615979  0.41847511  0.46513714  1
  Rb  Rb4  1  0.29602705  0.88470840  0.54454879  1
  Rb  Rb5  1  0.22528424  0.61529160  0.95545121  1
  Rb  Rb6  1  0.70397295  0.11529160  0.45545121  1
  Rb  Rb7  1  0.77471576  0.38470840  0.04454879  1
  Eu  Eu8  1  0.05194983  0.71221668  0.25006316  1
  Eu  Eu9  1  0.51422968  0.78778332  0.24993684  1
  Eu  Eu10  1  0.94805017  0.28778332  0.74993684  1
  Eu  Eu11  1  0.48577032  0.21221668  0.75006316  1
  Ga  Ga12  1  0.62683676  0.91278247  0.72763855  1
  Ga  Ga13  1  0.76725778  0.58721753  0.77236145  1
  Ga  Ga14  1  0.37316324  0.08721753  0.27236145  1
  Ga  Ga15  1  0.23274222  0.41278247  0.22763855  1
  Si  Si16  1  0.85986717  0.82613486  0.00737903  1
  Si  Si17  1  0.19338106  0.67386514  0.49262097  1
  Si  Si18  1  0.14013283  0.17386514  0.99262097  1
  Si  Si19  1  0.80661894  0.32613486  0.50737903  1
  Si  Si20  1  0.83062295  0.79885905  0.57721244  1
  Si  Si21  1  0.70669443  0.70114095  0.92278756  1
  Si  Si22  1  0.16937705  0.20114095  0.42278756  1
  Si  Si23  1  0.29330557  0.29885905  0.07721244  1
  Si  Si24  1  0.76158872  0.92330372  0.33867965  1
  Si  Si25  1  0.52357210  0.57669628  0.16132035  1
  Si  Si26  1  0.23841128  0.07669628  0.66132035  1
  Si  Si27  1  0.47642790  0.42330372  0.83867965  1
  Si  Si28  1  0.13918063  0.97176785  0.20524402  1
  Si  Si29  1  0.81619250  0.52823215  0.29475598  1
  Si  Si30  1  0.86081937  0.02823215  0.79475598  1
  Si  Si31  1  0.18380750  0.47176785  0.70524402  1
  O  O32  1  0.03082853  0.77050488  0.07431476  1
  O  O33  1  0.37564818  0.72949512  0.42568524  1
  O  O34  1  0.96917147  0.22949512  0.92568524  1
  O  O35  1  0.62435182  0.27050488  0.57431476  1
  O  O36  1  0.91765885  0.93884797  0.90941609  1
  O  O37  1  0.26592291  0.56115203  0.59058391  1
  O  O38  1  0.08234115  0.06115203  0.09058391  1
  O  O39  1  0.73407709  0.43884797  0.40941609  1
  O  O40  1  0.70770230  0.70624910  0.65563200  1
  O  O41  1  0.56958340  0.79375090  0.84436800  1
  O  O42  1  0.29229770  0.29375090  0.34436800  1
  O  O43  1  0.43041660  0.20624910  0.15563200  1
  O  O44  1  0.81709256  0.88736067  0.62411545  1
  O  O45  1  0.82856869  0.61263933  0.87588455  1
  O  O46  1  0.18290744  0.11263933  0.37588455  1
  O  O47  1  0.17143131  0.38736067  0.12411545  1
  O  O48  1  0.74340695  0.85367807  0.46771158  1
  O  O49  1  0.56479660  0.64632193  0.03228842  1
  O  O50  1  0.25659305  0.14632193  0.53228842  1
  O  O51  1  0.43520340  0.35367807  0.96771158  1
  O  O52  1  0.95705645  0.97525110  0.29920331  1
  O  O53  1  0.73151085  0.52474890  0.20079669  1
  O  O54  1  0.04294355  0.02474890  0.70079669  1
  O  O55  1  0.26848915  0.47525110  0.79920331  1
  O  O56  1  0.76446499  0.85207364  0.27598285  1
  O  O57  1  0.39252148  0.64792636  0.22401715  1
  O  O58  1  0.23553501  0.14792636  0.72401715  1
  O  O59  1  0.60747852  0.35207364  0.77598285  1
  O  O60  1  0.58727531  0.02205115  0.33029202  1
  O  O61  1  0.43961848  0.47794885  0.16970798  1
  O  O62  1  0.41272469  0.97794885  0.66970798  1
  O  O63  1  0.56038152  0.52205115  0.83029202  1
  O  O64  1  0.65388453  0.85094655  0.07338083  1
  O  O65  1  0.07821191  0.64905345  0.42661917  1
  O  O66  1  0.34611547  0.14905345  0.92661917  1
  O  O67  1  0.92178809  0.35094655  0.57338083  1
  O  O68  1  0.85946779  0.75015693  0.94524650  1
  O  O69  1  0.05487122  0.74984307  0.55475350  1
  O  O70  1  0.14053221  0.24984307  0.05475350  1
  O  O71  1  0.94512878  0.25015693  0.44524650  1
  O  O72  1  0.32653181  0.99079435  0.23022344  1
  O  O73  1  0.04754960  0.50920565  0.26977656  1
  O  O74  1  0.67346819  0.00920565  0.76977656  1
  O  O75  1  0.95245040  0.49079435  0.73022344  1
  O  O76  1  0.20215300  0.85605840  0.20072663  1
  O  O77  1  0.75893803  0.64394160  0.29927337  1
  O  O78  1  0.79784700  0.14394160  0.79927337  1
  O  O79  1  0.24106197  0.35605840  0.70072663  1
