# generated using pymatgen
data_MgSc4(Si2O7)2
_symmetry_space_group_name_H-M   'P 1'
_cell_length_a   6.90780900
_cell_length_b   6.90780897
_cell_length_c   6.90780853
_cell_angle_alpha   57.36992186
_cell_angle_beta   57.36992290
_cell_angle_gamma   57.36991811
_symmetry_Int_Tables_number   1
_chemical_formula_structural   MgSc4(Si2O7)2
_chemical_formula_sum   'Mg1 Sc4 Si4 O14'
_cell_volume   218.97193034
_cell_formula_units_Z   1
loop_
 _symmetry_equiv_pos_site_id
 _symmetry_equiv_pos_as_xyz
  1  'x, y, z'
loop_
 _atom_site_type_symbol
 _atom_site_label
 _atom_site_symmetry_multiplicity
 _atom_site_fract_x
 _atom_site_fract_y
 _atom_site_fract_z
 _atom_site_occupancy
  Mg  Mg0  1  0.23811900  0.23811900  0.23811900  1
  Sc  Sc1  1  0.96129400  0.52613400  0.96129400  1
  Sc  Sc2  1  0.52613400  0.96129400  0.96129400  1
  Sc  Sc3  1  0.96129400  0.96129400  0.52613400  1
  Sc  Sc4  1  0.00278600  0.00278600  0.00278600  1
  Si  Si5  1  0.50594000  0.99762800  0.50594000  1
  Si  Si6  1  0.99762800  0.50594000  0.50594000  1
  Si  Si7  1  0.50594000  0.50594000  0.99762800  1
  Si  Si8  1  0.50530500  0.50530500  0.50530500  1
  O  O9  1  0.42321800  0.81982700  0.81982700  1
  O  O10  1  0.17505900  0.57603400  0.57603400  1
  O  O11  1  0.81982700  0.42321800  0.81982700  1
  O  O12  1  0.81982700  0.81982700  0.42321800  1
  O  O13  1  0.42455900  0.42455900  0.83397300  1
  O  O14  1  0.42455900  0.83397300  0.42455900  1
  O  O15  1  0.18785000  0.57516200  0.18785000  1
  O  O16  1  0.57603400  0.17505900  0.57603400  1
  O  O17  1  0.12443200  0.12443200  0.12443200  1
  O  O18  1  0.88717600  0.88717600  0.88717600  1
  O  O19  1  0.83397300  0.42455900  0.42455900  1
  O  O20  1  0.57603400  0.57603400  0.17505900  1
  O  O21  1  0.18785000  0.18785000  0.57516200  1
  O  O22  1  0.57516200  0.18785000  0.18785000  1
