# generated using pymatgen
data_Ba6MgSc2C2(O3F7)2
_symmetry_space_group_name_H-M   'P 1'
_cell_length_a   6.29192039
_cell_length_b   9.10185198
_cell_length_c   9.12454279
_cell_angle_alpha   98.35705635
_cell_angle_beta   90.00000000
_cell_angle_gamma   90.00000000
_symmetry_Int_Tables_number   1
_chemical_formula_structural   Ba6MgSc2C2(O3F7)2
_chemical_formula_sum   'Ba6 Mg1 Sc2 C2 O6 F14'
_cell_volume   516.99685941
_cell_formula_units_Z   1
loop_
 _symmetry_equiv_pos_site_id
 _symmetry_equiv_pos_as_xyz
  1  'x, y, z'
loop_
 _atom_site_type_symbol
 _atom_site_label
 _atom_site_symmetry_multiplicity
 _atom_site_fract_x
 _atom_site_fract_y
 _atom_site_fract_z
 _atom_site_occupancy
  Ba  Ba0  1  0.25000000  0.86366601  0.65186549  1
  Ba  Ba1  1  0.75000000  0.60147489  0.83917390  1
  Ba  Ba2  1  0.25000000  0.39435556  0.16057078  1
  Ba  Ba3  1  0.75000000  0.09696375  0.90654721  1
  Ba  Ba4  1  0.25000000  0.90873441  0.11522271  1
  Ba  Ba5  1  0.75000000  0.16462632  0.39065695  1
  Mg  Mg6  1  0.75000000  0.86236270  0.56247514  1
  Sc  Sc7  1  0.25000000  0.28573433  0.72603406  1
  Sc  Sc8  1  0.75000000  0.72250491  0.24656085  1
  C  C9  1  0.25000000  0.48543147  0.53651587  1
  C  C10  1  0.75000000  0.50943158  0.43967138  1
  O  O11  1  0.25000000  0.58325632  0.44960029  1
  O  O12  1  0.75000000  0.65537788  0.45891806  1
  O  O13  1  0.25000000  0.52194591  0.68241735  1
  O  O14  1  0.25000000  0.34268017  0.48828474  1
  O  O15  1  0.75000000  0.44048942  0.55138001  1
  O  O16  1  0.75000000  0.44628320  0.30280527  1
  F  F17  1  0.49193524  0.15702873  0.15946182  1
  F  F18  1  0.25000000  0.11448362  0.86767388  1
  F  F19  1  0.75000000  0.89147846  0.12915434  1
  F  F20  1  0.48303024  0.83251312  0.88434028  1
  F  F21  1  0.48429452  0.14773116  0.63170697  1
  F  F22  1  0.50640985  0.63607692  0.12047972  1
  F  F23  1  0.01424866  0.36553321  0.88461167  1
  F  F24  1  0.48575134  0.36553321  0.88461167  1
  F  F25  1  0.01570548  0.14773116  0.63170697  1
  F  F26  1  0.96681056  0.87619091  0.37734990  1
  F  F27  1  0.01696976  0.83251312  0.88434028  1
  F  F28  1  0.00806476  0.15702873  0.15946182  1
  F  F29  1  0.99359015  0.63607692  0.12047972  1
  F  F30  1  0.53318944  0.87619091  0.37734990  1
