# generated using pymatgen
data_BiIrSe
_symmetry_space_group_name_H-M   'P 1'
_cell_length_a   6.34719879
_cell_length_b   6.34719879
_cell_length_c   6.34719879
_cell_angle_alpha   90.00000000
_cell_angle_beta   90.00000000
_cell_angle_gamma   90.00000000
_symmetry_Int_Tables_number   1
_chemical_formula_structural   BiIrSe
_chemical_formula_sum   'Bi4 Ir4 Se4'
_cell_volume   255.70916909
_cell_formula_units_Z   4
loop_
 _symmetry_equiv_pos_site_id
 _symmetry_equiv_pos_as_xyz
  1  'x, y, z'
loop_
 _atom_site_type_symbol
 _atom_site_label
 _atom_site_symmetry_multiplicity
 _atom_site_fract_x
 _atom_site_fract_y
 _atom_site_fract_z
 _atom_site_occupancy
  Bi  Bi0  1  0.13010371  0.63010371  0.86989629  1
  Bi  Bi1  1  0.63010371  0.86989629  0.13010371  1
  Bi  Bi2  1  0.86989629  0.13010371  0.63010371  1
  Bi  Bi3  1  0.36989629  0.36989629  0.36989629  1
  Ir  Ir4  1  0.48675610  0.98675610  0.51324390  1
  Ir  Ir5  1  0.98675610  0.51324390  0.48675610  1
  Ir  Ir6  1  0.51324390  0.48675610  0.98675610  1
  Ir  Ir7  1  0.01324390  0.01324390  0.01324390  1
  Se  Se8  1  0.87940459  0.37940459  0.12059541  1
  Se  Se9  1  0.37940459  0.12059541  0.87940459  1
  Se  Se10  1  0.12059541  0.87940459  0.37940459  1
  Se  Se11  1  0.62059541  0.62059541  0.62059541  1
