# generated using pymatgen
data_Sm4Mg(Mo2O7)2
_symmetry_space_group_name_H-M   'P 1'
_cell_length_a   7.60336457
_cell_length_b   7.62955286
_cell_length_c   7.60386334
_cell_angle_alpha   59.88477011
_cell_angle_beta   59.53220380
_cell_angle_gamma   59.89483098
_symmetry_Int_Tables_number   1
_chemical_formula_structural   Sm4Mg(Mo2O7)2
_chemical_formula_sum   'Sm4 Mg1 Mo4 O14'
_cell_volume   310.27368300
_cell_formula_units_Z   1
loop_
 _symmetry_equiv_pos_site_id
 _symmetry_equiv_pos_as_xyz
  1  'x, y, z'
loop_
 _atom_site_type_symbol
 _atom_site_label
 _atom_site_symmetry_multiplicity
 _atom_site_fract_x
 _atom_site_fract_y
 _atom_site_fract_z
 _atom_site_occupancy
  Sm  Sm0  1  0.49842000  0.00456500  0.49726300  1
  Sm  Sm1  1  0.49731000  0.49953900  0.49856900  1
  Sm  Sm2  1  0.49082900  0.50449400  0.00054100  1
  Sm  Sm3  1  0.00048800  0.50441900  0.49053400  1
  Mg  Mg4  1  0.13225400  0.11780900  0.13212700  1
  Mo  Mo5  1  0.99145700  0.99511800  0.99122600  1
  Mo  Mo6  1  0.98728800  0.99074000  0.53113400  1
  Mo  Mo7  1  0.53123400  0.99078100  0.98729500  1
  Mo  Mo8  1  0.99130400  0.52217900  0.99140000  1
  O  O9  1  0.64624400  0.10385400  0.64625400  1
  O  O10  1  0.07951300  0.65432600  0.66821800  1
  O  O11  1  0.93149800  0.33179100  0.32304000  1
  O  O12  1  0.66831400  0.65443400  0.07950200  1
  O  O13  1  0.37238700  0.37750500  0.37253300  1
  O  O14  1  0.93236200  0.31748000  0.93261300  1
  O  O15  1  0.07926900  0.09786700  0.66839300  1
  O  O16  1  0.32315900  0.91368100  0.93135900  1
  O  O17  1  0.32340300  0.33206900  0.93069300  1
  O  O18  1  0.08753600  0.66263800  0.08729500  1
  O  O19  1  0.62422000  0.62573600  0.62425000  1
  O  O20  1  0.33757500  0.91239400  0.33760000  1
  O  O21  1  0.93078900  0.91366400  0.32342300  1
  O  O22  1  0.66814600  0.09791700  0.07973700  1
