# generated using pymatgen
data_Tb9Al5S21
_symmetry_space_group_name_H-M   'P 1'
_cell_length_a   11.41564171
_cell_length_b   11.41564165
_cell_length_c   11.41564134
_cell_angle_alpha   94.14178904
_cell_angle_beta   94.14178844
_cell_angle_gamma   94.14178514
_symmetry_Int_Tables_number   1
_chemical_formula_structural   Tb9Al5S21
_chemical_formula_sum   'Tb18 Al10 S42'
_cell_volume   1475.39942814
_cell_formula_units_Z   2
loop_
 _symmetry_equiv_pos_site_id
 _symmetry_equiv_pos_as_xyz
  1  'x, y, z'
loop_
 _atom_site_type_symbol
 _atom_site_label
 _atom_site_symmetry_multiplicity
 _atom_site_fract_x
 _atom_site_fract_y
 _atom_site_fract_z
 _atom_site_occupancy
  Tb  Tb0  1  0.11456667  0.88232572  0.73738602  1
  Tb  Tb1  1  0.45358930  0.22510047  0.06907754  1
  Tb  Tb2  1  0.76615664  0.55224977  0.39650980  1
  Tb  Tb3  1  0.39650980  0.76615664  0.55224977  1
  Tb  Tb4  1  0.73738602  0.11456667  0.88232572  1
  Tb  Tb5  1  0.06907754  0.45358930  0.22510047  1
  Tb  Tb6  1  0.22510047  0.06907754  0.45358930  1
  Tb  Tb7  1  0.55224977  0.39650980  0.76615664  1
  Tb  Tb8  1  0.88232572  0.73738602  0.11456667  1
  Tb  Tb9  1  0.20859049  0.43258447  0.58584700  1
  Tb  Tb10  1  0.54635540  0.77395792  0.93050470  1
  Tb  Tb11  1  0.87513962  0.09838694  0.24553064  1
  Tb  Tb12  1  0.93050470  0.54635540  0.77395792  1
  Tb  Tb13  1  0.24553064  0.87513962  0.09838694  1
  Tb  Tb14  1  0.58584700  0.20859049  0.43258447  1
  Tb  Tb15  1  0.09838694  0.24553064  0.87513962  1
  Tb  Tb16  1  0.43258447  0.58584700  0.20859049  1
  Tb  Tb17  1  0.77395792  0.93050470  0.54635540  1
  Al  Al18  1  0.72038936  0.38753986  0.04728671  1
  Al  Al19  1  0.04728671  0.72038936  0.38753986  1
  Al  Al20  1  0.38753986  0.04728671  0.72038936  1
  Al  Al21  1  0.88306588  0.22412479  0.54798698  1
  Al  Al22  1  0.22412479  0.54798698  0.88306588  1
  Al  Al23  1  0.54798698  0.88306588  0.22412479  1
  Al  Al24  1  0.86015914  0.86015914  0.86015914  1
  Al  Al25  1  0.17652430  0.17652430  0.17652430  1
  Al  Al26  1  0.67764602  0.67764602  0.67764602  1
  Al  Al27  1  0.35872026  0.35872026  0.35872026  1
  S  S28  1  0.83929352  0.50867914  0.17156010  1
  S  S29  1  0.17156010  0.83929352  0.50867914  1
  S  S30  1  0.50867914  0.17156010  0.83929352  1
  S  S31  1  0.67260035  0.00753758  0.33917098  1
  S  S32  1  0.00753758  0.33917098  0.67260035  1
  S  S33  1  0.33917098  0.67260035  0.00753758  1
  S  S34  1  0.54053313  0.44759322  0.00753795  1
  S  S35  1  0.86880846  0.78384169  0.35320625  1
  S  S36  1  0.20507713  0.10673467  0.69096288  1
  S  S37  1  0.69096288  0.20507713  0.10673467  1
  S  S38  1  0.00753795  0.54053313  0.44759322  1
  S  S39  1  0.35320625  0.86880846  0.78384169  1
  S  S40  1  0.78384169  0.35320625  0.86880846  1
  S  S41  1  0.10673467  0.69096288  0.20507713  1
  S  S42  1  0.44759322  0.00753795  0.54053313  1
  S  S43  1  0.96307014  0.06308016  0.47750701  1
  S  S44  1  0.29785972  0.38376541  0.81323837  1
  S  S45  1  0.62839511  0.71851693  0.15911269  1
  S  S46  1  0.81323837  0.29785972  0.38376541  1
  S  S47  1  0.15911269  0.62839511  0.71851693  1
  S  S48  1  0.47750701  0.96307014  0.06308016  1
  S  S49  1  0.71851693  0.15911269  0.62839511  1
  S  S50  1  0.06308016  0.47750701  0.96307014  1
  S  S51  1  0.38376541  0.81323837  0.29785972  1
  S  S52  1  0.55503999  0.41360416  0.31174995  1
  S  S53  1  0.89359826  0.76329466  0.66689522  1
  S  S54  1  0.23817511  0.10244379  0.99958634  1
  S  S55  1  0.99958634  0.23817511  0.10244379  1
  S  S56  1  0.31174995  0.55503999  0.41360416  1
  S  S57  1  0.66689522  0.89359826  0.76329466  1
  S  S58  1  0.76329466  0.66689522  0.89359826  1
  S  S59  1  0.10244379  0.99958634  0.23817511  1
  S  S60  1  0.41360416  0.31174995  0.55503999  1
  S  S61  1  0.15414598  0.28478510  0.38055594  1
  S  S62  1  0.49060445  0.62257146  0.72910970  1
  S  S63  1  0.79862235  0.94345810  0.04212742  1
  S  S64  1  0.72910970  0.49060445  0.62257146  1
  S  S65  1  0.04212742  0.79862235  0.94345810  1
  S  S66  1  0.38055594  0.15414598  0.28478510  1
  S  S67  1  0.94345810  0.04212742  0.79862235  1
  S  S68  1  0.28478510  0.38055594  0.15414598  1
  S  S69  1  0.62257146  0.72910970  0.49060445  1
