# generated using pymatgen
data_Mg14NbCrO16
_symmetry_space_group_name_H-M   'P 1'
_cell_length_a   8.72051120
_cell_length_b   8.61327139
_cell_length_c   4.28392296
_cell_angle_alpha   90.00000000
_cell_angle_beta   90.00000000
_cell_angle_gamma   90.00000000
_symmetry_Int_Tables_number   1
_chemical_formula_structural   Mg14NbCrO16
_chemical_formula_sum   'Mg14 Nb1 Cr1 O16'
_cell_volume   321.77457668
_cell_formula_units_Z   1
loop_
 _symmetry_equiv_pos_site_id
 _symmetry_equiv_pos_as_xyz
  1  'x, y, z'
loop_
 _atom_site_type_symbol
 _atom_site_label
 _atom_site_symmetry_multiplicity
 _atom_site_fract_x
 _atom_site_fract_y
 _atom_site_fract_z
 _atom_site_occupancy
  Mg  Mg0  1  0.50000000  -0.00000000  -0.00000000  1
  Mg  Mg1  1  0.50000000  0.50000000  -0.00000000  1
  Mg  Mg2  1  0.00000000  0.25480961  0.50000000  1
  Mg  Mg3  1  0.00000000  0.74519039  0.50000000  1
  Mg  Mg4  1  0.50000000  0.25064460  0.50000000  1
  Mg  Mg5  1  0.50000000  0.74935540  0.50000000  1
  Mg  Mg6  1  0.25539938  -0.00000000  0.50000000  1
  Mg  Mg7  1  0.25412750  0.50000000  0.50000000  1
  Mg  Mg8  1  0.74460062  -0.00000000  0.50000000  1
  Mg  Mg9  1  0.74587250  0.50000000  0.50000000  1
  Mg  Mg10  1  0.25440761  0.25307250  -0.00000000  1
  Mg  Mg11  1  0.25440761  0.74692750  0.00000000  1
  Mg  Mg12  1  0.74559239  0.25307250  0.00000000  1
  Mg  Mg13  1  0.74559239  0.74692750  -0.00000000  1
  Nb  Nb14  1  0.00000000  -0.00000000  -0.00000000  1
  Cr  Cr15  1  0.00000000  0.50000000  -0.00000000  1
  O  O16  1  0.26094637  -0.00000000  -0.00000000  1
  O  O17  1  0.26600289  0.50000000  -0.00000000  1
  O  O18  1  0.73905363  -0.00000000  0.00000000  1
  O  O19  1  0.73399711  0.50000000  -0.00000000  1
  O  O20  1  0.24858907  0.24960900  0.50000000  1
  O  O21  1  0.24858907  0.75039100  0.50000000  1
  O  O22  1  0.75141093  0.24960900  0.50000000  1
  O  O23  1  0.75141093  0.75039100  0.50000000  1
  O  O24  1  0.00000000  -0.00000000  0.50000000  1
  O  O25  1  0.00000000  0.50000000  0.50000000  1
  O  O26  1  0.50000000  -0.00000000  0.50000000  1
  O  O27  1  0.50000000  0.50000000  0.50000000  1
  O  O28  1  0.00000000  0.25895048  0.00000000  1
  O  O29  1  0.00000000  0.74104952  -0.00000000  1
  O  O30  1  0.50000000  0.24803206  -0.00000000  1
  O  O31  1  0.50000000  0.75196794  0.00000000  1
