# generated using pymatgen
data_Ba2As2O7
_symmetry_space_group_name_H-M   'P 1'
_cell_length_a   7.43975196
_cell_length_b   7.45595655
_cell_length_c   13.44730185
_cell_angle_alpha   93.45364370
_cell_angle_beta   97.19341864
_cell_angle_gamma   89.57273381
_symmetry_Int_Tables_number   1
_chemical_formula_structural   Ba2As2O7
_chemical_formula_sum   'Ba8 As8 O28'
_cell_volume   738.71293980
_cell_formula_units_Z   4
loop_
 _symmetry_equiv_pos_site_id
 _symmetry_equiv_pos_as_xyz
  1  'x, y, z'
loop_
 _atom_site_type_symbol
 _atom_site_label
 _atom_site_symmetry_multiplicity
 _atom_site_fract_x
 _atom_site_fract_y
 _atom_site_fract_z
 _atom_site_occupancy
  Ba  Ba0  1  0.12480623  0.65049016  0.63928363  1
  Ba  Ba1  1  0.87519377  0.34950984  0.36071637  1
  Ba  Ba2  1  0.73727568  0.23539213  0.65340155  1
  Ba  Ba3  1  0.26272432  0.76460787  0.34659845  1
  Ba  Ba4  1  0.28781647  0.33030327  0.13976991  1
  Ba  Ba5  1  0.71218353  0.66969673  0.86023009  1
  Ba  Ba6  1  0.33399488  0.08726193  0.84273629  1
  Ba  Ba7  1  0.66600512  0.91273807  0.15726371  1
  As  As8  1  0.40044860  0.23301001  0.39577681  1
  As  As9  1  0.59955140  0.76698999  0.60422319  1
  As  As10  1  0.20209630  0.18385800  0.58893706  1
  As  As11  1  0.79790370  0.81614200  0.41106294  1
  As  As12  1  0.19898518  0.57418081  0.89243941  1
  As  As13  1  0.80101482  0.42581919  0.10756059  1
  As  As14  1  0.80708176  0.15806847  0.91412073  1
  As  As15  1  0.19291824  0.84193153  0.08587927  1
  O  O16  1  0.02251705  0.51057339  0.80715552  1
  O  O17  1  0.97748295  0.48942661  0.19284448  1
  O  O18  1  0.13073040  0.00895815  0.64570824  1
  O  O19  1  0.86926960  0.99104185  0.35429176  1
  O  O20  1  0.25529324  0.39391162  0.35366690  1
  O  O21  1  0.74470676  0.60608838  0.64633310  1
  O  O22  1  0.28557388  0.09906433  0.47600431  1
  O  O23  1  0.71442612  0.90093567  0.52399569  1
  O  O24  1  0.31865090  -0.00004437  0.04190386  1
  O  O25  1  0.68134910  0.00004437  0.95809614  1
  O  O26  1  0.30543525  0.40512144  0.95042736  1
  O  O27  1  0.69456475  0.59487856  0.04957264  1
  O  O28  1  0.66546837  0.29720503  0.84698340  1
  O  O29  1  0.33453163  0.70279497  0.15301660  1
  O  O30  1  0.36380109  0.30284523  0.66217949  1
  O  O31  1  0.63619891  0.69715477  0.33782051  1
  O  O32  1  0.59400016  0.30133368  0.46254452  1
  O  O33  1  0.40599984  0.69866632  0.53745548  1
  O  O34  1  0.42374455  0.08344262  0.29892418  1
  O  O35  1  0.57625545  0.91655738  0.70107582  1
  O  O36  1  0.02495799  0.31744353  0.55190086  1
  O  O37  1  0.97504201  0.68255647  0.44809914  1
  O  O38  1  0.96766232  0.07153223  0.84952729  1
  O  O39  1  0.03233768  0.92846777  0.15047271  1
  O  O40  1  0.08427748  0.70764252  0.98062442  1
  O  O41  1  0.91572252  0.29235748  0.01937558  1
  O  O42  1  0.33506651  0.71077799  0.83920228  1
  O  O43  1  0.66493349  0.28922201  0.16079772  1
