# generated using pymatgen
data_MgTe4Pb6(BrO3)4
_symmetry_space_group_name_H-M   'P 1'
_cell_length_a   5.88513141
_cell_length_b   9.14216190
_cell_length_c   12.18668116
_cell_angle_alpha   103.10271912
_cell_angle_beta   87.88014574
_cell_angle_gamma   106.08653183
_symmetry_Int_Tables_number   1
_chemical_formula_structural   MgTe4Pb6(BrO3)4
_chemical_formula_sum   'Mg1 Te4 Pb6 Br4 O12'
_cell_volume   613.36862634
_cell_formula_units_Z   1
loop_
 _symmetry_equiv_pos_site_id
 _symmetry_equiv_pos_as_xyz
  1  'x, y, z'
loop_
 _atom_site_type_symbol
 _atom_site_label
 _atom_site_symmetry_multiplicity
 _atom_site_fract_x
 _atom_site_fract_y
 _atom_site_fract_z
 _atom_site_occupancy
  Mg  Mg0  1  0.09406404  0.61687374  0.93871822  1
  Te  Te1  1  0.65435120  0.22422436  0.09000064  1
  Te  Te2  1  0.46085606  0.87620021  0.93229659  1
  Te  Te3  1  0.85804280  0.73613874  0.40724110  1
  Te  Te4  1  0.08294769  0.24126750  0.57714499  1
  Pb  Pb5  1  0.27707558  0.53264078  0.24260442  1
  Pb  Pb6  1  0.64679981  0.43393561  0.75009492  1
  Pb  Pb7  1  0.06885405  0.06108660  0.19895710  1
  Pb  Pb8  1  0.92340926  0.89958885  0.76254464  1
  Pb  Pb9  1  0.70236926  0.32358330  0.39134569  1
  Pb  Pb10  1  0.35395925  0.65868259  0.60949378  1
  Br  Br11  1  0.82916707  0.64678412  0.10131140  1
  Br  Br12  1  0.15204416  0.35157776  0.89609550  1
  Br  Br13  1  0.42916866  0.89863766  0.31516911  1
  Br  Br14  1  0.50643688  0.05291404  0.66186229  1
  O  O15  1  0.91262861  0.29251613  0.21028359  1
  O  O16  1  0.44237423  0.26655900  0.21151228  1
  O  O17  1  0.14236520  0.75664682  0.83376559  1
  O  O18  1  0.61979714  0.67691661  0.75000858  1
  O  O19  1  0.73884485  0.02882427  0.06702536  1
  O  O20  1  0.32754146  0.04837136  0.01807278  1
  O  O21  1  0.88534351  0.80009092  0.56371488  1
  O  O22  1  0.04436504  0.20677726  0.42013356  1
  O  O23  1  0.01505358  0.57334353  0.38897397  1
  O  O24  1  0.55291441  0.58504975  0.40114450  1
  O  O25  1  0.94489739  0.41239940  0.61293413  1
  O  O26  1  0.39682886  0.38408307  0.59397940  1
