# generated using pymatgen
data_CsSb2PO8
_symmetry_space_group_name_H-M   'P 1'
_cell_length_a   9.81795432
_cell_length_b   9.81795432
_cell_length_c   13.73261856
_cell_angle_alpha   61.84317587
_cell_angle_beta   61.84317587
_cell_angle_gamma   42.97634751
_symmetry_Int_Tables_number   1
_chemical_formula_structural   CsSb2PO8
_chemical_formula_sum   'Cs4 Sb8 P4 O32'
_cell_volume   777.72518321
_cell_formula_units_Z   4
loop_
 _symmetry_equiv_pos_site_id
 _symmetry_equiv_pos_as_xyz
  1  'x, y, z'
loop_
 _atom_site_type_symbol
 _atom_site_label
 _atom_site_symmetry_multiplicity
 _atom_site_fract_x
 _atom_site_fract_y
 _atom_site_fract_z
 _atom_site_occupancy
  Cs  Cs0  1  0.13650342  0.13650342  0.58546824  1
  Cs  Cs1  1  0.86349658  0.86349658  0.41453176  1
  Cs  Cs2  1  0.88917440  0.88917440  0.92751908  1
  Cs  Cs3  1  0.11082560  0.11082560  0.07248092  1
  Sb  Sb4  1  0.04531401  0.54326424  0.73070676  1
  Sb  Sb5  1  0.54326424  0.04531401  0.73070676  1
  Sb  Sb6  1  0.95468599  0.45673576  0.26929324  1
  Sb  Sb7  1  0.45673576  0.95468599  0.26929324  1
  Sb  Sb8  1  0.54900648  0.54900648  0.23622138  1
  Sb  Sb9  1  0.45099352  0.45099352  0.76377862  1
  Sb  Sb10  1  0.62662035  0.62662035  0.72973853  1
  Sb  Sb11  1  0.37337965  0.37337965  0.27026147  1
  P  P12  1  0.65872822  0.65872822  0.93775504  1
  P  P13  1  0.34127178  0.34127178  0.06224496  1
  P  P14  1  0.60726104  0.60726104  0.50394213  1
  P  P15  1  0.39273896  0.39273896  0.49605787  1
  O  O16  1  0.17492751  0.58800868  0.77035296  1
  O  O17  1  0.58800868  0.17492751  0.77035296  1
  O  O18  1  0.82507249  0.41199132  0.22964704  1
  O  O19  1  0.41199132  0.82507249  0.22964704  1
  O  O20  1  0.51293164  0.51293164  0.59277102  1
  O  O21  1  0.48706836  0.48706836  0.40722898  1
  O  O22  1  0.59634485  0.59634485  0.89390600  1
  O  O23  1  0.40365515  0.40365515  0.10609400  1
  O  O24  1  0.24761259  0.24761259  0.77604724  1
  O  O25  1  0.75238741  0.75238741  0.22395276  1
  O  O26  1  0.54027030  0.89048111  0.89586623  1
  O  O27  1  0.89048111  0.54027030  0.89586623  1
  O  O28  1  0.45972970  0.10951889  0.10413377  1
  O  O29  1  0.10951889  0.45972970  0.10413377  1
  O  O30  1  0.83929553  0.83929553  0.68855777  1
  O  O31  1  0.16070447  0.16070447  0.31144223  1
  O  O32  1  0.66167690  0.66167690  0.56055161  1
  O  O33  1  0.33832310  0.33832310  0.43944839  1
  O  O34  1  0.50305711  0.90972866  0.69197086  1
  O  O35  1  0.90972866  0.50305711  0.69197086  1
  O  O36  1  0.49694289  0.09027134  0.30802914  1
  O  O37  1  0.09027134  0.49694289  0.30802914  1
  O  O38  1  0.35620393  0.71358323  0.76028868  1
  O  O39  1  0.71358323  0.35620393  0.76028868  1
  O  O40  1  0.64379607  0.28641677  0.23971132  1
  O  O41  1  0.28641677  0.64379607  0.23971132  1
  O  O42  1  0.19666188  0.54893046  0.56799930  1
  O  O43  1  0.54893046  0.19666188  0.56799930  1
  O  O44  1  0.80333812  0.45106954  0.43200070  1
  O  O45  1  0.45106954  0.80333812  0.43200070  1
  O  O46  1  0.38961331  0.38961331  0.93552014  1
  O  O47  1  0.61038669  0.61038669  0.06447986  1
