# generated using pymatgen
data_Ge(SeO3)2
_symmetry_space_group_name_H-M   'P 1'
_cell_length_a   7.79815000
_cell_length_b   7.79815000
_cell_length_c   7.79815000
_cell_angle_alpha   90.00000000
_cell_angle_beta   90.00000000
_cell_angle_gamma   90.00000000
_symmetry_Int_Tables_number   1
_chemical_formula_structural   Ge(SeO3)2
_chemical_formula_sum   'Ge4 Se8 O24'
_cell_volume   474.21441808
_cell_formula_units_Z   4
loop_
 _symmetry_equiv_pos_site_id
 _symmetry_equiv_pos_as_xyz
  1  'x, y, z'
loop_
 _atom_site_type_symbol
 _atom_site_label
 _atom_site_symmetry_multiplicity
 _atom_site_fract_x
 _atom_site_fract_y
 _atom_site_fract_z
 _atom_site_occupancy
  Ge  Ge0  1  0.50000000  0.50000000  0.50000000  1
  Ge  Ge1  1  0.50000000  -0.00000000  0.00000000  1
  Ge  Ge2  1  -0.00000000  0.50000000  0.00000000  1
  Ge  Ge3  1  -0.00000000  -0.00000000  0.50000000  1
  Se  Se4  1  0.83009272  0.66990728  0.33009272  1
  Se  Se5  1  0.16990728  0.16990728  0.16990728  1
  Se  Se6  1  0.66990728  0.33009272  0.83009272  1
  Se  Se7  1  0.33009272  0.83009272  0.66990728  1
  Se  Se8  1  0.16990728  0.33009272  0.66990728  1
  Se  Se9  1  0.83009272  0.83009272  0.83009272  1
  Se  Se10  1  0.33009272  0.66990728  0.16990728  1
  Se  Se11  1  0.66990728  0.16990728  0.33009272  1
  O  O12  1  0.73885616  0.52847283  0.47248836  1
  O  O13  1  0.26114384  0.02847283  0.02751164  1
  O  O14  1  0.76114384  0.47152717  0.97248836  1
  O  O15  1  0.23885616  0.97152717  0.52751164  1
  O  O16  1  0.47248836  0.73885616  0.52847283  1
  O  O17  1  0.02751164  0.26114384  0.02847283  1
  O  O18  1  0.97248836  0.76114384  0.47152717  1
  O  O19  1  0.52751164  0.23885616  0.97152717  1
  O  O20  1  0.52847283  0.47248836  0.73885616  1
  O  O21  1  0.02847283  0.02751164  0.26114384  1
  O  O22  1  0.47152717  0.97248836  0.76114384  1
  O  O23  1  0.97152717  0.52751164  0.23885616  1
  O  O24  1  0.26114384  0.47152717  0.52751164  1
  O  O25  1  0.73885616  0.97152717  0.97248836  1
  O  O26  1  0.23885616  0.52847283  0.02751164  1
  O  O27  1  0.76114384  0.02847283  0.47248836  1
  O  O28  1  0.52751164  0.26114384  0.47152717  1
  O  O29  1  0.97248836  0.73885616  0.97152717  1
  O  O30  1  0.02751164  0.23885616  0.52847283  1
  O  O31  1  0.47248836  0.76114384  0.02847283  1
  O  O32  1  0.47152717  0.52751164  0.26114384  1
  O  O33  1  0.97152717  0.97248836  0.73885616  1
  O  O34  1  0.52847283  0.02751164  0.23885616  1
  O  O35  1  0.02847283  0.47248836  0.76114384  1
