# generated using pymatgen
data_RbMg14WO16
_symmetry_space_group_name_H-M   'P 1'
_cell_length_a   8.67497851
_cell_length_b   8.86358028
_cell_length_c   4.45738396
_cell_angle_alpha   90.00000000
_cell_angle_beta   90.00000000
_cell_angle_gamma   90.00000000
_symmetry_Int_Tables_number   1
_chemical_formula_structural   RbMg14WO16
_chemical_formula_sum   'Rb1 Mg14 W1 O16'
_cell_volume   342.73435239
_cell_formula_units_Z   1
loop_
 _symmetry_equiv_pos_site_id
 _symmetry_equiv_pos_as_xyz
  1  'x, y, z'
loop_
 _atom_site_type_symbol
 _atom_site_label
 _atom_site_symmetry_multiplicity
 _atom_site_fract_x
 _atom_site_fract_y
 _atom_site_fract_z
 _atom_site_occupancy
  Rb  Rb0  1  0.00000000  0.00000000  0.00000000  1
  Mg  Mg1  1  0.50000000  0.00000000  0.00000000  1
  Mg  Mg2  1  0.50000000  0.50000000  0.00000000  1
  Mg  Mg3  1  0.00000000  0.24054004  0.50000000  1
  Mg  Mg4  1  0.00000000  0.75945996  0.50000000  1
  Mg  Mg5  1  0.50000000  0.24866644  0.50000000  1
  Mg  Mg6  1  0.50000000  0.75133356  0.50000000  1
  Mg  Mg7  1  0.25536559  0.00000000  0.50000000  1
  Mg  Mg8  1  0.25676400  0.50000000  0.50000000  1
  Mg  Mg9  1  0.74463441  0.00000000  0.50000000  1
  Mg  Mg10  1  0.74323600  0.50000000  0.50000000  1
  Mg  Mg11  1  0.25689104  0.24496470  0.00000000  1
  Mg  Mg12  1  0.25689104  0.75503530  0.00000000  1
  Mg  Mg13  1  0.74310896  0.24496470  0.00000000  1
  Mg  Mg14  1  0.74310896  0.75503530  0.00000000  1
  W  W15  1  0.00000000  0.50000000  0.00000000  1
  O  O16  1  0.28134046  0.00000000  0.00000000  1
  O  O17  1  0.25440934  0.50000000  0.00000000  1
  O  O18  1  0.71865954  0.00000000  0.00000000  1
  O  O19  1  0.74559066  0.50000000  0.00000000  1
  O  O20  1  0.24975720  0.25202546  0.50000000  1
  O  O21  1  0.24975720  0.74797454  0.50000000  1
  O  O22  1  0.75024280  0.25202546  0.50000000  1
  O  O23  1  0.75024280  0.74797454  0.50000000  1
  O  O24  1  0.00000000  0.00000000  0.50000000  1
  O  O25  1  0.00000000  0.50000000  0.50000000  1
  O  O26  1  0.50000000  0.00000000  0.50000000  1
  O  O27  1  0.50000000  0.50000000  0.50000000  1
  O  O28  1  0.00000000  0.26842539  0.00000000  1
  O  O29  1  0.00000000  0.73157461  0.00000000  1
  O  O30  1  0.50000000  0.25991299  0.00000000  1
  O  O31  1  0.50000000  0.74008701  0.00000000  1
