# generated using pymatgen
data_Li4P4O17
_symmetry_space_group_name_H-M   'P 1'
_cell_length_a   12.18420028
_cell_length_b   12.18420028
_cell_length_c   13.97197301
_cell_angle_alpha   62.24580504
_cell_angle_beta   117.75419496
_cell_angle_gamma   95.69538428
_symmetry_Int_Tables_number   1
_chemical_formula_structural   Li4P4O17
_chemical_formula_sum   'Li16 P16 O68'
_cell_volume   1605.97460990
_cell_formula_units_Z   4
loop_
 _symmetry_equiv_pos_site_id
 _symmetry_equiv_pos_as_xyz
  1  'x, y, z'
loop_
 _atom_site_type_symbol
 _atom_site_label
 _atom_site_symmetry_multiplicity
 _atom_site_fract_x
 _atom_site_fract_y
 _atom_site_fract_z
 _atom_site_occupancy
  Li  Li0  1  0.81546858  0.42629875  0.61870787  1
  Li  Li1  1  0.42629875  0.81546858  0.88129213  1
  Li  Li2  1  0.18453142  0.57370125  0.38129213  1
  Li  Li3  1  0.57370125  0.18453142  0.11870787  1
  Li  Li4  1  0.19930276  0.55214583  0.81582122  1
  Li  Li5  1  0.55214583  0.19930276  0.68417878  1
  Li  Li6  1  0.80069724  0.44785417  0.18417878  1
  Li  Li7  1  0.44785417  0.80069724  0.31582122  1
  Li  Li8  1  0.67300430  0.68016113  0.97987159  1
  Li  Li9  1  0.68016113  0.67300430  0.52012841  1
  Li  Li10  1  0.32699570  0.31983887  0.02012841  1
  Li  Li11  1  0.31983887  0.32699570  0.47987159  1
  Li  Li12  1  0.18909264  0.60237008  0.58158939  1
  Li  Li13  1  0.60237008  0.18909264  0.91841061  1
  Li  Li14  1  0.81090736  0.39762992  0.41841061  1
  Li  Li15  1  0.39762992  0.81090736  0.08158939  1
  P  P16  1  0.89196051  0.68572704  0.22394990  1
  P  P17  1  0.68572704  0.89196051  0.27605010  1
  P  P18  1  0.10803949  0.31427296  0.77605010  1
  P  P19  1  0.31427296  0.10803949  0.72394990  1
  P  P20  1  0.88703429  0.67482292  0.44016627  1
  P  P21  1  0.67482292  0.88703429  0.05983373  1
  P  P22  1  0.11296571  0.32517708  0.55983373  1
  P  P23  1  0.32517708  0.11296571  0.94016627  1
  P  P24  1  0.63507211  0.42897419  0.72676504  1
  P  P25  1  0.42897419  0.63507211  0.77323496  1
  P  P26  1  0.36492789  0.57102581  0.27323496  1
  P  P27  1  0.57102581  0.36492789  0.22676504  1
  P  P28  1  0.64205116  0.42712862  0.93966834  1
  P  P29  1  0.42712862  0.64205116  0.56033166  1
  P  P30  1  0.35794884  0.57287138  0.06033166  1
  P  P31  1  0.57287138  0.35794884  0.43966834  1
  O  O32  1  0.15167720  0.02219791  0.17966338  1
  O  O33  1  0.02219791  0.15167720  0.32033662  1
  O  O34  1  0.84832280  0.97780209  0.82033662  1
  O  O35  1  0.97780209  0.84832280  0.67966338  1
  O  O36  1  0.76737384  0.80087752  0.86024243  1
  O  O37  1  0.80087752  0.76737384  0.63975757  1
  O  O38  1  0.23262616  0.19912248  0.13975757  1
  O  O39  1  0.19912248  0.23262616  0.36024243  1
  O  O40  1  0.77847265  0.06137680  0.56179398  1
  O  O41  1  0.06137680  0.77847265  0.93820602  1
  O  O42  1  0.22152735  0.93862320  0.43820602  1
  O  O43  1  0.93862320  0.22152735  0.06179398  1
  O  O44  1  0.86574203  0.05518964  0.54317790  1
  O  O45  1  0.05518964  0.86574203  0.95682210  1
  O  O46  1  0.13425797  0.94481036  0.45682210  1
  O  O47  1  0.94481036  0.13425797  0.04317790  1
  O  O48  1  0.90296687  0.78718343  0.62873196  1
  O  O49  1  0.78718343  0.90296687  0.87126804  1
  O  O50  1  0.09703313  0.21281657  0.37126804  1
  O  O51  1  0.21281657  0.09703313  0.12873196  1
  O  O52  1  0.68599291  0.02911842  0.22925419  1
  O  O53  1  0.02911842  0.68599291  0.27074581  1
  O  O54  1  0.31400709  0.97088158  0.77074581  1
  O  O55  1  0.97088158  0.31400709  0.72925419  1
  O  O56  1  0.82508440  0.61353506  0.15526156  1
  O  O57  1  0.61353506  0.82508440  0.34473844  1
  O  O58  1  0.17491560  0.38646494  0.84473844  1
  O  O59  1  0.38646494  0.17491560  0.65526156  1
  O  O60  1  0.85448693  0.63395375  0.33478107  1
  O  O61  1  0.63395375  0.85448693  0.16521893  1
  O  O62  1  0.14551307  0.36604625  0.66521893  1
  O  O63  1  0.36604625  0.14551307  0.83478107  1
  O  O64  1  0.82338234  0.83086521  0.13931943  1
  O  O65  1  0.83086521  0.82338234  0.36068057  1
  O  O66  1  0.17661766  0.16913479  0.86068057  1
  O  O67  1  0.16913479  0.17661766  0.63931943  1
  O  O68  1  0.81125815  0.60269414  0.50256231  1
  O  O69  1  0.60269414  0.81125815  0.99743769  1
  O  O70  1  0.18874185  0.39730586  0.49743769  1
  O  O71  1  0.39730586  0.18874185  0.00256231  1
  O  O72  1  0.02478580  0.66369467  0.51593852  1
  O  O73  1  0.66369467  0.02478580  0.98406148  1
  O  O74  1  0.97521420  0.33630533  0.48406148  1
  O  O75  1  0.33630533  0.97521420  0.01593852  1
  O  O76  1  0.70600534  0.48954286  0.65692623  1
  O  O77  1  0.48954286  0.70600534  0.84307377  1
  O  O78  1  0.29399466  0.51045714  0.34307377  1
  O  O79  1  0.51045714  0.29399466  0.15692623  1
  O  O80  1  0.62869801  0.29060017  0.77523266  1
  O  O81  1  0.29060017  0.62869801  0.72476734  1
  O  O82  1  0.37130199  0.70939983  0.22476734  1
  O  O83  1  0.70939983  0.37130199  0.27523266  1
  O  O84  1  0.49030460  0.49585789  0.64413845  1
  O  O85  1  0.49585789  0.49030460  0.85586155  1
  O  O86  1  0.50969540  0.50414211  0.35586155  1
  O  O87  1  0.50414211  0.50969540  0.14413845  1
  O  O88  1  0.64104321  0.28850973  0.00149724  1
  O  O89  1  0.28850973  0.64104321  0.49850276  1
  O  O90  1  0.35895679  0.71149027  0.99850276  1
  O  O91  1  0.71149027  0.35895679  0.50149724  1
  O  O92  1  0.28505363  0.50849249  0.98596028  1
  O  O93  1  0.50849249  0.28505363  0.51403972  1
  O  O94  1  0.71494637  0.49150751  0.01403972  1
  O  O95  1  0.49150751  0.71494637  0.48596028  1
  O  O96  1  0.46373746  0.68838194  0.66202875  1
  O  O97  1  0.68838194  0.46373746  0.83797125  1
  O  O98  1  0.53626254  0.31161806  0.33797125  1
  O  O99  1  0.31161806  0.53626254  0.16202875  1
