# generated using pymatgen
data_Fe2P3(O3F)3
_symmetry_space_group_name_H-M   'P 1'
_cell_length_a   14.38821293
_cell_length_b   14.38821294
_cell_length_c   7.36967043
_cell_angle_alpha   90.00000000
_cell_angle_beta   90.00000000
_cell_angle_gamma   119.99999987
_symmetry_Int_Tables_number   1
_chemical_formula_structural   Fe2P3(O3F)3
_chemical_formula_sum   'Fe12 P18 O54 F18'
_cell_volume   1321.27254841
_cell_formula_units_Z   6
loop_
 _symmetry_equiv_pos_site_id
 _symmetry_equiv_pos_as_xyz
  1  'x, y, z'
loop_
 _atom_site_type_symbol
 _atom_site_label
 _atom_site_symmetry_multiplicity
 _atom_site_fract_x
 _atom_site_fract_y
 _atom_site_fract_z
 _atom_site_occupancy
  Fe  Fe0  1  0.35251564  0.02673446  0.95189656  1
  Fe  Fe1  1  0.67421882  0.64748436  0.95189656  1
  Fe  Fe2  1  0.97326554  0.32578118  0.95189656  1
  Fe  Fe3  1  0.64748436  0.97326554  0.45189656  1
  Fe  Fe4  1  0.32578118  0.35251564  0.45189656  1
  Fe  Fe5  1  0.02673446  0.67421882  0.45189656  1
  Fe  Fe6  1  0.64748436  0.97326554  0.04810344  1
  Fe  Fe7  1  0.32578118  0.35251564  0.04810344  1
  Fe  Fe8  1  0.02673446  0.67421882  0.04810344  1
  Fe  Fe9  1  0.35251564  0.02673446  0.54810344  1
  Fe  Fe10  1  0.67421882  0.64748436  0.54810344  1
  Fe  Fe11  1  0.97326554  0.32578118  0.54810344  1
  P  P12  1  0.45691320  0.89340884  0.75000000  1
  P  P13  1  0.43649565  0.54308680  0.75000000  1
  P  P14  1  0.10659116  0.56350435  0.75000000  1
  P  P15  1  0.54308680  0.10659116  0.25000000  1
  P  P16  1  0.56350435  0.45691320  0.25000000  1
  P  P17  1  0.89340884  0.43649565  0.25000000  1
  P  P18  1  0.24266316  0.11431445  0.25000000  1
  P  P19  1  0.87165229  0.75733684  0.25000000  1
  P  P20  1  0.88568555  0.12834771  0.25000000  1
  P  P21  1  0.75733684  0.88568555  0.75000000  1
  P  P22  1  0.12834771  0.24266316  0.75000000  1
  P  P23  1  0.11431445  0.87165229  0.75000000  1
  P  P24  1  0.43561872  0.26434037  0.75000000  1
  P  P25  1  0.82872265  0.56438128  0.75000000  1
  P  P26  1  0.73565963  0.17127735  0.75000000  1
  P  P27  1  0.56438128  0.73565963  0.25000000  1
  P  P28  1  0.17127735  0.43561872  0.25000000  1
  P  P29  1  0.26434037  0.82872265  0.25000000  1
  O  O30  1  0.39588728  0.14396103  0.75000000  1
  O  O31  1  0.74807375  0.60411272  0.75000000  1
  O  O32  1  0.85603897  0.25192625  0.75000000  1
  O  O33  1  0.60411272  0.85603897  0.25000000  1
  O  O34  1  0.25192625  0.39588728  0.25000000  1
  O  O35  1  0.14396103  0.74807375  0.25000000  1
  O  O36  1  0.42717610  0.98163782  0.75000000  1
  O  O37  1  0.55446172  0.57282390  0.75000000  1
  O  O38  1  0.01836218  0.44553828  0.75000000  1
  O  O39  1  0.57282390  0.01836218  0.25000000  1
  O  O40  1  0.44553828  0.42717610  0.25000000  1
  O  O41  1  0.98163782  0.55446172  0.25000000  1
  O  O42  1  0.29966837  0.89353389  0.07804708  1
  O  O43  1  0.59386552  0.70033163  0.07804708  1
  O  O44  1  0.10646611  0.40613448  0.07804708  1
  O  O45  1  0.70033163  0.10646611  0.57804708  1
  O  O46  1  0.40613448  0.29966837  0.57804708  1
  O  O47  1  0.89353389  0.59386552  0.57804708  1
  O  O48  1  0.70033163  0.10646611  0.92195292  1
  O  O49  1  0.40613448  0.29966837  0.92195292  1
  O  O50  1  0.89353389  0.59386552  0.92195292  1
  O  O51  1  0.29966837  0.89353389  0.42195292  1
  O  O52  1  0.59386552  0.70033163  0.42195292  1
  O  O53  1  0.10646611  0.40613448  0.42195292  1
  O  O54  1  0.48596479  0.10635647  0.07850982  1
  O  O55  1  0.62039168  0.51403521  0.07850982  1
  O  O56  1  0.89364353  0.37960832  0.07850982  1
  O  O57  1  0.51403521  0.89364353  0.57850982  1
  O  O58  1  0.37960832  0.48596479  0.57850982  1
  O  O59  1  0.10635647  0.62039168  0.57850982  1
  O  O60  1  0.51403521  0.89364353  0.92149018  1
  O  O61  1  0.37960832  0.48596479  0.92149018  1
  O  O62  1  0.10635647  0.62039168  0.92149018  1
  O  O63  1  0.48596479  0.10635647  0.42149018  1
  O  O64  1  0.62039168  0.51403521  0.42149018  1
  O  O65  1  0.89364353  0.37960832  0.42149018  1
  O  O66  1  0.26979111  0.07673173  0.07791593  1
  O  O67  1  0.80694062  0.73020889  0.07791593  1
  O  O68  1  0.92326827  0.19305938  0.07791593  1
  O  O69  1  0.73020889  0.92326827  0.57791593  1
  O  O70  1  0.19305938  0.26979111  0.57791593  1
  O  O71  1  0.07673173  0.80694062  0.57791593  1
  O  O72  1  0.73020889  0.92326827  0.92208407  1
  O  O73  1  0.19305938  0.26979111  0.92208407  1
  O  O74  1  0.07673173  0.80694062  0.92208407  1
  O  O75  1  0.26979111  0.07673173  0.42208407  1
  O  O76  1  0.80694062  0.73020889  0.42208407  1
  O  O77  1  0.92326827  0.19305938  0.42208407  1
  O  O78  1  0.23502785  0.94921743  0.75000000  1
  O  O79  1  0.71418858  0.76497215  0.75000000  1
  O  O80  1  0.05078257  0.28581142  0.75000000  1
  O  O81  1  0.76497215  0.05078257  0.25000000  1
  O  O82  1  0.28581142  0.23502785  0.25000000  1
  O  O83  1  0.94921743  0.71418858  0.25000000  1
  F  F84  1  0.06321763  0.94338583  0.75000000  1
  F  F85  1  0.88016920  0.93678237  0.75000000  1
  F  F86  1  0.05661417  0.11983080  0.75000000  1
  F  F87  1  0.93678237  0.05661417  0.25000000  1
  F  F88  1  0.11983080  0.06321763  0.25000000  1
  F  F89  1  0.94338583  0.88016920  0.25000000  1
  F  F90  1  0.34952764  0.78629289  0.75000000  1
  F  F91  1  0.43676525  0.65047236  0.75000000  1
  F  F92  1  0.21370711  0.56323475  0.75000000  1
  F  F93  1  0.65047236  0.21370711  0.25000000  1
  F  F94  1  0.56323475  0.34952764  0.25000000  1
  F  F95  1  0.78629289  0.43676525  0.25000000  1
  F  F96  1  0.32064140  0.76198764  0.25000000  1
  F  F97  1  0.44134624  0.67935860  0.25000000  1
  F  F98  1  0.23801236  0.55865376  0.25000000  1
  F  F99  1  0.67935860  0.23801236  0.75000000  1
  F  F100  1  0.55865376  0.32064140  0.75000000  1
  F  F101  1  0.76198764  0.44134624  0.75000000  1
