# generated using pymatgen
data_S2I2O11
_symmetry_space_group_name_H-M   'P 1'
_cell_length_a   4.56419129
_cell_length_b   10.51042576
_cell_length_c   18.23482750
_cell_angle_alpha   90.00000000
_cell_angle_beta   90.00000000
_cell_angle_gamma   90.00000000
_symmetry_Int_Tables_number   1
_chemical_formula_structural   S2I2O11
_chemical_formula_sum   'S8 I8 O44'
_cell_volume   874.75373617
_cell_formula_units_Z   4
loop_
 _symmetry_equiv_pos_site_id
 _symmetry_equiv_pos_as_xyz
  1  'x, y, z'
loop_
 _atom_site_type_symbol
 _atom_site_label
 _atom_site_symmetry_multiplicity
 _atom_site_fract_x
 _atom_site_fract_y
 _atom_site_fract_z
 _atom_site_occupancy
  S  S0  1  0.01704729  0.18607708  0.15274565  1
  S  S1  1  0.98295271  0.68607708  0.84725435  1
  S  S2  1  0.51704729  0.68607708  0.34725435  1
  S  S3  1  0.48295271  0.18607708  0.65274565  1
  S  S4  1  0.03067971  0.43761969  0.09810843  1
  S  S5  1  0.96932029  0.93761969  0.90189157  1
  S  S6  1  0.53067971  0.93761969  0.40189157  1
  S  S7  1  0.46932029  0.43761969  0.59810843  1
  I  I8  1  0.19539980  0.37291201  0.30120082  1
  I  I9  1  0.80460020  0.87291201  0.69879918  1
  I  I10  1  0.69539980  0.87291201  0.19879918  1
  I  I11  1  0.30460020  0.37291201  0.80120082  1
  I  I12  1  0.28249920  0.24904224  0.45214287  1
  I  I13  1  0.71750080  0.74904224  0.54785713  1
  I  I14  1  0.78249920  0.74904224  0.04785713  1
  I  I15  1  0.21750080  0.24904224  0.95214287  1
  O  O16  1  0.81379775  0.38769242  0.29512363  1
  O  O17  1  0.18620225  0.88769242  0.70487637  1
  O  O18  1  0.31379775  0.88769242  0.20487637  1
  O  O19  1  0.68620225  0.38769242  0.79512363  1
  O  O20  1  0.66632740  0.24821471  0.45411961  1
  O  O21  1  0.33367260  0.74821471  0.54588039  1
  O  O22  1  0.16632740  0.74821471  0.04588039  1
  O  O23  1  0.83367260  0.24821471  0.95411961  1
  O  O24  1  0.23316620  0.20750011  0.34594691  1
  O  O25  1  0.76683380  0.70750011  0.65405309  1
  O  O26  1  0.73316620  0.70750011  0.15405309  1
  O  O27  1  0.26683380  0.20750011  0.84594691  1
  O  O28  1  0.22443881  0.41388347  0.40750833  1
  O  O29  1  0.77556119  0.91388347  0.59249167  1
  O  O30  1  0.72443881  0.91388347  0.09249167  1
  O  O31  1  0.27556119  0.41388347  0.90750833  1
  O  O32  1  0.23464775  0.23668877  0.20501017  1
  O  O33  1  0.76535225  0.73668877  0.79498983  1
  O  O34  1  0.73464775  0.73668877  0.29498983  1
  O  O35  1  0.26535225  0.23668877  0.70501017  1
  O  O36  1  0.78716734  0.11528083  0.18749541  1
  O  O37  1  0.21283266  0.61528083  0.81250459  1
  O  O38  1  0.28716734  0.61528083  0.31250459  1
  O  O39  1  0.71283266  0.11528083  0.68749541  1
  O  O40  1  0.15451581  0.13104886  0.09006908  1
  O  O41  1  0.84548419  0.63104886  0.90993092  1
  O  O42  1  0.65451581  0.63104886  0.40993092  1
  O  O43  1  0.34548419  0.13104886  0.59006908  1
  O  O44  1  0.84093556  0.31367465  0.12445589  1
  O  O45  1  0.15906444  0.81367465  0.87554411  1
  O  O46  1  0.34093556  0.81367465  0.37554411  1
  O  O47  1  0.65906444  0.31367465  0.62445589  1
  O  O48  1  0.16124208  0.49265761  0.16163974  1
  O  O49  1  0.83875792  0.99265761  0.83836026  1
  O  O50  1  0.66124208  0.99265761  0.33836026  1
  O  O51  1  0.33875792  0.49265761  0.66163974  1
  O  O52  1  0.81122155  0.51117034  0.06048033  1
  O  O53  1  0.18877845  0.01117034  0.93951967  1
  O  O54  1  0.31122155  0.01117034  0.43951967  1
  O  O55  1  0.68877845  0.51117034  0.56048033  1
  O  O56  1  0.25450466  0.38467821  0.04822526  1
  O  O57  1  0.74549534  0.88467821  0.95177474  1
  O  O58  1  0.75450466  0.88467821  0.45177474  1
  O  O59  1  0.24549534  0.38467821  0.54822526  1
