# generated using pymatgen
data_TbMn2O5
_symmetry_space_group_name_H-M   'P 1'
_cell_length_a   5.68489690
_cell_length_b   7.26797062
_cell_length_c   8.49437086
_cell_angle_alpha   90.00000000
_cell_angle_beta   90.00000000
_cell_angle_gamma   90.00000000
_symmetry_Int_Tables_number   1
_chemical_formula_structural   TbMn2O5
_chemical_formula_sum   'Tb4 Mn8 O20'
_cell_volume   350.96755809
_cell_formula_units_Z   4
loop_
 _symmetry_equiv_pos_site_id
 _symmetry_equiv_pos_as_xyz
  1  'x, y, z'
loop_
 _atom_site_type_symbol
 _atom_site_label
 _atom_site_symmetry_multiplicity
 _atom_site_fract_x
 _atom_site_fract_y
 _atom_site_fract_z
 _atom_site_occupancy
  Tb  Tb0  1  0.00000000  0.36246149  0.67140537  1
  Tb  Tb1  1  0.00000000  0.63753851  0.32859463  1
  Tb  Tb2  1  0.00000000  0.86246149  0.82859463  1
  Tb  Tb3  1  0.00000000  0.13753851  0.17140537  1
  Mn  Mn4  1  0.50000000  0.08842034  0.84951219  1
  Mn  Mn5  1  0.50000000  0.91157966  0.15048781  1
  Mn  Mn6  1  0.50000000  0.58842034  0.65048781  1
  Mn  Mn7  1  0.50000000  0.41157966  0.34951219  1
  Mn  Mn8  1  0.25452222  0.50000000  -0.00000000  1
  Mn  Mn9  1  0.74547778  -0.00000000  0.50000000  1
  Mn  Mn10  1  0.74547778  0.50000000  -0.00000000  1
  Mn  Mn11  1  0.25452222  -0.00000000  0.50000000  1
  O  O12  1  0.24447393  0.89526648  0.29363294  1
  O  O13  1  0.24447393  0.10473352  0.70636706  1
  O  O14  1  0.75552607  0.39526648  0.20636706  1
  O  O15  1  0.75552607  0.60473352  0.79363294  1
  O  O16  1  0.75552607  0.10473352  0.70636706  1
  O  O17  1  0.75552607  0.89526648  0.29363294  1
  O  O18  1  0.24447393  0.60473352  0.79363294  1
  O  O19  1  0.24447393  0.39526648  0.20636706  1
  O  O20  1  0.50000000  0.34672000  0.93389374  1
  O  O21  1  0.50000000  0.65328000  0.06610626  1
  O  O22  1  0.50000000  0.84672000  0.56610626  1
  O  O23  1  0.50000000  0.15328000  0.43389374  1
  O  O24  1  0.27243718  -0.00000000  -0.00000000  1
  O  O25  1  0.72756282  0.50000000  0.50000000  1
  O  O26  1  0.72756282  -0.00000000  -0.00000000  1
  O  O27  1  0.27243718  0.50000000  0.50000000  1
  O  O28  1  0.00000000  0.16267252  0.44441114  1
  O  O29  1  0.00000000  0.83732748  0.55558886  1
  O  O30  1  0.00000000  0.66267252  0.05558886  1
  O  O31  1  0.00000000  0.33732748  0.94441114  1
