# generated using pymatgen
data_Sn5(GeN3)2
_symmetry_space_group_name_H-M   'P 1'
_cell_length_a   5.74280682
_cell_length_b   7.10310896
_cell_length_c   14.77184992
_cell_angle_alpha   90.00000047
_cell_angle_beta   94.04329666
_cell_angle_gamma   128.20196312
_symmetry_Int_Tables_number   1
_chemical_formula_structural   Sn5(GeN3)2
_chemical_formula_sum   'Sn10 Ge4 N12'
_cell_volume   471.61111637
_cell_formula_units_Z   2
loop_
 _symmetry_equiv_pos_site_id
 _symmetry_equiv_pos_as_xyz
  1  'x, y, z'
loop_
 _atom_site_type_symbol
 _atom_site_label
 _atom_site_symmetry_multiplicity
 _atom_site_fract_x
 _atom_site_fract_y
 _atom_site_fract_z
 _atom_site_occupancy
  Sn  Sn0  1  0.14997854  0.78958966  0.97159089  1
  Sn  Sn1  1  0.85002146  0.63961112  0.52840911  1
  Sn  Sn2  1  0.85002146  0.21041034  0.02840911  1
  Sn  Sn3  1  0.14997854  0.36038888  0.47159089  1
  Sn  Sn4  1  0.26428037  0.21878159  0.68339559  1
  Sn  Sn5  1  0.73571963  0.95450122  0.81660441  1
  Sn  Sn6  1  0.73571963  0.78121841  0.31660441  1
  Sn  Sn7  1  0.26428037  0.04549878  0.18339559  1
  Sn  Sn8  1  0.00000000  0.59913096  0.75000000  1
  Sn  Sn9  1  -0.00000000  0.40086904  0.25000000  1
  Ge  Ge10  1  0.52948279  0.97471313  0.59316607  1
  Ge  Ge11  1  0.47051721  0.44523035  0.90683393  1
  Ge  Ge12  1  0.47051721  0.02528687  0.40683393  1
  Ge  Ge13  1  0.52948279  0.55476965  0.09316607  1
  N  N14  1  0.78971290  0.98950754  0.67336982  1
  N  N15  1  0.21028710  0.19979464  0.82663018  1
  N  N16  1  0.21028710  0.01049246  0.32663018  1
  N  N17  1  0.78971290  0.80020536  0.17336982  1
  N  N18  1  0.19377465  0.88231471  0.65108460  1
  N  N19  1  0.80622535  0.68854005  0.84891540  1
  N  N20  1  0.80622535  0.11768529  0.34891540  1
  N  N21  1  0.19377465  0.31145995  0.15108460  1
  N  N22  1  0.70030638  0.24334492  0.51547654  1
  N  N23  1  0.29969362  0.54303753  0.98452346  1
  N  N24  1  0.29969362  0.75665508  0.48452346  1
  N  N25  1  0.70030638  0.45696247  0.01547654  1
