# generated using pymatgen
data_La8Hf4MgO20
_symmetry_space_group_name_H-M   'P 1'
_cell_length_a   11.30680919
_cell_length_b   12.06226718
_cell_length_c   3.93996215
_cell_angle_alpha   90.00000000
_cell_angle_beta   90.00000000
_cell_angle_gamma   89.02784938
_symmetry_Int_Tables_number   1
_chemical_formula_structural   La8Hf4MgO20
_chemical_formula_sum   'La8 Hf4 Mg1 O20'
_cell_volume   537.27735927
_cell_formula_units_Z   1
loop_
 _symmetry_equiv_pos_site_id
 _symmetry_equiv_pos_as_xyz
  1  'x, y, z'
loop_
 _atom_site_type_symbol
 _atom_site_label
 _atom_site_symmetry_multiplicity
 _atom_site_fract_x
 _atom_site_fract_y
 _atom_site_fract_z
 _atom_site_occupancy
  La  La0  1  0.10313755  0.72509072  0.25000000  1
  La  La1  1  0.13398364  0.06410228  0.25000000  1
  La  La2  1  0.36658600  0.56723830  0.75000000  1
  La  La3  1  0.38728607  0.21824278  0.75000000  1
  La  La4  1  0.60632770  0.77880813  0.25000000  1
  La  La5  1  0.62610722  0.43956122  0.25000000  1
  La  La6  1  0.87514202  0.92698902  0.75000000  1
  La  La7  1  0.88831441  0.25686659  0.75000000  1
  Hf  Hf8  1  0.18022384  0.38880760  0.25000000  1
  Hf  Hf9  1  0.31637371  0.88038726  0.75000000  1
  Hf  Hf10  1  0.67812968  0.11392056  0.25000000  1
  Hf  Hf11  1  0.83371396  0.63292073  0.75000000  1
  Mg  Mg12  1  0.92229085  0.47302047  0.25000000  1
  O  O13  1  0.00731194  0.09871471  0.75000000  1
  O  O14  1  0.01286905  0.32747007  0.25000000  1
  O  O15  1  0.23319272  0.73244974  0.75000000  1
  O  O16  1  0.24406193  0.54558132  0.25000000  1
  O  O17  1  0.24065356  0.38835230  0.75000000  1
  O  O18  1  0.26156421  0.88767722  0.25000000  1
  O  O19  1  0.27442013  0.04750131  0.75000000  1
  O  O20  1  0.26448421  0.23754407  0.25000000  1
  O  O21  1  0.48104123  0.83310106  0.75000000  1
  O  O22  1  0.50010222  0.59936754  0.25000000  1
  O  O23  1  0.51733687  0.39985857  0.75000000  1
  O  O24  1  0.51118775  0.15643546  0.25000000  1
  O  O25  1  0.72624429  0.76657382  0.75000000  1
  O  O26  1  0.72692494  0.95145608  0.25000000  1
  O  O27  1  0.73622269  0.11213371  0.75000000  1
  O  O28  1  0.76230955  0.60877760  0.25000000  1
  O  O29  1  0.82223452  0.45608141  0.75000000  1
  O  O30  1  0.76059510  0.26591238  0.25000000  1
  O  O31  1  0.96870337  0.73556956  0.75000000  1
  O  O32  1  0.00116107  0.91126441  0.25000000  1
