# generated using pymatgen
data_LiCeF5
_symmetry_space_group_name_H-M   'P 1'
_cell_length_a   10.90101999
_cell_length_b   10.90101999
_cell_length_c   10.90101999
_cell_angle_alpha   95.10252352
_cell_angle_beta   95.10252352
_cell_angle_gamma   145.29794956
_symmetry_Int_Tables_number   1
_chemical_formula_structural   LiCeF5
_chemical_formula_sum   'Li8 Ce8 F40'
_cell_volume   703.92006142
_cell_formula_units_Z   8
loop_
 _symmetry_equiv_pos_site_id
 _symmetry_equiv_pos_as_xyz
  1  'x, y, z'
loop_
 _atom_site_type_symbol
 _atom_site_label
 _atom_site_symmetry_multiplicity
 _atom_site_fract_x
 _atom_site_fract_y
 _atom_site_fract_z
 _atom_site_occupancy
  Li  Li0  1  0.96736432  0.47628543  0.65771653  1
  Li  Li1  1  0.81856790  0.30964779  0.34228347  1
  Li  Li2  1  0.43143210  0.44035221  0.15771653  1
  Li  Li3  1  0.28263568  0.27371457  0.84228347  1
  Li  Li4  1  0.52371457  0.18143210  0.49107890  1
  Li  Li5  1  0.69035221  0.03263568  0.50892110  1
  Li  Li6  1  0.55964779  0.71736432  0.99107890  1
  Li  Li7  1  0.72628543  0.56856790  0.00892110  1
  Ce  Ce8  1  0.81851242  0.68711180  0.74322115  1
  Ce  Ce9  1  0.94389065  0.07529127  0.25677885  1
  Ce  Ce10  1  0.30610935  0.67470873  0.24322115  1
  Ce  Ce11  1  0.43148758  0.06288820  0.75677885  1
  Ce  Ce12  1  0.31288820  0.05610935  0.13140062  1
  Ce  Ce13  1  0.92470873  0.18148758  0.86859938  1
  Ce  Ce14  1  0.32529127  0.56851242  0.63140062  1
  Ce  Ce15  1  0.93711180  0.69389065  0.36859938  1
  F  F16  1  0.55016607  0.33682076  0.63301315  1
  F  F17  1  0.70380861  0.91715292  0.36698685  1
  F  F18  1  0.54619139  0.83284708  0.13301315  1
  F  F19  1  0.69983393  0.41317924  0.86698685  1
  F  F20  1  0.66317924  0.29619139  0.21334431  1
  F  F21  1  0.08284708  0.44983393  0.78665569  1
  F  F22  1  0.16715292  0.30016607  0.71334431  1
  F  F23  1  0.58682076  0.45380861  0.28665569  1
  F  F24  1  0.86396683  0.72842046  0.54871128  1
  F  F25  1  0.17970918  0.31525556  0.45128872  1
  F  F26  1  0.07029082  0.43474444  0.04871128  1
  F  F27  1  0.38603317  0.02157954  0.95128872  1
  F  F28  1  0.27157954  0.82029082  0.13554637  1
  F  F29  1  0.68474444  0.13603317  0.86445363  1
  F  F30  1  0.56525556  0.61396683  0.63554637  1
  F  F31  1  0.97842046  0.92970918  0.36445363  1
  F  F32  1  0.59378714  0.55816935  0.86622158  1
  F  F33  1  0.69194777  0.72756456  0.13377842  1
  F  F34  1  0.55805223  0.02243544  0.36622158  1
  F  F35  1  0.65621286  0.19183065  0.63377842  1
  F  F36  1  0.44183065  0.30805223  0.03561779  1
  F  F37  1  0.27243544  0.40621286  0.96438221  1
  F  F38  1  0.97756456  0.34378714  0.53561779  1
  F  F39  1  0.80816935  0.44194777  0.46438221  1
  F  F40  1  0.02921561  0.69122194  0.73360232  1
  F  F41  1  0.95761962  0.29561328  0.26639768  1
  F  F42  1  0.29238038  0.45438672  0.23360232  1
  F  F43  1  0.22078439  0.05877806  0.76639768  1
  F  F44  1  0.30877806  0.04238038  0.33799367  1
  F  F45  1  0.70438672  0.97078439  0.66200633  1
  F  F46  1  0.54561328  0.77921561  0.83799367  1
  F  F47  1  0.94122194  0.70761962  0.16200633  1
  F  F48  1  0.94558402  0.98747667  0.82412142  1
  F  F49  1  0.16335525  0.12146260  0.17587858  1
  F  F50  1  0.08664475  0.62853740  0.32412142  1
  F  F51  1  0.30441598  0.76252333  0.67587858  1
  F  F52  1  0.01252333  0.83664475  0.95810735  1
  F  F53  1  0.87853740  0.05441598  0.04189265  1
  F  F54  1  0.37146260  0.69558402  0.45810735  1
  F  F55  1  0.23747667  0.91335525  0.54189265  1
