# generated using pymatgen
data_Li10Zn7(PS4)8
_symmetry_space_group_name_H-M   'P 1'
_cell_length_a   9.20836343
_cell_length_b   11.61783287
_cell_length_c   23.23096106
_cell_angle_alpha   89.97586019
_cell_angle_beta   90.00028326
_cell_angle_gamma   89.99966431
_symmetry_Int_Tables_number   1
_chemical_formula_structural   Li10Zn7(PS4)8
_chemical_formula_sum   'Li20 Zn14 P16 S64'
_cell_volume   2485.27650640
_cell_formula_units_Z   2
loop_
 _symmetry_equiv_pos_site_id
 _symmetry_equiv_pos_as_xyz
  1  'x, y, z'
loop_
 _atom_site_type_symbol
 _atom_site_label
 _atom_site_symmetry_multiplicity
 _atom_site_fract_x
 _atom_site_fract_y
 _atom_site_fract_z
 _atom_site_occupancy
  Li  Li0  1  0.24859949  0.24730107  0.74745716  1
  Li  Li1  1  0.74859703  0.00270130  0.62754212  1
  Li  Li2  1  0.49998429  0.50176737  0.74963331  1
  Li  Li3  1  0.50145085  0.49855605  0.50062382  1
  Li  Li4  1  0.50046365  0.49984629  0.25005795  1
  Li  Li5  1  0.50097181  0.50032067  0.00013213  1
  Li  Li6  1  0.50181545  0.99822742  0.75091068  1
  Li  Li7  1  0.49625017  0.00065512  0.49809641  1
  Li  Li8  1  0.00181533  0.25177490  0.62408900  1
  Li  Li9  1  0.50035035  0.00010741  0.24993337  1
  Li  Li10  1  0.00172565  0.24899703  0.37423941  1
  Li  Li11  1  0.50172003  0.00100476  0.00076101  1
  Li  Li12  1  0.00035068  0.24989447  0.12506589  1
  Li  Li13  1  0.99624684  0.24934120  0.87690178  1
  Li  Li14  1  -0.00001695  0.74823476  0.62536761  1
  Li  Li15  1  0.00097428  0.74967799  0.37486813  1
  Li  Li16  1  0.00046474  0.75015195  0.12494251  1
  Li  Li17  1  0.00145472  0.75144591  0.87437456  1
  Li  Li18  1  0.49942005  0.25162159  0.62376976  1
  Li  Li19  1  0.99942192  0.99838119  0.75122917  1
  Zn  Zn20  1  0.49989653  0.75114385  0.87497752  1
  Zn  Zn21  1  0.49331083  0.74832948  0.62635315  1
  Zn  Zn22  1  0.49941222  0.75039882  0.37457720  1
  Zn  Zn23  1  0.49966319  0.75006991  0.12497864  1
  Zn  Zn24  1  0.50547945  0.25077026  0.87542387  1
  Zn  Zn25  1  0.99330954  0.50167716  0.74864363  1
  Zn  Zn26  1  0.49993900  0.24958862  0.37537102  1
  Zn  Zn27  1  0.99989415  0.49885750  0.50002263  1
  Zn  Zn28  1  0.49957985  0.24990491  0.12511478  1
  Zn  Zn29  1  0.99965615  0.49992801  0.25002118  1
  Zn  Zn30  1  0.99941007  0.49960215  0.00042290  1
  Zn  Zn31  1  0.00547406  0.99922182  0.49957353  1
  Zn  Zn32  1  0.99957565  0.00009631  0.24988431  1
  Zn  Zn33  1  0.99993852  0.00041152  0.99962705  1
  P  P34  1  0.25239147  0.49936551  0.87499562  1
  P  P35  1  0.24674112  0.50048993  0.62720889  1
  P  P36  1  0.25009984  0.49993868  0.37511495  1
  P  P37  1  0.25002201  0.50004381  0.12502275  1
  P  P38  1  0.24737966  0.99637103  0.87535316  1
  P  P39  1  0.25331535  0.00365016  0.62301657  1
  P  P40  1  0.75331851  0.24634668  0.75197710  1
  P  P41  1  0.25011202  0.99978942  0.37464957  1
  P  P42  1  0.74738517  0.25361606  0.49964375  1
  P  P43  1  0.24983254  0.99995863  0.12497877  1
  P  P44  1  0.74983456  0.25004503  0.25001999  1
  P  P45  1  0.75011626  0.25021403  0.00035692  1
  P  P46  1  0.74676402  0.74950414  0.74779319  1
  P  P47  1  0.75239954  0.75062708  0.50000730  1
  P  P48  1  0.75002113  0.74995269  0.24997904  1
  P  P49  1  0.75009904  0.75006408  0.99988754  1
  S  S50  1  0.13743160  0.89430426  0.82068879  1
  S  S51  1  0.12900117  0.89604948  0.57133416  1
  S  S52  1  0.13495050  0.89565962  0.31907858  1
  S  S53  1  0.13501806  0.89597426  0.06926508  1
  S  S54  1  0.12906340  0.39614305  0.81957268  1
  S  S55  1  0.13474067  0.39662546  0.57036317  1
  S  S56  1  0.63094054  0.64312779  0.69374089  1
  S  S57  1  0.13578440  0.39592382  0.31914497  1
  S  S58  1  0.63366224  0.64788283  0.44536322  1
  S  S59  1  0.13563753  0.39552134  0.06929169  1
  S  S60  1  0.63515156  0.64575924  0.19433397  1
  S  S61  1  0.63541893  0.64585127  0.94415515  1
  S  S62  1  0.62967163  0.14606122  0.69709818  1
  S  S63  1  0.63705019  0.14579039  0.44394087  1
  S  S64  1  0.63532864  0.14574077  0.19426245  1
  S  S65  1  0.63636511  0.14547991  0.94468690  1
  S  S66  1  0.36737865  0.39231089  0.67812526  1
  S  S67  1  0.36491623  0.38877209  0.42725335  1
  S  S68  1  0.36474947  0.38874319  0.17719461  1
  S  S69  1  0.36490504  0.38739268  0.92713482  1
  S  S70  1  0.36517637  0.89134270  0.67696813  1
  S  S71  1  0.36361257  0.88772452  0.42681240  1
  S  S72  1  0.86917017  0.13926444  0.55135481  1
  S  S73  1  0.36467921  0.88860743  0.17716365  1
  S  S74  1  0.86460142  0.13845443  0.30207157  1
  S  S75  1  0.37205708  0.89218979  0.92766790  1
  S  S76  1  0.86491901  0.13869825  0.05231023  1
  S  S77  1  0.87224449  0.14318799  0.80363785  1
  S  S78  1  0.86532081  0.63935067  0.55219103  1
  S  S79  1  0.86458805  0.63856309  0.30221622  1
  S  S80  1  0.86505531  0.63872475  0.05212190  1
  S  S81  1  0.86321409  0.64066771  0.80093298  1
  S  S82  1  0.13367105  0.60213154  0.92964553  1
  S  S83  1  0.13094356  0.60687446  0.68126064  1
  S  S84  1  0.13541985  0.60415292  0.43084191  1
  S  S85  1  0.13515479  0.60424691  0.18066358  1
  S  S86  1  0.13703712  0.10420945  0.93105485  1
  S  S87  1  0.12967328  0.10396255  0.67790308  1
  S  S88  1  0.62898683  0.35393491  0.80365498  1
  S  S89  1  0.13636364  0.10451794  0.43031457  1
  S  S90  1  0.63743698  0.35569977  0.55431016  1
  S  S91  1  0.13532739  0.10426938  0.18073753  1
  S  S92  1  0.63501312  0.35402051  0.30573531  1
  S  S93  1  0.63495539  0.35433733  0.05592269  1
  S  S94  1  0.63473174  0.85336992  0.80463276  1
  S  S95  1  0.62905885  0.85387844  0.55543001  1
  S  S96  1  0.63563168  0.85447931  0.30570719  1
  S  S97  1  0.63578772  0.85406777  0.05585390  1
  S  S98  1  0.36532185  0.61064570  0.82281017  1
  S  S99  1  0.36321729  0.60931799  0.57407843  1
  S  S100  1  0.36506025  0.61127573  0.32287982  1
  S  S101  1  0.36459260  0.61143712  0.07278324  1
  S  S102  1  0.36915182  0.11072472  0.82365122  1
  S  S103  1  0.37224063  0.10679148  0.57135118  1
  S  S104  1  0.86515889  0.35867252  0.69802961  1
  S  S105  1  0.36491774  0.11129470  0.32269047  1
  S  S106  1  0.87205251  0.35782010  0.44733321  1
  S  S107  1  0.36460462  0.11154596  0.07293347  1
  S  S108  1  0.86467630  0.36139450  0.19783475  1
  S  S109  1  0.86361635  0.36227470  0.94818626  1
  S  S110  1  0.86738558  0.85769387  0.69687997  1
  S  S111  1  0.86490535  0.86260653  0.44786685  1
  S  S112  1  0.86474853  0.86126122  0.19780486  1
  S  S113  1  0.86491873  0.86122293  0.94774805  1
