# generated using pymatgen
data_CsY2Cl7
_symmetry_space_group_name_H-M   'P 1'
_cell_length_a   7.00521892
_cell_length_b   12.68146100
_cell_length_c   13.61715529
_cell_angle_alpha   90.00000000
_cell_angle_beta   90.00000000
_cell_angle_gamma   90.00000000
_symmetry_Int_Tables_number   1
_chemical_formula_structural   CsY2Cl7
_chemical_formula_sum   'Cs4 Y8 Cl28'
_cell_volume   1209.69919760
_cell_formula_units_Z   4
loop_
 _symmetry_equiv_pos_site_id
 _symmetry_equiv_pos_as_xyz
  1  'x, y, z'
loop_
 _atom_site_type_symbol
 _atom_site_label
 _atom_site_symmetry_multiplicity
 _atom_site_fract_x
 _atom_site_fract_y
 _atom_site_fract_z
 _atom_site_occupancy
  Cs  Cs0  1  0.25000000  0.80226286  0.03942017  1
  Cs  Cs1  1  0.75000000  0.19773714  0.96057983  1
  Cs  Cs2  1  0.75000000  0.30226286  0.46057983  1
  Cs  Cs3  1  0.25000000  0.69773714  0.53942017  1
  Y  Y4  1  0.25000000  0.45803150  0.23983868  1
  Y  Y5  1  0.75000000  0.54196850  0.76016132  1
  Y  Y6  1  0.75000000  0.95803150  0.26016132  1
  Y  Y7  1  0.25000000  0.04196850  0.73983868  1
  Y  Y8  1  0.25000000  0.15483867  0.24897991  1
  Y  Y9  1  0.75000000  0.84516133  0.75102009  1
  Y  Y10  1  0.75000000  0.65483867  0.25102009  1
  Y  Y11  1  0.25000000  0.34516133  0.74897991  1
  Cl  Cl12  1  0.00982915  0.30498667  0.17814867  1
  Cl  Cl13  1  0.99017085  0.69501333  0.82185133  1
  Cl  Cl14  1  0.99017085  0.80498667  0.32185133  1
  Cl  Cl15  1  0.50982915  0.69501333  0.82185133  1
  Cl  Cl16  1  0.00982915  0.19501333  0.67814867  1
  Cl  Cl17  1  0.49017085  0.30498667  0.17814867  1
  Cl  Cl18  1  0.49017085  0.19501333  0.67814867  1
  Cl  Cl19  1  0.50982915  0.80498667  0.32185133  1
  Cl  Cl20  1  0.00891132  0.57352885  0.12656610  1
  Cl  Cl21  1  0.99108868  0.42647115  0.87343390  1
  Cl  Cl22  1  0.99108868  0.07352885  0.37343390  1
  Cl  Cl23  1  0.50891132  0.42647115  0.87343390  1
  Cl  Cl24  1  0.00891132  0.92647115  0.62656610  1
  Cl  Cl25  1  0.49108868  0.57352885  0.12656610  1
  Cl  Cl26  1  0.49108868  0.92647115  0.62656610  1
  Cl  Cl27  1  0.50891132  0.07352885  0.37343390  1
  Cl  Cl28  1  0.00990801  0.03850821  0.13358863  1
  Cl  Cl29  1  0.99009199  0.96149179  0.86641137  1
  Cl  Cl30  1  0.99009199  0.53850821  0.36641137  1
  Cl  Cl31  1  0.50990801  0.96149179  0.86641137  1
  Cl  Cl32  1  0.00990801  0.46149179  0.63358863  1
  Cl  Cl33  1  0.49009199  0.03850821  0.13358863  1
  Cl  Cl34  1  0.49009199  0.46149179  0.63358863  1
  Cl  Cl35  1  0.50990801  0.53850821  0.36641137  1
  Cl  Cl36  1  0.25000000  0.30898777  0.38936309  1
  Cl  Cl37  1  0.75000000  0.69101223  0.61063691  1
  Cl  Cl38  1  0.75000000  0.80898777  0.11063691  1
  Cl  Cl39  1  0.25000000  0.19101223  0.88936309  1
