# generated using pymatgen
data_BaMg14SiO16
_symmetry_space_group_name_H-M   'P 1'
_cell_length_a   8.90021031
_cell_length_b   8.64418017
_cell_length_c   4.56140037
_cell_angle_alpha   90.00000000
_cell_angle_beta   90.00000000
_cell_angle_gamma   90.00000000
_symmetry_Int_Tables_number   1
_chemical_formula_structural   BaMg14SiO16
_chemical_formula_sum   'Ba1 Mg14 Si1 O16'
_cell_volume   350.93143540
_cell_formula_units_Z   1
loop_
 _symmetry_equiv_pos_site_id
 _symmetry_equiv_pos_as_xyz
  1  'x, y, z'
loop_
 _atom_site_type_symbol
 _atom_site_label
 _atom_site_symmetry_multiplicity
 _atom_site_fract_x
 _atom_site_fract_y
 _atom_site_fract_z
 _atom_site_occupancy
  Ba  Ba0  1  -0.00000000  0.50000000  -0.00000000  1
  Mg  Mg1  1  0.50000000  -0.00000000  -0.00000000  1
  Mg  Mg2  1  0.50000000  0.50000000  -0.00000000  1
  Mg  Mg3  1  -0.00000000  0.23688637  0.50000000  1
  Mg  Mg4  1  -0.00000000  0.76311363  0.50000000  1
  Mg  Mg5  1  0.50000000  0.24766990  0.50000000  1
  Mg  Mg6  1  0.50000000  0.75233010  0.50000000  1
  Mg  Mg7  1  0.25518699  -0.00000000  0.50000000  1
  Mg  Mg8  1  0.26599659  0.50000000  0.50000000  1
  Mg  Mg9  1  0.74481301  -0.00000000  0.50000000  1
  Mg  Mg10  1  0.73400341  0.50000000  0.50000000  1
  Mg  Mg11  1  0.26537827  0.24236335  0.00000000  1
  Mg  Mg12  1  0.26537827  0.75763665  -0.00000000  1
  Mg  Mg13  1  0.73462173  0.24236335  0.00000000  1
  Mg  Mg14  1  0.73462173  0.75763665  -0.00000000  1
  Si  Si15  1  -0.00000000  -0.00000000  -0.00000000  1
  O  O16  1  0.26970307  -0.00000000  -0.00000000  1
  O  O17  1  0.28025403  0.50000000  -0.00000000  1
  O  O18  1  0.73029693  -0.00000000  0.00000000  1
  O  O19  1  0.71974597  0.50000000  0.00000000  1
  O  O20  1  0.25020003  0.24972991  0.50000000  1
  O  O21  1  0.25020003  0.75027009  0.50000000  1
  O  O22  1  0.74979997  0.24972991  0.50000000  1
  O  O23  1  0.74979997  0.75027009  0.50000000  1
  O  O24  1  -0.00000000  -0.00000000  0.50000000  1
  O  O25  1  -0.00000000  0.50000000  0.50000000  1
  O  O26  1  0.50000000  -0.00000000  0.50000000  1
  O  O27  1  0.50000000  0.50000000  0.50000000  1
  O  O28  1  -0.00000000  0.21523662  0.00000000  1
  O  O29  1  -0.00000000  0.78476338  -0.00000000  1
  O  O30  1  0.50000000  0.24666521  0.00000000  1
  O  O31  1  0.50000000  0.75333479  -0.00000000  1
