# generated using pymatgen
data_Sr6Mg(Te4O11)2
_symmetry_space_group_name_H-M   'P 1'
_cell_length_a   8.21038321
_cell_length_b   9.44157463
_cell_length_c   9.79380185
_cell_angle_alpha   96.61662654
_cell_angle_beta   112.16634675
_cell_angle_gamma   98.78774972
_symmetry_Int_Tables_number   1
_chemical_formula_structural   Sr6Mg(Te4O11)2
_chemical_formula_sum   'Sr6 Mg1 Te8 O22'
_cell_volume   682.33356982
_cell_formula_units_Z   1
loop_
 _symmetry_equiv_pos_site_id
 _symmetry_equiv_pos_as_xyz
  1  'x, y, z'
loop_
 _atom_site_type_symbol
 _atom_site_label
 _atom_site_symmetry_multiplicity
 _atom_site_fract_x
 _atom_site_fract_y
 _atom_site_fract_z
 _atom_site_occupancy
  Sr  Sr0  1  0.36341746  0.08358649  0.15883347  1
  Sr  Sr1  1  0.65642274  0.96406640  0.88766253  1
  Sr  Sr2  1  0.87882756  0.08561494  0.33096304  1
  Sr  Sr3  1  0.15877547  0.89740805  0.66449894  1
  Sr  Sr4  1  0.30244765  0.53807034  0.61422631  1
  Sr  Sr5  1  0.69976361  0.47601318  0.35669617  1
  Mg  Mg6  1  0.01315949  0.87469992  0.92793948  1
  Te  Te7  1  0.05315758  0.33759176  0.19301044  1
  Te  Te8  1  0.86829169  0.58709979  0.72421136  1
  Te  Te9  1  0.99549490  0.22240752  0.77337728  1
  Te  Te10  1  0.96866527  0.73752583  0.21961539  1
  Te  Te11  1  0.43609131  0.74476821  0.04657496  1
  Te  Te12  1  0.49434648  0.31669794  0.92678312  1
  Te  Te13  1  0.51144277  0.80289858  0.45957949  1
  Te  Te14  1  0.50234775  0.17574903  0.55062964  1
  O  O15  1  0.02607398  0.62125325  0.61874976  1
  O  O16  1  0.00911822  0.41141486  0.36174214  1
  O  O17  1  0.45396915  0.59652850  0.41120300  1
  O  O18  1  0.50541327  0.35693063  0.65143304  1
  O  O19  1  0.82371362  0.21018262  0.09132408  1
  O  O20  1  0.24721525  0.84869487  0.95102175  1
  O  O21  1  0.70838705  0.12414670  0.70159676  1
  O  O22  1  0.33540725  0.85550528  0.29212996  1
  O  O23  1  0.40322998  0.82057347  0.60057147  1
  O  O24  1  0.61599683  0.21985847  0.41766319  1
  O  O25  1  0.00461291  0.11090611  0.60788875  1
  O  O26  1  0.00220361  0.87008233  0.39100508  1
  O  O27  1  0.47947962  0.31891366  0.11487275  1
  O  O28  1  0.47986543  0.70881835  0.87201794  1
  O  O29  1  0.59593901  0.93106141  0.13522806  1
  O  O30  1  0.42356355  0.11313044  0.85116966  1
  O  O31  1  0.92786909  0.87485116  0.08670860  1
  O  O32  1  0.05390609  0.09006014  0.90903365  1
  O  O33  1  0.17959542  0.19878599  0.28521687  1
  O  O34  1  0.82115456  0.78737320  0.73324120  1
  O  O35  1  0.72838628  0.64316717  0.17984167  1
  O  O36  1  0.25558113  0.35784941  0.82535102  1
