# generated using pymatgen
data_Sm4GaSbS9
_symmetry_space_group_name_H-M   'P 1'
_cell_length_a   10.04909018
_cell_length_b   10.04909018
_cell_length_c   13.72453419
_cell_angle_alpha   90.00000000
_cell_angle_beta   90.00000000
_cell_angle_gamma   90.85568622
_symmetry_Int_Tables_number   1
_chemical_formula_structural   Sm4GaSbS9
_chemical_formula_sum   'Sm16 Ga4 Sb4 S36'
_cell_volume   1385.80672927
_cell_formula_units_Z   4
loop_
 _symmetry_equiv_pos_site_id
 _symmetry_equiv_pos_as_xyz
  1  'x, y, z'
loop_
 _atom_site_type_symbol
 _atom_site_label
 _atom_site_symmetry_multiplicity
 _atom_site_fract_x
 _atom_site_fract_y
 _atom_site_fract_z
 _atom_site_occupancy
  Sm  Sm0  1  0.12651064  0.09149798  0.81446825  1
  Sm  Sm1  1  0.90850202  0.87348936  0.18553175  1
  Sm  Sm2  1  0.62651064  0.59149798  0.68553175  1
  Sm  Sm3  1  0.40850202  0.37348936  0.31446825  1
  Sm  Sm4  1  0.33411074  0.32225419  0.60113504  1
  Sm  Sm5  1  0.67774581  0.66588926  0.39886496  1
  Sm  Sm6  1  0.83411074  0.82225419  0.89886496  1
  Sm  Sm7  1  0.17774581  0.16588926  0.10113504  1
  Sm  Sm8  1  0.62435638  0.04429357  0.68097272  1
  Sm  Sm9  1  0.95570643  0.37564362  0.31902728  1
  Sm  Sm10  1  0.12435638  0.54429357  0.81902728  1
  Sm  Sm11  1  0.45570643  0.87564362  0.18097272  1
  Sm  Sm12  1  0.44972684  0.32657284  0.89616711  1
  Sm  Sm13  1  0.67342716  0.55027316  0.10383289  1
  Sm  Sm14  1  0.94972684  0.82657284  0.60383289  1
  Sm  Sm15  1  0.17342716  0.05027316  0.39616711  1
  Ga  Ga16  1  0.38406213  0.82542979  0.90766758  1
  Ga  Ga17  1  0.17457021  0.61593787  0.09233242  1
  Ga  Ga18  1  0.88406213  0.32542979  0.59233242  1
  Ga  Ga19  1  0.67457021  0.11593787  0.40766758  1
  Sb  Sb20  1  0.32631440  0.83176354  0.61295402  1
  Sb  Sb21  1  0.16823646  0.67368560  0.38704598  1
  Sb  Sb22  1  0.82631440  0.33176354  0.88704598  1
  Sb  Sb23  1  0.66823646  0.17368560  0.11295402  1
  S  S24  1  0.16396484  0.01431959  0.59978925  1
  S  S25  1  0.98568041  0.83603516  0.40021075  1
  S  S26  1  0.66396484  0.51431959  0.90021075  1
  S  S27  1  0.48568041  0.33603516  0.09978925  1
  S  S28  1  0.66619248  0.14717656  0.91921623  1
  S  S29  1  0.85282344  0.33380752  0.08078377  1
  S  S30  1  0.16619248  0.64717656  0.58078377  1
  S  S31  1  0.35282344  0.83380752  0.41921623  1
  S  S32  1  0.20562067  0.81909448  0.80100765  1
  S  S33  1  0.18090552  0.79437933  0.19899235  1
  S  S34  1  0.70562067  0.31909448  0.69899235  1
  S  S35  1  0.68090552  0.29437933  0.30100765  1
  S  S36  1  0.57194246  0.82223165  0.80952318  1
  S  S37  1  0.17776835  0.42805754  0.19047682  1
  S  S38  1  0.07194246  0.32223165  0.69047682  1
  S  S39  1  0.67776835  0.92805754  0.30952318  1
  S  S40  1  0.86930809  0.13069191  0.50000000  1
  S  S41  1  0.36930809  0.63069191  -0.00000000  1
  S  S42  1  0.48980172  0.11973504  0.50617545  1
  S  S43  1  0.88026496  0.51019828  0.49382455  1
  S  S44  1  0.98980172  0.61973504  0.99382455  1
  S  S45  1  0.38026496  0.01019828  0.00617545  1
  S  S46  1  0.67963569  0.81496264  0.56818489  1
  S  S47  1  0.18503736  0.32036431  0.43181511  1
  S  S48  1  0.17963569  0.31496264  0.93181511  1
  S  S49  1  0.68503736  0.82036431  0.06818489  1
  S  S50  1  0.88050570  0.00453896  0.75031586  1
  S  S51  1  0.99546104  0.11949430  0.24968414  1
  S  S52  1  0.38050570  0.50453896  0.74968414  1
  S  S53  1  0.49546104  0.61949430  0.25031586  1
  S  S54  1  0.50024764  0.49975236  0.50000000  1
  S  S55  1  0.00024764  0.99975236  -0.00000000  1
  S  S56  1  0.38891687  0.14236646  0.75329246  1
  S  S57  1  0.85763354  0.61108313  0.24670754  1
  S  S58  1  0.88891687  0.64236646  0.74670754  1
  S  S59  1  0.35763354  0.11108313  0.25329246  1
