# generated using pymatgen
data_Ba2CaV2(Si2O7)2
_symmetry_space_group_name_H-M   'P 1'
_cell_length_a   5.70074423
_cell_length_b   7.71517445
_cell_length_c   8.45459954
_cell_angle_alpha   104.03914169
_cell_angle_beta   109.48930543
_cell_angle_gamma   90.35563969
_symmetry_Int_Tables_number   1
_chemical_formula_structural   Ba2CaV2(Si2O7)2
_chemical_formula_sum   'Ba2 Ca1 V2 Si4 O14'
_cell_volume   338.52845356
_cell_formula_units_Z   1
loop_
 _symmetry_equiv_pos_site_id
 _symmetry_equiv_pos_as_xyz
  1  'x, y, z'
loop_
 _atom_site_type_symbol
 _atom_site_label
 _atom_site_symmetry_multiplicity
 _atom_site_fract_x
 _atom_site_fract_y
 _atom_site_fract_z
 _atom_site_occupancy
  Ba  Ba0  1  0.84685500  0.68688900  0.66564900  1
  Ba  Ba1  1  0.19556900  0.32006000  0.37876100  1
  Ca  Ca2  1  0.21965800  0.89119000  0.42835800  1
  V  V3  1  0.06841900  0.56319700  0.09984800  1
  V  V4  1  0.88986000  0.20257600  0.74674300  1
  Si  Si5  1  0.41155100  0.49244600  0.79330100  1
  Si  Si6  1  0.61697500  0.51135100  0.20681700  1
  Si  Si7  1  0.42600500  0.93358200  0.81560500  1
  Si  Si8  1  0.62319600  0.08791700  0.23453100  1
  O  O9  1  0.12627400  0.39947600  0.69859200  1
  O  O10  1  0.41404100  0.61162500  0.29248000  1
  O  O11  1  0.14536100  0.98373000  0.71805200  1
  O  O12  1  0.42263400  0.04475100  0.31842600  1
  O  O13  1  0.51128900  0.50314000  0.00168900  1
  O  O14  1  0.53550100  0.00183900  0.02488500  1
  O  O15  1  0.01457000  0.72933600  0.99706900  1
  O  O16  1  0.01893100  0.32994800  0.01072800  1
  O  O17  1  0.39861800  0.70282200  0.76271100  1
  O  O18  1  0.63953800  0.31615800  0.25560100  1
  O  O19  1  0.60022200  0.39765100  0.69839600  1
  O  O20  1  0.90698200  0.61082400  0.28934100  1
  O  O21  1  0.60616600  0.98341100  0.71461600  1
  O  O22  1  0.90028300  0.04793500  0.33998900  1
