# generated using pymatgen
data_K3AsS3
_symmetry_space_group_name_H-M   'P 1'
_cell_length_a   9.40314823
_cell_length_b   9.40314823
_cell_length_c   9.40314823
_cell_angle_alpha   90.00000000
_cell_angle_beta   90.00000000
_cell_angle_gamma   90.00000000
_symmetry_Int_Tables_number   1
_chemical_formula_structural   K3AsS3
_chemical_formula_sum   'K12 As4 S12'
_cell_volume   831.41881234
_cell_formula_units_Z   4
loop_
 _symmetry_equiv_pos_site_id
 _symmetry_equiv_pos_as_xyz
  1  'x, y, z'
loop_
 _atom_site_type_symbol
 _atom_site_label
 _atom_site_symmetry_multiplicity
 _atom_site_fract_x
 _atom_site_fract_y
 _atom_site_fract_z
 _atom_site_occupancy
  K  K0  1  0.05962694  0.55962694  0.94037306  1
  K  K1  1  0.55962694  0.94037306  0.05962694  1
  K  K2  1  0.94037306  0.05962694  0.55962694  1
  K  K3  1  0.44037306  0.44037306  0.44037306  1
  K  K4  1  0.56623740  0.06623740  0.43376260  1
  K  K5  1  0.06623740  0.43376260  0.56623740  1
  K  K6  1  0.43376260  0.56623740  0.06623740  1
  K  K7  1  0.93376260  0.93376260  0.93376260  1
  K  K8  1  0.82625573  0.32625573  0.17374427  1
  K  K9  1  0.32625573  0.17374427  0.82625573  1
  K  K10  1  0.17374427  0.82625573  0.32625573  1
  K  K11  1  0.67374427  0.67374427  0.67374427  1
  As  As12  1  0.27248500  0.77248500  0.72751500  1
  As  As13  1  0.77248500  0.72751500  0.27248500  1
  As  As14  1  0.72751500  0.27248500  0.77248500  1
  As  As15  1  0.22751500  0.22751500  0.22751500  1
  S  S16  1  0.25430619  0.84512030  0.95647895  1
  S  S17  1  0.04352105  0.75430619  0.65487970  1
  S  S18  1  0.34512030  0.54352105  0.74569381  1
  S  S19  1  0.75430619  0.65487970  0.04352105  1
  S  S20  1  0.54352105  0.74569381  0.34512030  1
  S  S21  1  0.84512030  0.95647895  0.25430619  1
  S  S22  1  0.74569381  0.34512030  0.54352105  1
  S  S23  1  0.95647895  0.25430619  0.84512030  1
  S  S24  1  0.65487970  0.04352105  0.75430619  1
  S  S25  1  0.24569381  0.15487970  0.45647895  1
  S  S26  1  0.45647895  0.24569381  0.15487970  1
  S  S27  1  0.15487970  0.45647895  0.24569381  1
