# generated using pymatgen
data_K2Hg3S4
_symmetry_space_group_name_H-M   'P 1'
_cell_length_a   6.63257560
_cell_length_b   10.66202014
_cell_length_c   13.74525221
_cell_angle_alpha   90.00000000
_cell_angle_beta   90.00000000
_cell_angle_gamma   90.00000000
_symmetry_Int_Tables_number   1
_chemical_formula_structural   K2Hg3S4
_chemical_formula_sum   'K8 Hg12 S16'
_cell_volume   972.01825330
_cell_formula_units_Z   4
loop_
 _symmetry_equiv_pos_site_id
 _symmetry_equiv_pos_as_xyz
  1  'x, y, z'
loop_
 _atom_site_type_symbol
 _atom_site_label
 _atom_site_symmetry_multiplicity
 _atom_site_fract_x
 _atom_site_fract_y
 _atom_site_fract_z
 _atom_site_occupancy
  K  K0  1  0.73552940  0.88017652  0.50138004  1
  K  K1  1  0.26447060  0.11982348  0.49861996  1
  K  K2  1  0.76447060  0.61982348  0.00138004  1
  K  K3  1  0.73552940  0.11982348  0.99861996  1
  K  K4  1  0.23552940  0.38017652  0.99861996  1
  K  K5  1  0.26447060  0.88017652  0.00138004  1
  K  K6  1  0.76447060  0.38017652  0.49861996  1
  K  K7  1  0.23552940  0.61982348  0.50138004  1
  Hg  Hg8  1  0.58734510  0.50000000  0.75000000  1
  Hg  Hg9  1  0.41265490  0.50000000  0.25000000  1
  Hg  Hg10  1  0.91265490  -0.00000000  0.25000000  1
  Hg  Hg11  1  0.08734510  -0.00000000  0.75000000  1
  Hg  Hg12  1  0.58891486  0.84474823  0.75847810  1
  Hg  Hg13  1  0.41108514  0.15525177  0.24152190  1
  Hg  Hg14  1  0.91108514  0.65525177  0.25847810  1
  Hg  Hg15  1  0.58891486  0.15525177  0.74152190  1
  Hg  Hg16  1  0.08891486  0.34474823  0.74152190  1
  Hg  Hg17  1  0.41108514  0.84474823  0.25847810  1
  Hg  Hg18  1  0.91108514  0.34474823  0.24152190  1
  Hg  Hg19  1  0.08891486  0.65525177  0.75847810  1
  S  S20  1  0.82935118  0.63293737  0.64001080  1
  S  S21  1  0.17064882  0.36706263  0.35998920  1
  S  S22  1  0.67064882  0.86706263  0.14001080  1
  S  S23  1  0.82935118  0.36706263  0.85998920  1
  S  S24  1  0.32935118  0.13293737  0.85998920  1
  S  S25  1  0.17064882  0.63293737  0.14001080  1
  S  S26  1  0.67064882  0.13293737  0.35998920  1
  S  S27  1  0.32935118  0.86706263  0.64001080  1
  S  S28  1  0.86340776  0.87114267  0.86889270  1
  S  S29  1  0.13659224  0.12885733  0.13110730  1
  S  S30  1  0.63659224  0.62885733  0.36889270  1
  S  S31  1  0.86340776  0.12885733  0.63110730  1
  S  S32  1  0.36340776  0.37114267  0.63110730  1
  S  S33  1  0.13659224  0.87114267  0.36889270  1
  S  S34  1  0.63659224  0.37114267  0.13110730  1
  S  S35  1  0.36340776  0.62885733  0.86889270  1
