# generated using pymatgen
data_Sm4MgV4O12
_symmetry_space_group_name_H-M   'P 1'
_cell_length_a   5.88975527
_cell_length_b   5.84251975
_cell_length_c   7.82805657
_cell_angle_alpha   91.68448313
_cell_angle_beta   89.14302679
_cell_angle_gamma   96.18568314
_symmetry_Int_Tables_number   1
_chemical_formula_structural   Sm4MgV4O12
_chemical_formula_sum   'Sm4 Mg1 V4 O12'
_cell_volume   267.66847673
_cell_formula_units_Z   1
loop_
 _symmetry_equiv_pos_site_id
 _symmetry_equiv_pos_as_xyz
  1  'x, y, z'
loop_
 _atom_site_type_symbol
 _atom_site_label
 _atom_site_symmetry_multiplicity
 _atom_site_fract_x
 _atom_site_fract_y
 _atom_site_fract_z
 _atom_site_occupancy
  Sm  Sm0  1  0.97882700  0.41553900  0.75244000  1
  Sm  Sm1  1  0.03014100  0.57692200  0.25449400  1
  Sm  Sm2  1  0.53554200  0.05617500  0.23275100  1
  Sm  Sm3  1  0.40746500  0.04130400  0.68710200  1
  Mg  Mg4  1  0.75847000  0.83887400  0.78605300  1
  V  V5  1  0.99034800  0.01801800  0.48742800  1
  V  V6  1  0.51707900  0.53049300  0.49257600  1
  V  V7  1  0.03921300  0.99752800  0.01923600  1
  V  V8  1  0.49156400  0.51827800  0.00559100  1
  O  O9  1  0.31843700  0.82659200  0.44038700  1
  O  O10  1  0.70162100  0.22604600  0.53841500  1
  O  O11  1  0.82736600  0.69010700  0.55660400  1
  O  O12  1  0.21761200  0.33160900  0.48864500  1
  O  O13  1  0.83899200  0.65059400  0.96651100  1
  O  O14  1  0.19738900  0.33225500  0.03847300  1
  O  O15  1  0.30420500  0.79213600  0.08210500  1
  O  O16  1  0.66987000  0.14372800  0.91768400  1
  O  O17  1  0.88573800  0.94318100  0.24828500  1
  O  O18  1  0.04918600  0.04159400  0.75397000  1
  O  O19  1  0.44509300  0.62955800  0.75587200  1
  O  O20  1  0.60536400  0.46196900  0.24538100  1
