# generated using pymatgen
data_Ba3GeS5
_symmetry_space_group_name_H-M   'P 1'
_cell_length_a   8.70987386
_cell_length_b   9.63072002
_cell_length_c   12.15399268
_cell_angle_alpha   90.00000000
_cell_angle_beta   90.00000000
_cell_angle_gamma   90.00000000
_symmetry_Int_Tables_number   1
_chemical_formula_structural   Ba3GeS5
_chemical_formula_sum   'Ba12 Ge4 S20'
_cell_volume   1019.50554755
_cell_formula_units_Z   4
loop_
 _symmetry_equiv_pos_site_id
 _symmetry_equiv_pos_as_xyz
  1  'x, y, z'
loop_
 _atom_site_type_symbol
 _atom_site_label
 _atom_site_symmetry_multiplicity
 _atom_site_fract_x
 _atom_site_fract_y
 _atom_site_fract_z
 _atom_site_occupancy
  Ba  Ba0  1  0.92301170  0.51848026  0.31782227  1
  Ba  Ba1  1  0.57698830  0.98151974  0.81782227  1
  Ba  Ba2  1  0.07698830  0.01848026  0.68217773  1
  Ba  Ba3  1  0.42301170  0.48151974  0.18217773  1
  Ba  Ba4  1  0.07698830  0.48151974  0.68217773  1
  Ba  Ba5  1  0.42301170  0.01848026  0.18217773  1
  Ba  Ba6  1  0.92301170  0.98151974  0.31782227  1
  Ba  Ba7  1  0.57698830  0.51848026  0.81782227  1
  Ba  Ba8  1  0.38677939  0.75000000  0.48031469  1
  Ba  Ba9  1  0.11322061  0.75000000  0.98031469  1
  Ba  Ba10  1  0.61322061  0.25000000  0.51968531  1
  Ba  Ba11  1  0.88677939  0.25000000  0.01968531  1
  Ge  Ge12  1  0.69442989  0.75000000  0.09930538  1
  Ge  Ge13  1  0.80557011  0.75000000  0.59930538  1
  Ge  Ge14  1  0.30557011  0.25000000  0.90069462  1
  Ge  Ge15  1  0.19442989  0.25000000  0.40069462  1
  S  S16  1  0.81955585  0.56095218  0.05633599  1
  S  S17  1  0.68044415  0.93904782  0.55633599  1
  S  S18  1  0.18044415  0.06095218  0.94366401  1
  S  S19  1  0.31955585  0.43904782  0.44366401  1
  S  S20  1  0.18044415  0.43904782  0.94366401  1
  S  S21  1  0.31955585  0.06095218  0.44366401  1
  S  S22  1  0.81955585  0.93904782  0.05633599  1
  S  S23  1  0.68044415  0.56095218  0.55633599  1
  S  S24  1  0.48201973  0.75000000  0.00251176  1
  S  S25  1  0.01798027  0.75000000  0.50251176  1
  S  S26  1  0.51798027  0.25000000  0.99748824  1
  S  S27  1  0.98201973  0.25000000  0.49748824  1
  S  S28  1  0.65043222  0.75000000  0.27929152  1
  S  S29  1  0.84956778  0.75000000  0.77929152  1
  S  S30  1  0.34956778  0.25000000  0.72070848  1
  S  S31  1  0.15043222  0.25000000  0.22070848  1
  S  S32  1  0.18148439  0.75000000  0.23460298  1
  S  S33  1  0.31851561  0.75000000  0.73460298  1
  S  S34  1  0.81851561  0.25000000  0.76539702  1
  S  S35  1  0.68148439  0.25000000  0.26539702  1
