# generated using pymatgen
data_SiBr3
_symmetry_space_group_name_H-M   'P 1'
_cell_length_a   6.77340475
_cell_length_b   6.77340475
_cell_length_c   7.64840912
_cell_angle_alpha   80.99861237
_cell_angle_beta   80.99861237
_cell_angle_gamma   119.59727117
_symmetry_Int_Tables_number   1
_chemical_formula_structural   SiBr3
_chemical_formula_sum   'Si2 Br6'
_cell_volume   289.98205758
_cell_formula_units_Z   2
loop_
 _symmetry_equiv_pos_site_id
 _symmetry_equiv_pos_as_xyz
  1  'x, y, z'
loop_
 _atom_site_type_symbol
 _atom_site_label
 _atom_site_symmetry_multiplicity
 _atom_site_fract_x
 _atom_site_fract_y
 _atom_site_fract_z
 _atom_site_occupancy
  Si  Si0  1  0.45277198  0.45277198  0.66016941  1
  Si  Si1  1  0.54722802  0.54722802  0.33983059  1
  Br  Br2  1  0.73591765  0.73591765  0.74187926  1
  Br  Br3  1  0.26408235  0.26408235  0.25812074  1
  Br  Br4  1  0.11436722  0.42351790  0.76423136  1
  Br  Br5  1  0.42351790  0.11436722  0.76423136  1
  Br  Br6  1  0.88563278  0.57648210  0.23576864  1
  Br  Br7  1  0.57648210  0.88563278  0.23576864  1
