# generated using pymatgen
data_W2SeS3
_symmetry_space_group_name_H-M   'P 1'
_cell_length_a   3.21513594
_cell_length_b   3.21513595
_cell_length_c   35.20713084
_cell_angle_alpha   89.99988508
_cell_angle_beta   90.00006144
_cell_angle_gamma   119.99997694
_symmetry_Int_Tables_number   1
_chemical_formula_structural   W2SeS3
_chemical_formula_sum   'W4 Se2 S6'
_cell_volume   315.18101492
_cell_formula_units_Z   2
loop_
 _symmetry_equiv_pos_site_id
 _symmetry_equiv_pos_as_xyz
  1  'x, y, z'
loop_
 _atom_site_type_symbol
 _atom_site_label
 _atom_site_symmetry_multiplicity
 _atom_site_fract_x
 _atom_site_fract_y
 _atom_site_fract_z
 _atom_site_occupancy
  W  W0  1  0.33332784  0.66667149  0.09382640  1
  W  W1  1  0.33333796  0.66666262  0.46976240  1
  W  W2  1  0.66666752  0.33333447  0.27997443  1
  W  W3  1  0.66666535  0.33333229  0.65935033  1
  Se  Se4  1  0.66667392  0.33332897  0.42147430  1
  Se  Se5  1  0.66667389  0.33332536  0.51808154  1
  S  S6  1  0.33333446  0.66666720  0.32397054  1
  S  S7  1  0.33333211  0.66666448  0.70332508  1
  S  S8  1  0.66666034  0.33334013  0.04984140  1
  S  S9  1  0.66666029  0.33333820  0.13782877  1
  S  S10  1  0.33333439  0.66666841  0.23596648  1
  S  S11  1  0.33333194  0.66666636  0.61534733  1
