# generated using pymatgen
data_HfMg14BO15
_symmetry_space_group_name_H-M   'P 1'
_cell_length_a   8.47949947
_cell_length_b   8.91561784
_cell_length_c   4.33302795
_cell_angle_alpha   90.00000000
_cell_angle_beta   90.00000000
_cell_angle_gamma   90.00000000
_symmetry_Int_Tables_number   1
_chemical_formula_structural   HfMg14BO15
_chemical_formula_sum   'Hf1 Mg14 B1 O15'
_cell_volume   327.57681227
_cell_formula_units_Z   1
loop_
 _symmetry_equiv_pos_site_id
 _symmetry_equiv_pos_as_xyz
  1  'x, y, z'
loop_
 _atom_site_type_symbol
 _atom_site_label
 _atom_site_symmetry_multiplicity
 _atom_site_fract_x
 _atom_site_fract_y
 _atom_site_fract_z
 _atom_site_occupancy
  Hf  Hf0  1  0.01968054  0.50000000  -0.00000000  1
  Mg  Mg1  1  0.50731885  -0.00000000  -0.00000000  1
  Mg  Mg2  1  0.49152665  0.50000000  -0.00000000  1
  Mg  Mg3  1  0.00026308  0.23018793  0.50000000  1
  Mg  Mg4  1  0.00026308  0.76981207  0.50000000  1
  Mg  Mg5  1  0.49915372  0.24498235  0.50000000  1
  Mg  Mg6  1  0.49915372  0.75501765  0.50000000  1
  Mg  Mg7  1  0.24004078  -0.00000000  0.50000000  1
  Mg  Mg8  1  0.25517340  0.50000000  0.50000000  1
  Mg  Mg9  1  0.75451985  -0.00000000  0.50000000  1
  Mg  Mg10  1  0.74632334  0.50000000  0.50000000  1
  Mg  Mg11  1  0.24862200  0.22366104  -0.00000000  1
  Mg  Mg12  1  0.24862200  0.77633896  -0.00000000  1
  Mg  Mg13  1  0.74899007  0.26363988  -0.00000000  1
  Mg  Mg14  1  0.74899007  0.73636012  0.00000000  1
  B  B15  1  -0.06425391  -0.00000000  -0.00000000  1
  O  O16  1  0.27935103  -0.00000000  -0.00000000  1
  O  O17  1  0.76825654  -0.00000000  -0.00000000  1
  O  O18  1  0.74412685  0.50000000  -0.00000000  1
  O  O19  1  0.24913931  0.23643271  0.50000000  1
  O  O20  1  0.24913931  0.76356729  0.50000000  1
  O  O21  1  0.75157558  0.25250725  0.50000000  1
  O  O22  1  0.75157558  0.74749275  0.50000000  1
  O  O23  1  0.98760285  -0.00000000  0.50000000  1
  O  O24  1  0.00145963  0.50000000  0.50000000  1
  O  O25  1  0.51757798  -0.00000000  0.50000000  1
  O  O26  1  0.49935481  0.50000000  0.50000000  1
  O  O27  1  0.99665998  0.27398164  -0.00000000  1
  O  O28  1  0.99665998  0.72601836  -0.00000000  1
  O  O29  1  0.50656665  0.24843571  -0.00000000  1
  O  O30  1  0.50656665  0.75156429  -0.00000000  1
