# generated using pymatgen
data_Rb5GeP3
_symmetry_space_group_name_H-M   'P 1'
_cell_length_a   5.45357780
_cell_length_b   14.94516689
_cell_length_c   15.21204384
_cell_angle_alpha   90.00000000
_cell_angle_beta   90.00000000
_cell_angle_gamma   90.00000000
_symmetry_Int_Tables_number   1
_chemical_formula_structural   Rb5GeP3
_chemical_formula_sum   'Rb20 Ge4 P12'
_cell_volume   1239.85201033
_cell_formula_units_Z   4
loop_
 _symmetry_equiv_pos_site_id
 _symmetry_equiv_pos_as_xyz
  1  'x, y, z'
loop_
 _atom_site_type_symbol
 _atom_site_label
 _atom_site_symmetry_multiplicity
 _atom_site_fract_x
 _atom_site_fract_y
 _atom_site_fract_z
 _atom_site_occupancy
  Rb  Rb0  1  0.25000000  0.37185213  0.02702738  1
  Rb  Rb1  1  0.75000000  0.62814787  0.97297262  1
  Rb  Rb2  1  0.25000000  0.12814787  0.52702738  1
  Rb  Rb3  1  0.75000000  0.87185213  0.47297262  1
  Rb  Rb4  1  0.75000000  0.72861631  0.22742979  1
  Rb  Rb5  1  0.25000000  0.27138369  0.77257021  1
  Rb  Rb6  1  0.75000000  0.77138369  0.72742979  1
  Rb  Rb7  1  0.25000000  0.22861631  0.27257021  1
  Rb  Rb8  1  0.75000000  0.05492971  0.68612299  1
  Rb  Rb9  1  0.25000000  0.94507029  0.31387701  1
  Rb  Rb10  1  0.75000000  0.44507029  0.18612299  1
  Rb  Rb11  1  0.25000000  0.55492971  0.81387701  1
  Rb  Rb12  1  0.75000000  0.17939419  0.91012569  1
  Rb  Rb13  1  0.25000000  0.82060581  0.08987431  1
  Rb  Rb14  1  0.75000000  0.32060581  0.41012569  1
  Rb  Rb15  1  0.25000000  0.67939419  0.58987431  1
  Rb  Rb16  1  0.75000000  0.92703328  0.93169800  1
  Rb  Rb17  1  0.25000000  0.07296672  0.06830200  1
  Rb  Rb18  1  0.75000000  0.57296672  0.43169800  1
  Rb  Rb19  1  0.25000000  0.42703328  0.56830200  1
  Ge  Ge20  1  0.75000000  0.08410944  0.22403998  1
  Ge  Ge21  1  0.25000000  0.91589056  0.77596002  1
  Ge  Ge22  1  0.75000000  0.41589056  0.72403998  1
  Ge  Ge23  1  0.25000000  0.58410944  0.27596002  1
  P  P24  1  0.75000000  0.20909340  0.13803886  1
  P  P25  1  0.25000000  0.79090660  0.86196114  1
  P  P26  1  0.75000000  0.29090660  0.63803886  1
  P  P27  1  0.25000000  0.70909340  0.36196114  1
  P  P28  1  0.75000000  0.94737471  0.16047336  1
  P  P29  1  0.25000000  0.05262529  0.83952664  1
  P  P30  1  0.75000000  0.55262529  0.66047336  1
  P  P31  1  0.25000000  0.44737471  0.33952664  1
  P  P32  1  0.75000000  0.09304934  0.37337514  1
  P  P33  1  0.25000000  0.90695066  0.62662486  1
  P  P34  1  0.75000000  0.40695066  0.87337514  1
  P  P35  1  0.25000000  0.59304934  0.12662486  1
