# generated using pymatgen
data_Na3WN3
_symmetry_space_group_name_H-M   'P 1'
_cell_length_a   8.76942691
_cell_length_b   8.76942691
_cell_length_c   6.36489057
_cell_angle_alpha   69.16148602
_cell_angle_beta   69.16148602
_cell_angle_gamma   77.45242311
_symmetry_Int_Tables_number   1
_chemical_formula_structural   Na3WN3
_chemical_formula_sum   'Na12 W4 N12'
_cell_volume   425.22450666
_cell_formula_units_Z   4
loop_
 _symmetry_equiv_pos_site_id
 _symmetry_equiv_pos_as_xyz
  1  'x, y, z'
loop_
 _atom_site_type_symbol
 _atom_site_label
 _atom_site_symmetry_multiplicity
 _atom_site_fract_x
 _atom_site_fract_y
 _atom_site_fract_z
 _atom_site_occupancy
  Na  Na0  1  0.08001446  0.14966635  0.39398388  1
  Na  Na1  1  0.14966635  0.08001446  0.89398388  1
  Na  Na2  1  0.88417399  0.84201310  0.86687361  1
  Na  Na3  1  0.84201310  0.88417399  0.36687361  1
  Na  Na4  1  0.64146618  0.60620688  0.68959119  1
  Na  Na5  1  0.60620688  0.64146618  0.18959119  1
  Na  Na6  1  0.39581396  0.36727726  0.92490754  1
  Na  Na7  1  0.36727726  0.39581396  0.42490754  1
  Na  Na8  1  0.70449326  0.28125494  0.46784738  1
  Na  Na9  1  0.28125494  0.70449326  0.96784738  1
  Na  Na10  1  0.46861741  0.99545277  0.47035579  1
  Na  Na11  1  0.99545277  0.46861741  0.97035579  1
  W  W12  1  0.50979134  0.99197644  0.92438459  1
  W  W13  1  0.99197644  0.50979134  0.42438459  1
  W  W14  1  0.23642882  0.76092156  0.49278825  1
  W  W15  1  0.76092156  0.23642882  0.99278825  1
  N  N16  1  0.64951486  0.04834734  0.05575919  1
  N  N17  1  0.04834734  0.64951486  0.55575919  1
  N  N18  1  0.88210774  0.32443488  0.66515113  1
  N  N19  1  0.32443488  0.88210774  0.16515113  1
  N  N20  1  0.63371076  0.85394948  0.75642036  1
  N  N21  1  0.85394948  0.63371076  0.25642036  1
  N  N22  1  0.16971953  0.90335483  0.66706307  1
  N  N23  1  0.90335483  0.16971953  0.16706307  1
  N  N24  1  0.39853813  0.61238560  0.58795387  1
  N  N25  1  0.61238560  0.39853813  0.08795387  1
  N  N26  1  0.42826103  0.17016611  0.72512115  1
  N  N27  1  0.17016611  0.42826103  0.22512115  1
