# generated using pymatgen
data_Sm3Si6N11
_symmetry_space_group_name_H-M   'P 1'
_cell_length_a   10.00990917
_cell_length_b   10.00990917
_cell_length_c   4.85467583
_cell_angle_alpha   90.00000000
_cell_angle_beta   90.00000000
_cell_angle_gamma   90.00000000
_symmetry_Int_Tables_number   1
_chemical_formula_structural   Sm3Si6N11
_chemical_formula_sum   'Sm6 Si12 N22'
_cell_volume   486.43017585
_cell_formula_units_Z   2
loop_
 _symmetry_equiv_pos_site_id
 _symmetry_equiv_pos_as_xyz
  1  'x, y, z'
loop_
 _atom_site_type_symbol
 _atom_site_label
 _atom_site_symmetry_multiplicity
 _atom_site_fract_x
 _atom_site_fract_y
 _atom_site_fract_z
 _atom_site_occupancy
  Sm  Sm0  1  0.50000000  0.50000000  0.98313770  1
  Sm  Sm1  1  0.00000000  0.00000000  0.98313770  1
  Sm  Sm2  1  0.81784446  0.31784446  0.99818989  1
  Sm  Sm3  1  0.31784446  0.18215554  0.99818989  1
  Sm  Sm4  1  0.68215554  0.81784446  0.99818989  1
  Sm  Sm5  1  0.18215554  0.68215554  0.99818989  1
  Si  Si6  1  0.38195250  0.88195250  0.04339066  1
  Si  Si7  1  0.88195250  0.61804750  0.04339066  1
  Si  Si8  1  0.11804750  0.38195250  0.04339066  1
  Si  Si9  1  0.61804750  0.11804750  0.04339066  1
  Si  Si10  1  0.70874807  0.57933495  0.53243888  1
  Si  Si11  1  0.29125193  0.42066505  0.53243888  1
  Si  Si12  1  0.42066505  0.70874807  0.53243888  1
  Si  Si13  1  0.57933495  0.29125193  0.53243888  1
  Si  Si14  1  0.92066505  0.79125193  0.53243888  1
  Si  Si15  1  0.79125193  0.07933495  0.53243888  1
  Si  Si16  1  0.20874807  0.92066505  0.53243888  1
  Si  Si17  1  0.07933495  0.20874807  0.53243888  1
  N  N18  1  0.50000000  0.00000000  0.07292122  1
  N  N19  1  0.00000000  0.50000000  0.07292122  1
  N  N20  1  0.34694673  0.84694673  0.69649957  1
  N  N21  1  0.84694673  0.65305327  0.69649957  1
  N  N22  1  0.15305327  0.34694673  0.69649957  1
  N  N23  1  0.65305327  0.15305327  0.69649957  1
  N  N24  1  0.72728290  0.57722227  0.17893665  1
  N  N25  1  0.27271710  0.42277773  0.17893665  1
  N  N26  1  0.42277773  0.72728290  0.17893665  1
  N  N27  1  0.57722227  0.27271710  0.17893665  1
  N  N28  1  0.92277773  0.77271710  0.17893665  1
  N  N29  1  0.77271710  0.07722227  0.17893665  1
  N  N30  1  0.22728290  0.92277773  0.17893665  1
  N  N31  1  0.07722227  0.22728290  0.17893665  1
  N  N32  1  0.57950325  0.68018996  0.64770542  1
  N  N33  1  0.42049675  0.31981004  0.64770542  1
  N  N34  1  0.31981004  0.57950325  0.64770542  1
  N  N35  1  0.68018996  0.42049675  0.64770542  1
  N  N36  1  0.18018996  0.07950325  0.64770542  1
  N  N37  1  0.07950325  0.81981004  0.64770542  1
  N  N38  1  0.92049675  0.18018996  0.64770542  1
  N  N39  1  0.81981004  0.92049675  0.64770542  1
