# generated using pymatgen
data_NaAu(IO3)4
_symmetry_space_group_name_H-M   'P 1'
_cell_length_a   10.98972139
_cell_length_b   4.40341884
_cell_length_c   12.36262292
_cell_angle_alpha   90.00000000
_cell_angle_beta   116.24067406
_cell_angle_gamma   90.00000000
_symmetry_Int_Tables_number   1
_chemical_formula_structural   NaAu(IO3)4
_chemical_formula_sum   'Na2 Au2 I8 O24'
_cell_volume   536.60285517
_cell_formula_units_Z   2
loop_
 _symmetry_equiv_pos_site_id
 _symmetry_equiv_pos_as_xyz
  1  'x, y, z'
loop_
 _atom_site_type_symbol
 _atom_site_label
 _atom_site_symmetry_multiplicity
 _atom_site_fract_x
 _atom_site_fract_y
 _atom_site_fract_z
 _atom_site_occupancy
  Na  Na0  1  0.50000000  -0.00000000  0.50000000  1
  Na  Na1  1  0.50000000  0.50000000  0.00000000  1
  Au  Au2  1  -0.00000000  -0.00000000  0.00000000  1
  Au  Au3  1  -0.00000000  0.50000000  0.50000000  1
  I  I4  1  0.34217135  0.53684216  0.67915412  1
  I  I5  1  0.65782865  0.03684216  0.82084588  1
  I  I6  1  0.65782865  0.46315784  0.32084588  1
  I  I7  1  0.34217135  0.96315784  0.17915412  1
  I  I8  1  0.17961408  0.97737209  0.84585038  1
  I  I9  1  0.82038592  0.47737209  0.65414962  1
  I  I10  1  0.82038592  0.02262791  0.15414962  1
  I  I11  1  0.17961408  0.52262791  0.34585038  1
  O  O12  1  0.17761494  0.72315774  0.56867025  1
  O  O13  1  0.82238506  0.22315774  0.93132975  1
  O  O14  1  0.82238506  0.27684226  0.43132975  1
  O  O15  1  0.17761494  0.77684226  0.06867025  1
  O  O16  1  0.35185821  0.72498651  0.81404070  1
  O  O17  1  0.64814179  0.22498651  0.68595930  1
  O  O18  1  0.64814179  0.27501349  0.18595930  1
  O  O19  1  0.35185821  0.77501349  0.31404070  1
  O  O20  1  0.44431880  0.82146996  0.65297454  1
  O  O21  1  0.55568120  0.32146996  0.84702546  1
  O  O22  1  0.55568120  0.17853004  0.34702546  1
  O  O23  1  0.44431880  0.67853004  0.15297454  1
  O  O24  1  0.16109035  0.23448265  0.72787092  1
  O  O25  1  0.83890965  0.73448265  0.77212908  1
  O  O26  1  0.83890965  0.76551735  0.27212908  1
  O  O27  1  0.16109035  0.26551735  0.22787092  1
  O  O28  1  0.32525790  0.13593936  0.97134433  1
  O  O29  1  0.67474210  0.63593936  0.52865567  1
  O  O30  1  0.67474210  0.86406064  0.02865567  1
  O  O31  1  0.32525790  0.36406064  0.47134433  1
  O  O32  1  0.04950136  0.19904576  0.87868466  1
  O  O33  1  0.95049864  0.69904576  0.62131534  1
  O  O34  1  0.95049864  0.80095424  0.12131534  1
  O  O35  1  0.04950136  0.30095424  0.37868466  1
