# generated using pymatgen
data_Tl2Sn(GeO3)3
_symmetry_space_group_name_H-M   'P 1'
_cell_length_a   10.77717948
_cell_length_b   12.35725300
_cell_length_c   12.35684483
_cell_angle_alpha   119.99890846
_cell_angle_beta   90.00000001
_cell_angle_gamma   89.99991010
_symmetry_Int_Tables_number   1
_chemical_formula_structural   Tl2Sn(GeO3)3
_chemical_formula_sum   'Tl12 Sn6 Ge18 O54'
_cell_volume   1425.18110352
_cell_formula_units_Z   6
loop_
 _symmetry_equiv_pos_site_id
 _symmetry_equiv_pos_as_xyz
  1  'x, y, z'
loop_
 _atom_site_type_symbol
 _atom_site_label
 _atom_site_symmetry_multiplicity
 _atom_site_fract_x
 _atom_site_fract_y
 _atom_site_fract_z
 _atom_site_occupancy
  Tl  Tl0  1  0.97642158  0.36169412  0.00074228  1
  Tl  Tl1  1  0.97640982  0.99925721  0.36095284  1
  Tl  Tl2  1  0.97640829  0.63904610  0.63831048  1
  Tl  Tl3  1  0.47642158  0.36169412  0.36095183  1
  Tl  Tl4  1  0.47640829  0.63904610  0.00073562  1
  Tl  Tl5  1  0.47640982  0.99925721  0.63830437  1
  Tl  Tl6  1  0.02357842  0.63830588  0.99925772  1
  Tl  Tl7  1  0.02359018  0.00074279  0.63904716  1
  Tl  Tl8  1  0.02359171  0.36095390  0.36168952  1
  Tl  Tl9  1  0.52357842  0.63830588  0.63904817  1
  Tl  Tl10  1  0.52359171  0.36095390  0.99926438  1
  Tl  Tl11  1  0.52359018  0.00074279  0.36169563  1
  Sn  Sn12  1  0.50000000  -0.00000000  -0.00000000  1
  Sn  Sn13  1  0.00000000  -0.00000000  -0.00000000  1
  Sn  Sn14  1  0.99419110  0.33332956  0.66666699  1
  Sn  Sn15  1  0.49419110  0.33332956  0.66666258  1
  Sn  Sn16  1  0.00580890  0.66667044  0.33333301  1
  Sn  Sn17  1  0.50580890  0.66667044  0.33333742  1
  Ge  Ge18  1  0.75000726  0.17722437  -0.00000353  1
  Ge  Ge19  1  0.75000000  1.00000000  0.17721717  1
  Ge  Ge20  1  0.74999274  0.82277563  0.82277211  1
  Ge  Ge21  1  0.25000726  0.17722437  0.17722789  1
  Ge  Ge22  1  0.24999274  0.82277563  0.00000353  1
  Ge  Ge23  1  0.25000000  0.00000000  0.82278283  1
  Ge  Ge24  1  0.26066209  0.83460854  0.28281115  1
  Ge  Ge25  1  0.26065807  0.71720093  0.55180138  1
  Ge  Ge26  1  0.26066358  0.44820688  0.16540224  1
  Ge  Ge27  1  0.76066209  0.83460854  0.55179739  1
  Ge  Ge28  1  0.76066358  0.44820688  0.28280464  1
  Ge  Ge29  1  0.76065807  0.71720093  0.16539955  1
  Ge  Ge30  1  0.73933791  0.16539146  0.71718885  1
  Ge  Ge31  1  0.73934193  0.28279907  0.44819862  1
  Ge  Ge32  1  0.73933642  0.55179312  0.83459776  1
  Ge  Ge33  1  0.23933791  0.16539146  0.44820261  1
  Ge  Ge34  1  0.23933642  0.55179312  0.71719536  1
  Ge  Ge35  1  0.23934193  0.28279907  0.83460045  1
  O  O36  1  0.74998611  0.62160022  -0.00000168  1
  O  O37  1  0.75000000  1.00000000  0.62157589  1
  O  O38  1  0.75001389  0.37839978  0.37839809  1
  O  O39  1  0.24998611  0.62160022  0.62160191  1
  O  O40  1  0.25001389  0.37839978  0.00000168  1
  O  O41  1  0.25000000  0.00000000  0.37842411  1
  O  O42  1  0.30263498  0.79784555  0.12717161  1
  O  O43  1  0.30263113  0.87283310  0.67067616  1
  O  O44  1  0.30262254  0.32933628  0.20217584  1
  O  O45  1  0.80263498  0.79784555  0.67067394  1
  O  O46  1  0.80262254  0.32933628  0.12716043  1
  O  O47  1  0.80263113  0.87283310  0.20215694  1
  O  O48  1  0.69736502  0.20215445  0.87282839  1
  O  O49  1  0.69736887  0.12716690  0.32932384  1
  O  O50  1  0.69737746  0.67066372  0.79782416  1
  O  O51  1  0.19736502  0.20215445  0.32932606  1
  O  O52  1  0.19737746  0.67066372  0.87283957  1
  O  O53  1  0.19736887  0.12716690  0.79784306  1
  O  O54  1  0.38331529  0.08753396  0.15552383  1
  O  O55  1  0.38330664  0.84449520  0.93201401  1
  O  O56  1  0.38330381  0.06799194  0.91248435  1
  O  O57  1  0.88331529  0.08753396  0.93201012  1
  O  O58  1  0.88330381  0.06799194  0.15550759  1
  O  O59  1  0.88330664  0.84449520  0.91248118  1
  O  O60  1  0.61668471  0.91246604  0.84447617  1
  O  O61  1  0.61669336  0.15550480  0.06798599  1
  O  O62  1  0.61669619  0.93200806  0.08751565  1
  O  O63  1  0.11668471  0.91246604  0.06798988  1
  O  O64  1  0.11669619  0.93200806  0.84449241  1
  O  O65  1  0.11669336  0.15550480  0.08751882  1
  O  O66  1  0.11250040  0.77297819  0.27863142  1
  O  O67  1  0.11249623  0.72137436  0.49435041  1
  O  O68  1  0.11249672  0.50565527  0.22702364  1
  O  O69  1  0.61250040  0.77297819  0.49434677  1
  O  O70  1  0.61249672  0.50565527  0.27863163  1
  O  O71  1  0.61249623  0.72137436  0.22702395  1
  O  O72  1  0.88749960  0.22702181  0.72136858  1
  O  O73  1  0.88750377  0.27862564  0.50564959  1
  O  O74  1  0.88750328  0.49434473  0.77297636  1
  O  O75  1  0.38749960  0.22702181  0.50565323  1
  O  O76  1  0.38750328  0.49434473  0.72136837  1
  O  O77  1  0.38750377  0.27862564  0.77297605  1
  O  O78  1  0.38660433  0.81056240  0.35955974  1
  O  O79  1  0.38659829  0.64045220  0.45101427  1
  O  O80  1  0.38660330  0.54899351  0.18944457  1
  O  O81  1  0.88660433  0.81056240  0.45100266  1
  O  O82  1  0.88660330  0.54899351  0.35954894  1
  O  O83  1  0.88659829  0.64045220  0.18943794  1
  O  O84  1  0.61339567  0.18943760  0.64044026  1
  O  O85  1  0.61340171  0.35954780  0.54898573  1
  O  O86  1  0.61339670  0.45100649  0.81055543  1
  O  O87  1  0.11339567  0.18943760  0.54899734  1
  O  O88  1  0.11339670  0.45100649  0.64045106  1
  O  O89  1  0.11340171  0.35954780  0.81056206  1
