# generated using pymatgen
data_MgFe3Ni2Sb(PO4)6
_symmetry_space_group_name_H-M   'P 1'
_cell_length_a   8.60351856
_cell_length_b   8.48446446
_cell_length_c   8.61733181
_cell_angle_alpha   61.91740582
_cell_angle_beta   61.30288914
_cell_angle_gamma   61.91113190
_symmetry_Int_Tables_number   1
_chemical_formula_structural   MgFe3Ni2Sb(PO4)6
_chemical_formula_sum   'Mg1 Fe3 Ni2 Sb1 P6 O24'
_cell_volume   461.81306953
_cell_formula_units_Z   1
loop_
 _symmetry_equiv_pos_site_id
 _symmetry_equiv_pos_as_xyz
  1  'x, y, z'
loop_
 _atom_site_type_symbol
 _atom_site_label
 _atom_site_symmetry_multiplicity
 _atom_site_fract_x
 _atom_site_fract_y
 _atom_site_fract_z
 _atom_site_occupancy
  Mg  Mg0  1  0.61710600  0.27138300  0.85540900  1
  Fe  Fe1  1  0.14123400  0.14482800  0.15226400  1
  Fe  Fe2  1  0.35567900  0.35371200  0.36108500  1
  Fe  Fe3  1  0.64656200  0.65323000  0.63416500  1
  Ni  Ni4  1  0.01656000  0.99481900  0.01048600  1
  Ni  Ni5  1  0.49342400  0.50990100  0.48608500  1
  Sb  Sb6  1  0.85742100  0.84855500  0.85339400  1
  P  P7  1  0.05154700  0.74604400  0.44750800  1
  P  P8  1  0.45052100  0.05933900  0.75172100  1
  P  P9  1  0.74607400  0.43102700  0.04887200  1
  P  P10  1  0.23856100  0.54204300  0.96465400  1
  P  P11  1  0.54257800  0.95370100  0.25724900  1
  P  P12  1  0.95469000  0.25126500  0.54472700  1
  O  O13  1  0.10369800  0.30544700  0.53062800  1
  O  O14  1  0.29585600  0.52502700  0.11234200  1
  O  O15  1  0.06879200  0.90779400  0.25559400  1
  O  O16  1  0.53836100  0.09850000  0.31489600  1
  O  O17  1  0.99637200  0.83373200  0.60248100  1
  O  O18  1  0.24524700  0.60081400  0.44448400  1
  O  O19  1  0.26125700  0.06485000  0.91551300  1
  O  O20  1  0.44059100  0.25192300  0.60144900  1
  O  O21  1  0.14317500  0.40312200  0.01911200  1
  O  O22  1  0.60150600  0.44709000  0.23812000  1
  O  O23  1  0.09156700  0.75309700  0.91929600  1
  O  O24  1  0.39487600  0.03319700  0.16573400  1
  O  O25  1  0.60977500  0.03925100  0.81972100  1
  O  O26  1  0.91243200  0.24499500  0.06764900  1
  O  O27  1  0.40756900  0.52220900  0.77933800  1
  O  O28  1  0.81470800  0.60994300  0.95031900  1
  O  O29  1  0.54410800  0.75874100  0.40379600  1
  O  O30  1  0.74710500  0.92849100  0.08733900  1
  O  O31  1  0.74970200  0.39309100  0.57381300  1
  O  O32  1  0.99981900  0.17543600  0.39595900  1
  O  O33  1  0.51358900  0.88990600  0.69789200  1
  O  O34  1  0.91532400  0.09429000  0.75825400  1
  O  O35  1  0.67520800  0.43580400  0.91335100  1
  O  O36  1  0.90334400  0.67340600  0.48717600  1
