# generated using pymatgen
data_C
_symmetry_space_group_name_H-M   'P 1'
_cell_length_a   2.49959613
_cell_length_b   4.23042255
_cell_length_c   4.84538105
_cell_angle_alpha   115.88344698
_cell_angle_beta   90.00000000
_cell_angle_gamma   90.00000000
_symmetry_Int_Tables_number   1
_chemical_formula_structural   C
_chemical_formula_sum   C8
_cell_volume   46.09687601
_cell_formula_units_Z   8
loop_
 _symmetry_equiv_pos_site_id
 _symmetry_equiv_pos_as_xyz
  1  'x, y, z'
loop_
 _atom_site_type_symbol
 _atom_site_label
 _atom_site_symmetry_multiplicity
 _atom_site_fract_x
 _atom_site_fract_y
 _atom_site_fract_z
 _atom_site_occupancy
  C  C0  1  0.00000000  0.98139075  0.33317563  1
  C  C1  1  -0.00000000  0.01860925  0.66682437  1
  C  C2  1  -0.00000000  0.35178487  0.33317563  1
  C  C3  1  -0.00000000  0.64821513  0.66682437  1
  C  C4  1  0.50000000  0.22637499  0.82164590  1
  C  C5  1  0.50000000  0.77362501  0.17835410  1
  C  C6  1  0.50000000  0.59527091  0.82164590  1
  C  C7  1  0.50000000  0.40472909  0.17835410  1
