# generated using pymatgen
data_Nb9PO25
_symmetry_space_group_name_H-M   'P 1'
_cell_length_a   11.33461543
_cell_length_b   11.33461640
_cell_length_c   11.33459523
_cell_angle_alpha   91.66133903
_cell_angle_beta   91.66124240
_cell_angle_gamma   160.39335009
_symmetry_Int_Tables_number   1
_chemical_formula_structural   Nb9PO25
_chemical_formula_sum   'Nb9 P1 O25'
_cell_volume   481.50698422
_cell_formula_units_Z   1
loop_
 _symmetry_equiv_pos_site_id
 _symmetry_equiv_pos_as_xyz
  1  'x, y, z'
loop_
 _atom_site_type_symbol
 _atom_site_label
 _atom_site_symmetry_multiplicity
 _atom_site_fract_x
 _atom_site_fract_y
 _atom_site_fract_z
 _atom_site_occupancy
  Nb  Nb0  1  0.89048124  0.67335037  0.55735869  1
  Nb  Nb1  1  0.11599428  0.33312447  0.44264232  1
  Nb  Nb2  1  0.66687871  0.10951939  0.78287008  1
  Nb  Nb3  1  0.11720129  0.78915308  0.89147929  1
  Nb  Nb4  1  0.77428508  0.88280485  0.67194880  1
  Nb  Nb5  1  0.21085092  0.10233072  0.32804995  1
  Nb  Nb6  1  0.89766996  0.22572173  0.10852059  1
  Nb  Nb7  1  -0.00004873  0.99995204  0.00000040  1
  Nb  Nb8  1  0.32664656  0.88400617  0.21712856  1
  P  P9  1  0.75000291  0.25000293  0.50000235  1
  O  O10  1  0.34622785  0.14516941  0.51014250  1
  O  O11  1  0.16391498  0.65377234  0.79894140  1
  O  O12  1  0.85483012  0.36497240  0.20105862  1
  O  O13  1  0.63502970  0.83608851  0.48985664  1
  O  O14  1  0.48222638  0.96824125  0.38583428  1
  O  O15  1  0.90360980  0.51777278  0.48601677  1
  O  O16  1  0.03175908  0.41759540  0.51398502  1
  O  O17  1  0.58240392  0.09638728  0.61416213  1
  O  O18  1  0.26992179  0.97973260  0.26987839  1
  O  O19  1  -0.00004855  0.73007545  0.70981150  1
  O  O20  1  0.50000434  0.50000550  -0.00000064  1
  O  O21  1  0.62222593  0.25669989  0.86029936  1
  O  O22  1  0.23808220  0.37778365  0.63447307  1
  O  O23  1  0.74330150  0.60360031  0.36552646  1
  O  O24  1  0.39639576  0.76192281  0.13970209  1
  O  O25  1  0.94858831  0.11798631  0.06209034  1
  O  O26  1  0.11351081  0.05142145  0.16939913  1
  O  O27  1  0.88202703  0.94411612  0.83060123  1
  O  O28  1  0.05589627  0.88649853  0.93791130  1
  O  O29  1  0.79763092  0.19409317  0.95465617  1
  O  O30  1  0.15702034  0.20236465  0.39646436  1
  O  O31  1  0.80590532  0.76056030  0.60353506  1
  O  O32  1  0.23944512  0.84298272  0.04534513  1
  O  O33  1  0.70986605  0.00005441  0.73012201  1
  O  O34  1  0.02025880  0.29013602  0.29018768  1
