# generated using pymatgen
data_CaFe6(OF2)4
_symmetry_space_group_name_H-M   'P 1'
_cell_length_a   9.06562277
_cell_length_b   6.08014802
_cell_length_c   6.17063991
_cell_angle_alpha   64.40341779
_cell_angle_beta   64.58649364
_cell_angle_gamma   60.30500032
_symmetry_Int_Tables_number   1
_chemical_formula_structural   CaFe6(OF2)4
_chemical_formula_sum   'Ca1 Fe6 O4 F8'
_cell_volume   256.22019300
_cell_formula_units_Z   1
loop_
 _symmetry_equiv_pos_site_id
 _symmetry_equiv_pos_as_xyz
  1  'x, y, z'
loop_
 _atom_site_type_symbol
 _atom_site_label
 _atom_site_symmetry_multiplicity
 _atom_site_fract_x
 _atom_site_fract_y
 _atom_site_fract_z
 _atom_site_occupancy
  Ca  Ca0  1  0.24641300  0.29297600  0.68308100  1
  Fe  Fe1  1  0.79677400  0.63429400  0.66511400  1
  Fe  Fe2  1  0.68182300  0.36044400  0.29706000  1
  Fe  Fe3  1  0.35546000  0.70585900  0.66578700  1
  Fe  Fe4  1  0.09758400  0.28831000  0.34166600  1
  Fe  Fe5  1  0.53647500  0.98502000  0.10772000  1
  Fe  Fe6  1  0.98402800  0.95816300  0.02192500  1
  O  O7  1  0.33128800  0.05437100  0.40876100  1
  O  O8  1  0.69655100  0.66469200  0.99661700  1
  O  O9  1  0.98176700  0.27903500  0.73466800  1
  O  O10  1  0.96423800  0.67447300  0.32287100  1
  F  F11  1  0.65177300  0.03431500  0.57561100  1
  F  F12  1  0.36449500  0.33483900  0.91705600  1
  F  F13  1  0.24769100  0.88475600  0.95386600  1
  F  F14  1  0.96205600  0.17564100  0.23533700  1
  F  F15  1  0.63996900  0.55945900  0.57534900  1
  F  F16  1  0.07974100  0.73165600  0.79462800  1
  F  F17  1  0.40490600  0.52934600  0.40020400  1
  F  F18  1  0.71863500  0.12318200  0.07351400  1
