# generated using pymatgen
data_Ba2Mg(PO4)2
_symmetry_space_group_name_H-M   'P 1'
_cell_length_a   8.86387453
_cell_length_b   5.32087161
_cell_length_c   17.01262203
_cell_angle_alpha   72.43610205
_cell_angle_beta   90.00000000
_cell_angle_gamma   90.00000000
_symmetry_Int_Tables_number   1
_chemical_formula_structural   Ba2Mg(PO4)2
_chemical_formula_sum   'Ba8 Mg4 P8 O32'
_cell_volume   764.96951206
_cell_formula_units_Z   4
loop_
 _symmetry_equiv_pos_site_id
 _symmetry_equiv_pos_as_xyz
  1  'x, y, z'
loop_
 _atom_site_type_symbol
 _atom_site_label
 _atom_site_symmetry_multiplicity
 _atom_site_fract_x
 _atom_site_fract_y
 _atom_site_fract_z
 _atom_site_occupancy
  Ba  Ba0  1  0.65688182  0.52453234  0.22860326  1
  Ba  Ba1  1  0.15688182  0.47546766  0.27139674  1
  Ba  Ba2  1  0.34311818  0.47546766  0.77139674  1
  Ba  Ba3  1  0.84311818  0.52453234  0.72860326  1
  Ba  Ba4  1  0.20373859  0.68148903  0.51982463  1
  Ba  Ba5  1  0.70373859  0.31851097  0.98017537  1
  Ba  Ba6  1  0.79626141  0.31851097  0.48017537  1
  Ba  Ba7  1  0.29626141  0.68148903  0.01982463  1
  Mg  Mg8  1  0.98537835  0.90689456  0.86647052  1
  Mg  Mg9  1  0.48537835  0.09310544  0.63352948  1
  Mg  Mg10  1  0.51462165  0.90689456  0.36647052  1
  Mg  Mg11  1  0.01462165  0.09310544  0.13352948  1
  P  P12  1  0.41288511  0.31284221  0.42234731  1
  P  P13  1  0.89032711  0.91942003  0.33296504  1
  P  P14  1  0.08711489  0.31284221  0.92234731  1
  P  P15  1  0.58711489  0.68715779  0.57765269  1
  P  P16  1  0.60967289  0.91942003  0.83296504  1
  P  P17  1  0.10967289  0.08057997  0.66703496  1
  P  P18  1  0.39032711  0.08057997  0.16703496  1
  P  P19  1  0.91288511  0.68715779  0.07765269  1
  O  O20  1  0.88978180  0.20806068  0.33430243  1
  O  O21  1  0.38978180  0.79193932  0.16569757  1
  O  O22  1  0.11021820  0.79193932  0.66569757  1
  O  O23  1  0.61021820  0.20806068  0.83430243  1
  O  O24  1  0.72690443  0.81569219  0.33318883  1
  O  O25  1  0.22690443  0.18430781  0.16681117  1
  O  O26  1  0.27309557  0.18430781  0.66681117  1
  O  O27  1  0.77309557  0.81569219  0.83318883  1
  O  O28  1  0.97435735  0.74149268  0.40889780  1
  O  O29  1  0.47435735  0.25850732  0.09110220  1
  O  O30  1  0.02564265  0.25850732  0.59110220  1
  O  O31  1  0.52564265  0.74149268  0.90889780  1
  O  O32  1  0.96966339  0.90073901  0.25420996  1
  O  O33  1  0.46966339  0.09926099  0.24579004  1
  O  O34  1  0.03033661  0.09926099  0.74579004  1
  O  O35  1  0.53033661  0.90073901  0.75420996  1
  O  O36  1  0.86431198  0.40042603  0.12271040  1
  O  O37  1  0.36431198  0.59957397  0.37728960  1
  O  O38  1  0.13568802  0.59957397  0.87728960  1
  O  O39  1  0.63568802  0.40042603  0.62271040  1
  O  O40  1  0.58299643  0.73127383  0.48530782  1
  O  O41  1  0.08299643  0.26872617  0.01469218  1
  O  O42  1  0.41700357  0.26872617  0.51469218  1
  O  O43  1  0.91700357  0.73127383  0.98530782  1
  O  O44  1  0.69707577  0.88079455  0.59903437  1
  O  O45  1  0.19707577  0.11920545  0.90096563  1
  O  O46  1  0.30292423  0.11920545  0.40096563  1
  O  O47  1  0.80292423  0.88079455  0.09903437  1
  O  O48  1  0.43353696  0.73626796  0.61326805  1
  O  O49  1  0.93353696  0.26373204  0.88673195  1
  O  O50  1  0.56646304  0.26373204  0.38673195  1
  O  O51  1  0.06646304  0.73626796  0.11326805  1
