# generated using pymatgen
data_Zr6SiI14
_symmetry_space_group_name_H-M   'P 1'
_cell_length_a   10.90297216
_cell_length_b   10.90379089
_cell_length_c   13.16733892
_cell_angle_alpha   90.00349827
_cell_angle_beta   90.00701736
_cell_angle_gamma   95.98873336
_symmetry_Int_Tables_number   1
_chemical_formula_structural   Zr6SiI14
_chemical_formula_sum   'Zr12 Si2 I28'
_cell_volume   1556.83914648
_cell_formula_units_Z   2
loop_
 _symmetry_equiv_pos_site_id
 _symmetry_equiv_pos_as_xyz
  1  'x, y, z'
loop_
 _atom_site_type_symbol
 _atom_site_label
 _atom_site_symmetry_multiplicity
 _atom_site_fract_x
 _atom_site_fract_y
 _atom_site_fract_z
 _atom_site_occupancy
  Zr  Zr0  1  0.95483555  0.17980747  0.11498179  1
  Zr  Zr1  1  0.04512534  0.82021700  0.88501315  1
  Zr  Zr2  1  0.54518900  0.32017689  0.61494912  1
  Zr  Zr3  1  0.67977462  0.45470493  0.38501404  1
  Zr  Zr4  1  0.45478272  0.67969184  0.38499403  1
  Zr  Zr5  1  0.32030156  0.54520000  0.61504228  1
  Zr  Zr6  1  0.82023502  0.04525863  0.88495595  1
  Zr  Zr7  1  0.17971176  0.95480194  0.11504781  1
  Zr  Zr8  1  0.35636105  0.35640263  0.39562357  1
  Zr  Zr9  1  0.64360909  0.64357599  0.60434722  1
  Zr  Zr10  1  0.14358293  0.14359221  0.89566795  1
  Zr  Zr11  1  0.85638709  0.85644697  0.10433418  1
  Si  Si12  1  -0.00003492  -0.00000153  -0.00000704  1
  Si  Si13  1  0.49998856  0.49995200  0.49999286  1
  I  I14  1  0.28636923  0.53499879  0.25044049  1
  I  I15  1  0.71356125  0.46496463  0.74949130  1
  I  I16  1  0.21351794  0.96501518  0.75051608  1
  I  I17  1  0.03488903  0.78648906  0.24956274  1
  I  I18  1  0.78644935  0.03498016  0.24953724  1
  I  I19  1  0.96500660  0.21355896  0.75036538  1
  I  I20  1  0.46520361  0.71345456  0.74967947  1
  I  I21  1  0.53483439  0.28648228  0.25038135  1
  I  I22  1  0.11696629  0.36650700  0.00897897  1
  I  I23  1  0.88296117  0.63352779  0.99097676  1
  I  I24  1  0.38302470  0.13350905  0.50899200  1
  I  I25  1  0.86652311  0.61695042  0.49102859  1
  I  I26  1  0.61694189  0.86649741  0.49099778  1
  I  I27  1  0.13345193  0.38310542  0.50896374  1
  I  I28  1  0.63346219  0.88308543  0.99098859  1
  I  I29  1  0.36655404  0.11694186  0.00900910  1
  I  I30  1  0.90283463  0.40288656  0.25005426  1
  I  I31  1  0.09724331  0.59705788  0.75008166  1
  I  I32  1  0.59720467  0.09708900  0.74992432  1
  I  I33  1  0.40271100  0.90270608  0.24990655  1
  I  I34  1  0.74910305  0.25106944  -0.00009733  1
  I  I35  1  0.25093770  0.74906981  -0.00000492  1
  I  I36  1  0.75109819  0.24892878  0.49997404  1
  I  I37  1  0.24931486  0.75116072  0.50014657  1
  I  I38  1  0.15520358  0.15521133  0.26545007  1
  I  I39  1  0.84475634  0.84485148  0.73449735  1
  I  I40  1  0.34476334  0.34477803  0.76548441  1
  I  I41  1  0.65526224  0.65529390  0.23471550  1
