# generated using pymatgen
data_Rb3TbCl6
_symmetry_space_group_name_H-M   'P 1'
_cell_length_a   13.50909314
_cell_length_b   13.50909314
_cell_length_c   12.82154210
_cell_angle_alpha   81.08123073
_cell_angle_beta   81.08123073
_cell_angle_gamma   34.24581673
_symmetry_Int_Tables_number   1
_chemical_formula_structural   Rb3TbCl6
_chemical_formula_sum   'Rb12 Tb4 Cl24'
_cell_volume   1299.31008183
_cell_formula_units_Z   4
loop_
 _symmetry_equiv_pos_site_id
 _symmetry_equiv_pos_as_xyz
  1  'x, y, z'
loop_
 _atom_site_type_symbol
 _atom_site_label
 _atom_site_symmetry_multiplicity
 _atom_site_fract_x
 _atom_site_fract_y
 _atom_site_fract_z
 _atom_site_occupancy
  Rb  Rb0  1  0.29558184  0.80818910  0.06332886  1
  Rb  Rb1  1  0.70441816  0.19181090  0.93667114  1
  Rb  Rb2  1  0.19181090  0.70441816  0.43667114  1
  Rb  Rb3  1  0.80818910  0.29558184  0.56332886  1
  Rb  Rb4  1  0.47107211  0.83692977  0.35469965  1
  Rb  Rb5  1  0.52892789  0.16307023  0.64530035  1
  Rb  Rb6  1  0.16307023  0.52892789  0.14530035  1
  Rb  Rb7  1  0.83692977  0.47107211  0.85469965  1
  Rb  Rb8  1  0.65383154  0.02187323  0.30250830  1
  Rb  Rb9  1  0.34616846  0.97812677  0.69749170  1
  Rb  Rb10  1  0.97812677  0.34616846  0.19749170  1
  Rb  Rb11  1  0.02187323  0.65383154  0.80250830  1
  Tb  Tb12  1  0.79503274  0.20496726  0.25000000  1
  Tb  Tb13  1  0.20496726  0.79503274  0.75000000  1
  Tb  Tb14  1  0.50000000  0.00000000  -0.00000000  1
  Tb  Tb15  1  -0.00000000  0.50000000  0.50000000  1
  Cl  Cl16  1  0.62317807  0.71865852  0.07785283  1
  Cl  Cl17  1  0.37682193  0.28134148  0.92214717  1
  Cl  Cl18  1  0.28134148  0.37682193  0.42214717  1
  Cl  Cl19  1  0.71865852  0.62317807  0.57785283  1
  Cl  Cl20  1  0.51006488  0.36708995  0.17848615  1
  Cl  Cl21  1  0.48993512  0.63291005  0.82151385  1
  Cl  Cl22  1  0.63291005  0.48993512  0.32151385  1
  Cl  Cl23  1  0.36708995  0.51006488  0.67848615  1
  Cl  Cl24  1  0.78767839  0.85954917  0.03376579  1
  Cl  Cl25  1  0.21232161  0.14045083  0.96623421  1
  Cl  Cl26  1  0.14045083  0.21232161  0.46623421  1
  Cl  Cl27  1  0.85954917  0.78767839  0.53376579  1
  Cl  Cl28  1  0.89336596  0.98383765  0.70430371  1
  Cl  Cl29  1  0.10663404  0.01616235  0.29569629  1
  Cl  Cl30  1  0.01616235  0.10663404  0.79569629  1
  Cl  Cl31  1  0.98383765  0.89336596  0.20430371  1
  Cl  Cl32  1  0.72951401  0.15718273  0.43949208  1
  Cl  Cl33  1  0.27048599  0.84281727  0.56050792  1
  Cl  Cl34  1  0.84281727  0.27048599  0.06050792  1
  Cl  Cl35  1  0.15718273  0.72951401  0.93949208  1
  Cl  Cl36  1  0.36371389  0.13680959  0.18986127  1
  Cl  Cl37  1  0.63628611  0.86319041  0.81013873  1
  Cl  Cl38  1  0.86319041  0.63628611  0.31013873  1
  Cl  Cl39  1  0.13680959  0.36371389  0.68986127  1
