# generated using pymatgen
data_In2(CN2)3
_symmetry_space_group_name_H-M   'P 1'
_cell_length_a   10.27328682
_cell_length_b   10.27328682
_cell_length_c   10.27328684
_cell_angle_alpha   34.56566812
_cell_angle_beta   34.56566812
_cell_angle_gamma   34.56567035
_symmetry_Int_Tables_number   1
_chemical_formula_structural   In2(CN2)3
_chemical_formula_sum   'In4 C6 N12'
_cell_volume   311.38949647
_cell_formula_units_Z   2
loop_
 _symmetry_equiv_pos_site_id
 _symmetry_equiv_pos_as_xyz
  1  'x, y, z'
loop_
 _atom_site_type_symbol
 _atom_site_label
 _atom_site_symmetry_multiplicity
 _atom_site_fract_x
 _atom_site_fract_y
 _atom_site_fract_z
 _atom_site_occupancy
  In  In0  1  0.16367720  0.16367720  0.16367720  1
  In  In1  1  0.66367720  0.66367720  0.66367720  1
  In  In2  1  0.83632280  0.83632280  0.83632280  1
  In  In3  1  0.33632280  0.33632280  0.33632280  1
  C  C4  1  0.44735088  0.75000000  0.05264912  1
  C  C5  1  0.05264912  0.44735088  0.75000000  1
  C  C6  1  0.75000000  0.05264912  0.44735088  1
  C  C7  1  0.25000000  0.94735088  0.55264912  1
  C  C8  1  0.55264912  0.25000000  0.94735088  1
  C  C9  1  0.94735088  0.55264912  0.25000000  1
  N  N10  1  0.46230731  0.85205208  0.05784393  1
  N  N11  1  0.05784393  0.46230731  0.85205208  1
  N  N12  1  0.85205208  0.05784393  0.46230731  1
  N  N13  1  0.35205208  0.96230731  0.55784393  1
  N  N14  1  0.55784393  0.35205208  0.96230731  1
  N  N15  1  0.96230731  0.55784393  0.35205208  1
  N  N16  1  0.53769269  0.14794792  0.94215607  1
  N  N17  1  0.94215607  0.53769269  0.14794792  1
  N  N18  1  0.14794792  0.94215607  0.53769269  1
  N  N19  1  0.64794792  0.03769269  0.44215607  1
  N  N20  1  0.44215607  0.64794792  0.03769269  1
  N  N21  1  0.03769269  0.44215607  0.64794792  1
