# generated using pymatgen
data_KBi3S5
_symmetry_space_group_name_H-M   'P 1'
_cell_length_a   4.08149841
_cell_length_b   16.70307729
_cell_length_c   17.78079493
_cell_angle_alpha   90.00000000
_cell_angle_beta   90.00000000
_cell_angle_gamma   90.00000000
_symmetry_Int_Tables_number   1
_chemical_formula_structural   KBi3S5
_chemical_formula_sum   'K4 Bi12 S20'
_cell_volume   1212.18050610
_cell_formula_units_Z   4
loop_
 _symmetry_equiv_pos_site_id
 _symmetry_equiv_pos_as_xyz
  1  'x, y, z'
loop_
 _atom_site_type_symbol
 _atom_site_label
 _atom_site_symmetry_multiplicity
 _atom_site_fract_x
 _atom_site_fract_y
 _atom_site_fract_z
 _atom_site_occupancy
  K  K0  1  0.25000000  0.50430725  0.28130417  1
  K  K1  1  0.25000000  0.00430725  0.21869583  1
  K  K2  1  0.75000000  0.49569275  0.71869583  1
  K  K3  1  0.75000000  0.99569275  0.78130417  1
  Bi  Bi4  1  0.75000000  0.08544210  0.43336922  1
  Bi  Bi5  1  0.75000000  0.58544210  0.06663078  1
  Bi  Bi6  1  0.25000000  0.91455790  0.56663078  1
  Bi  Bi7  1  0.25000000  0.41455790  0.93336922  1
  Bi  Bi8  1  0.75000000  0.33716649  0.12284990  1
  Bi  Bi9  1  0.75000000  0.83716649  0.37715010  1
  Bi  Bi10  1  0.25000000  0.66283351  0.87715010  1
  Bi  Bi11  1  0.25000000  0.16283351  0.62284990  1
  Bi  Bi12  1  0.25000000  0.24266561  0.29069559  1
  Bi  Bi13  1  0.25000000  0.74266561  0.20930441  1
  Bi  Bi14  1  0.75000000  0.75733439  0.70930441  1
  Bi  Bi15  1  0.75000000  0.25733439  0.79069559  1
  S  S16  1  0.25000000  0.19089585  0.46167185  1
  S  S17  1  0.25000000  0.69089585  0.03832815  1
  S  S18  1  0.75000000  0.80910415  0.53832815  1
  S  S19  1  0.75000000  0.30910415  0.96167185  1
  S  S20  1  0.25000000  0.95951454  0.40189710  1
  S  S21  1  0.25000000  0.45951454  0.09810290  1
  S  S22  1  0.75000000  0.04048546  0.59810290  1
  S  S23  1  0.75000000  0.54048546  0.90189710  1
  S  S24  1  0.25000000  0.22633039  0.14227235  1
  S  S25  1  0.25000000  0.72633039  0.35772765  1
  S  S26  1  0.75000000  0.77366961  0.85772765  1
  S  S27  1  0.75000000  0.27366961  0.64227235  1
  S  S28  1  0.75000000  0.35960895  0.27637794  1
  S  S29  1  0.75000000  0.85960895  0.22362206  1
  S  S30  1  0.25000000  0.64039105  0.72362206  1
  S  S31  1  0.25000000  0.14039105  0.77637794  1
  S  S32  1  0.75000000  0.12683693  0.28685240  1
  S  S33  1  0.75000000  0.62683693  0.21314760  1
  S  S34  1  0.25000000  0.87316307  0.71314760  1
  S  S35  1  0.25000000  0.37316307  0.78685240  1
