# generated using pymatgen
data_InSbO4
_symmetry_space_group_name_H-M   'P 1'
_cell_length_a   5.24455967
_cell_length_b   7.43333089
_cell_length_c   7.52198981
_cell_angle_alpha   79.15714499
_cell_angle_beta   90.00000000
_cell_angle_gamma   90.00000000
_symmetry_Int_Tables_number   1
_chemical_formula_structural   InSbO4
_chemical_formula_sum   'In4 Sb4 O16'
_cell_volume   288.00607787
_cell_formula_units_Z   4
loop_
 _symmetry_equiv_pos_site_id
 _symmetry_equiv_pos_as_xyz
  1  'x, y, z'
loop_
 _atom_site_type_symbol
 _atom_site_label
 _atom_site_symmetry_multiplicity
 _atom_site_fract_x
 _atom_site_fract_y
 _atom_site_fract_z
 _atom_site_occupancy
  In  In0  1  0.25816744  0.64126550  0.15827290  1
  In  In1  1  0.74183256  0.35873450  0.84172710  1
  In  In2  1  0.75816744  0.85873450  0.84172710  1
  In  In3  1  0.24183256  0.14126550  0.15827290  1
  Sb  Sb4  1  0.75273252  0.81413255  0.33144156  1
  Sb  Sb5  1  0.24726748  0.18586745  0.66855844  1
  Sb  Sb6  1  0.25273252  0.68586745  0.66855844  1
  Sb  Sb7  1  0.74726748  0.31413255  0.33144156  1
  O  O8  1  0.44597319  0.89618045  0.19283840  1
  O  O9  1  0.55402681  0.10381955  0.80716160  1
  O  O10  1  0.94597319  0.60381955  0.80716160  1
  O  O11  1  0.05402681  0.39618045  0.19283840  1
  O  O12  1  0.93140459  0.81421399  0.10052486  1
  O  O13  1  0.06859541  0.18578601  0.89947514  1
  O  O14  1  0.43140459  0.68578601  0.89947514  1
  O  O15  1  0.56859541  0.31421399  0.10052486  1
  O  O16  1  0.60455930  0.56349002  0.32252581  1
  O  O17  1  0.39544070  0.43650998  0.67747419  1
  O  O18  1  0.10455930  0.93650998  0.67747419  1
  O  O19  1  0.89544070  0.06349002  0.32252581  1
  O  O20  1  0.57825710  0.80616683  0.56657700  1
  O  O21  1  0.42174290  0.19383317  0.43342300  1
  O  O22  1  0.07825710  0.69383317  0.43342300  1
  O  O23  1  0.92174290  0.30616683  0.56657700  1
