# generated using pymatgen
data_CaCo6(OF5)2
_symmetry_space_group_name_H-M   'P 1'
_cell_length_a   4.75474720
_cell_length_b   4.75474720
_cell_length_c   11.43746238
_cell_angle_alpha   95.72401871
_cell_angle_beta   95.72401871
_cell_angle_gamma   93.03056346
_symmetry_Int_Tables_number   1
_chemical_formula_structural   CaCo6(OF5)2
_chemical_formula_sum   'Ca1 Co6 O2 F10'
_cell_volume   255.48587152
_cell_formula_units_Z   1
loop_
 _symmetry_equiv_pos_site_id
 _symmetry_equiv_pos_as_xyz
  1  'x, y, z'
loop_
 _atom_site_type_symbol
 _atom_site_label
 _atom_site_symmetry_multiplicity
 _atom_site_fract_x
 _atom_site_fract_y
 _atom_site_fract_z
 _atom_site_occupancy
  Ca  Ca0  1  0.66970500  0.66970500  0.13600800  1
  Co  Co1  1  0.01573400  0.01573400  0.92723600  1
  Co  Co2  1  0.01777700  0.01777700  0.40562500  1
  Co  Co3  1  0.04458100  0.04458100  0.66418100  1
  Co  Co4  1  0.20750500  0.20750500  0.20511700  1
  Co  Co5  1  0.58269800  0.58269800  0.80308900  1
  Co  Co6  1  0.50250300  0.50250300  0.50348700  1
  O  O7  1  0.29184700  0.29184700  0.36757700  1
  O  O8  1  0.74240300  0.74240300  0.95385700  1
  F  F9  1  0.20057100  0.77841200  0.17238100  1
  F  F10  1  0.26067200  0.86834000  0.80288400  1
  F  F11  1  0.22633000  0.81716600  0.52765700  1
  F  F12  1  0.27886900  0.27886900  0.04190400  1
  F  F13  1  0.35049500  0.35049500  0.66444800  1
  F  F14  1  0.73556800  0.73556800  0.65118700  1
  F  F15  1  0.72826700  0.72826700  0.34186900  1
  F  F16  1  0.77841200  0.20057100  0.17238100  1
  F  F17  1  0.86834000  0.26067200  0.80288400  1
  F  F18  1  0.81716600  0.22633000  0.52765700  1
