# generated using pymatgen
data_CaTeO4
_symmetry_space_group_name_H-M   'P 1'
_cell_length_a   4.99969311
_cell_length_b   5.24117144
_cell_length_c   12.69058637
_cell_angle_alpha   90.00000000
_cell_angle_beta   90.00000000
_cell_angle_gamma   90.00000000
_symmetry_Int_Tables_number   1
_chemical_formula_structural   CaTeO4
_chemical_formula_sum   'Ca4 Te4 O16'
_cell_volume   332.54728186
_cell_formula_units_Z   4
loop_
 _symmetry_equiv_pos_site_id
 _symmetry_equiv_pos_as_xyz
  1  'x, y, z'
loop_
 _atom_site_type_symbol
 _atom_site_label
 _atom_site_symmetry_multiplicity
 _atom_site_fract_x
 _atom_site_fract_y
 _atom_site_fract_z
 _atom_site_occupancy
  Ca  Ca0  1  0.75000000  0.00000000  0.66935510  1
  Ca  Ca1  1  0.25000000  0.50000000  0.83064490  1
  Ca  Ca2  1  0.25000000  0.00000000  0.33064490  1
  Ca  Ca3  1  0.75000000  0.50000000  0.16935510  1
  Te  Te4  1  0.75000000  0.50000000  0.42788623  1
  Te  Te5  1  0.25000000  0.00000000  0.07211377  1
  Te  Te6  1  0.25000000  0.50000000  0.57211377  1
  Te  Te7  1  0.75000000  0.00000000  0.92788623  1
  O  O8  1  0.11595532  0.28054924  0.67294022  1
  O  O9  1  0.61595532  0.21945076  0.82705978  1
  O  O10  1  0.88404468  0.78054924  0.82705978  1
  O  O11  1  0.38404468  0.71945076  0.67294022  1
  O  O12  1  0.88404468  0.71945076  0.32705978  1
  O  O13  1  0.38404468  0.78054924  0.17294022  1
  O  O14  1  0.11595532  0.21945076  0.17294022  1
  O  O15  1  0.61595532  0.28054924  0.32705978  1
  O  O16  1  0.57169792  0.29852150  0.54377979  1
  O  O17  1  0.07169792  0.20147850  0.95622021  1
  O  O18  1  0.42830208  0.79852150  0.95622021  1
  O  O19  1  0.92830208  0.70147850  0.54377979  1
  O  O20  1  0.42830208  0.70147850  0.45622021  1
  O  O21  1  0.92830208  0.79852150  0.04377979  1
  O  O22  1  0.57169792  0.20147850  0.04377979  1
  O  O23  1  0.07169792  0.29852150  0.45622021  1
