# generated using pymatgen
data_BaMg(FeO2)4
_symmetry_space_group_name_H-M   'P 1'
_cell_length_a   5.50683196
_cell_length_b   5.50832751
_cell_length_c   8.55920438
_cell_angle_alpha   89.93408153
_cell_angle_beta   89.75024970
_cell_angle_gamma   119.95380585
_symmetry_Int_Tables_number   1
_chemical_formula_structural   BaMg(FeO2)4
_chemical_formula_sum   'Ba1 Mg1 Fe4 O8'
_cell_volume   224.94702184
_cell_formula_units_Z   1
loop_
 _symmetry_equiv_pos_site_id
 _symmetry_equiv_pos_as_xyz
  1  'x, y, z'
loop_
 _atom_site_type_symbol
 _atom_site_label
 _atom_site_symmetry_multiplicity
 _atom_site_fract_x
 _atom_site_fract_y
 _atom_site_fract_z
 _atom_site_occupancy
  Ba  Ba0  1  0.99969400  0.00069400  0.00000500  1
  Mg  Mg1  1  0.66802500  0.32920400  0.49998100  1
  Fe  Fe2  1  0.33382000  0.66775100  0.76246000  1
  Fe  Fe3  1  0.66664400  0.33421600  0.79002500  1
  Fe  Fe4  1  0.33240900  0.66682300  0.23754700  1
  Fe  Fe5  1  0.66616000  0.33392900  0.20997100  1
  O  O6  1  0.38431000  0.36995900  0.68904500  1
  O  O7  1  0.63002200  0.01650500  0.68694900  1
  O  O8  1  0.98590000  0.61647300  0.68859900  1
  O  O9  1  0.63022900  0.61664800  0.31051800  1
  O  O10  1  0.98358200  0.37017200  0.31273100  1
  O  O11  1  0.38445600  0.01500400  0.31217800  1
  O  O12  1  0.33343000  0.66637500  0.00001200  1
  O  O13  1  0.66798500  0.32957900  0.99998100  1
