# generated using pymatgen
data_P7Pb
_symmetry_space_group_name_H-M   'P 1'
_cell_length_a   6.87912428
_cell_length_b   9.75298572
_cell_length_c   11.08485387
_cell_angle_alpha   105.10428995
_cell_angle_beta   90.00000000
_cell_angle_gamma   90.00000000
_symmetry_Int_Tables_number   1
_chemical_formula_structural   P7Pb
_chemical_formula_sum   'P28 Pb4'
_cell_volume   718.01233957
_cell_formula_units_Z   4
loop_
 _symmetry_equiv_pos_site_id
 _symmetry_equiv_pos_as_xyz
  1  'x, y, z'
loop_
 _atom_site_type_symbol
 _atom_site_label
 _atom_site_symmetry_multiplicity
 _atom_site_fract_x
 _atom_site_fract_y
 _atom_site_fract_z
 _atom_site_occupancy
  P  P0  1  0.37836966  0.44745831  0.36104519  1
  P  P1  1  0.87836966  0.05254169  0.13895481  1
  P  P2  1  0.62163034  0.55254169  0.63895481  1
  P  P3  1  0.12163034  0.94745831  0.86104519  1
  P  P4  1  0.41669201  0.18771979  0.08776531  1
  P  P5  1  0.91669201  0.31228021  0.41223469  1
  P  P6  1  0.58330799  0.81228021  0.91223469  1
  P  P7  1  0.08330799  0.68771979  0.58776531  1
  P  P8  1  0.06996029  0.43790608  0.30051212  1
  P  P9  1  0.56996029  0.06209392  0.19948788  1
  P  P10  1  0.93003971  0.56209392  0.69948788  1
  P  P11  1  0.43003971  0.93790608  0.80051212  1
  P  P12  1  0.92979812  0.63790432  0.40265230  1
  P  P13  1  0.42979812  0.86209568  0.09734770  1
  P  P14  1  0.07020188  0.36209568  0.59734770  1
  P  P15  1  0.57020188  0.13790432  0.90265230  1
  P  P16  1  0.41514614  0.53637243  0.08703975  1
  P  P17  1  0.91514614  0.96362757  0.41296025  1
  P  P18  1  0.58485386  0.46362757  0.91296025  1
  P  P19  1  0.08485386  0.03637243  0.58703975  1
  P  P20  1  0.09770780  0.78106160  0.32106866  1
  P  P21  1  0.59770780  0.71893840  0.17893134  1
  P  P22  1  0.90229220  0.21893840  0.67893134  1
  P  P23  1  0.40229220  0.28106160  0.82106866  1
  P  P24  1  0.04960136  0.10661129  0.31154088  1
  P  P25  1  0.54960136  0.39338971  0.18845912  1
  P  P26  1  0.95039864  0.89338871  0.68845912  1
  P  P27  1  0.45039864  0.60661129  0.81154088  1
  Pb  Pb28  1  0.48149634  0.73954178  0.43784106  1
  Pb  Pb29  1  0.98149634  0.76045822  0.06215894  1
  Pb  Pb30  1  0.51850366  0.26045822  0.56215894  1
  Pb  Pb31  1  0.01850366  0.23954178  0.93784106  1
