# generated using pymatgen
data_BaMg14ZnO16
_symmetry_space_group_name_H-M   'P 1'
_cell_length_a   8.78790691
_cell_length_b   8.66796101
_cell_length_c   4.52241572
_cell_angle_alpha   90.00000000
_cell_angle_beta   90.00000000
_cell_angle_gamma   90.00000000
_symmetry_Int_Tables_number   1
_chemical_formula_structural   BaMg14ZnO16
_chemical_formula_sum   'Ba1 Mg14 Zn1 O16'
_cell_volume   344.48703294
_cell_formula_units_Z   1
loop_
 _symmetry_equiv_pos_site_id
 _symmetry_equiv_pos_as_xyz
  1  'x, y, z'
loop_
 _atom_site_type_symbol
 _atom_site_label
 _atom_site_symmetry_multiplicity
 _atom_site_fract_x
 _atom_site_fract_y
 _atom_site_fract_z
 _atom_site_occupancy
  Ba  Ba0  1  0.00000000  0.50000000  -0.00000000  1
  Mg  Mg1  1  0.50000000  0.00000000  -0.00000000  1
  Mg  Mg2  1  0.50000000  0.50000000  -0.00000000  1
  Mg  Mg3  1  0.00000000  0.23527484  0.50000000  1
  Mg  Mg4  1  0.00000000  0.76472516  0.50000000  1
  Mg  Mg5  1  0.50000000  0.24714415  0.50000000  1
  Mg  Mg6  1  0.50000000  0.75285585  0.50000000  1
  Mg  Mg7  1  0.25192882  0.00000000  0.50000000  1
  Mg  Mg8  1  0.26459859  0.50000000  0.50000000  1
  Mg  Mg9  1  0.74807118  0.00000000  0.50000000  1
  Mg  Mg10  1  0.73540141  0.50000000  0.50000000  1
  Mg  Mg11  1  0.26067580  0.24104687  0.00000000  1
  Mg  Mg12  1  0.26067580  0.75895313  -0.00000000  1
  Mg  Mg13  1  0.73932420  0.24104687  -0.00000000  1
  Mg  Mg14  1  0.73932420  0.75895313  -0.00000000  1
  Zn  Zn15  1  0.00000000  0.00000000  -0.00000000  1
  O  O16  1  0.26463880  0.00000000  0.00000000  1
  O  O17  1  0.28066417  0.50000000  -0.00000000  1
  O  O18  1  0.73536120  0.00000000  -0.00000000  1
  O  O19  1  0.71933583  0.50000000  -0.00000000  1
  O  O20  1  0.24954238  0.24988665  0.50000000  1
  O  O21  1  0.24954238  0.75011335  0.50000000  1
  O  O22  1  0.75045762  0.24988665  0.50000000  1
  O  O23  1  0.75045762  0.75011335  0.50000000  1
  O  O24  1  0.00000000  0.00000000  0.50000000  1
  O  O25  1  0.00000000  0.50000000  0.50000000  1
  O  O26  1  0.50000000  0.00000000  0.50000000  1
  O  O27  1  0.50000000  0.50000000  0.50000000  1
  O  O28  1  0.00000000  0.21883933  0.00000000  1
  O  O29  1  0.00000000  0.78116067  -0.00000000  1
  O  O30  1  0.50000000  0.24515572  0.00000000  1
  O  O31  1  0.50000000  0.75484428  0.00000000  1
