# generated using pymatgen
data_BaTb2O4
_symmetry_space_group_name_H-M   'P 1'
_cell_length_a   3.48064670
_cell_length_b   10.46330435
_cell_length_c   12.17428788
_cell_angle_alpha   90.00000000
_cell_angle_beta   90.00000000
_cell_angle_gamma   90.00000000
_symmetry_Int_Tables_number   1
_chemical_formula_structural   BaTb2O4
_chemical_formula_sum   'Ba4 Tb8 O16'
_cell_volume   443.37619085
_cell_formula_units_Z   4
loop_
 _symmetry_equiv_pos_site_id
 _symmetry_equiv_pos_as_xyz
  1  'x, y, z'
loop_
 _atom_site_type_symbol
 _atom_site_label
 _atom_site_symmetry_multiplicity
 _atom_site_fract_x
 _atom_site_fract_y
 _atom_site_fract_z
 _atom_site_occupancy
  Ba  Ba0  1  0.75000000  0.74712900  0.85086572  1
  Ba  Ba1  1  0.25000000  0.25287100  0.14913428  1
  Ba  Ba2  1  0.75000000  0.24712900  0.64913428  1
  Ba  Ba3  1  0.25000000  0.75287100  0.35086572  1
  Tb  Tb4  1  0.25000000  0.42546212  0.38905440  1
  Tb  Tb5  1  0.75000000  0.57453788  0.61094560  1
  Tb  Tb6  1  0.25000000  0.92546212  0.11094560  1
  Tb  Tb7  1  0.75000000  0.07453788  0.88905440  1
  Tb  Tb8  1  0.75000000  0.07755978  0.39047025  1
  Tb  Tb9  1  0.25000000  0.92244022  0.60952975  1
  Tb  Tb10  1  0.75000000  0.57755978  0.10952975  1
  Tb  Tb11  1  0.25000000  0.42244022  0.89047025  1
  O  O12  1  0.25000000  0.43003574  0.57434508  1
  O  O13  1  0.75000000  0.56996426  0.42565492  1
  O  O14  1  0.25000000  0.93003574  0.92565492  1
  O  O15  1  0.75000000  0.06996426  0.07434508  1
  O  O16  1  0.25000000  0.51867153  0.21737031  1
  O  O17  1  0.75000000  0.48132847  0.78262969  1
  O  O18  1  0.25000000  0.01867153  0.28262969  1
  O  O19  1  0.75000000  0.98132847  0.71737031  1
  O  O20  1  0.25000000  0.11601928  0.51795746  1
  O  O21  1  0.75000000  0.88398072  0.48204254  1
  O  O22  1  0.25000000  0.61601928  0.98204254  1
  O  O23  1  0.75000000  0.38398072  0.01795746  1
  O  O24  1  0.75000000  0.29028831  0.33982128  1
  O  O25  1  0.25000000  0.70971169  0.66017872  1
  O  O26  1  0.75000000  0.79028831  0.16017872  1
  O  O27  1  0.25000000  0.20971169  0.83982128  1
