# generated using pymatgen
data_Nd2MgSe4
_symmetry_space_group_name_H-M   'P 1'
_cell_length_a   13.60526187
_cell_length_b   8.14705069
_cell_length_c   13.64875653
_cell_angle_alpha   90.00000000
_cell_angle_beta   90.00000000
_cell_angle_gamma   90.00000000
_symmetry_Int_Tables_number   1
_chemical_formula_structural   Nd2MgSe4
_chemical_formula_sum   'Nd16 Mg8 Se32'
_cell_volume   1512.86581850
_cell_formula_units_Z   8
loop_
 _symmetry_equiv_pos_site_id
 _symmetry_equiv_pos_as_xyz
  1  'x, y, z'
loop_
 _atom_site_type_symbol
 _atom_site_label
 _atom_site_symmetry_multiplicity
 _atom_site_fract_x
 _atom_site_fract_y
 _atom_site_fract_z
 _atom_site_occupancy
  Nd  Nd0  1  0.10821314  0.88544422  0.68496611  1
  Nd  Nd1  1  0.89178686  0.11455578  0.18496611  1
  Nd  Nd2  1  0.39178686  0.88544422  0.18496611  1
  Nd  Nd3  1  0.60821314  0.11455578  0.68496611  1
  Nd  Nd4  1  0.12670551  0.38372721  0.32633774  1
  Nd  Nd5  1  0.87329449  0.61627279  0.82633774  1
  Nd  Nd6  1  0.37329449  0.38372721  0.82633774  1
  Nd  Nd7  1  0.62670551  0.61627279  0.32633774  1
  Nd  Nd8  1  0.13436348  0.63090679  0.99279968  1
  Nd  Nd9  1  0.86563652  0.36909321  0.49279968  1
  Nd  Nd10  1  0.36563652  0.63090679  0.49279968  1
  Nd  Nd11  1  0.63436348  0.36909321  0.99279968  1
  Nd  Nd12  1  0.13494106  0.13099050  0.99348248  1
  Nd  Nd13  1  0.86505894  0.86900950  0.49348248  1
  Nd  Nd14  1  0.36505894  0.13099050  0.49348248  1
  Nd  Nd15  1  0.63494106  0.86900950  0.99348248  1
  Mg  Mg16  1  0.11210779  0.38524919  0.69282388  1
  Mg  Mg17  1  0.88789221  0.61475081  0.19282388  1
  Mg  Mg18  1  0.38789221  0.38524919  0.19282388  1
  Mg  Mg19  1  0.61210779  0.61475081  0.69282388  1
  Mg  Mg20  1  0.12608309  0.88039539  0.32003640  1
  Mg  Mg21  1  0.87391691  0.11960461  0.82003640  1
  Mg  Mg22  1  0.37391691  0.88039539  0.82003640  1
  Mg  Mg23  1  0.62608309  0.11960461  0.32003640  1
  Se  Se24  1  0.01052089  0.88169751  0.87991297  1
  Se  Se25  1  0.98947911  0.11830249  0.37991297  1
  Se  Se26  1  0.48947911  0.88169751  0.37991297  1
  Se  Se27  1  0.51052089  0.11830249  0.87991297  1
  Se  Se28  1  0.02852395  0.38293793  0.12862642  1
  Se  Se29  1  0.97147605  0.61706207  0.62862642  1
  Se  Se30  1  0.47147605  0.38293793  0.62862642  1
  Se  Se31  1  0.52852395  0.61706207  0.12862642  1
  Se  Se32  1  0.02582719  0.37364589  0.86765242  1
  Se  Se33  1  0.97417281  0.62635411  0.36765242  1
  Se  Se34  1  0.47417281  0.37364589  0.36765242  1
  Se  Se35  1  0.52582719  0.62635411  0.86765242  1
  Se  Se36  1  0.04713363  0.87454557  0.13923336  1
  Se  Se37  1  0.95286637  0.12545443  0.63923336  1
  Se  Se38  1  0.45286637  0.87454557  0.63923336  1
  Se  Se39  1  0.54713363  0.12545443  0.13923336  1
  Se  Se40  1  0.20927046  0.88180497  0.49696679  1
  Se  Se41  1  0.79072954  0.11819503  0.99696679  1
  Se  Se42  1  0.29072954  0.88180497  0.99696679  1
  Se  Se43  1  0.70927046  0.11819503  0.49696679  1
  Se  Se44  1  0.21033905  0.38175984  0.52313954  1
  Se  Se45  1  0.78966095  0.61824016  0.02313954  1
  Se  Se46  1  0.28966095  0.38175984  0.02313954  1
  Se  Se47  1  0.71033905  0.61824016  0.52313954  1
  Se  Se48  1  0.23180285  0.13406763  0.77370032  1
  Se  Se49  1  0.76819715  0.86593237  0.27370032  1
  Se  Se50  1  0.26819715  0.13406763  0.27370032  1
  Se  Se51  1  0.73180285  0.86593237  0.77370032  1
  Se  Se52  1  0.23293687  0.63744048  0.77732289  1
  Se  Se53  1  0.76706313  0.36255952  0.27732289  1
  Se  Se54  1  0.26706313  0.63744048  0.27732289  1
  Se  Se55  1  0.73293687  0.36255952  0.77732289  1
