# generated using pymatgen
data_ZnB4O7
_symmetry_space_group_name_H-M   'P 1'
_cell_length_a   8.12698724
_cell_length_b   8.64621306
_cell_length_c   13.75648787
_cell_angle_alpha   90.00000000
_cell_angle_beta   90.00000000
_cell_angle_gamma   90.00000000
_symmetry_Int_Tables_number   1
_chemical_formula_structural   ZnB4O7
_chemical_formula_sum   'Zn8 B32 O56'
_cell_volume   966.63625664
_cell_formula_units_Z   8
loop_
 _symmetry_equiv_pos_site_id
 _symmetry_equiv_pos_as_xyz
  1  'x, y, z'
loop_
 _atom_site_type_symbol
 _atom_site_label
 _atom_site_symmetry_multiplicity
 _atom_site_fract_x
 _atom_site_fract_y
 _atom_site_fract_z
 _atom_site_occupancy
  Zn  Zn0  1  0.60654807  0.12457754  0.38125568  1
  Zn  Zn1  1  0.10654807  0.37542246  0.61874432  1
  Zn  Zn2  1  0.39345193  0.62457754  0.11874432  1
  Zn  Zn3  1  0.89345193  0.87542246  0.88125568  1
  Zn  Zn4  1  0.39345193  0.87542246  0.61874432  1
  Zn  Zn5  1  0.89345193  0.62457754  0.38125568  1
  Zn  Zn6  1  0.60654807  0.37542246  0.88125568  1
  Zn  Zn7  1  0.10654807  0.12457754  0.11874432  1
  B  B8  1  0.16089363  0.13701786  0.46328365  1
  B  B9  1  0.66089363  0.36298214  0.53671635  1
  B  B10  1  0.83910637  0.63701786  0.03671635  1
  B  B11  1  0.33910637  0.86298214  0.96328365  1
  B  B12  1  0.83910637  0.86298214  0.53671635  1
  B  B13  1  0.33910637  0.63701786  0.46328365  1
  B  B14  1  0.16089363  0.36298214  0.96328365  1
  B  B15  1  0.66089363  0.13701786  0.03671635  1
  B  B16  1  0.96553902  0.08549594  0.33134243  1
  B  B17  1  0.46553902  0.41450406  0.66865757  1
  B  B18  1  0.03446098  0.58549594  0.16865757  1
  B  B19  1  0.53446098  0.91450406  0.83134243  1
  B  B20  1  0.03446098  0.91450406  0.66865757  1
  B  B21  1  0.53446098  0.58549594  0.33134243  1
  B  B22  1  0.96553902  0.41450406  0.83134243  1
  B  B23  1  0.46553902  0.08549594  0.16865757  1
  B  B24  1  0.03318063  0.35275551  0.27003063  1
  B  B25  1  0.53318063  0.14724449  0.72996937  1
  B  B26  1  0.96681937  0.85275551  0.22996937  1
  B  B27  1  0.46681937  0.64724449  0.77003063  1
  B  B28  1  0.96681937  0.64724449  0.72996937  1
  B  B29  1  0.46681937  0.85275551  0.27003063  1
  B  B30  1  0.03318063  0.14724449  0.77003063  1
  B  B31  1  0.53318063  0.35275551  0.22996937  1
  B  B32  1  0.91378805  0.30334505  0.43647198  1
  B  B33  1  0.41378805  0.19665495  0.56352802  1
  B  B34  1  0.08621195  0.80334505  0.06352802  1
  B  B35  1  0.58621195  0.69665495  0.93647198  1
  B  B36  1  0.08621195  0.69665495  0.56352802  1
  B  B37  1  0.58621195  0.80334505  0.43647198  1
  B  B38  1  0.91378805  0.19665495  0.93647198  1
  B  B39  1  0.41378805  0.30334505  0.06352802  1
  O  O40  1  0.11340129  0.05301300  0.38600947  1
  O  O41  1  0.61340129  0.44698700  0.61399053  1
  O  O42  1  0.88659871  0.55301300  0.11399053  1
  O  O43  1  0.38659871  0.94698700  0.88600947  1
  O  O44  1  0.88659871  0.94698700  0.61399053  1
  O  O45  1  0.38659871  0.55301300  0.38600947  1
  O  O46  1  0.11340129  0.44698700  0.88600947  1
  O  O47  1  0.61340129  0.05301300  0.11399053  1
  O  O48  1  0.84401930  0.16795549  0.39037858  1
  O  O49  1  0.34401930  0.33204451  0.60962142  1
  O  O50  1  0.15598070  0.66795549  0.10962142  1
  O  O51  1  0.65598070  0.83204451  0.89037858  1
  O  O52  1  0.15598070  0.83204451  0.60962142  1
  O  O53  1  0.65598070  0.66795549  0.39037858  1
  O  O54  1  0.84401930  0.33204451  0.89037858  1
  O  O55  1  0.34401930  0.16795549  0.10962142  1
  O  O56  1  0.01785095  0.19718277  0.24863828  1
  O  O57  1  0.51785095  0.30281723  0.75136172  1
  O  O58  1  0.98214905  0.69718277  0.25136172  1
  O  O59  1  0.48214905  0.80281723  0.74863828  1
  O  O60  1  0.98214905  0.80281723  0.75136172  1
  O  O61  1  0.48214905  0.69718277  0.24863828  1
  O  O62  1  0.01785095  0.30281723  0.74863828  1
  O  O63  1  0.51785095  0.19718277  0.25136172  1
  O  O64  1  0.60553915  0.44687511  0.29502428  1
  O  O65  1  0.10553915  0.05312489  0.70497572  1
  O  O66  1  0.39446085  0.94687511  0.20497572  1
  O  O67  1  0.89446085  0.55312489  0.79502428  1
  O  O68  1  0.39446085  0.55312489  0.70497572  1
  O  O69  1  0.89446085  0.94687511  0.29502428  1
  O  O70  1  0.60553915  0.05312489  0.79502428  1
  O  O71  1  0.10553915  0.44687511  0.20497572  1
  O  O72  1  0.97640481  0.40943612  0.35792996  1
  O  O73  1  0.47640481  0.09056388  0.64207004  1
  O  O74  1  0.02359519  0.90943612  0.14207004  1
  O  O75  1  0.52359519  0.59056388  0.85792996  1
  O  O76  1  0.02359519  0.59056388  0.64207004  1
  O  O77  1  0.52359519  0.90943612  0.35792996  1
  O  O78  1  0.97640481  0.09056388  0.85792996  1
  O  O79  1  0.47640481  0.40943612  0.14207004  1
  O  O80  1  0.80851984  0.39390461  0.49491204  1
  O  O81  1  0.30851984  0.10609539  0.50508796  1
  O  O82  1  0.19148016  0.89390461  0.00508796  1
  O  O83  1  0.69148016  0.60609539  0.99491204  1
  O  O84  1  0.19148016  0.60609539  0.50508796  1
  O  O85  1  0.69148016  0.89390461  0.49491204  1
  O  O86  1  0.80851984  0.10609539  0.99491204  1
  O  O87  1  0.30851984  0.39390461  0.00508796  1
  O  O88  1  0.05946571  0.25618008  0.49783176  1
  O  O89  1  0.55946571  0.24381992  0.50216824  1
  O  O90  1  0.94053429  0.75618008  0.00216824  1
  O  O91  1  0.44053429  0.74381992  0.99783176  1
  O  O92  1  0.94053429  0.74381992  0.50216824  1
  O  O93  1  0.44053429  0.75618008  0.49783176  1
  O  O94  1  0.05946571  0.24381992  0.99783176  1
  O  O95  1  0.55946571  0.25618008  0.00216824  1
