# generated using pymatgen
data_MgV8Zn4O16
_symmetry_space_group_name_H-M   'P 1'
_cell_length_a   3.18914820
_cell_length_b   10.51496618
_cell_length_c   10.34244609
_cell_angle_alpha   94.20881725
_cell_angle_beta   104.06094794
_cell_angle_gamma   90.04897896
_symmetry_Int_Tables_number   1
_chemical_formula_structural   MgV8Zn4O16
_chemical_formula_sum   'Mg1 V8 Zn4 O16'
_cell_volume   335.45997226
_cell_formula_units_Z   1
loop_
 _symmetry_equiv_pos_site_id
 _symmetry_equiv_pos_as_xyz
  1  'x, y, z'
loop_
 _atom_site_type_symbol
 _atom_site_label
 _atom_site_symmetry_multiplicity
 _atom_site_fract_x
 _atom_site_fract_y
 _atom_site_fract_z
 _atom_site_occupancy
  Mg  Mg0  1  0.32844896  0.16483255  0.87252319  1
  V  V1  1  0.57628672  0.57852898  0.37736712  1
  V  V2  1  0.90475719  0.05952764  0.13862018  1
  V  V3  1  0.31622286  0.08206096  0.60093693  1
  V  V4  1  0.90136399  0.40976511  0.10949384  1
  V  V5  1  0.18876550  0.44158010  0.59540521  1
  V  V6  1  0.69889236  0.91714201  0.39295284  1
  V  V7  1  0.16658463  0.91031515  0.89677852  1
  V  V8  1  0.25835359  0.60051961  0.88541475  1
  Zn  Zn9  1  0.96518934  0.74483108  0.15405473  1
  Zn  Zn10  1  0.58224526  0.24654995  0.34796065  1
  Zn  Zn11  1  0.45131164  0.75462335  0.64300848  1
  Zn  Zn12  1  0.83243925  0.35717711  0.80719599  1
  O  O13  1  0.28522109  0.88763623  0.52018331  1
  O  O14  1  0.71458509  0.10087672  0.46787335  1
  O  O15  1  0.10925946  0.94603205  0.26984757  1
  O  O16  1  0.75522075  0.86777067  0.00505187  1
  O  O17  1  0.85337413  0.58388665  0.02093909  1
  O  O18  1  0.98527988  0.23801826  0.22272662  1
  O  O19  1  0.32056099  0.07229393  0.03024987  1
  O  O20  1  0.27704035  0.27462168  0.70631381  1
  O  O21  1  0.51134535  0.46420613  0.22156613  1
  O  O22  1  0.76981835  0.05089590  0.79617889  1
  O  O23  1  0.16871268  0.60478601  0.49753571  1
  O  O24  1  0.05321989  0.75974651  0.76601242  1
  O  O25  1  0.57183386  0.73393911  0.28295604  1
  O  O26  1  0.72782455  0.51965677  0.72777427  1
  O  O27  1  0.25338486  0.33762672  0.97682071  1
  O  O28  1  0.61829140  0.39679807  0.47875592  1
