# generated using pymatgen
data_RbHg5Cl11
_symmetry_space_group_name_H-M   'P 1'
_cell_length_a   9.27188005
_cell_length_b   9.27188005
_cell_length_c   6.62153294
_cell_angle_alpha   72.32334377
_cell_angle_beta   72.32334377
_cell_angle_gamma   100.99354664
_symmetry_Int_Tables_number   1
_chemical_formula_structural   RbHg5Cl11
_chemical_formula_sum   'Rb1 Hg5 Cl11'
_cell_volume   491.02171196
_cell_formula_units_Z   1
loop_
 _symmetry_equiv_pos_site_id
 _symmetry_equiv_pos_as_xyz
  1  'x, y, z'
loop_
 _atom_site_type_symbol
 _atom_site_label
 _atom_site_symmetry_multiplicity
 _atom_site_fract_x
 _atom_site_fract_y
 _atom_site_fract_z
 _atom_site_occupancy
  Rb  Rb0  1  -0.00000000  0.00000000  -0.00000000  1
  Hg  Hg1  1  0.35217570  0.01657049  0.31519875  1
  Hg  Hg2  1  0.64782430  0.98342951  0.68480125  1
  Hg  Hg3  1  0.98342951  0.64782430  0.68480125  1
  Hg  Hg4  1  0.01657049  0.35217570  0.31519875  1
  Hg  Hg5  1  0.50000000  0.50000000  -0.00000000  1
  Cl  Cl6  1  0.65018706  0.65018706  0.61171364  1
  Cl  Cl7  1  0.34981294  0.34981294  0.38828636  1
  Cl  Cl8  1  0.70248883  0.14028702  0.30197395  1
  Cl  Cl9  1  0.29751117  0.85971298  0.69802605  1
  Cl  Cl10  1  0.85971298  0.29751117  0.69802605  1
  Cl  Cl11  1  0.14028702  0.70248883  0.30197395  1
  Cl  Cl12  1  -0.00000000  0.00000000  0.50000000  1
  Cl  Cl13  1  0.58241986  0.83118073  0.07126835  1
  Cl  Cl14  1  0.41758014  0.16881927  0.92873165  1
  Cl  Cl15  1  0.16881927  0.41758014  0.92873165  1
  Cl  Cl16  1  0.83118073  0.58241986  0.07126835  1
