# generated using pymatgen
data_Mg14CrFeO16
_symmetry_space_group_name_H-M   'P 1'
_cell_length_a   8.66450246
_cell_length_b   8.52043109
_cell_length_c   4.25637496
_cell_angle_alpha   90.00000000
_cell_angle_beta   90.00000000
_cell_angle_gamma   90.00000000
_symmetry_Int_Tables_number   1
_chemical_formula_structural   Mg14CrFeO16
_chemical_formula_sum   'Mg14 Cr1 Fe1 O16'
_cell_volume   314.22814190
_cell_formula_units_Z   1
loop_
 _symmetry_equiv_pos_site_id
 _symmetry_equiv_pos_as_xyz
  1  'x, y, z'
loop_
 _atom_site_type_symbol
 _atom_site_label
 _atom_site_symmetry_multiplicity
 _atom_site_fract_x
 _atom_site_fract_y
 _atom_site_fract_z
 _atom_site_occupancy
  Mg  Mg0  1  0.50000000  0.00000000  -0.00000000  1
  Mg  Mg1  1  0.50000000  0.50000000  -0.00000000  1
  Mg  Mg2  1  -0.00000000  0.25167341  0.50000000  1
  Mg  Mg3  1  -0.00000000  0.74832659  0.50000000  1
  Mg  Mg4  1  0.50000000  0.25037679  0.50000000  1
  Mg  Mg5  1  0.50000000  0.74962321  0.50000000  1
  Mg  Mg6  1  0.25272592  0.00000000  0.50000000  1
  Mg  Mg7  1  0.25365113  0.50000000  0.50000000  1
  Mg  Mg8  1  0.74727408  0.00000000  0.50000000  1
  Mg  Mg9  1  0.74634887  0.50000000  0.50000000  1
  Mg  Mg10  1  0.25197035  0.25062496  -0.00000000  1
  Mg  Mg11  1  0.25197035  0.74937504  0.00000000  1
  Mg  Mg12  1  0.74802965  0.25062496  -0.00000000  1
  Mg  Mg13  1  0.74802965  0.74937504  0.00000000  1
  Cr  Cr14  1  -0.00000000  0.50000000  -0.00000000  1
  Fe  Fe15  1  -0.00000000  0.00000000  -0.00000000  1
  O  O16  1  0.25455221  0.00000000  0.00000000  1
  O  O17  1  0.26423269  0.50000000  -0.00000000  1
  O  O18  1  0.74544779  0.00000000  -0.00000000  1
  O  O19  1  0.73576731  0.50000000  0.00000000  1
  O  O20  1  0.24835317  0.24954566  0.50000000  1
  O  O21  1  0.24835317  0.75045434  0.50000000  1
  O  O22  1  0.75164683  0.24954566  0.50000000  1
  O  O23  1  0.75164683  0.75045434  0.50000000  1
  O  O24  1  -0.00000000  0.00000000  0.50000000  1
  O  O25  1  -0.00000000  0.50000000  0.50000000  1
  O  O26  1  0.50000000  0.00000000  0.50000000  1
  O  O27  1  0.50000000  0.50000000  0.50000000  1
  O  O28  1  -0.00000000  0.25486913  0.00000000  1
  O  O29  1  -0.00000000  0.74513087  -0.00000000  1
  O  O30  1  0.50000000  0.24757671  -0.00000000  1
  O  O31  1  0.50000000  0.75242329  0.00000000  1
