# generated using pymatgen
data_MoWSe4
_symmetry_space_group_name_H-M   'P 1'
_cell_length_a   3.31923315
_cell_length_b   3.31923584
_cell_length_c   22.76678689
_cell_angle_alpha   89.98901666
_cell_angle_beta   89.96675696
_cell_angle_gamma   119.99083556
_symmetry_Int_Tables_number   1
_chemical_formula_structural   MoWSe4
_chemical_formula_sum   'Mo1 W1 Se4'
_cell_volume   217.24420631
_cell_formula_units_Z   1
loop_
 _symmetry_equiv_pos_site_id
 _symmetry_equiv_pos_as_xyz
  1  'x, y, z'
loop_
 _atom_site_type_symbol
 _atom_site_label
 _atom_site_symmetry_multiplicity
 _atom_site_fract_x
 _atom_site_fract_y
 _atom_site_fract_z
 _atom_site_occupancy
  Mo  Mo0  1  0.66732559  0.33259449  0.45126469  1
  W  W1  1  0.33256709  0.66741880  0.15062230  1
  Se  Se2  1  0.33360517  0.66562368  0.52385215  1
  Se  Se3  1  0.66642963  0.33439672  0.07762295  1
  Se  Se4  1  0.66557638  0.33368254  0.22365931  1
  Se  Se5  1  0.33449414  0.66628476  0.37858260  1
