# generated using pymatgen
data_Sr4SeS3
_symmetry_space_group_name_H-M   'P 1'
_cell_length_a   7.47752687
_cell_length_b   7.47752687
_cell_length_c   7.48165318
_cell_angle_alpha   80.39329640
_cell_angle_beta   80.39329640
_cell_angle_gamma   33.55629298
_symmetry_Int_Tables_number   1
_chemical_formula_structural   Sr4SeS3
_chemical_formula_sum   'Sr4 Se1 S3'
_cell_volume   227.69177699
_cell_formula_units_Z   1
loop_
 _symmetry_equiv_pos_site_id
 _symmetry_equiv_pos_as_xyz
  1  'x, y, z'
loop_
 _atom_site_type_symbol
 _atom_site_label
 _atom_site_symmetry_multiplicity
 _atom_site_fract_x
 _atom_site_fract_y
 _atom_site_fract_z
 _atom_site_occupancy
  Sr  Sr0  1  0.62572361  0.62572361  0.11961551  1
  Sr  Sr1  1  0.37427639  0.37427639  0.88038449  1
  Sr  Sr2  1  0.12841359  0.12841359  0.62907997  1
  Sr  Sr3  1  0.87158641  0.87158641  0.37092003  1
  Se  Se4  1  0.50000000  0.50000000  0.50000000  1
  S  S5  1  0.24897807  0.24897807  0.24920512  1
  S  S6  1  -0.00000000  -0.00000000  0.00000000  1
  S  S7  1  0.75102193  0.75102193  0.75079488  1
