# generated using pymatgen
data_Cs2WS4
_symmetry_space_group_name_H-M   'P 1'
_cell_length_a   7.32813509
_cell_length_b   10.22410355
_cell_length_c   12.96988337
_cell_angle_alpha   90.00000000
_cell_angle_beta   90.00000000
_cell_angle_gamma   90.00000000
_symmetry_Int_Tables_number   1
_chemical_formula_structural   Cs2WS4
_chemical_formula_sum   'Cs8 W4 S16'
_cell_volume   971.75050915
_cell_formula_units_Z   4
loop_
 _symmetry_equiv_pos_site_id
 _symmetry_equiv_pos_as_xyz
  1  'x, y, z'
loop_
 _atom_site_type_symbol
 _atom_site_label
 _atom_site_symmetry_multiplicity
 _atom_site_fract_x
 _atom_site_fract_y
 _atom_site_fract_z
 _atom_site_occupancy
  Cs  Cs0  1  0.25000000  0.84461664  0.10388376  1
  Cs  Cs1  1  0.75000000  0.15538336  0.89611624  1
  Cs  Cs2  1  0.25000000  0.34461664  0.39611624  1
  Cs  Cs3  1  0.75000000  0.65538336  0.60388376  1
  Cs  Cs4  1  0.25000000  0.53532289  0.82811399  1
  Cs  Cs5  1  0.75000000  0.46467711  0.17188601  1
  Cs  Cs6  1  0.25000000  0.03532289  0.67188601  1
  Cs  Cs7  1  0.75000000  0.96467711  0.32811399  1
  W  W8  1  0.25000000  0.75350295  0.42356813  1
  W  W9  1  0.75000000  0.24649705  0.57643187  1
  W  W10  1  0.25000000  0.25350295  0.07643187  1
  W  W11  1  0.75000000  0.74649705  0.92356813  1
  S  S12  1  0.50667500  0.33395389  0.64633470  1
  S  S13  1  0.00667500  0.66604611  0.35366530  1
  S  S14  1  0.99332500  0.83395389  0.85366530  1
  S  S15  1  0.49332500  0.16604611  0.14633470  1
  S  S16  1  0.49332500  0.66604611  0.35366530  1
  S  S17  1  0.99332500  0.33395389  0.64633470  1
  S  S18  1  0.00667500  0.16604611  0.14633470  1
  S  S19  1  0.50667500  0.83395389  0.85366530  1
  S  S20  1  0.25000000  0.96589115  0.39617933  1
  S  S21  1  0.75000000  0.03410885  0.60382067  1
  S  S22  1  0.25000000  0.46589115  0.10382067  1
  S  S23  1  0.75000000  0.53410885  0.89617933  1
  S  S24  1  0.75000000  0.78830024  0.08962184  1
  S  S25  1  0.25000000  0.21169976  0.91037816  1
  S  S26  1  0.75000000  0.28830024  0.41037816  1
  S  S27  1  0.25000000  0.71169976  0.58962184  1
