# generated using pymatgen
data_Sr2InF7
_symmetry_space_group_name_H-M   'P 1'
_cell_length_a   12.30250104
_cell_length_b   5.45721209
_cell_length_c   8.30371036
_cell_angle_alpha   89.34757165
_cell_angle_beta   90.00000000
_cell_angle_gamma   90.00000000
_symmetry_Int_Tables_number   1
_chemical_formula_structural   Sr2InF7
_chemical_formula_sum   'Sr8 In4 F28'
_cell_volume   557.45302751
_cell_formula_units_Z   4
loop_
 _symmetry_equiv_pos_site_id
 _symmetry_equiv_pos_as_xyz
  1  'x, y, z'
loop_
 _atom_site_type_symbol
 _atom_site_label
 _atom_site_symmetry_multiplicity
 _atom_site_fract_x
 _atom_site_fract_y
 _atom_site_fract_z
 _atom_site_occupancy
  Sr  Sr0  1  0.27855570  0.76289266  0.44570771  1
  Sr  Sr1  1  0.77855570  0.23710734  0.05429229  1
  Sr  Sr2  1  0.72144430  0.23710734  0.55429229  1
  Sr  Sr3  1  0.22144430  0.76289266  0.94570771  1
  Sr  Sr4  1  0.06245266  0.23637627  0.67544329  1
  Sr  Sr5  1  0.56245266  0.76362373  0.82455671  1
  Sr  Sr6  1  0.93754734  0.76362373  0.32455671  1
  Sr  Sr7  1  0.43754734  0.23637627  0.17544329  1
  In  In8  1  0.37531310  0.27891145  0.71254955  1
  In  In9  1  0.87531310  0.72108855  0.78745045  1
  In  In10  1  0.62468690  0.72108855  0.28745045  1
  In  In11  1  0.12468690  0.27891145  0.21254955  1
  F  F12  1  0.85826145  0.79254256  0.03532037  1
  F  F13  1  0.35826145  0.20745744  0.46467963  1
  F  F14  1  0.14173855  0.20745744  0.96467963  1
  F  F15  1  0.64173855  0.79254256  0.53532037  1
  F  F16  1  0.57268618  0.36664012  0.37459002  1
  F  F17  1  0.07268618  0.63335988  0.12540998  1
  F  F18  1  0.42731382  0.63335988  0.62540998  1
  F  F19  1  0.92731382  0.36664012  0.87459002  1
  F  F20  1  0.22911524  0.49397741  0.70165776  1
  F  F21  1  0.72911524  0.50602259  0.79834224  1
  F  F22  1  0.77088476  0.50602259  0.29834224  1
  F  F23  1  0.27088476  0.49397741  0.20165776  1
  F  F24  1  0.39582861  0.49401147  0.92587532  1
  F  F25  1  0.89582861  0.50598853  0.57412468  1
  F  F26  1  0.60417139  0.50598853  0.07412468  1
  F  F27  1  0.10417139  0.49401147  0.42587532  1
  F  F28  1  0.24499242  0.01126361  0.69357299  1
  F  F29  1  0.74499242  0.98873639  0.80642701  1
  F  F30  1  0.75500758  0.98873639  0.30642701  1
  F  F31  1  0.25500758  0.01126361  0.19357299  1
  F  F32  1  0.39606618  0.01279125  0.91035657  1
  F  F33  1  0.89606618  0.98720875  0.58964343  1
  F  F34  1  0.60393382  0.98720875  0.08964343  1
  F  F35  1  0.10393382  0.01279125  0.41035657  1
  F  F36  1  0.04279814  0.79833232  0.78662644  1
  F  F37  1  0.54279814  0.20166768  0.71337356  1
  F  F38  1  0.95720186  0.20166768  0.21337356  1
  F  F39  1  0.45720186  0.79833232  0.28662644  1
