# generated using pymatgen
data_Dy2CI3
_symmetry_space_group_name_H-M   'P 1'
_cell_length_a   13.79170506
_cell_length_b   8.45055146
_cell_length_c   16.76442949
_cell_angle_alpha   59.95811703
_cell_angle_beta   90.00000000
_cell_angle_gamma   90.00000000
_symmetry_Int_Tables_number   1
_chemical_formula_structural   Dy2CI3
_chemical_formula_sum   'Dy16 C8 I24'
_cell_volume   1691.37137814
_cell_formula_units_Z   8
loop_
 _symmetry_equiv_pos_site_id
 _symmetry_equiv_pos_as_xyz
  1  'x, y, z'
loop_
 _atom_site_type_symbol
 _atom_site_label
 _atom_site_symmetry_multiplicity
 _atom_site_fract_x
 _atom_site_fract_y
 _atom_site_fract_z
 _atom_site_occupancy
  Dy  Dy0  1  0.59754697  0.14179993  0.57341071  1
  Dy  Dy1  1  0.40866353  0.27943102  0.43143930  1
  Dy  Dy2  1  0.09754697  0.85820007  0.92658929  1
  Dy  Dy3  1  0.90866353  0.72056898  0.06856070  1
  Dy  Dy4  1  0.40245303  0.85820007  0.42658929  1
  Dy  Dy5  1  0.59133647  0.72056898  0.56856070  1
  Dy  Dy6  1  0.90245303  0.14179993  0.07341071  1
  Dy  Dy7  1  0.09133647  0.27943102  0.93143930  1
  Dy  Dy8  1  0.60262161  0.62207159  0.37678809  1
  Dy  Dy9  1  0.39737839  0.37792841  0.62321191  1
  Dy  Dy10  1  0.10262161  0.37792841  0.12321191  1
  Dy  Dy11  1  0.89737839  0.62207159  0.87678809  1
  Dy  Dy12  1  0.36855164  0.84308687  0.65786863  1
  Dy  Dy13  1  0.63144836  0.15691313  0.34213137  1
  Dy  Dy14  1  0.86855164  0.15691313  0.84213137  1
  Dy  Dy15  1  0.13144836  0.84308687  0.15786863  1
  C  C16  1  0.46811996  0.96204576  0.53823195  1
  C  C17  1  0.53188004  0.03795424  0.46176805  1
  C  C18  1  0.96811996  0.03795424  0.96176805  1
  C  C19  1  0.03188004  0.96204576  0.03823195  1
  C  C20  1  0.51803600  0.41096090  0.51350379  1
  C  C21  1  0.01803600  0.58903910  0.98649621  1
  C  C22  1  0.48196400  0.58903910  0.48649621  1
  C  C23  1  0.98196400  0.41096090  0.01350379  1
  I  I24  1  0.76247287  0.32733219  0.42596371  1
  I  I25  1  0.23978304  0.18674627  0.57194898  1
  I  I26  1  0.26247287  0.67266781  0.07403629  1
  I  I27  1  0.73978304  0.81325373  0.92805102  1
  I  I28  1  0.23752713  0.67266781  0.57403629  1
  I  I29  1  0.76021696  0.81325373  0.42805102  1
  I  I30  1  0.73752713  0.32733219  0.92596371  1
  I  I31  1  0.26021696  0.18674627  0.07194898  1
  I  I32  1  0.72656258  0.33421584  0.66718189  1
  I  I33  1  0.27343742  0.66578416  0.33281811  1
  I  I34  1  0.22656258  0.66578416  0.83281811  1
  I  I35  1  0.77343742  0.33421584  0.16718189  1
  I  I36  1  0.48445656  0.99580849  0.75993031  1
  I  I37  1  0.51279627  0.51323031  0.24310261  1
  I  I38  1  0.98445656  0.00419151  0.74006969  1
  I  I39  1  0.01279627  0.48676969  0.25689739  1
  I  I40  1  0.51554344  0.00419151  0.24006969  1
  I  I41  1  0.48720373  0.48676969  0.75689739  1
  I  I42  1  0.01554344  0.99580849  0.25993031  1
  I  I43  1  0.98720373  0.51323031  0.74310261  1
  I  I44  1  0.73952267  0.81701655  0.67742213  1
  I  I45  1  0.26047733  0.18298345  0.32257787  1
  I  I46  1  0.23952267  0.18298345  0.82257787  1
  I  I47  1  0.76047733  0.81701655  0.17742213  1
