# generated using pymatgen
data_K2Al2Sb3
_symmetry_space_group_name_H-M   'P 1'
_cell_length_a   7.28564925
_cell_length_b   14.84412187
_cell_length_c   16.74899132
_cell_angle_alpha   89.43269201
_cell_angle_beta   90.00000000
_cell_angle_gamma   90.00000000
_symmetry_Int_Tables_number   1
_chemical_formula_structural   K2Al2Sb3
_chemical_formula_sum   'K16 Al16 Sb24'
_cell_volume   1811.29896645
_cell_formula_units_Z   8
loop_
 _symmetry_equiv_pos_site_id
 _symmetry_equiv_pos_as_xyz
  1  'x, y, z'
loop_
 _atom_site_type_symbol
 _atom_site_label
 _atom_site_symmetry_multiplicity
 _atom_site_fract_x
 _atom_site_fract_y
 _atom_site_fract_z
 _atom_site_occupancy
  K  K0  1  0.97014593  0.85886336  0.99259366  1
  K  K1  1  0.47014593  0.14113664  0.50740634  1
  K  K2  1  0.02985407  0.14113664  0.00740634  1
  K  K3  1  0.52985407  0.85886336  0.49259366  1
  K  K4  1  0.54794322  0.35005000  0.01818521  1
  K  K5  1  0.04794322  0.64995000  0.48181479  1
  K  K6  1  0.45205678  0.64995000  0.98181479  1
  K  K7  1  0.95205678  0.35005000  0.51818521  1
  K  K8  1  0.53212250  0.07466868  0.10914990  1
  K  K9  1  0.03212250  0.92533132  0.39085010  1
  K  K10  1  0.46787750  0.92533132  0.89085010  1
  K  K11  1  0.96787750  0.07466868  0.60914990  1
  K  K12  1  0.94505521  0.55680204  0.89571198  1
  K  K13  1  0.44505521  0.44319796  0.60428802  1
  K  K14  1  0.05494479  0.44319796  0.10428802  1
  K  K15  1  0.55494479  0.55680204  0.39571198  1
  Al  Al16  1  0.28257421  0.31265916  0.82674940  1
  Al  Al17  1  0.78257421  0.68734084  0.67325060  1
  Al  Al18  1  0.71742579  0.68734084  0.17325060  1
  Al  Al19  1  0.21742579  0.31265916  0.32674940  1
  Al  Al20  1  0.78899231  0.90601646  0.73052139  1
  Al  Al21  1  0.28899231  0.09398354  0.76947861  1
  Al  Al22  1  0.21100769  0.09398354  0.26947861  1
  Al  Al23  1  0.71100769  0.90601646  0.23052139  1
  Al  Al24  1  0.76638572  0.18436066  0.82118034  1
  Al  Al25  1  0.26638572  0.81563934  0.67881966  1
  Al  Al26  1  0.23361428  0.81563934  0.17881966  1
  Al  Al27  1  0.73361428  0.18436066  0.32118034  1
  Al  Al28  1  0.76201825  0.40519304  0.76118915  1
  Al  Al29  1  0.26201825  0.59480696  0.73881085  1
  Al  Al30  1  0.23798175  0.59480696  0.23881085  1
  Al  Al31  1  0.73798175  0.40519304  0.26118915  1
  Sb  Sb32  1  0.96331594  0.02870164  0.82333773  1
  Sb  Sb33  1  0.46331594  0.97129836  0.67666227  1
  Sb  Sb34  1  0.03668406  0.97129836  0.17666227  1
  Sb  Sb35  1  0.53668406  0.02870164  0.32333773  1
  Sb  Sb36  1  0.45025286  0.16477595  0.90076443  1
  Sb  Sb37  1  0.95025286  0.83522405  0.59923557  1
  Sb  Sb38  1  0.54974714  0.83522405  0.09923557  1
  Sb  Sb39  1  0.04974714  0.16477595  0.40076443  1
  Sb  Sb40  1  0.94405876  0.32843985  0.88649680  1
  Sb  Sb41  1  0.44405876  0.67156015  0.61350320  1
  Sb  Sb42  1  0.05594124  0.67156015  0.11350320  1
  Sb  Sb43  1  0.55594124  0.32843985  0.38649680  1
  Sb  Sb44  1  0.82432321  0.25275809  0.17505402  1
  Sb  Sb45  1  0.32432321  0.74724191  0.32494598  1
  Sb  Sb46  1  0.17567679  0.74724191  0.82494598  1
  Sb  Sb47  1  0.67567679  0.25275809  0.67505402  1
  Sb  Sb48  1  0.45732049  0.47478688  0.83220691  1
  Sb  Sb49  1  0.95732049  0.52521312  0.66779309  1
  Sb  Sb50  1  0.54267951  0.52521312  0.16779309  1
  Sb  Sb51  1  0.04267951  0.47478688  0.33220691  1
  Sb  Sb52  1  0.22148467  0.24636540  0.17798598  1
  Sb  Sb53  1  0.72148467  0.75363460  0.32201402  1
  Sb  Sb54  1  0.77851533  0.75363460  0.82201402  1
  Sb  Sb55  1  0.27851533  0.24636540  0.67798598  1
