# generated using pymatgen
data_Rb3MoF6
_symmetry_space_group_name_H-M   'P 1'
_cell_length_a   6.57148638
_cell_length_b   6.57148641
_cell_length_c   6.57148632
_cell_angle_alpha   60.00000305
_cell_angle_beta   60.00000475
_cell_angle_gamma   60.00000519
_symmetry_Int_Tables_number   1
_chemical_formula_structural   Rb3MoF6
_chemical_formula_sum   'Rb3 Mo1 F6'
_cell_volume   200.66696370
_cell_formula_units_Z   1
loop_
 _symmetry_equiv_pos_site_id
 _symmetry_equiv_pos_as_xyz
  1  'x, y, z'
loop_
 _atom_site_type_symbol
 _atom_site_label
 _atom_site_symmetry_multiplicity
 _atom_site_fract_x
 _atom_site_fract_y
 _atom_site_fract_z
 _atom_site_occupancy
  Rb  Rb0  1  0.25000000  0.25000000  0.25000000  1
  Rb  Rb1  1  0.75000000  0.75000000  0.75000000  1
  Rb  Rb2  1  0.50000000  0.50000000  0.50000000  1
  Mo  Mo3  1  0.00000000  0.00000000  -0.00000000  1
  F  F4  1  0.22060051  0.77939949  0.22060051  1
  F  F5  1  0.77939949  0.77939949  0.22060051  1
  F  F6  1  0.77939949  0.22060051  0.77939949  1
  F  F7  1  0.77939949  0.22060051  0.22060051  1
  F  F8  1  0.22060051  0.77939949  0.77939949  1
  F  F9  1  0.22060051  0.22060051  0.77939949  1
