# generated using pymatgen
data_TlSbCl6
_symmetry_space_group_name_H-M   'P 1'
_cell_length_a   6.39178530
_cell_length_b   6.80908721
_cell_length_c   11.98334957
_cell_angle_alpha   99.04221651
_cell_angle_beta   90.02206770
_cell_angle_gamma   118.01585984
_symmetry_Int_Tables_number   1
_chemical_formula_structural   TlSbCl6
_chemical_formula_sum   'Tl2 Sb2 Cl12'
_cell_volume   453.05462899
_cell_formula_units_Z   2
loop_
 _symmetry_equiv_pos_site_id
 _symmetry_equiv_pos_as_xyz
  1  'x, y, z'
loop_
 _atom_site_type_symbol
 _atom_site_label
 _atom_site_symmetry_multiplicity
 _atom_site_fract_x
 _atom_site_fract_y
 _atom_site_fract_z
 _atom_site_occupancy
  Tl  Tl0  1  0.93632264  0.00018103  0.74998996  1
  Tl  Tl1  1  0.06371859  0.99972385  0.25002058  1
  Sb  Sb2  1  0.49999757  0.49998590  -0.00000764  1
  Sb  Sb3  1  0.00000589  0.50003202  0.49999116  1
  Cl  Cl4  1  0.46646992  0.15937448  0.88933681  1
  Cl  Cl5  1  0.53344867  0.84051583  0.11069862  1
  Cl  Cl6  1  0.30736057  0.84073136  0.61064488  1
  Cl  Cl7  1  0.69268592  0.15933769  0.38932449  1
  Cl  Cl8  1  0.38714325  0.59096099  0.83339743  1
  Cl  Cl9  1  0.61276886  0.40901391  0.16659840  1
  Cl  Cl10  1  0.79621469  0.40932345  0.66658558  1
  Cl  Cl11  1  0.20380959  0.59075006  0.33339767  1
  Cl  Cl12  1  0.79358441  0.70324013  0.46540321  1
  Cl  Cl13  1  0.20644656  0.29682745  0.53458694  1
  Cl  Cl14  1  0.09020487  0.29668966  0.03439425  1
  Cl  Cl15  1  0.90982000  0.70331218  0.96563666  1
