# generated using pymatgen
data_MgV12Zn6O24
_symmetry_space_group_name_H-M   'P 1'
_cell_length_a   6.05689650
_cell_length_b   6.15260423
_cell_length_c   18.26073370
_cell_angle_alpha   60.54340321
_cell_angle_beta   60.01018730
_cell_angle_gamma   60.84199566
_symmetry_Int_Tables_number   1
_chemical_formula_structural   MgV12Zn6O24
_chemical_formula_sum   'Mg1 V12 Zn6 O24'
_cell_volume   486.19357847
_cell_formula_units_Z   1
loop_
 _symmetry_equiv_pos_site_id
 _symmetry_equiv_pos_as_xyz
  1  'x, y, z'
loop_
 _atom_site_type_symbol
 _atom_site_label
 _atom_site_symmetry_multiplicity
 _atom_site_fract_x
 _atom_site_fract_y
 _atom_site_fract_z
 _atom_site_occupancy
  Mg  Mg0  1  0.01453557  0.48275826  0.32924751  1
  V  V1  1  0.00030539  0.53602076  0.15801612  1
  V  V2  1  0.49073073  0.53591307  0.15811911  1
  V  V3  1  0.00806714  0.46081026  0.50573687  1
  V  V4  1  0.48385872  0.02529171  0.16908009  1
  V  V5  1  0.49694851  0.51555156  0.32839180  1
  V  V6  1  0.50759904  0.46162297  0.50615001  1
  V  V7  1  0.00450280  0.50281524  0.83287874  1
  V  V8  1  0.51540720  0.97464791  0.49735485  1
  V  V9  1  0.49896578  0.00403453  0.83390613  1
  V  V10  1  0.50650934  0.49026382  0.66638035  1
  V  V11  1  0.49913722  0.50139793  0.83334750  1
  V  V12  1  0.87424858  0.89181887  0.95488447  1
  Zn  Zn13  1  0.11391908  0.14160862  0.04444373  1
  Zn  Zn14  1  0.08996684  0.01023324  0.43197329  1
  Zn  Zn15  1  0.50071850  0.50495723  0.99914701  1
  Zn  Zn16  1  0.13074549  0.11501953  0.70897086  1
  Zn  Zn17  1  0.83751960  0.96670037  0.28430240  1
  Zn  Zn18  1  0.88103728  0.84813881  0.63032139  1
  O  O19  1  0.24881800  0.27196580  0.09017229  1
  O  O20  1  0.24315689  0.30222946  0.23657269  1
  O  O21  1  0.25422621  0.74763941  0.08285476  1
  O  O22  1  0.71146594  0.27216975  0.08989497  1
  O  O23  1  0.25165503  0.76305608  0.24483957  1
  O  O24  1  0.24708910  0.25212287  0.41579084  1
  O  O25  1  0.73645297  0.33305205  0.23088393  1
  O  O26  1  0.73430548  0.77916059  0.08534705  1
  O  O27  1  0.26465157  0.67015352  0.43129132  1
  O  O28  1  0.26921552  0.23198882  0.57581361  1
  O  O29  1  0.74895319  0.76307276  0.24456879  1
  O  O30  1  0.74510805  0.25796507  0.41511973  1
  O  O31  1  0.28974487  0.70110578  0.58207463  1
  O  O32  1  0.25294541  0.26523769  0.75530880  1
  O  O33  1  0.75054422  0.24821994  0.58404930  1
  O  O34  1  0.76953147  0.70311014  0.41828601  1
  O  O35  1  0.26276532  0.26334142  0.90628906  1
  O  O36  1  0.27234723  0.71368063  0.75315705  1
  O  O37  1  0.76300129  0.70757637  0.58028558  1
  O  O38  1  0.71989284  0.25412949  0.75330261  1
  O  O39  1  0.26969009  0.76057279  0.90960245  1
  O  O40  1  0.73669448  0.73859256  0.76344857  1
  O  O41  1  0.74377662  0.28042860  0.90916573  1
  O  O42  1  0.75923739  0.74982571  0.90851141  1
