# generated using pymatgen
data_SbSeBr
_symmetry_space_group_name_H-M   'P 1'
_cell_length_a   4.04084569
_cell_length_b   8.49177124
_cell_length_c   10.71345544
_cell_angle_alpha   90.00000000
_cell_angle_beta   90.00000000
_cell_angle_gamma   90.00000000
_symmetry_Int_Tables_number   1
_chemical_formula_structural   SbSeBr
_chemical_formula_sum   'Sb4 Se4 Br4'
_cell_volume   367.62083733
_cell_formula_units_Z   4
loop_
 _symmetry_equiv_pos_site_id
 _symmetry_equiv_pos_as_xyz
  1  'x, y, z'
loop_
 _atom_site_type_symbol
 _atom_site_label
 _atom_site_symmetry_multiplicity
 _atom_site_fract_x
 _atom_site_fract_y
 _atom_site_fract_z
 _atom_site_occupancy
  Sb  Sb0  1  0.25000000  0.60980681  0.63305218  1
  Sb  Sb1  1  0.75000000  0.39019319  0.36694782  1
  Sb  Sb2  1  0.75000000  0.89019319  0.13305218  1
  Sb  Sb3  1  0.25000000  0.10980681  0.86694782  1
  Se  Se4  1  0.25000000  0.82398214  0.96078378  1
  Se  Se5  1  0.75000000  0.17601786  0.03921622  1
  Se  Se6  1  0.75000000  0.67601786  0.46078378  1
  Se  Se7  1  0.25000000  0.32398214  0.53921622  1
  Br  Br8  1  0.25000000  0.52670478  0.19616101  1
  Br  Br9  1  0.75000000  0.47329522  0.80383899  1
  Br  Br10  1  0.75000000  0.97329522  0.69616101  1
  Br  Br11  1  0.25000000  0.02670478  0.30383899  1
