# generated using pymatgen
data_TiZnF6
_symmetry_space_group_name_H-M   'P 1'
_cell_length_a   5.40268057
_cell_length_b   5.40268057
_cell_length_c   5.40268078
_cell_angle_alpha   56.15135614
_cell_angle_beta   56.15135607
_cell_angle_gamma   56.15135900
_symmetry_Int_Tables_number   1
_chemical_formula_structural   TiZnF6
_chemical_formula_sum   'Ti1 Zn1 F6'
_cell_volume   101.57419918
_cell_formula_units_Z   1
loop_
 _symmetry_equiv_pos_site_id
 _symmetry_equiv_pos_as_xyz
  1  'x, y, z'
loop_
 _atom_site_type_symbol
 _atom_site_label
 _atom_site_symmetry_multiplicity
 _atom_site_fract_x
 _atom_site_fract_y
 _atom_site_fract_z
 _atom_site_occupancy
  Ti  Ti0  1  0.00000000  -0.00000000  -0.00000000  1
  Zn  Zn1  1  0.50000000  0.50000000  0.50000000  1
  F  F2  1  0.64411582  0.87567645  0.24018857  1
  F  F3  1  0.87567645  0.24018857  0.64411582  1
  F  F4  1  0.75981143  0.35588418  0.12432355  1
  F  F5  1  0.12432355  0.75981143  0.35588418  1
  F  F6  1  0.35588418  0.12432355  0.75981143  1
  F  F7  1  0.24018857  0.64411582  0.87567645  1
