# generated using pymatgen
data_MgZn3Cu2H14(SO9)2
_symmetry_space_group_name_H-M   'P 1'
_cell_length_a   6.03779294
_cell_length_b   6.52874076
_cell_length_c   10.60579526
_cell_angle_alpha   95.90112191
_cell_angle_beta   88.93731002
_cell_angle_gamma   90.27094013
_symmetry_Int_Tables_number   1
_chemical_formula_structural   MgZn3Cu2H14(SO9)2
_chemical_formula_sum   'Mg1 Zn3 Cu2 H14 S2 O18'
_cell_volume   415.78315901
_cell_formula_units_Z   1
loop_
 _symmetry_equiv_pos_site_id
 _symmetry_equiv_pos_as_xyz
  1  'x, y, z'
loop_
 _atom_site_type_symbol
 _atom_site_label
 _atom_site_symmetry_multiplicity
 _atom_site_fract_x
 _atom_site_fract_y
 _atom_site_fract_z
 _atom_site_occupancy
  Mg  Mg0  1  0.80594570  0.70296299  0.55138973  1
  Zn  Zn1  1  0.00778313  0.99357169  0.00349531  1
  Zn  Zn2  1  0.33673342  0.81728496  0.49523256  1
  Zn  Zn3  1  0.53729695  0.27282770  0.46776537  1
  Cu  Cu4  1  0.98482505  0.14838076  0.53792179  1
  Cu  Cu5  1  0.09346755  0.38639626  0.38058036  1
  H  H6  1  0.77977022  0.33521472  0.06733513  1
  H  H7  1  0.23864283  0.65364180  0.94669381  1
  H  H8  1  0.65530142  0.24118134  0.94279117  1
  H  H9  1  0.36249942  0.75267260  0.07008681  1
  H  H10  1  0.86836690  0.64537318  0.87551150  1
  H  H11  1  0.16564053  0.33816063  0.13016412  1
  H  H12  1  0.64767680  0.76996149  0.92065704  1
  H  H13  1  0.37967489  0.20840402  0.08103216  1
  H  H14  1  0.84720341  0.10169188  0.30991388  1
  H  H15  1  0.10449077  0.90516067  0.69321053  1
  H  H16  1  0.33873951  0.03781750  0.29824793  1
  H  H17  1  0.56121341  0.97138617  0.68344332  1
  H  H18  1  0.42348650  0.56855155  0.31463422  1
  H  H19  1  0.61620084  0.42359724  0.68519385  1
  S  S20  1  0.22562613  0.29534603  0.79907803  1
  S  S21  1  0.79761510  0.69960666  0.21965461  1
  O  O22  1  0.20149261  0.29818296  0.65974030  1
  O  O23  1  0.82501290  0.70789937  0.36004935  1
  O  O24  1  0.46509029  0.31810847  0.82956662  1
  O  O25  1  0.55838226  0.67126143  0.18964970  1
  O  O26  1  0.09684653  0.46505761  0.87054846  1
  O  O27  1  0.92777220  0.52715971  0.15342860  1
  O  O28  1  0.13762240  0.09133462  0.83439527  1
  O  O29  1  0.88191494  0.90036902  0.17983504  1
  O  O30  1  0.35688161  0.04930908  0.38969547  1
  O  O31  1  0.59322625  0.92728967  0.59461976  1
  O  O32  1  0.36079908  0.53784255  0.39829976  1
  O  O33  1  0.67772662  0.44888665  0.60194825  1
  O  O34  1  0.83812338  0.21678833  0.37809894  1
  O  O35  1  0.07389829  0.84820655  0.60549766  1
  O  O36  1  0.29649232  0.78687559  0.99029649  1
  O  O37  1  0.72291547  0.20410889  0.02211119  1
  O  O38  1  0.80052525  0.78408017  0.88930456  1
  O  O39  1  0.22850611  0.19804749  0.11638036  1
