# generated using pymatgen
data_Ba3SbI3
_symmetry_space_group_name_H-M   'P 1'
_cell_length_a   12.30369011
_cell_length_b   12.30303973
_cell_length_c   12.30253666
_cell_angle_alpha   109.47037666
_cell_angle_beta   109.47482847
_cell_angle_gamma   109.47332688
_symmetry_Int_Tables_number   1
_chemical_formula_structural   Ba3SbI3
_chemical_formula_sum   'Ba12 Sb4 I12'
_cell_volume   1433.48938703
_cell_formula_units_Z   4
loop_
 _symmetry_equiv_pos_site_id
 _symmetry_equiv_pos_as_xyz
  1  'x, y, z'
loop_
 _atom_site_type_symbol
 _atom_site_label
 _atom_site_symmetry_multiplicity
 _atom_site_fract_x
 _atom_site_fract_y
 _atom_site_fract_z
 _atom_site_occupancy
  Ba  Ba0  1  0.48716134  0.49357815  0.24357702  1
  Ba  Ba1  1  0.74999816  0.24357884  0.25641453  1
  Ba  Ba2  1  0.74999814  0.00641721  0.49357676  1
  Ba  Ba3  1  0.24357940  0.48716143  0.49357690  1
  Ba  Ba4  1  0.25641706  0.74999802  0.24357730  1
  Ba  Ba5  1  0.01283537  0.25641698  0.00641535  1
  Ba  Ba6  1  0.00641735  0.01283440  0.25641549  1
  Ba  Ba7  1  0.49357962  0.74999736  0.00641508  1
  Ba  Ba8  1  0.49357950  0.24357889  0.48715978  1
  Ba  Ba9  1  0.00641718  0.49357910  0.74999597  1
  Ba  Ba10  1  0.25641698  0.00641674  0.01283236  1
  Ba  Ba11  1  0.24357992  0.25641644  0.74999622  1
  Sb  Sb12  1  0.24999976  0.24999593  0.24999803  1
  Sb  Sb13  1  0.49999284  -0.00000206  0.24999395  1
  Sb  Sb14  1  0.00000196  0.25000118  0.49999880  1
  Sb  Sb15  1  0.24999679  0.49999760  0.99999339  1
  I  I16  1  0.24999843  0.74933113  0.75066323  1
  I  I17  1  0.49880338  0.49922272  0.74925163  1
  I  I18  1  0.00114119  0.75076333  0.00078742  1
  I  I19  1  0.75071224  0.24998388  0.74938059  1
  I  I20  1  0.00075507  0.00134461  0.75074770  1
  I  I21  1  0.25000317  0.00066461  0.49933420  1
  I  I22  1  0.74924173  0.49874666  0.49922822  1
  I  I23  1  0.49939684  0.25001214  0.00072399  1
  I  I24  1  0.74934069  0.75065503  0.24999608  1
  I  I25  1  0.75074588  0.00074486  0.00133370  1
  I  I26  1  0.00064372  0.49931901  0.24996208  1
  I  I27  1  0.49924627  0.74924580  0.49865325  1
