# generated using pymatgen
data_Zn3(AsO3)2
_symmetry_space_group_name_H-M   'P 1'
_cell_length_a   5.18182391
_cell_length_b   8.25343307
_cell_length_c   15.83709290
_cell_angle_alpha   97.46126465
_cell_angle_beta   90.00000734
_cell_angle_gamma   90.00000566
_symmetry_Int_Tables_number   1
_chemical_formula_structural   Zn3(AsO3)2
_chemical_formula_sum   'Zn12 As8 O24'
_cell_volume   671.58326936
_cell_formula_units_Z   4
loop_
 _symmetry_equiv_pos_site_id
 _symmetry_equiv_pos_as_xyz
  1  'x, y, z'
loop_
 _atom_site_type_symbol
 _atom_site_label
 _atom_site_symmetry_multiplicity
 _atom_site_fract_x
 _atom_site_fract_y
 _atom_site_fract_z
 _atom_site_occupancy
  Zn  Zn0  1  0.64595989  0.86871062  0.74015035  1
  Zn  Zn1  1  0.14596142  0.13128671  0.75984996  1
  Zn  Zn2  1  0.35403877  0.13128670  0.25984996  1
  Zn  Zn3  1  0.85403985  0.86871059  0.24015036  1
  Zn  Zn4  1  0.12663503  0.38888802  0.93294728  1
  Zn  Zn5  1  0.62663648  0.61111117  0.56705158  1
  Zn  Zn6  1  0.87336386  0.61111118  0.06705161  1
  Zn  Zn7  1  0.37336469  0.38888799  0.43294729  1
  Zn  Zn8  1  0.54895449  0.51142619  0.81113465  1
  Zn  Zn9  1  0.04896075  0.48857029  0.68886779  1
  Zn  Zn10  1  0.45103950  0.48857033  0.18886775  1
  Zn  Zn11  1  0.95104526  0.51142625  0.31113462  1
  As  As12  1  0.04113183  0.74281539  0.86983238  1
  As  As13  1  0.54115262  0.25719233  0.63016376  1
  As  As14  1  0.95884743  0.25719226  0.13016372  1
  As  As15  1  0.45886802  0.74281538  0.36983237  1
  As  As16  1  0.63138241  0.16635551  0.89372688  1
  As  As17  1  0.13138163  0.83363664  0.60627134  1
  As  As18  1  0.36861839  0.83363664  0.10627130  1
  As  As19  1  0.86861757  0.16635553  0.39372687  1
  O  O20  1  0.99196176  0.61390511  0.94949780  1
  O  O21  1  0.49193307  0.38610553  0.55050391  1
  O  O22  1  0.00806699  0.38610559  0.05050392  1
  O  O23  1  0.50803812  0.61390511  0.44949779  1
  O  O24  1  0.94037238  0.22283355  0.85640651  1
  O  O25  1  0.44036845  0.77716455  0.64359420  1
  O  O26  1  0.05963170  0.77716461  0.14359426  1
  O  O27  1  0.55962753  0.22283359  0.35640654  1
  O  O28  1  0.50042529  0.07374612  0.79479859  1
  O  O29  1  0.00041872  0.92625250  0.70519601  1
  O  O30  1  0.49958139  0.92625257  0.20519597  1
  O  O31  1  -0.00042533  0.07374615  0.29479858  1
  O  O32  1  0.48214345  0.36220577  0.89499124  1
  O  O33  1  0.98214099  0.63778931  0.60501118  1
  O  O34  1  0.51785926  0.63778940  0.10501118  1
  O  O35  1  0.01785628  0.36220588  0.39499126  1
  O  O36  1  0.69104041  0.41379337  0.70228113  1
  O  O37  1  0.19103956  0.58621706  0.79772134  1
  O  O38  1  0.30896049  0.58621696  0.29772130  1
  O  O39  1  0.80895957  0.41379325  0.20228112  1
  O  O40  1  0.72549847  0.72184707  0.82406653  1
  O  O41  1  0.22552127  0.27814806  0.67593563  1
  O  O42  1  0.27447879  0.27814803  0.17593559  1
  O  O43  1  0.77450150  0.72184713  0.32406657  1
