# generated using pymatgen
data_P2Pb3O8
_symmetry_space_group_name_H-M   'P 1'
_cell_length_a   9.81255040
_cell_length_b   9.81260676
_cell_length_c   7.21143278
_cell_angle_alpha   90.00002126
_cell_angle_beta   90.00020912
_cell_angle_gamma   120.00017199
_symmetry_Int_Tables_number   1
_chemical_formula_structural   P2Pb3O8
_chemical_formula_sum   'P6 Pb9 O24'
_cell_volume   601.33673314
_cell_formula_units_Z   3
loop_
 _symmetry_equiv_pos_site_id
 _symmetry_equiv_pos_as_xyz
  1  'x, y, z'
loop_
 _atom_site_type_symbol
 _atom_site_label
 _atom_site_symmetry_multiplicity
 _atom_site_fract_x
 _atom_site_fract_y
 _atom_site_fract_z
 _atom_site_occupancy
  P  P0  1  0.60516293  0.98181991  0.25087438  1
  P  P1  1  0.37665803  0.39483409  0.25087336  1
  P  P2  1  0.01817971  0.62334337  0.25087658  1
  P  P3  1  0.39718605  0.01855607  0.75155340  1
  P  P4  1  0.62136698  0.60281345  0.75154847  1
  P  P5  1  0.98144659  0.37863412  0.75155173  1
  Pb  Pb6  1  0.75389449  0.74021401  0.24388225  1
  Pb  Pb7  1  0.98631733  0.24610448  0.24388379  1
  Pb  Pb8  1  0.25977980  0.01367707  0.24389066  1
  Pb  Pb9  1  0.25836471  0.25406758  0.75720431  1
  Pb  Pb10  1  0.99570222  0.74163361  0.75720580  1
  Pb  Pb11  1  0.74593674  0.00430114  0.75720802  1
  Pb  Pb12  1  0.66666634  0.33333151  0.48825511  1
  Pb  Pb13  1  0.33333438  0.66666798  0.99521029  1
  Pb  Pb14  1  0.33333351  0.66666393  0.49626185  1
  O  O15  1  0.42458502  0.91631587  0.23699808  1
  O  O16  1  0.49173138  0.57541587  0.23700086  1
  O  O17  1  0.08368507  0.50827086  0.23700101  1
  O  O18  1  0.57682980  0.09382866  0.76153346  1
  O  O19  1  0.51699849  0.42317280  0.76152886  1
  O  O20  1  0.90617664  0.48300229  0.76153475  1
  O  O21  1  0.69588946  0.16094879  0.26111221  1
  O  O22  1  0.46506004  0.30410991  0.26111191  1
  O  O23  1  0.83905043  0.53493902  0.26111087  1
  O  O24  1  0.32036511  0.83639084  0.74826896  1
  O  O25  1  0.51602388  0.67963579  0.74826665  1
  O  O26  1  0.16361416  0.48397344  0.74826678  1
  O  O27  1  0.63387191  0.90641686  0.42343249  1
  O  O28  1  0.27254359  0.36612569  0.42343106  1
  O  O29  1  0.09357803  0.72745402  0.42343294  1
  O  O30  1  0.32875751  0.06615073  0.91477674  1
  O  O31  1  0.73739066  0.67124234  0.91477325  1
  O  O32  1  0.93385048  0.26261093  0.91477240  1
  O  O33  1  0.35597027  0.07997927  0.57561952  1
  O  O34  1  0.72400930  0.64403153  0.57561589  1
  O  O35  1  0.92002136  0.27599059  0.57561805  1
  O  O36  1  0.65323780  0.92034072  0.07971226  1
  O  O37  1  0.26710221  0.34675892  0.07971059  1
  O  O38  1  0.07966259  0.73290095  0.07971638  1
