# generated using pymatgen
data_TaCl3O
_symmetry_space_group_name_H-M   'P 1'
_cell_length_a   3.80935944
_cell_length_b   11.22580866
_cell_length_c   11.22580866
_cell_angle_alpha   90.00000000
_cell_angle_beta   90.00000000
_cell_angle_gamma   90.00000000
_symmetry_Int_Tables_number   1
_chemical_formula_structural   TaCl3O
_chemical_formula_sum   'Ta4 Cl12 O4'
_cell_volume   480.05082948
_cell_formula_units_Z   4
loop_
 _symmetry_equiv_pos_site_id
 _symmetry_equiv_pos_as_xyz
  1  'x, y, z'
loop_
 _atom_site_type_symbol
 _atom_site_label
 _atom_site_symmetry_multiplicity
 _atom_site_fract_x
 _atom_site_fract_y
 _atom_site_fract_z
 _atom_site_occupancy
  Ta  Ta0  1  0.00000000  0.37633762  0.62366238  1
  Ta  Ta1  1  -0.00000000  0.62366238  0.37633762  1
  Ta  Ta2  1  0.50000000  0.87633762  0.87633762  1
  Ta  Ta3  1  0.50000000  0.12366238  0.12366238  1
  Cl  Cl4  1  -0.00000000  0.39660393  0.39660393  1
  Cl  Cl5  1  0.00000000  0.60339607  0.60339607  1
  Cl  Cl6  1  0.50000000  0.10339607  0.89660393  1
  Cl  Cl7  1  0.50000000  0.89660393  0.10339607  1
  Cl  Cl8  1  0.00000000  0.17445529  0.60544247  1
  Cl  Cl9  1  0.00000000  0.82554471  0.39455753  1
  Cl  Cl10  1  0.50000000  0.89455753  0.67445529  1
  Cl  Cl11  1  0.50000000  0.32554471  0.10544247  1
  Cl  Cl12  1  0.50000000  0.10544247  0.32554471  1
  Cl  Cl13  1  0.50000000  0.67445529  0.89455753  1
  Cl  Cl14  1  0.00000000  0.60544247  0.17445529  1
  Cl  Cl15  1  -0.00000000  0.39455753  0.82554471  1
  O  O16  1  0.00000000  0.10985990  0.10985990  1
  O  O17  1  0.00000000  0.89014010  0.89014010  1
  O  O18  1  0.50000000  0.39014010  0.60985990  1
  O  O19  1  0.50000000  0.60985990  0.39014010  1
