# generated using pymatgen
data_Mg(Fe2O3)4
_symmetry_space_group_name_H-M   'P 1'
_cell_length_a   5.38792100
_cell_length_b   5.29365682
_cell_length_c   9.31768145
_cell_angle_alpha   73.45629345
_cell_angle_beta   90.00000000
_cell_angle_gamma   90.00000000
_symmetry_Int_Tables_number   1
_chemical_formula_structural   Mg(Fe2O3)4
_chemical_formula_sum   'Mg1 Fe8 O12'
_cell_volume   254.75549217
_cell_formula_units_Z   1
loop_
 _symmetry_equiv_pos_site_id
 _symmetry_equiv_pos_as_xyz
  1  'x, y, z'
loop_
 _atom_site_type_symbol
 _atom_site_label
 _atom_site_symmetry_multiplicity
 _atom_site_fract_x
 _atom_site_fract_y
 _atom_site_fract_z
 _atom_site_occupancy
  Mg  Mg0  1  0.31100600  0.25000000  0.50000000  1
  Fe  Fe1  1  0.25487500  0.48676200  0.08897700  1
  Fe  Fe2  1  0.19291400  0.90712700  0.30097500  1
  Fe  Fe3  1  0.19291400  0.59287300  0.69902500  1
  Fe  Fe4  1  0.25487600  0.01323800  0.91102300  1
  Fe  Fe5  1  0.73652800  0.51345400  0.91140100  1
  Fe  Fe6  1  0.78582800  0.08875400  0.69745900  1
  Fe  Fe7  1  0.78582800  0.41124600  0.30254100  1
  Fe  Fe8  1  0.73652700  0.98654600  0.08859900  1
  O  O9  1  0.38410800  0.67470700  0.86498500  1
  O  O10  1  0.16147200  0.21694300  0.70086400  1
  O  O11  1  0.16147200  0.28305700  0.29913600  1
  O  O12  1  0.38410800  0.82529300  0.13501500  1
  O  O13  1  0.60335000  0.33481300  0.12366800  1
  O  O14  1  0.86500100  0.80628900  0.28326000  1
  O  O15  1  0.86500100  0.69371100  0.71674000  1
  O  O16  1  0.60335000  0.16518700  0.87633200  1
  O  O17  1  0.95145500  0.75000000  0.00000000  1
  O  O18  1  0.66146300  0.25000000  0.50000000  1
  O  O19  1  0.05167600  0.25000000  0.00000000  1
  O  O20  1  0.29375000  0.75000000  0.50000000  1
