# generated using pymatgen
data_Cd4As2Br3
_symmetry_space_group_name_H-M   'P 1'
_cell_length_a   12.75531791
_cell_length_b   12.75531791
_cell_length_c   12.75531791
_cell_angle_alpha   90.00000000
_cell_angle_beta   90.00000000
_cell_angle_gamma   90.00000000
_symmetry_Int_Tables_number   1
_chemical_formula_structural   Cd4As2Br3
_chemical_formula_sum   'Cd32 As16 Br24'
_cell_volume   2075.26643510
_cell_formula_units_Z   8
loop_
 _symmetry_equiv_pos_site_id
 _symmetry_equiv_pos_as_xyz
  1  'x, y, z'
loop_
 _atom_site_type_symbol
 _atom_site_label
 _atom_site_symmetry_multiplicity
 _atom_site_fract_x
 _atom_site_fract_y
 _atom_site_fract_z
 _atom_site_occupancy
  Cd  Cd0  1  0.25065346  0.52851108  0.98749215  1
  Cd  Cd1  1  0.74934654  0.02851108  0.51250785  1
  Cd  Cd2  1  0.24934654  0.47148892  0.48749215  1
  Cd  Cd3  1  0.75065346  0.97148892  0.01250785  1
  Cd  Cd4  1  0.98749215  0.25065346  0.52851108  1
  Cd  Cd5  1  0.51250785  0.74934654  0.02851108  1
  Cd  Cd6  1  0.48749215  0.24934654  0.47148892  1
  Cd  Cd7  1  0.01250785  0.75065346  0.97148892  1
  Cd  Cd8  1  0.52851108  0.98749215  0.25065346  1
  Cd  Cd9  1  0.02851108  0.51250785  0.74934654  1
  Cd  Cd10  1  0.47148892  0.48749215  0.24934654  1
  Cd  Cd11  1  0.97148892  0.01250785  0.75065346  1
  Cd  Cd12  1  0.74934654  0.47148892  0.01250785  1
  Cd  Cd13  1  0.25065346  0.97148892  0.48749215  1
  Cd  Cd14  1  0.75065346  0.52851108  0.51250785  1
  Cd  Cd15  1  0.24934654  0.02851108  0.98749215  1
  Cd  Cd16  1  0.01250785  0.74934654  0.47148892  1
  Cd  Cd17  1  0.48749215  0.25065346  0.97148892  1
  Cd  Cd18  1  0.51250785  0.75065346  0.52851108  1
  Cd  Cd19  1  0.98749215  0.24934654  0.02851108  1
  Cd  Cd20  1  0.47148892  0.01250785  0.74934654  1
  Cd  Cd21  1  0.97148892  0.48749215  0.25065346  1
  Cd  Cd22  1  0.52851108  0.51250785  0.75065346  1
  Cd  Cd23  1  0.02851108  0.98749215  0.24934654  1
  Cd  Cd24  1  0.27949812  0.72050188  0.22050188  1
  Cd  Cd25  1  0.72050188  0.22050188  0.27949812  1
  Cd  Cd26  1  0.22050188  0.27949812  0.72050188  1
  Cd  Cd27  1  0.77949812  0.77949812  0.77949812  1
  Cd  Cd28  1  0.72050188  0.27949812  0.77949812  1
  Cd  Cd29  1  0.27949812  0.77949812  0.72050188  1
  Cd  Cd30  1  0.77949812  0.72050188  0.27949812  1
  Cd  Cd31  1  0.22050188  0.22050188  0.22050188  1
  As  As32  1  0.05430675  0.94569325  0.44569325  1
  As  As33  1  0.94569325  0.44569325  0.05430675  1
  As  As34  1  0.44569325  0.05430675  0.94569325  1
  As  As35  1  0.55430675  0.55430675  0.55430675  1
  As  As36  1  0.94569325  0.05430675  0.55430675  1
  As  As37  1  0.05430675  0.55430675  0.94569325  1
  As  As38  1  0.55430675  0.94569325  0.05430675  1
  As  As39  1  0.44569325  0.44569325  0.44569325  1
  As  As40  1  0.39608802  0.60391198  0.10391198  1
  As  As41  1  0.60391198  0.10391198  0.39608802  1
  As  As42  1  0.10391198  0.39608802  0.60391198  1
  As  As43  1  0.89608802  0.89608802  0.89608802  1
  As  As44  1  0.60391198  0.39608802  0.89608802  1
  As  As45  1  0.39608802  0.89608802  0.60391198  1
  As  As46  1  0.89608802  0.60391198  0.39608802  1
  As  As47  1  0.10391198  0.10391198  0.10391198  1
  Br  Br48  1  0.23460119  0.68550084  0.43070216  1
  Br  Br49  1  0.76539881  0.18550084  0.06929784  1
  Br  Br50  1  0.26539881  0.31449916  0.93070216  1
  Br  Br51  1  0.73460119  0.81449916  0.56929784  1
  Br  Br52  1  0.43070216  0.23460119  0.68550084  1
  Br  Br53  1  0.06929784  0.76539881  0.18550084  1
  Br  Br54  1  0.93070216  0.26539881  0.31449916  1
  Br  Br55  1  0.56929784  0.73460119  0.81449916  1
  Br  Br56  1  0.68550084  0.43070216  0.23460119  1
  Br  Br57  1  0.18550084  0.06929784  0.76539881  1
  Br  Br58  1  0.31449916  0.93070216  0.26539881  1
  Br  Br59  1  0.81449916  0.56929784  0.73460119  1
  Br  Br60  1  0.76539881  0.31449916  0.56929784  1
  Br  Br61  1  0.23460119  0.81449916  0.93070216  1
  Br  Br62  1  0.73460119  0.68550084  0.06929784  1
  Br  Br63  1  0.26539881  0.18550084  0.43070216  1
  Br  Br64  1  0.56929784  0.76539881  0.31449916  1
  Br  Br65  1  0.93070216  0.23460119  0.81449916  1
  Br  Br66  1  0.06929784  0.73460119  0.68550084  1
  Br  Br67  1  0.43070216  0.26539881  0.18550084  1
  Br  Br68  1  0.31449916  0.56929784  0.76539881  1
  Br  Br69  1  0.81449916  0.93070216  0.23460119  1
  Br  Br70  1  0.68550084  0.06929784  0.73460119  1
  Br  Br71  1  0.18550084  0.43070216  0.26539881  1
