# generated using pymatgen
data_SiH12(CO)4
_symmetry_space_group_name_H-M   'P 1'
_cell_length_a   6.12323100
_cell_length_b   9.00427224
_cell_length_c   9.00427224
_cell_angle_alpha   83.36105469
_cell_angle_beta   70.12202006
_cell_angle_gamma   70.12202006
_symmetry_Int_Tables_number   1
_chemical_formula_structural   SiH12(CO)4
_chemical_formula_sum   'Si2 H24 C8 O8'
_cell_volume   439.05664110
_cell_formula_units_Z   2
loop_
 _symmetry_equiv_pos_site_id
 _symmetry_equiv_pos_as_xyz
  1  'x, y, z'
loop_
 _atom_site_type_symbol
 _atom_site_label
 _atom_site_symmetry_multiplicity
 _atom_site_fract_x
 _atom_site_fract_y
 _atom_site_fract_z
 _atom_site_occupancy
  Si  Si0  1  0.50000000  0.00000000  0.00000000  1
  Si  Si1  1  0.25000000  0.50000000  0.50000000  1
  H  H2  1  0.38258200  0.40288300  0.09753500  1
  H  H3  1  0.88300000  0.59711700  0.90246500  1
  H  H4  1  0.53546500  0.59753500  0.09711700  1
  H  H5  1  0.23011700  0.40246500  0.90288300  1
  H  H6  1  0.36741800  0.09711700  0.40246500  1
  H  H7  1  0.86700000  0.90288300  0.59753500  1
  H  H8  1  0.21453500  0.90246500  0.40288300  1
  H  H9  1  0.51988300  0.09753500  0.59711700  1
  H  H10  1  0.72913100  0.19804400  0.91972500  1
  H  H11  1  0.84689900  0.80195600  0.08027500  1
  H  H12  1  0.67717400  0.41972500  0.30195600  1
  H  H13  1  0.39885500  0.58027500  0.69804400  1
  H  H14  1  0.02086900  0.30195600  0.58027500  1
  H  H15  1  0.90310100  0.69804400  0.41972500  1
  H  H16  1  0.07282600  0.08027500  0.19804400  1
  H  H17  1  0.35114500  0.91972500  0.80195600  1
  H  H18  1  0.63299100  0.17009600  0.12854900  1
  H  H19  1  0.93163600  0.82990400  0.87145100  1
  H  H20  1  0.55308700  0.62854900  0.32990400  1
  H  H21  1  0.51154000  0.37145100  0.67009600  1
  H  H22  1  0.11700900  0.32990400  0.37145100  1
  H  H23  1  0.81836400  0.67009600  0.62854900  1
  H  H24  1  0.19691300  0.87145100  0.17009600  1
  H  H25  1  0.23846000  0.12854900  0.82990400  1
  C  C26  1  0.57605400  0.18273000  0.02268600  1
  C  C27  1  0.78147000  0.81727000  0.97731400  1
  C  C28  1  0.50878500  0.52268600  0.31727000  1
  C  C29  1  0.34874000  0.47731400  0.68273000  1
  C  C30  1  0.17394600  0.31727000  0.47731400  1
  C  C31  1  0.96853000  0.68273000  0.52268600  1
  C  C32  1  0.24121500  0.97731400  0.18273000  1
  C  C33  1  0.40126000  0.02268600  0.81727000  1
  O  O34  1  0.35933000  0.32052800  0.04355500  1
  O  O35  1  0.72341400  0.67947200  0.95644500  1
  O  O36  1  0.42985800  0.54355500  0.17947200  1
  O  O37  1  0.15288600  0.45644500  0.82052800  1
  O  O38  1  0.39067000  0.17947200  0.45644500  1
  O  O39  1  0.02658600  0.82052800  0.54355500  1
  O  O40  1  0.32014200  0.95644500  0.32052800  1
  O  O41  1  0.59711400  0.04355500  0.67947200  1
