# generated using pymatgen
data_Rb4MgU4Cr4O24
_symmetry_space_group_name_H-M   'P 1'
_cell_length_a   7.26662723
_cell_length_b   8.38056168
_cell_length_c   10.46656220
_cell_angle_alpha   88.99509979
_cell_angle_beta   102.90859508
_cell_angle_gamma   89.62611846
_symmetry_Int_Tables_number   1
_chemical_formula_structural   Rb4MgU4Cr4O24
_chemical_formula_sum   'Rb4 Mg1 U4 Cr4 O24'
_cell_volume   621.15736177
_cell_formula_units_Z   1
loop_
 _symmetry_equiv_pos_site_id
 _symmetry_equiv_pos_as_xyz
  1  'x, y, z'
loop_
 _atom_site_type_symbol
 _atom_site_label
 _atom_site_symmetry_multiplicity
 _atom_site_fract_x
 _atom_site_fract_y
 _atom_site_fract_z
 _atom_site_occupancy
  Rb  Rb0  1  0.96593872  0.76242830  0.62261502  1
  Rb  Rb1  1  0.04069643  0.24497524  0.87071975  1
  Rb  Rb2  1  0.00681549  0.74918184  0.19633397  1
  Rb  Rb3  1  0.03217630  0.24032100  0.35101202  1
  Mg  Mg4  1  0.84417777  0.62553615  0.90760371  1
  U  U5  1  0.47395447  0.47074458  0.67655160  1
  U  U6  1  0.51652532  0.96434513  0.83284716  1
  U  U7  1  0.51628325  0.52039317  0.31742023  1
  U  U8  1  0.49325358  0.02709167  0.17629712  1
  Cr  Cr9  1  0.62139885  0.14076983  0.55863472  1
  Cr  Cr10  1  0.35746693  0.64294749  0.94500185  1
  Cr  Cr11  1  0.40167803  0.85944064  0.45366685  1
  Cr  Cr12  1  0.59482383  0.36581419  0.03938863  1
  O  O13  1  0.84498717  0.13135696  0.56347421  1
  O  O14  1  0.11503522  0.63061827  0.93123815  1
  O  O15  1  0.17762353  0.87895124  0.44852374  1
  O  O16  1  0.81203007  0.43998779  0.02124386  1
  O  O17  1  0.58479311  0.20475469  0.71793619  1
  O  O18  1  0.41803293  0.70215776  0.78762347  1
  O  O19  1  0.42845092  0.79387763  0.29277396  1
  O  O20  1  0.57801880  0.29485553  0.20733168  1
  O  O21  1  0.21938845  0.43507306  0.61661056  1
  O  O22  1  0.76281142  0.86011766  0.88950316  1
  O  O23  1  0.77232221  0.56151527  0.36638722  1
  O  O24  1  0.24026433  0.08626356  0.13316583  1
  O  O25  1  0.74582795  0.97422844  0.23555031  1
  O  O26  1  0.26106204  0.48101569  0.27105317  1
  O  O27  1  0.26892727  0.02769676  0.76470098  1
  O  O28  1  0.73341924  0.52479077  0.73797508  1
  O  O29  1  0.51972752  0.57704867  0.09914164  1
  O  O30  1  0.47481294  0.06257426  0.40080249  1
  O  O31  1  0.53491509  0.34363119  0.49725640  1
  O  O32  1  0.55708258  0.93284540  0.61104042  1
  O  O33  1  0.57792996  0.14032419  0.99164318  1
  O  O34  1  0.47044661  0.65293717  0.51150990  1
  O  O35  1  0.42165580  0.86168577  0.00251312  1
  O  O36  1  0.41153889  0.42051206  0.89040765  1
