# generated using pymatgen
data_LiZr2(PO4)3
_symmetry_space_group_name_H-M   'P 1'
_cell_length_a   8.83884391
_cell_length_b   8.94681054
_cell_length_c   12.37464507
_cell_angle_alpha   90.00000000
_cell_angle_beta   90.84582884
_cell_angle_gamma   90.00000000
_symmetry_Int_Tables_number   1
_chemical_formula_structural   LiZr2(PO4)3
_chemical_formula_sum   'Li4 Zr8 P12 O48'
_cell_volume   978.47364245
_cell_formula_units_Z   4
loop_
 _symmetry_equiv_pos_site_id
 _symmetry_equiv_pos_as_xyz
  1  'x, y, z'
loop_
 _atom_site_type_symbol
 _atom_site_label
 _atom_site_symmetry_multiplicity
 _atom_site_fract_x
 _atom_site_fract_y
 _atom_site_fract_z
 _atom_site_occupancy
  Li  Li0  1  0.28960871  0.22469241  0.32172403  1
  Li  Li1  1  0.21039129  0.72469241  0.17827597  1
  Li  Li2  1  0.71039129  0.77530759  0.67827597  1
  Li  Li3  1  0.78960871  0.27530759  0.82172403  1
  Zr  Zr4  1  0.75434420  0.45414248  0.61084637  1
  Zr  Zr5  1  0.24914844  0.47476504  0.87746704  1
  Zr  Zr6  1  0.25085156  0.97476504  0.62253296  1
  Zr  Zr7  1  0.75085156  0.52523496  0.12253296  1
  Zr  Zr8  1  0.74914844  0.02523496  0.37746704  1
  Zr  Zr9  1  0.25434420  0.04585752  0.11084637  1
  Zr  Zr10  1  0.24565580  0.54585752  0.38915363  1
  Zr  Zr11  1  0.74565580  0.95414248  0.88915363  1
  P  P12  1  0.53557797  0.24911053  0.98809550  1
  P  P13  1  0.96442203  0.74911053  0.51190450  1
  P  P14  1  0.03557797  0.25088947  0.48809550  1
  P  P15  1  0.09614584  0.12273468  0.85358801  1
  P  P16  1  0.40385416  0.62273468  0.64641199  1
  P  P17  1  0.90385416  0.87726532  0.14641199  1
  P  P18  1  0.59614584  0.37726532  0.35358801  1
  P  P19  1  0.11451318  0.40112694  0.14497581  1
  P  P20  1  0.38548682  0.90112694  0.35502419  1
  P  P21  1  0.88548682  0.59887306  0.85502419  1
  P  P22  1  0.61451318  0.09887306  0.64497581  1
  P  P23  1  0.46442203  0.75088947  0.01190450  1
  O  O24  1  0.37408355  0.78686311  0.66918161  1
  O  O25  1  0.37852552  0.64704867  0.93635289  1
  O  O26  1  0.12147448  0.14704867  0.56364711  1
  O  O27  1  0.62147448  0.35295133  0.06364711  1
  O  O28  1  0.87852552  0.85295133  0.43635289  1
  O  O29  1  0.32140203  0.52142958  0.72413763  1
  O  O30  1  0.17859797  0.02142958  0.77586237  1
  O  O31  1  0.67859797  0.47857042  0.27586237  1
  O  O32  1  0.44325535  0.10601816  0.64619031  1
  O  O33  1  0.94325535  0.39398184  0.14619031  1
  O  O34  1  0.55674465  0.89398184  0.35380969  1
  O  O35  1  0.42979664  0.33304895  0.91221941  1
  O  O36  1  0.07020336  0.83304895  0.58778059  1
  O  O37  1  0.57020336  0.66695105  0.08778059  1
  O  O38  1  0.92979664  0.16695105  0.41222041  1
  O  O39  1  0.12591645  0.28686311  0.83081839  1
  O  O40  1  0.82140203  0.97857042  0.22413763  1
  O  O41  1  0.05674465  0.60601816  0.85380969  1
  O  O42  1  0.87408355  0.71313689  0.16918161  1
  O  O43  1  0.62591645  0.21313689  0.33081839  1
  O  O44  1  0.64636735  0.41587007  0.46947156  1
  O  O45  1  0.85363265  0.91587007  0.03052844  1
  O  O46  1  0.35363265  0.58412993  0.53052844  1
  O  O47  1  0.14636735  0.08412993  0.96947156  1
  O  O48  1  0.68135784  0.25141858  0.68021370  1
  O  O49  1  0.81864216  0.75141858  0.81978630  1
  O  O50  1  0.31864216  0.74858142  0.31978630  1
  O  O51  1  0.18135784  0.24858142  0.18021370  1
  O  O52  1  0.94713086  0.36244827  0.55606612  1
  O  O53  1  0.55286914  0.86244827  0.94393388  1
  O  O54  1  0.17316213  0.44240508  0.03471486  1
  O  O55  1  0.44713086  0.13755173  0.05606612  1
  O  O56  1  0.57547954  0.59738182  0.65719551  1
  O  O57  1  0.92452046  0.09738182  0.84280449  1
  O  O58  1  0.42452046  0.40261818  0.34280449  1
  O  O59  1  0.07547954  0.90261818  0.15719551  1
  O  O60  1  0.82965985  0.47902773  0.77388681  1
  O  O61  1  0.67034015  0.97902773  0.72611319  1
  O  O62  1  0.17034015  0.52097227  0.22611319  1
  O  O63  1  0.32965985  0.02097227  0.27388681  1
  O  O64  1  0.84752072  0.66508598  0.58055608  1
  O  O65  1  0.65247928  0.16508598  0.91944392  1
  O  O66  1  0.15247928  0.33491402  0.41944392  1
  O  O67  1  0.34752072  0.83491402  0.08055608  1
  O  O68  1  0.67316213  0.05759492  0.53471486  1
  O  O69  1  0.82683787  0.55759492  0.96528514  1
  O  O70  1  0.32683787  0.94240508  0.46528514  1
  O  O71  1  0.05286914  0.63755173  0.44393388  1
