# generated using pymatgen
data_Tb2MgSe4
_symmetry_space_group_name_H-M   'P 1'
_cell_length_a   13.28663523
_cell_length_b   7.93759743
_cell_length_c   13.48762048
_cell_angle_alpha   90.00000000
_cell_angle_beta   90.00000000
_cell_angle_gamma   90.00000000
_symmetry_Int_Tables_number   1
_chemical_formula_structural   Tb2MgSe4
_chemical_formula_sum   'Tb16 Mg8 Se32'
_cell_volume   1422.45788912
_cell_formula_units_Z   8
loop_
 _symmetry_equiv_pos_site_id
 _symmetry_equiv_pos_as_xyz
  1  'x, y, z'
loop_
 _atom_site_type_symbol
 _atom_site_label
 _atom_site_symmetry_multiplicity
 _atom_site_fract_x
 _atom_site_fract_y
 _atom_site_fract_z
 _atom_site_occupancy
  Tb  Tb0  1  0.10776322  0.88240273  0.68587713  1
  Tb  Tb1  1  0.89223678  0.11759727  0.18587713  1
  Tb  Tb2  1  0.39223678  0.88240273  0.18587713  1
  Tb  Tb3  1  0.60776322  0.11759727  0.68587713  1
  Tb  Tb4  1  0.12771772  0.38095608  0.32634745  1
  Tb  Tb5  1  0.87228228  0.61904392  0.82634745  1
  Tb  Tb6  1  0.37228228  0.38095608  0.82634745  1
  Tb  Tb7  1  0.62771772  0.61904392  0.32634745  1
  Tb  Tb8  1  0.13321299  0.62836707  0.99079171  1
  Tb  Tb9  1  0.86678701  0.37163293  0.49079171  1
  Tb  Tb10  1  0.36678701  0.62836707  0.49079171  1
  Tb  Tb11  1  0.63321299  0.37163293  0.99079171  1
  Tb  Tb12  1  0.13334264  0.12873942  0.99145697  1
  Tb  Tb13  1  0.86665736  0.87126058  0.49145697  1
  Tb  Tb14  1  0.36665736  0.12873942  0.49145697  1
  Tb  Tb15  1  0.63334264  0.87126058  0.99145697  1
  Mg  Mg16  1  0.11083082  0.38165563  0.69076559  1
  Mg  Mg17  1  0.88916918  0.61834437  0.19076559  1
  Mg  Mg18  1  0.38916918  0.38165563  0.19076559  1
  Mg  Mg19  1  0.61083082  0.61834437  0.69076559  1
  Mg  Mg20  1  0.12646384  0.87811231  0.32079923  1
  Mg  Mg21  1  0.87353616  0.12188769  0.82079923  1
  Mg  Mg22  1  0.37353616  0.87811231  0.82079923  1
  Mg  Mg23  1  0.62646384  0.12188769  0.32079923  1
  Se  Se24  1  0.01262723  0.87769728  0.87817050  1
  Se  Se25  1  0.98737277  0.12230272  0.37817050  1
  Se  Se26  1  0.48737277  0.87769728  0.37817050  1
  Se  Se27  1  0.51262723  0.12230272  0.87817050  1
  Se  Se28  1  0.03390857  0.37747574  0.12977321  1
  Se  Se29  1  0.96609143  0.62252426  0.62977321  1
  Se  Se30  1  0.46609143  0.37747574  0.62977321  1
  Se  Se31  1  0.53390857  0.62252426  0.12977321  1
  Se  Se32  1  0.02157807  0.37251938  0.86852503  1
  Se  Se33  1  0.97842193  0.62748062  0.36852503  1
  Se  Se34  1  0.47842193  0.37251938  0.36852503  1
  Se  Se35  1  0.52157807  0.62748062  0.86852503  1
  Se  Se36  1  0.04264072  0.87218799  0.13667745  1
  Se  Se37  1  0.95735928  0.12781201  0.63667745  1
  Se  Se38  1  0.45735928  0.87218799  0.63667745  1
  Se  Se39  1  0.54264072  0.12781201  0.13667745  1
  Se  Se40  1  0.21127843  0.87929324  0.50235163  1
  Se  Se41  1  0.78872157  0.12070676  0.00235163  1
  Se  Se42  1  0.28872157  0.87929324  0.00235163  1
  Se  Se43  1  0.71127843  0.12070676  0.50235163  1
  Se  Se44  1  0.21195988  0.37958795  0.51951058  1
  Se  Se45  1  0.78804012  0.62041205  0.01951058  1
  Se  Se46  1  0.28804012  0.37958795  0.01951058  1
  Se  Se47  1  0.71195988  0.62041205  0.51951058  1
  Se  Se48  1  0.23166639  0.12761206  0.77751075  1
  Se  Se49  1  0.76833361  0.87238794  0.27751075  1
  Se  Se50  1  0.26833361  0.12761206  0.27751075  1
  Se  Se51  1  0.73166639  0.87238794  0.77751075  1
  Se  Se52  1  0.23035069  0.63158282  0.77844378  1
  Se  Se53  1  0.76964931  0.36841718  0.27844378  1
  Se  Se54  1  0.26964931  0.63158282  0.27844378  1
  Se  Se55  1  0.73035069  0.36841718  0.77844378  1
