# generated using pymatgen
data_LaErS3
_symmetry_space_group_name_H-M   'P 1'
_cell_length_a   4.00156755
_cell_length_b   11.07649514
_cell_length_c   21.61047509
_cell_angle_alpha   78.68363080
_cell_angle_beta   90.00000000
_cell_angle_gamma   90.00000000
_symmetry_Int_Tables_number   1
_chemical_formula_structural   LaErS3
_chemical_formula_sum   'La8 Er8 S24'
_cell_volume   939.22663116
_cell_formula_units_Z   8
loop_
 _symmetry_equiv_pos_site_id
 _symmetry_equiv_pos_as_xyz
  1  'x, y, z'
loop_
 _atom_site_type_symbol
 _atom_site_label
 _atom_site_symmetry_multiplicity
 _atom_site_fract_x
 _atom_site_fract_y
 _atom_site_fract_z
 _atom_site_occupancy
  La  La0  1  0.25000000  0.30136131  0.76563541  1
  La  La1  1  0.75000000  0.69863869  0.23436459  1
  La  La2  1  0.25000000  0.90824657  0.86516402  1
  La  La3  1  0.75000000  0.09175343  0.13483598  1
  La  La4  1  0.25000000  0.69028302  0.73381866  1
  La  La5  1  0.75000000  0.30971698  0.26618134  1
  La  La6  1  0.25000000  0.79994334  0.53628443  1
  La  La7  1  0.75000000  0.20005666  0.46371557  1
  Er  Er8  1  0.25000000  0.55286386  0.41662139  1
  Er  Er9  1  0.75000000  0.44713614  0.58337861  1
  Er  Er10  1  0.25000000  0.97169067  0.34989135  1
  Er  Er11  1  0.75000000  0.02830933  0.65010865  1
  Er  Er12  1  0.25000000  0.81866845  0.04678748  1
  Er  Er13  1  0.75000000  0.18133155  0.95321252  1
  Er  Er14  1  0.25000000  0.47795562  0.08686258  1
  Er  Er15  1  0.75000000  0.52204438  0.91313742  1
  S  S16  1  0.25000000  0.08716499  0.03467069  1
  S  S17  1  0.75000000  0.91283501  0.96532931  1
  S  S18  1  0.25000000  0.20511819  0.36474797  1
  S  S19  1  0.75000000  0.79488181  0.63525203  1
  S  S20  1  0.25000000  0.74643863  0.32543605  1
  S  S21  1  0.75000000  0.25356137  0.67456395  1
  S  S22  1  0.25000000  0.63442729  0.96457490  1
  S  S23  1  0.75000000  0.36557271  0.03542510  1
  S  S24  1  0.25000000  0.50750810  0.21955969  1
  S  S25  1  0.75000000  0.49249190  0.78044031  1
  S  S26  1  0.25000000  0.25323693  0.17208224  1
  S  S27  1  0.75000000  0.74676307  0.82791776  1
  S  S28  1  0.25000000  0.87519897  0.16242633  1
  S  S29  1  0.75000000  0.12480103  0.83757367  1
  S  S30  1  0.25000000  0.35778475  0.51368892  1
  S  S31  1  0.75000000  0.64221525  0.48631108  1
  S  S32  1  0.25000000  0.05747827  0.55733922  1
  S  S33  1  0.75000000  0.94252173  0.44266078  1
  S  S34  1  0.25000000  0.96400434  0.72961690  1
  S  S35  1  0.75000000  0.03599566  0.27038310  1
  S  S36  1  0.25000000  0.54420356  0.63441467  1
  S  S37  1  0.75000000  0.45579644  0.36558533  1
  S  S38  1  0.25000000  0.34258545  0.90195749  1
  S  S39  1  0.75000000  0.65741455  0.09804251  1
