# generated using pymatgen
data_Na4Mg(GeSe3)2
_symmetry_space_group_name_H-M   'P 1'
_cell_length_a   7.15296969
_cell_length_b   7.19403597
_cell_length_c   7.19403597
_cell_angle_alpha   65.85093521
_cell_angle_beta   81.00929644
_cell_angle_gamma   98.99070356
_symmetry_Int_Tables_number   1
_chemical_formula_structural   Na4Mg(GeSe3)2
_chemical_formula_sum   'Na4 Mg1 Ge2 Se6'
_cell_volume   323.53548337
_cell_formula_units_Z   1
loop_
 _symmetry_equiv_pos_site_id
 _symmetry_equiv_pos_as_xyz
  1  'x, y, z'
loop_
 _atom_site_type_symbol
 _atom_site_label
 _atom_site_symmetry_multiplicity
 _atom_site_fract_x
 _atom_site_fract_y
 _atom_site_fract_z
 _atom_site_occupancy
  Na  Na0  1  0.00000000  0.51930400  0.51930400  1
  Na  Na1  1  0.50000000  0.67230900  0.67230900  1
  Na  Na2  1  0.50000000  0.98116500  0.98116500  1
  Na  Na3  1  0.50000000  0.34786500  0.34786500  1
  Mg  Mg4  1  0.00000000  0.15663100  0.15663100  1
  Ge  Ge5  1  0.05709400  0.99708400  0.66948700  1
  Ge  Ge6  1  0.94290600  0.66948700  0.99708400  1
  Se  Se7  1  0.23629500  0.23676800  0.77179800  1
  Se  Se8  1  0.76370500  0.77179800  0.23676800  1
  Se  Se9  1  0.77839200  0.09413300  0.55012800  1
  Se  Se10  1  0.22160800  0.55012800  0.09413300  1
  Se  Se11  1  0.25130100  0.94975500  0.40007400  1
  Se  Se12  1  0.74869900  0.40007400  0.94975500  1
