# generated using pymatgen
data_RbPbF3
_symmetry_space_group_name_H-M   'P 1'
_cell_length_a   9.36106310
_cell_length_b   6.44687958
_cell_length_c   6.79109437
_cell_angle_alpha   58.21800898
_cell_angle_beta   43.52421330
_cell_angle_gamma   46.49083906
_symmetry_Int_Tables_number   1
_chemical_formula_structural   RbPbF3
_chemical_formula_sum   'Rb2 Pb2 F6'
_cell_volume   204.38899730
_cell_formula_units_Z   2
loop_
 _symmetry_equiv_pos_site_id
 _symmetry_equiv_pos_as_xyz
  1  'x, y, z'
loop_
 _atom_site_type_symbol
 _atom_site_label
 _atom_site_symmetry_multiplicity
 _atom_site_fract_x
 _atom_site_fract_y
 _atom_site_fract_z
 _atom_site_occupancy
  Rb  Rb0  1  0.24203164  0.42152623  0.54827450  1
  Rb  Rb1  1  0.74198639  0.42161323  0.54823835  1
  Pb  Pb2  1  0.98865122  0.91475850  0.05513064  1
  Pb  Pb3  1  0.48869770  0.91506729  0.05496682  1
  F  F4  1  0.17244797  0.43516690  0.02151966  1
  F  F5  1  0.83850328  0.76909384  0.53421916  1
  F  F6  1  0.33836067  0.76910670  0.02152494  1
  F  F7  1  0.67268795  0.43479383  0.20034106  1
  F  F8  1  0.65912632  0.94816748  0.20124285  1
  F  F9  1  0.15935585  0.94779500  0.53460304  1
