# generated using pymatgen
data_Mg14NbFeO16
_symmetry_space_group_name_H-M   'P 1'
_cell_length_a   8.63440978
_cell_length_b   8.64323098
_cell_length_c   4.27460213
_cell_angle_alpha   90.00000000
_cell_angle_beta   90.00000000
_cell_angle_gamma   90.00000000
_symmetry_Int_Tables_number   1
_chemical_formula_structural   Mg14NbFeO16
_chemical_formula_sum   'Mg14 Nb1 Fe1 O16'
_cell_volume   319.01012918
_cell_formula_units_Z   1
loop_
 _symmetry_equiv_pos_site_id
 _symmetry_equiv_pos_as_xyz
  1  'x, y, z'
loop_
 _atom_site_type_symbol
 _atom_site_label
 _atom_site_symmetry_multiplicity
 _atom_site_fract_x
 _atom_site_fract_y
 _atom_site_fract_z
 _atom_site_occupancy
  Mg  Mg0  1  0.50000000  -0.00000000  0.00000000  1
  Mg  Mg1  1  0.50000000  0.50000000  0.00000000  1
  Mg  Mg2  1  -0.00000000  0.24561914  0.50000000  1
  Mg  Mg3  1  -0.00000000  0.75438086  0.50000000  1
  Mg  Mg4  1  0.50000000  0.24926276  0.50000000  1
  Mg  Mg5  1  0.50000000  0.75073724  0.50000000  1
  Mg  Mg6  1  0.25283239  -0.00000000  0.50000000  1
  Mg  Mg7  1  0.25524514  0.50000000  0.50000000  1
  Mg  Mg8  1  0.74716761  -0.00000000  0.50000000  1
  Mg  Mg9  1  0.74475486  0.50000000  0.50000000  1
  Mg  Mg10  1  0.25264833  0.24713961  -0.00000000  1
  Mg  Mg11  1  0.25264833  0.75286039  -0.00000000  1
  Mg  Mg12  1  0.74735167  0.24713961  -0.00000000  1
  Mg  Mg13  1  0.74735167  0.75286039  0.00000000  1
  Nb  Nb14  1  -0.00000000  0.50000000  0.00000000  1
  Fe  Fe15  1  -0.00000000  -0.00000000  0.00000000  1
  O  O16  1  0.25821917  -0.00000000  0.00000000  1
  O  O17  1  0.26206284  0.50000000  0.00000000  1
  O  O18  1  0.74178083  -0.00000000  0.00000000  1
  O  O19  1  0.73793716  0.50000000  -0.00000000  1
  O  O20  1  0.24897311  0.24972992  0.50000000  1
  O  O21  1  0.24897311  0.75027008  0.50000000  1
  O  O22  1  0.75102689  0.24972992  0.50000000  1
  O  O23  1  0.75102689  0.75027008  0.50000000  1
  O  O24  1  -0.00000000  -0.00000000  0.50000000  1
  O  O25  1  -0.00000000  0.50000000  0.50000000  1
  O  O26  1  0.50000000  -0.00000000  0.50000000  1
  O  O27  1  0.50000000  0.50000000  0.50000000  1
  O  O28  1  -0.00000000  0.24390661  0.00000000  1
  O  O29  1  -0.00000000  0.75609339  0.00000000  1
  O  O30  1  0.50000000  0.24959184  0.00000000  1
  O  O31  1  0.50000000  0.75040816  0.00000000  1
