# generated using pymatgen
data_BPBr6
_symmetry_space_group_name_H-M   'P 1'
_cell_length_a   7.19961256
_cell_length_b   11.26891507
_cell_length_c   12.53692166
_cell_angle_alpha   90.00000000
_cell_angle_beta   90.00000000
_cell_angle_gamma   90.00000000
_symmetry_Int_Tables_number   1
_chemical_formula_structural   BPBr6
_chemical_formula_sum   'B4 P4 Br24'
_cell_volume   1017.14330251
_cell_formula_units_Z   4
loop_
 _symmetry_equiv_pos_site_id
 _symmetry_equiv_pos_as_xyz
  1  'x, y, z'
loop_
 _atom_site_type_symbol
 _atom_site_label
 _atom_site_symmetry_multiplicity
 _atom_site_fract_x
 _atom_site_fract_y
 _atom_site_fract_z
 _atom_site_occupancy
  B  B0  1  0.43117535  0.75000000  0.85613640  1
  B  B1  1  0.06882465  0.75000000  0.35613640  1
  B  B2  1  0.56882465  0.25000000  0.14386360  1
  B  B3  1  0.93117535  0.25000000  0.64386360  1
  P  P4  1  0.69927896  0.75000000  0.89938645  1
  P  P5  1  0.80072104  0.75000000  0.39938645  1
  P  P6  1  0.30072104  0.25000000  0.10061355  1
  P  P7  1  0.19927896  0.25000000  0.60061355  1
  Br  Br8  1  0.88840788  0.75000000  0.76486928  1
  Br  Br9  1  0.61159212  0.75000000  0.26486928  1
  Br  Br10  1  0.11159212  0.25000000  0.23513072  1
  Br  Br11  1  0.38840788  0.25000000  0.73513072  1
  Br  Br12  1  0.29532754  0.75000000  0.99513785  1
  Br  Br13  1  0.20467246  0.75000000  0.49513785  1
  Br  Br14  1  0.70467246  0.25000000  0.00486215  1
  Br  Br15  1  0.79532754  0.25000000  0.50486215  1
  Br  Br16  1  0.39832310  0.89779370  0.77170302  1
  Br  Br17  1  0.10167690  0.60220630  0.27170302  1
  Br  Br18  1  0.60167690  0.39779370  0.22829698  1
  Br  Br19  1  0.89832310  0.10220630  0.72829698  1
  Br  Br20  1  0.60167690  0.10220630  0.22829698  1
  Br  Br21  1  0.89832310  0.39779370  0.72829698  1
  Br  Br22  1  0.39832310  0.60220630  0.77170302  1
  Br  Br23  1  0.10167690  0.89779370  0.27170302  1
  Br  Br24  1  0.76703608  0.90516374  0.99400656  1
  Br  Br25  1  0.73296392  0.59483626  0.49400656  1
  Br  Br26  1  0.23296392  0.40516374  0.00599344  1
  Br  Br27  1  0.26703608  0.09483626  0.50599344  1
  Br  Br28  1  0.23296392  0.09483626  0.00599344  1
  Br  Br29  1  0.26703608  0.40516374  0.50599344  1
  Br  Br30  1  0.76703608  0.59483626  0.99400656  1
  Br  Br31  1  0.73296392  0.90516374  0.49400656  1
