# generated using pymatgen
data_NaS2
_symmetry_space_group_name_H-M   'P 1'
_cell_length_a   8.93840577
_cell_length_b   8.93840521
_cell_length_c   8.93840506
_cell_angle_alpha   98.56182035
_cell_angle_beta   115.18622533
_cell_angle_gamma   115.18622262
_symmetry_Int_Tables_number   1
_chemical_formula_structural   NaS2
_chemical_formula_sum   'Na8 S16'
_cell_volume   535.22305101
_cell_formula_units_Z   8
loop_
 _symmetry_equiv_pos_site_id
 _symmetry_equiv_pos_as_xyz
  1  'x, y, z'
loop_
 _atom_site_type_symbol
 _atom_site_label
 _atom_site_symmetry_multiplicity
 _atom_site_fract_x
 _atom_site_fract_y
 _atom_site_fract_z
 _atom_site_occupancy
  Na  Na0  1  -0.00000000  0.17197833  0.17197833  1
  Na  Na1  1  0.00000000  0.82802167  0.82802167  1
  Na  Na2  1  0.50000000  0.57802167  0.07802167  1
  Na  Na3  1  0.50000000  0.92197833  0.42197833  1
  Na  Na4  1  0.52259390  0.37500000  0.39759390  1
  Na  Na5  1  0.97740610  0.60240610  0.12500000  1
  Na  Na6  1  0.02259390  0.14759390  0.62500000  1
  Na  Na7  1  0.47740610  0.87500000  0.85240610  1
  S  S8  1  0.28417086  0.54783382  0.32813719  1
  S  S9  1  0.21969364  0.67186281  0.95603368  1
  S  S10  1  0.78030636  0.73633904  0.45216618  1
  S  S11  1  0.71969364  0.70603368  0.92186281  1
  S  S12  1  0.28030636  0.20216618  0.98633904  1
  S  S13  1  0.71582914  0.04396632  0.26366096  1
  S  S14  1  0.78417086  0.07813719  0.79783382  1
  S  S15  1  0.21582914  0.01366096  0.29396632  1
  S  S16  1  0.26270558  0.51409617  0.54438756  1
  S  S17  1  0.96970661  0.45561244  0.71832002  1
  S  S18  1  0.03029339  0.74861141  0.48590383  1
  S  S19  1  0.46970661  0.46832002  0.70561244  1
  S  S20  1  0.53029339  0.23590383  0.99861141  1
  S  S21  1  0.73729442  0.28167998  0.25138859  1
  S  S22  1  0.76270558  0.29438756  0.76409617  1
  S  S23  1  0.23729442  0.00138859  0.53167998  1
