# generated using pymatgen
data_CaMn2(P2O7)2
_symmetry_space_group_name_H-M   'P 1'
_cell_length_a   6.09067026
_cell_length_b   5.33352839
_cell_length_c   10.58616472
_cell_angle_alpha   85.98300440
_cell_angle_beta   108.93669054
_cell_angle_gamma   104.10010700
_symmetry_Int_Tables_number   1
_chemical_formula_structural   CaMn2(P2O7)2
_chemical_formula_sum   'Ca1 Mn2 P4 O14'
_cell_volume   315.46170189
_cell_formula_units_Z   1
loop_
 _symmetry_equiv_pos_site_id
 _symmetry_equiv_pos_as_xyz
  1  'x, y, z'
loop_
 _atom_site_type_symbol
 _atom_site_label
 _atom_site_symmetry_multiplicity
 _atom_site_fract_x
 _atom_site_fract_y
 _atom_site_fract_z
 _atom_site_occupancy
  Ca  Ca0  1  0.27509100  0.59002500  0.54391700  1
  Mn  Mn1  1  0.86590300  0.51162900  0.18152000  1
  Mn  Mn2  1  0.14151600  0.46735600  0.82583800  1
  P  P3  1  0.11682600  0.07792100  0.32608800  1
  P  P4  1  0.71731900  0.63698200  0.87623200  1
  P  P5  1  0.31513800  0.36877600  0.13564500  1
  P  P6  1  0.88815700  0.91281800  0.67120600  1
  O  O7  1  0.05662800  0.78405500  0.34802900  1
  O  O8  1  0.88755600  0.18095900  0.26506500  1
  O  O9  1  0.45155600  0.55814100  0.78861400  1
  O  O10  1  0.15776600  0.54873400  0.14279100  1
  O  O11  1  0.28417600  0.30105500  0.99053800  1
  O  O12  1  0.65307700  0.81865600  0.56523400  1
  O  O13  1  0.83794400  0.89671400  0.81609200  1
  O  O14  1  0.23634600  0.10223200  0.20566900  1
  O  O15  1  0.28949700  0.23097700  0.44731000  1
  O  O16  1  0.74321300  0.70283100  0.01834500  1
  O  O17  1  0.84621900  0.42930000  0.86294300  1
  O  O18  1  0.57416900  0.48841200  0.21573600  1
  O  O19  1  0.06452100  0.73029000  0.68864100  1
  O  O20  1  0.02238400  0.19338700  0.66788100  1
