# generated using pymatgen
data_ZnH20C4(N5O6)2
_symmetry_space_group_name_H-M   'P 1'
_cell_length_a   6.43709354
_cell_length_b   17.53282447
_cell_length_c   9.79579608
_cell_angle_alpha   90.00000000
_cell_angle_beta   130.08955271
_cell_angle_gamma   90.00000000
_symmetry_Int_Tables_number   1
_chemical_formula_structural   ZnH20C4(N5O6)2
_chemical_formula_sum   'Zn2 H40 C8 N20 O24'
_cell_volume   845.79463051
_cell_formula_units_Z   2
loop_
 _symmetry_equiv_pos_site_id
 _symmetry_equiv_pos_as_xyz
  1  'x, y, z'
loop_
 _atom_site_type_symbol
 _atom_site_label
 _atom_site_symmetry_multiplicity
 _atom_site_fract_x
 _atom_site_fract_y
 _atom_site_fract_z
 _atom_site_occupancy
  Zn  Zn0  1  0.00000000  0.50000000  0.50000000  1
  Zn  Zn1  1  0.00000000  -0.00000000  0.00000000  1
  H  H2  1  0.88570990  0.30624882  0.84200789  1
  H  H3  1  0.88570990  0.19375118  0.34200789  1
  H  H4  1  0.11429010  0.69375118  0.15799211  1
  H  H5  1  0.11429010  0.80624882  0.65799211  1
  H  H6  1  0.92344836  0.27625066  0.69117544  1
  H  H7  1  0.92344836  0.22374934  0.19117544  1
  H  H8  1  0.07655164  0.72374934  0.30882456  1
  H  H9  1  0.07655164  0.77625066  0.80882456  1
  H  H10  1  0.91530637  0.49890180  0.76508799  1
  H  H11  1  0.91530637  0.00109820  0.26508799  1
  H  H12  1  0.08469363  0.50109820  0.23491201  1
  H  H13  1  0.08469363  0.99890180  0.73491201  1
  H  H14  1  0.87098021  0.43361862  0.88114897  1
  H  H15  1  0.87098021  0.06638138  0.38114897  1
  H  H16  1  0.12901979  0.56638138  0.11885103  1
  H  H17  1  0.12901979  0.93361862  0.61885103  1
  H  H18  1  0.42440965  0.39672130  0.31904732  1
  H  H19  1  0.42440965  0.10327870  0.81904732  1
  H  H20  1  0.57559035  0.60327870  0.68095268  1
  H  H21  1  0.57559035  0.89672130  0.18095268  1
  H  H22  1  0.49295298  0.30518513  0.40111210  1
  H  H23  1  0.49295298  0.19481487  0.90111210  1
  H  H24  1  0.50704702  0.69481487  0.59888790  1
  H  H25  1  0.50704702  0.80518513  0.09888790  1
  H  H26  1  0.18619414  0.33346582  0.59253284  1
  H  H27  1  0.18619414  0.16653418  0.09253284  1
  H  H28  1  0.81380586  0.66653418  0.40746716  1
  H  H29  1  0.81380586  0.83346582  0.90746716  1
  H  H30  1  0.36453796  0.26721575  0.56437763  1
  H  H31  1  0.36453796  0.23278425  0.06437763  1
  H  H32  1  0.63546204  0.73278425  0.43562237  1
  H  H33  1  0.63546204  0.76721575  0.93562237  1
  H  H34  1  0.38433971  0.57544479  0.80133239  1
  H  H35  1  0.38433971  0.92455521  0.30133239  1
  H  H36  1  0.61566029  0.42455521  0.19866761  1
  H  H37  1  0.61566029  0.07544479  0.69866761  1
  H  H38  1  0.47560668  0.49001770  0.82502215  1
  H  H39  1  0.47560668  0.00998230  0.32502215  1
  H  H40  1  0.52439332  0.50998230  0.17497785  1
  H  H41  1  0.52439332  0.99001770  0.67497785  1
  C  C42  1  0.96547007  0.38942327  0.73513188  1
  C  C43  1  0.96547007  0.11057673  0.23513188  1
  C  C44  1  0.03452993  0.61057673  0.26486812  1
  C  C45  1  0.03452993  0.88942327  0.76486812  1
  C  C46  1  0.27492473  0.37113025  0.44182996  1
  C  C47  1  0.27492473  0.12886975  0.94182996  1
  C  C48  1  0.72507527  0.62886975  0.55817004  1
  C  C49  1  0.72507527  0.87113025  0.05817004  1
  N  N50  1  0.95658595  0.31686499  0.77660680  1
  N  N51  1  0.95658595  0.18313501  0.27660680  1
  N  N52  1  0.04341405  0.68313501  0.22339320  1
  N  N53  1  0.04341405  0.81686499  0.72339320  1
  N  N54  1  0.94044896  0.44575989  0.81551418  1
  N  N55  1  0.94044896  0.05424011  0.31551418  1
  N  N56  1  0.05955104  0.55424011  0.18448582  1
  N  N57  1  0.05955104  0.94575989  0.68448582  1
  N  N58  1  0.37537191  0.35241043  0.36026553  1
  N  N59  1  0.37537191  0.14758957  0.86026553  1
  N  N60  1  0.62462809  0.64758957  0.63973447  1
  N  N61  1  0.62462809  0.85241043  0.13973447  1
  N  N62  1  0.28264512  0.31935254  0.54501406  1
  N  N63  1  0.28264512  0.18064746  0.04501406  1
  N  N64  1  0.71735488  0.68064746  0.45498594  1
  N  N65  1  0.71735488  0.81935254  0.95498594  1
  N  N66  1  0.67759201  0.15420953  0.51930439  1
  N  N67  1  0.67759201  0.34579047  0.01930439  1
  N  N68  1  0.32240799  0.84579047  0.48069561  1
  N  N69  1  0.32240799  0.65420953  0.98069561  1
  O  O70  1  0.00824619  0.40227057  0.62706075  1
  O  O71  1  0.00824619  0.09772943  0.12706075  1
  O  O72  1  0.99175381  0.59772943  0.37293925  1
  O  O73  1  0.99175381  0.90227057  0.87293925  1
  O  O74  1  0.17004467  0.43655306  0.41471332  1
  O  O75  1  0.17004467  0.06344694  0.91471332  1
  O  O76  1  0.82995533  0.56344694  0.58528668  1
  O  O77  1  0.82995533  0.93655306  0.08528668  1
  O  O78  1  0.73036674  0.21086871  0.46663998  1
  O  O79  1  0.73036674  0.28913129  0.96663998  1
  O  O80  1  0.26963326  0.78913129  0.53336002  1
  O  O81  1  0.26963326  0.71086871  0.03336002  1
  O  O82  1  0.60661253  0.16467826  0.61158578  1
  O  O83  1  0.60661253  0.33532174  0.11158578  1
  O  O84  1  0.39338747  0.83532174  0.38841422  1
  O  O85  1  0.39338747  0.66467826  0.88841422  1
  O  O86  1  0.69956913  0.08754374  0.48269660  1
  O  O87  1  0.69956913  0.41245626  0.98269660  1
  O  O88  1  0.30043087  0.91245626  0.51730340  1
  O  O89  1  0.30043087  0.58754374  0.01730340  1
  O  O90  1  0.39128994  0.53212573  0.74014231  1
  O  O91  1  0.39128994  0.96787427  0.24014231  1
  O  O92  1  0.60871006  0.46787427  0.25985769  1
  O  O93  1  0.60871006  0.03212573  0.75985769  1
