# generated using pymatgen
data_Sr2MgZn2Sn2(PO4)4
_symmetry_space_group_name_H-M   'P 1'
_cell_length_a   5.36169559
_cell_length_b   7.35670883
_cell_length_c   10.77140911
_cell_angle_alpha   102.67777257
_cell_angle_beta   100.66093551
_cell_angle_gamma   96.10595497
_symmetry_Int_Tables_number   1
_chemical_formula_structural   Sr2MgZn2Sn2(PO4)4
_chemical_formula_sum   'Sr2 Mg1 Zn2 Sn2 P4 O16'
_cell_volume   402.54452144
_cell_formula_units_Z   1
loop_
 _symmetry_equiv_pos_site_id
 _symmetry_equiv_pos_as_xyz
  1  'x, y, z'
loop_
 _atom_site_type_symbol
 _atom_site_label
 _atom_site_symmetry_multiplicity
 _atom_site_fract_x
 _atom_site_fract_y
 _atom_site_fract_z
 _atom_site_occupancy
  Sr  Sr0  1  0.21885033  0.78071942  0.01609381  1
  Sr  Sr1  1  0.77368017  0.19163115  0.94675868  1
  Mg  Mg2  1  0.42887686  0.02563803  0.33016545  1
  Zn  Zn3  1  0.02613695  0.43174621  0.69400888  1
  Zn  Zn4  1  0.96648302  0.56786789  0.25930778  1
  Sn  Sn5  1  0.66798869  0.89207770  0.60850937  1
  Sn  Sn6  1  0.25674090  0.29991850  0.50623275  1
  P  P7  1  0.35054658  0.37328157  0.20985446  1
  P  P8  1  0.61917277  0.60668423  0.78314515  1
  P  P9  1  0.81938756  0.94132077  0.22161111  1
  P  P10  1  0.19944207  0.02957946  0.75485605  1
  O  O11  1  0.85539356  0.53559599  0.85611072  1
  O  O12  1  0.62486278  0.43633911  0.19498396  1
  O  O13  1  0.67912173  0.82457636  0.79670144  1
  O  O14  1  0.96563929  0.14626042  0.73385787  1
  O  O15  1  0.37957772  0.56035796  0.83655090  1
  O  O16  1  0.09081923  0.83310126  0.66126390  1
  O  O17  1  0.83404103  0.12228914  0.32945981  1
  O  O18  1  0.26678445  0.03673517  0.90146605  1
  O  O19  1  0.31123071  0.15974586  0.19359860  1
  O  O20  1  0.81703224  0.95836025  0.08170745  1
  O  O21  1  0.14588157  0.43501654  0.10876088  1
  O  O22  1  0.28513794  0.47587619  0.34599320  1
  O  O23  1  0.59582947  0.51244745  0.63476383  1
  O  O24  1  0.56344972  0.81789246  0.22065524  1
  O  O25  1  0.05692601  0.83617058  0.26305518  1
  O  O26  1  0.43906166  0.12247332  0.71677749  1
