# generated using pymatgen
data_K2Na2Nd4Nb2O13
_symmetry_space_group_name_H-M   'P 1'
_cell_length_a   12.53487894
_cell_length_b   12.53487894
_cell_length_c   11.36078901
_cell_angle_alpha   64.08315995
_cell_angle_beta   64.08315995
_cell_angle_gamma   26.47111070
_symmetry_Int_Tables_number   1
_chemical_formula_structural   K2Na2Nd4Nb2O13
_chemical_formula_sum   'K4 Na4 Nd8 Nb4 O26'
_cell_volume   710.96546301
_cell_formula_units_Z   2
loop_
 _symmetry_equiv_pos_site_id
 _symmetry_equiv_pos_as_xyz
  1  'x, y, z'
loop_
 _atom_site_type_symbol
 _atom_site_label
 _atom_site_symmetry_multiplicity
 _atom_site_fract_x
 _atom_site_fract_y
 _atom_site_fract_z
 _atom_site_occupancy
  K  K0  1  0.79964580  0.69861636  0.36712886  1
  K  K1  1  0.30138364  0.20035420  0.13287114  1
  K  K2  1  0.20035420  0.30138364  0.63287114  1
  K  K3  1  0.69861636  0.79964580  0.86712886  1
  Na  Na4  1  0.87596647  0.80576170  0.02409786  1
  Na  Na5  1  0.19423830  0.12403353  0.47590214  1
  Na  Na6  1  0.12403353  0.19423830  0.97590214  1
  Na  Na7  1  0.80576170  0.87596647  0.52409786  1
  Nd  Nd8  1  0.60902014  0.51876129  0.54932135  1
  Nd  Nd9  1  0.48123871  0.39097986  0.95067865  1
  Nd  Nd10  1  0.39097986  0.48123871  0.45067865  1
  Nd  Nd11  1  0.51876129  0.60902014  0.04932135  1
  Nd  Nd12  1  0.97286558  0.89936869  0.17403713  1
  Nd  Nd13  1  0.10063131  0.02713442  0.32596287  1
  Nd  Nd14  1  0.02713442  0.10063131  0.82596287  1
  Nd  Nd15  1  0.89936869  0.97286558  0.67403713  1
  Nb  Nb16  1  0.68541407  0.62074644  0.21521181  1
  Nb  Nb17  1  0.37925356  0.31458593  0.28478819  1
  Nb  Nb18  1  0.31458593  0.37925356  0.78478819  1
  Nb  Nb19  1  0.62074644  0.68541407  0.71521181  1
  O  O20  1  0.90397051  0.36340694  0.35851236  1
  O  O21  1  0.63659306  0.09602949  0.14148764  1
  O  O22  1  0.09602949  0.63659306  0.64148764  1
  O  O23  1  0.36340694  0.90397051  0.85851236  1
  O  O24  1  0.86329070  0.40949489  0.62171723  1
  O  O25  1  0.59050511  0.13670930  0.87828277  1
  O  O26  1  0.13670930  0.59050511  0.37828277  1
  O  O27  1  0.40949489  0.86329070  0.12171723  1
  O  O28  1  0.17386418  0.56140352  0.14046580  1
  O  O29  1  0.43859648  0.82613582  0.35953420  1
  O  O30  1  0.82613582  0.43859648  0.85953420  1
  O  O31  1  0.56140352  0.17386418  0.64046580  1
  O  O32  1  0.79949156  0.67540519  0.12168663  1
  O  O33  1  0.32459481  0.20050844  0.37831337  1
  O  O34  1  0.20050844  0.32459481  0.87831337  1
  O  O35  1  0.67540519  0.79949156  0.62168663  1
  O  O36  1  0.24250529  0.75749471  0.25000000  1
  O  O37  1  0.75749471  0.24250529  0.75000000  1
  O  O38  1  0.37341901  0.83489921  0.65637449  1
  O  O39  1  0.16510079  0.62658099  0.84362551  1
  O  O40  1  0.62658099  0.16510079  0.34362551  1
  O  O41  1  0.83489921  0.37341901  0.15637449  1
  O  O42  1  0.75030781  0.24749122  0.47565421  1
  O  O43  1  0.75250878  0.24969219  0.02434579  1
  O  O44  1  0.24969219  0.75250878  0.52434579  1
  O  O45  1  0.24749122  0.75030781  0.97565421  1
