# generated using pymatgen
data_Rb2NdCl5
_symmetry_space_group_name_H-M   'P 1'
_cell_length_a   8.21530084
_cell_length_b   8.92525017
_cell_length_c   13.19241348
_cell_angle_alpha   90.00000000
_cell_angle_beta   90.00000000
_cell_angle_gamma   90.00000000
_symmetry_Int_Tables_number   1
_chemical_formula_structural   Rb2NdCl5
_chemical_formula_sum   'Rb8 Nd4 Cl20'
_cell_volume   967.31544981
_cell_formula_units_Z   4
loop_
 _symmetry_equiv_pos_site_id
 _symmetry_equiv_pos_as_xyz
  1  'x, y, z'
loop_
 _atom_site_type_symbol
 _atom_site_label
 _atom_site_symmetry_multiplicity
 _atom_site_fract_x
 _atom_site_fract_y
 _atom_site_fract_z
 _atom_site_occupancy
  Rb  Rb0  1  0.55575625  0.49494564  0.82890814  1
  Rb  Rb1  1  0.44424375  0.50505436  0.17109186  1
  Rb  Rb2  1  0.05575625  0.50505436  0.67109186  1
  Rb  Rb3  1  0.44424375  -0.00505436  0.17109186  1
  Rb  Rb4  1  0.94424375  0.49494564  0.32890814  1
  Rb  Rb5  1  0.55575625  0.00505436  0.82890814  1
  Rb  Rb6  1  0.94424375  0.00505436  0.32890814  1
  Rb  Rb7  1  0.05575625  -0.00505436  0.67109186  1
  Nd  Nd8  1  0.57233603  0.75000000  0.50484746  1
  Nd  Nd9  1  0.42766397  0.25000000  0.49515254  1
  Nd  Nd10  1  0.07233603  0.25000000  0.99515254  1
  Nd  Nd11  1  0.92766397  0.75000000  0.00484746  1
  Cl  Cl12  1  0.84464425  0.75000000  0.80085472  1
  Cl  Cl13  1  0.15535575  0.25000000  0.19914528  1
  Cl  Cl14  1  0.34464425  0.25000000  0.69914528  1
  Cl  Cl15  1  0.65535575  0.75000000  0.30085472  1
  Cl  Cl16  1  0.37903687  0.75000000  0.67653691  1
  Cl  Cl17  1  0.62096313  0.25000000  0.32346309  1
  Cl  Cl18  1  0.87903687  0.25000000  0.82346309  1
  Cl  Cl19  1  0.12096313  0.75000000  0.17653691  1
  Cl  Cl20  1  0.91119505  0.75000000  0.51003820  1
  Cl  Cl21  1  0.08880495  0.25000000  0.48996180  1
  Cl  Cl22  1  0.41119505  0.25000000  0.98996180  1
  Cl  Cl23  1  0.58880495  0.75000000  0.01003820  1
  Cl  Cl24  1  0.66287212  0.04227077  0.57282954  1
  Cl  Cl25  1  0.33712788  0.95772923  0.42717046  1
  Cl  Cl26  1  0.16287212  0.95772923  0.92717046  1
  Cl  Cl27  1  0.33712788  0.54227077  0.42717046  1
  Cl  Cl28  1  0.83712788  0.04227077  0.07282954  1
  Cl  Cl29  1  0.66287212  0.45772923  0.57282954  1
  Cl  Cl30  1  0.83712788  0.45772923  0.07282954  1
  Cl  Cl31  1  0.16287212  0.54227077  0.92717046  1
