# generated using pymatgen
data_Fe3B7IO13
_symmetry_space_group_name_H-M   'P 1'
_cell_length_a   8.64460095
_cell_length_b   8.64460095
_cell_length_c   8.64460155
_cell_angle_alpha   60.15420994
_cell_angle_beta   60.15420994
_cell_angle_gamma   60.15420607
_symmetry_Int_Tables_number   1
_chemical_formula_structural   Fe3B7IO13
_chemical_formula_sum   'Fe6 B14 I2 O26'
_cell_volume   458.38899132
_cell_formula_units_Z   2
loop_
 _symmetry_equiv_pos_site_id
 _symmetry_equiv_pos_as_xyz
  1  'x, y, z'
loop_
 _atom_site_type_symbol
 _atom_site_label
 _atom_site_symmetry_multiplicity
 _atom_site_fract_x
 _atom_site_fract_y
 _atom_site_fract_z
 _atom_site_occupancy
  Fe  Fe0  1  0.03328586  0.49767362  0.49766051  1
  Fe  Fe1  1  0.49767362  0.49766051  0.03328586  1
  Fe  Fe2  1  0.49766051  0.03328586  0.49767362  1
  Fe  Fe3  1  0.99767362  0.53328586  0.99766051  1
  Fe  Fe4  1  0.53328586  0.99766051  0.99767362  1
  Fe  Fe5  1  0.99766051  0.99767362  0.53328586  1
  B  B6  1  0.25859924  0.76580352  0.26049683  1
  B  B7  1  0.76580352  0.26049683  0.25859924  1
  B  B8  1  0.26049683  0.25859924  0.76580352  1
  B  B9  1  0.26580352  0.75859924  0.76049683  1
  B  B10  1  0.75859924  0.76049683  0.26580352  1
  B  B11  1  0.76049683  0.26580352  0.75859924  1
  B  B12  1  0.28143186  0.58367240  0.58633020  1
  B  B13  1  0.58367240  0.58633020  0.28143186  1
  B  B14  1  0.58633020  0.28143186  0.58367240  1
  B  B15  1  0.08367240  0.78143186  0.08633020  1
  B  B16  1  0.78143186  0.08633020  0.08367240  1
  B  B17  1  0.08633020  0.08367240  0.78143186  1
  B  B18  1  0.11308527  0.11308527  0.11308527  1
  B  B19  1  0.61308527  0.61308527  0.61308527  1
  I  I20  1  0.26788206  0.26788206  0.26788206  1
  I  I21  1  0.76788206  0.76788206  0.76788206  1
  O  O22  1  0.49992834  0.49992834  0.49992834  1
  O  O23  1  -0.00007166  -0.00007166  -0.00007166  1
  O  O24  1  0.44443342  0.76310014  0.21840225  1
  O  O25  1  0.76310014  0.21840225  0.44443342  1
  O  O26  1  0.21840225  0.44443342  0.76310014  1
  O  O27  1  0.26310014  0.94443342  0.71840225  1
  O  O28  1  0.94443342  0.71840225  0.26310014  1
  O  O29  1  0.71840225  0.26310014  0.94443342  1
  O  O30  1  0.25726705  0.73061575  0.11351506  1
  O  O31  1  0.73061575  0.11351506  0.25726705  1
  O  O32  1  0.11351506  0.25726705  0.73061575  1
  O  O33  1  0.23061575  0.75726705  0.61351506  1
  O  O34  1  0.75726705  0.61351506  0.23061575  1
  O  O35  1  0.61351506  0.23061575  0.75726705  1
  O  O36  1  0.95719520  0.27477572  0.11789414  1
  O  O37  1  0.27477572  0.11789414  0.95719520  1
  O  O38  1  0.11789414  0.95719520  0.27477572  1
  O  O39  1  0.77477572  0.45719520  0.61789414  1
  O  O40  1  0.45719520  0.61789414  0.77477572  1
  O  O41  1  0.61789414  0.77477572  0.45719520  1
  O  O42  1  0.20291996  0.62403016  0.44718344  1
  O  O43  1  0.62403016  0.44718344  0.20291996  1
  O  O44  1  0.44718344  0.20291996  0.62403016  1
  O  O45  1  0.12403016  0.70291996  0.94718344  1
  O  O46  1  0.70291996  0.94718344  0.12403016  1
  O  O47  1  0.94718344  0.12403016  0.70291996  1
