# generated using pymatgen
data_Nb2PbO6
_symmetry_space_group_name_H-M   'P 1'
_cell_length_a   7.23822067
_cell_length_b   7.23822067
_cell_length_c   7.23822115
_cell_angle_alpha   93.84317380
_cell_angle_beta   93.84317371
_cell_angle_gamma   93.84318292
_symmetry_Int_Tables_number   1
_chemical_formula_structural   Nb2PbO6
_chemical_formula_sum   'Nb6 Pb3 O18'
_cell_volume   376.54459110
_cell_formula_units_Z   3
loop_
 _symmetry_equiv_pos_site_id
 _symmetry_equiv_pos_as_xyz
  1  'x, y, z'
loop_
 _atom_site_type_symbol
 _atom_site_label
 _atom_site_symmetry_multiplicity
 _atom_site_fract_x
 _atom_site_fract_y
 _atom_site_fract_z
 _atom_site_occupancy
  Nb  Nb0  1  0.83398656  0.13463702  0.47783279  1
  Nb  Nb1  1  0.47783279  0.83398656  0.13463702  1
  Nb  Nb2  1  0.13463702  0.47783279  0.83398656  1
  Nb  Nb3  1  0.86536298  0.52216721  0.16601344  1
  Nb  Nb4  1  0.16601344  0.86536298  0.52216721  1
  Nb  Nb5  1  0.52216721  0.16601344  0.86536298  1
  Pb  Pb6  1  0.67917749  0.67917749  0.67917749  1
  Pb  Pb7  1  0.32082251  0.32082251  0.32082251  1
  Pb  Pb8  1  -0.00000000  -0.00000000  0.00000000  1
  O  O9  1  0.99896564  0.27247841  0.71878933  1
  O  O10  1  0.71878933  0.99896564  0.27247841  1
  O  O11  1  0.27247841  0.71878933  0.99896564  1
  O  O12  1  0.00103436  0.72752159  0.28121067  1
  O  O13  1  0.28121067  0.00103436  0.72752159  1
  O  O14  1  0.72752159  0.28121067  0.00103436  1
  O  O15  1  0.61885369  0.90373781  0.90441395  1
  O  O16  1  0.90441395  0.61885369  0.90373781  1
  O  O17  1  0.90373781  0.90441395  0.61885369  1
  O  O18  1  0.16299853  0.61761113  0.61686399  1
  O  O19  1  0.61686399  0.16299853  0.61761113  1
  O  O20  1  0.61761113  0.61686399  0.16299853  1
  O  O21  1  0.38114631  0.09626219  0.09558605  1
  O  O22  1  0.09558605  0.38114631  0.09626219  1
  O  O23  1  0.09626219  0.09558605  0.38114631  1
  O  O24  1  0.83700147  0.38238887  0.38313601  1
  O  O25  1  0.38313601  0.83700147  0.38238887  1
  O  O26  1  0.38238887  0.38313601  0.83700147  1
