# generated using pymatgen
data_Rb3LaBr6
_symmetry_space_group_name_H-M   'P 1'
_cell_length_a   8.53357288
_cell_length_b   13.60877596
_cell_length_c   14.34657210
_cell_angle_alpha   71.29574079
_cell_angle_beta   90.00000000
_cell_angle_gamma   90.00000000
_symmetry_Int_Tables_number   1
_chemical_formula_structural   Rb3LaBr6
_chemical_formula_sum   'Rb12 La4 Br24'
_cell_volume   1578.09660108
_cell_formula_units_Z   4
loop_
 _symmetry_equiv_pos_site_id
 _symmetry_equiv_pos_as_xyz
  1  'x, y, z'
loop_
 _atom_site_type_symbol
 _atom_site_label
 _atom_site_symmetry_multiplicity
 _atom_site_fract_x
 _atom_site_fract_y
 _atom_site_fract_z
 _atom_site_occupancy
  Rb  Rb0  1  0.43743049  0.73624676  0.31627357  1
  Rb  Rb1  1  0.56256951  0.26375324  0.68372643  1
  Rb  Rb2  1  0.93743049  0.76375324  0.68372643  1
  Rb  Rb3  1  0.06256951  0.23624676  0.31627357  1
  Rb  Rb4  1  0.95787457  0.64146939  0.09714970  1
  Rb  Rb5  1  0.04212543  0.35853061  0.90285030  1
  Rb  Rb6  1  0.45787457  0.85853061  0.90285030  1
  Rb  Rb7  1  0.54212543  0.14146939  0.09714970  1
  Rb  Rb8  1  0.92743720  0.88737487  0.31793999  1
  Rb  Rb9  1  0.07256280  0.11262513  0.68206001  1
  Rb  Rb10  1  0.42743720  0.61262513  0.68206001  1
  Rb  Rb11  1  0.57256280  0.38737487  0.31793999  1
  La  La12  1  0.00000000  0.50000000  0.50000000  1
  La  La13  1  0.50000000  0.00000000  0.50000000  1
  La  La14  1  0.00000000  0.00000000  -0.00000000  1
  La  La15  1  0.50000000  0.50000000  -0.00000000  1
  Br  Br16  1  0.50088805  0.63524915  0.12000690  1
  Br  Br17  1  0.49911195  0.36475085  0.87999310  1
  Br  Br18  1  0.00088805  0.86475085  0.87999310  1
  Br  Br19  1  0.99911195  0.13524915  0.12000690  1
  Br  Br20  1  0.28823637  0.99559756  0.34045971  1
  Br  Br21  1  0.71176363  0.00440244  0.65954029  1
  Br  Br22  1  0.78823637  0.50440244  0.65954029  1
  Br  Br23  1  0.21176363  0.49559756  0.34045971  1
  Br  Br24  1  0.78658858  0.61068984  0.33905465  1
  Br  Br25  1  0.21341142  0.38931016  0.66094535  1
  Br  Br26  1  0.28658858  0.88931016  0.66094535  1
  Br  Br27  1  0.71341142  0.11068984  0.33905465  1
  Br  Br28  1  0.64403471  0.80134947  0.50099575  1
  Br  Br29  1  0.35596529  0.19865053  0.49900425  1
  Br  Br30  1  0.14403471  0.69865053  0.49900425  1
  Br  Br31  1  0.85596529  0.30134947  0.50099575  1
  Br  Br32  1  0.17390099  0.83727502  0.14479553  1
  Br  Br33  1  0.82609901  0.16272498  0.85520447  1
  Br  Br34  1  0.67390099  0.66272498  0.85520447  1
  Br  Br35  1  0.32609901  0.33727502  0.14479553  1
  Br  Br36  1  0.70652240  0.90394115  0.10287901  1
  Br  Br37  1  0.29347760  0.09605885  0.89712099  1
  Br  Br38  1  0.20652240  0.59605885  0.89712099  1
  Br  Br39  1  0.79347760  0.40394115  0.10287901  1
