# generated using pymatgen
data_Ba3Cd(GeO4)2
_symmetry_space_group_name_H-M   'P 1'
_cell_length_a   5.87202122
_cell_length_b   5.87202122
_cell_length_c   7.53352678
_cell_angle_alpha   90.00000000
_cell_angle_beta   90.00000000
_cell_angle_gamma   120.00000815
_symmetry_Int_Tables_number   1
_chemical_formula_structural   Ba3Cd(GeO4)2
_chemical_formula_sum   'Ba3 Cd1 Ge2 O8'
_cell_volume   224.95941069
_cell_formula_units_Z   1
loop_
 _symmetry_equiv_pos_site_id
 _symmetry_equiv_pos_as_xyz
  1  'x, y, z'
loop_
 _atom_site_type_symbol
 _atom_site_label
 _atom_site_symmetry_multiplicity
 _atom_site_fract_x
 _atom_site_fract_y
 _atom_site_fract_z
 _atom_site_occupancy
  Ba  Ba0  1  0.66666700  0.33333300  0.34241616  1
  Ba  Ba1  1  0.33333300  0.66666700  0.65758384  1
  Ba  Ba2  1  0.00000000  -0.00000000  0.00000000  1
  Cd  Cd3  1  0.00000000  -0.00000000  0.50000000  1
  Ge  Ge4  1  0.66666700  0.33333300  0.78531532  1
  Ge  Ge5  1  0.33333300  0.66666700  0.21468468  1
  O  O6  1  0.66666700  0.33333300  0.01363964  1
  O  O7  1  0.33333300  0.66666700  0.98636036  1
  O  O8  1  0.82691505  0.65383011  0.69262427  1
  O  O9  1  0.17308495  0.34616989  0.30737573  1
  O  O10  1  0.82691505  0.17308495  0.69262427  1
  O  O11  1  0.17308495  0.82691505  0.30737573  1
  O  O12  1  0.34616989  0.17308495  0.69262427  1
  O  O13  1  0.65383011  0.82691505  0.30737573  1
