# generated using pymatgen
data_Ba(LuTe2)2
_symmetry_space_group_name_H-M   'P 1'
_cell_length_a   4.41601956
_cell_length_b   13.67245931
_cell_length_c   16.03230819
_cell_angle_alpha   90.00000000
_cell_angle_beta   90.00000000
_cell_angle_gamma   90.00000000
_symmetry_Int_Tables_number   1
_chemical_formula_structural   Ba(LuTe2)2
_chemical_formula_sum   'Ba4 Lu8 Te16'
_cell_volume   967.99626292
_cell_formula_units_Z   4
loop_
 _symmetry_equiv_pos_site_id
 _symmetry_equiv_pos_as_xyz
  1  'x, y, z'
loop_
 _atom_site_type_symbol
 _atom_site_label
 _atom_site_symmetry_multiplicity
 _atom_site_fract_x
 _atom_site_fract_y
 _atom_site_fract_z
 _atom_site_occupancy
  Ba  Ba0  1  0.25000000  0.23864136  0.33047098  1
  Ba  Ba1  1  0.25000000  0.73864136  0.16952902  1
  Ba  Ba2  1  0.75000000  0.76135864  0.66952902  1
  Ba  Ba3  1  0.75000000  0.26135864  0.83047098  1
  Lu  Lu4  1  0.25000000  0.08118434  0.59692774  1
  Lu  Lu5  1  0.25000000  0.58118434  0.90307226  1
  Lu  Lu6  1  0.75000000  0.91881566  0.40307226  1
  Lu  Lu7  1  0.75000000  0.41881566  0.09692774  1
  Lu  Lu8  1  0.25000000  0.55763513  0.38977667  1
  Lu  Lu9  1  0.25000000  0.05763513  0.11022333  1
  Lu  Lu10  1  0.75000000  0.44236487  0.61022333  1
  Lu  Lu11  1  0.75000000  0.94236487  0.88977667  1
  Te  Te12  1  0.25000000  0.08866672  0.92535255  1
  Te  Te13  1  0.25000000  0.58866672  0.57464745  1
  Te  Te14  1  0.75000000  0.91133328  0.07464745  1
  Te  Te15  1  0.75000000  0.41133328  0.42535255  1
  Te  Te16  1  0.25000000  0.29616865  0.65536758  1
  Te  Te17  1  0.25000000  0.79616865  0.84463242  1
  Te  Te18  1  0.75000000  0.70383135  0.34463242  1
  Te  Te19  1  0.75000000  0.20383135  0.15536758  1
  Te  Te20  1  0.25000000  0.37631009  0.97277036  1
  Te  Te21  1  0.25000000  0.87631009  0.52722964  1
  Te  Te22  1  0.75000000  0.62368991  0.02722964  1
  Te  Te23  1  0.75000000  0.12368991  0.47277036  1
  Te  Te24  1  0.25000000  0.47215624  0.21571873  1
  Te  Te25  1  0.25000000  0.97215624  0.28428127  1
  Te  Te26  1  0.75000000  0.52784376  0.78428127  1
  Te  Te27  1  0.75000000  0.02784376  0.71571873  1
