# generated using pymatgen
data_Rb2Mn2(SO4)3
_symmetry_space_group_name_H-M   'P 1'
_cell_length_a   10.19025014
_cell_length_b   10.19025180
_cell_length_c   10.19025126
_cell_angle_alpha   90.00000000
_cell_angle_beta   90.00000000
_cell_angle_gamma   90.00000000
_symmetry_Int_Tables_number   1
_chemical_formula_structural   Rb2Mn2(SO4)3
_chemical_formula_sum   'Rb8 Mn8 S12 O48'
_cell_volume   1058.16807028
_cell_formula_units_Z   4
loop_
 _symmetry_equiv_pos_site_id
 _symmetry_equiv_pos_as_xyz
  1  'x, y, z'
loop_
 _atom_site_type_symbol
 _atom_site_label
 _atom_site_symmetry_multiplicity
 _atom_site_fract_x
 _atom_site_fract_y
 _atom_site_fract_z
 _atom_site_occupancy
  Rb  Rb0  1  0.79888098  0.70111902  0.29888100  1
  Rb  Rb1  1  0.70111902  0.29888098  0.79888100  1
  Rb  Rb2  1  0.29888098  0.79888098  0.70111900  1
  Rb  Rb3  1  0.20111902  0.20111902  0.20111900  1
  Rb  Rb4  1  0.43386555  0.43386556  0.43386548  1
  Rb  Rb5  1  0.93386555  0.06613444  0.56613452  1
  Rb  Rb6  1  0.06613445  0.56613444  0.93386548  1
  Rb  Rb7  1  0.56613445  0.93386556  0.06613452  1
  Mn  Mn8  1  0.91578803  0.91578807  0.91578801  1
  Mn  Mn9  1  0.58421197  0.08421193  0.41578801  1
  Mn  Mn10  1  0.08421197  0.41578807  0.58421199  1
  Mn  Mn11  1  0.41578803  0.58421193  0.08421199  1
  Mn  Mn12  1  0.65478120  0.65478110  0.65478128  1
  Mn  Mn13  1  0.15478120  0.84521890  0.34521872  1
  Mn  Mn14  1  0.84521880  0.34521890  0.15478128  1
  Mn  Mn15  1  0.34521880  0.15478110  0.84521872  1
  S  S16  1  0.62621028  0.96769216  0.73276856  1
  S  S17  1  0.12621028  0.53230784  0.26723144  1
  S  S18  1  0.37378972  0.46769216  0.76723144  1
  S  S19  1  0.53230788  0.26723146  0.12621038  1
  S  S20  1  0.76723159  0.37378960  0.46769213  1
  S  S21  1  0.26723159  0.12621040  0.53230787  1
  S  S22  1  0.96769212  0.73276854  0.62621038  1
  S  S23  1  0.73276841  0.62621040  0.96769213  1
  S  S24  1  0.46769212  0.76723146  0.37378962  1
  S  S25  1  0.03230788  0.23276854  0.87378962  1
  S  S26  1  0.23276841  0.87378960  0.03230787  1
  S  S27  1  0.87378972  0.03230784  0.23276856  1
  O  O28  1  0.65094096  -0.00296925  0.59406129  1
  O  O29  1  0.15094096  0.50296925  0.40593871  1
  O  O30  1  0.34905904  0.49703075  0.90593871  1
  O  O31  1  0.50296925  0.40593871  0.15094088  1
  O  O32  1  0.90593874  0.34905912  0.49703071  1
  O  O33  1  0.40593874  0.15094088  0.50296929  1
  O  O34  1  -0.00296925  0.59406129  0.65094088  1
  O  O35  1  0.59406126  0.65094088  -0.00296929  1
  O  O36  1  0.49703075  0.90593871  0.34905912  1
  O  O37  1  0.00296925  0.09406129  0.84905912  1
  O  O38  1  0.09406126  0.84905912  0.00296929  1
  O  O39  1  0.84905904  0.00296925  0.09406129  1
  O  O40  1  0.58298979  0.83017946  0.74886219  1
  O  O41  1  0.08298979  0.66982054  0.25113781  1
  O  O42  1  0.41701021  0.33017946  0.75113781  1
  O  O43  1  0.66982057  0.25113784  0.08298984  1
  O  O44  1  0.75113783  0.41701020  0.33017942  1
  O  O45  1  0.25113783  0.08298980  0.66982058  1
  O  O46  1  0.71295128  0.47564756  0.55480709  1
  O  O47  1  0.83017943  0.74886216  0.58298984  1
  O  O48  1  0.33017943  0.75113784  0.41701016  1
  O  O49  1  0.16982057  0.24886216  0.91701016  1
  O  O50  1  0.24886217  0.91701020  0.16982058  1
  O  O51  1  0.91701021  0.16982054  0.24886219  1
  O  O52  1  0.52435250  0.05480708  0.78704871  1
  O  O53  1  0.02435250  0.44519292  0.21295129  1
  O  O54  1  0.47564750  0.55480708  0.71295129  1
  O  O55  1  0.44519296  0.21295126  0.02435243  1
  O  O56  1  0.75145744  0.00893436  0.30737551  1
  O  O57  1  0.30737546  0.75145745  0.00893435  1
  O  O58  1  0.00893434  0.30737550  0.75145752  1
  O  O59  1  0.49106566  0.69262450  0.25145752  1
  O  O60  1  0.80737546  0.74854255  0.99106565  1
  O  O61  1  0.99106566  0.80737550  0.74854248  1
  O  O62  1  0.19262454  0.24854255  0.50893435  1
  O  O63  1  0.69262454  0.25145745  0.49106565  1
  O  O64  1  0.50893434  0.19262450  0.24854248  1
  O  O65  1  0.25145744  0.49106564  0.69262449  1
  O  O66  1  0.24854256  0.50893436  0.19262449  1
  O  O67  1  0.74854256  0.99106564  0.80737551  1
  O  O68  1  0.97564750  0.94519292  0.28704871  1
  O  O69  1  0.28704872  0.97564756  0.94519291  1
  O  O70  1  0.94519296  0.28704874  0.97564757  1
  O  O71  1  0.55480704  0.71295126  0.47564757  1
  O  O72  1  0.78704872  0.52435244  0.05480709  1
  O  O73  1  0.05480704  0.78704874  0.52435243  1
  O  O74  1  0.21295128  0.02435244  0.44519291  1
  O  O75  1  0.74886217  0.58298980  0.83017942  1
