# generated using pymatgen
data_K3As(PSe3)3
_symmetry_space_group_name_H-M   'P 1'
_cell_length_a   23.45433502
_cell_length_b   8.22297513
_cell_length_c   12.33400796
_cell_angle_alpha   55.90592923
_cell_angle_beta   90.00000000
_cell_angle_gamma   90.00000000
_symmetry_Int_Tables_number   1
_chemical_formula_structural   K3As(PSe3)3
_chemical_formula_sum   'K12 As4 P12 Se36'
_cell_volume   1969.92064915
_cell_formula_units_Z   4
loop_
 _symmetry_equiv_pos_site_id
 _symmetry_equiv_pos_as_xyz
  1  'x, y, z'
loop_
 _atom_site_type_symbol
 _atom_site_label
 _atom_site_symmetry_multiplicity
 _atom_site_fract_x
 _atom_site_fract_y
 _atom_site_fract_z
 _atom_site_occupancy
  K  K0  1  0.83492338  0.89947461  0.71874089  1
  K  K1  1  0.33492338  0.10052539  0.78125911  1
  K  K2  1  0.16507662  0.10052539  0.28125911  1
  K  K3  1  0.66507662  0.89947461  0.21874089  1
  K  K4  1  0.69278074  0.37534859  0.74526865  1
  K  K5  1  0.19278074  0.62465141  0.75473135  1
  K  K6  1  0.30721926  0.62465141  0.25473135  1
  K  K7  1  0.80721926  0.37534859  0.24526865  1
  K  K8  1  0.97525895  0.34645873  0.77490295  1
  K  K9  1  0.47525895  0.65354127  0.72509705  1
  K  K10  1  0.02474105  0.65354127  0.22509705  1
  K  K11  1  0.52474105  0.34645873  0.27490295  1
  As  As12  1  0.57615281  0.96751402  0.72939584  1
  As  As13  1  0.07615281  0.03248598  0.77060416  1
  As  As14  1  0.42384719  0.03248598  0.27060416  1
  As  As15  1  0.92384719  0.96751402  0.22939584  1
  P  P16  1  0.66475253  0.94512692  0.52659390  1
  P  P17  1  0.16475253  0.05487308  0.97340610  1
  P  P18  1  0.33524747  0.05487308  0.47340610  1
  P  P19  1  0.83524747  0.94512692  0.02659390  1
  P  P20  1  0.02746968  0.87867511  0.57944669  1
  P  P21  1  0.52746968  0.12132489  0.92055331  1
  P  P22  1  0.97253032  0.12132489  0.42055331  1
  P  P23  1  0.47253032  0.87867511  0.07944669  1
  P  P24  1  0.32484034  0.73476586  0.54514361  1
  P  P25  1  0.82484034  0.26523414  0.95485639  1
  P  P26  1  0.67515966  0.26523414  0.45485639  1
  P  P27  1  0.17515966  0.73476586  0.04514361  1
  Se  Se28  1  0.60446131  0.94840172  0.92467269  1
  Se  Se29  1  0.10446131  0.05159828  0.57532731  1
  Se  Se30  1  0.39553869  0.05159828  0.07532731  1
  Se  Se31  1  0.89553869  0.94840172  0.42467269  1
  Se  Se32  1  0.91757796  0.89607259  0.97244751  1
  Se  Se33  1  0.41757796  0.10392741  0.52755249  1
  Se  Se34  1  0.08242204  0.10392741  0.02755249  1
  Se  Se35  1  0.58242204  0.89607259  0.47244751  1
  Se  Se36  1  0.76148720  0.85740143  0.97163546  1
  Se  Se37  1  0.26148720  0.14259857  0.52836454  1
  Se  Se38  1  0.23851280  0.14259857  0.02836454  1
  Se  Se39  1  0.73851280  0.85740143  0.47163546  1
  Se  Se40  1  0.66729188  0.80843924  0.74485787  1
  Se  Se41  1  0.16729188  0.19156076  0.75514213  1
  Se  Se42  1  0.33270812  0.19156076  0.25514213  1
  Se  Se43  1  0.83270812  0.80843924  0.24485787  1
  Se  Se44  1  0.98266637  0.76447528  0.76111856  1
  Se  Se45  1  0.48266637  0.23552472  0.73888144  1
  Se  Se46  1  0.01733363  0.23552472  0.23888144  1
  Se  Se47  1  0.51733363  0.76447528  0.26111856  1
  Se  Se48  1  0.05773574  0.68795065  0.52583221  1
  Se  Se49  1  0.55773574  0.31204935  0.97416779  1
  Se  Se50  1  0.94226426  0.31204935  0.47416779  1
  Se  Se51  1  0.44226426  0.68795065  0.02583221  1
  Se  Se52  1  0.83692001  0.44661727  0.74671958  1
  Se  Se53  1  0.33692001  0.55338273  0.75328042  1
  Se  Se54  1  0.16307999  0.55338273  0.25328042  1
  Se  Se55  1  0.66307999  0.44661727  0.24671958  1
  Se  Se56  1  0.75366274  0.30701741  0.52489170  1
  Se  Se57  1  0.25366274  0.69298259  0.97510830  1
  Se  Se58  1  0.24633726  0.69298259  0.47510830  1
  Se  Se59  1  0.74633726  0.30701741  0.02489170  1
  Se  Se60  1  0.59735687  0.30510961  0.55141599  1
  Se  Se61  1  0.09735687  0.69489039  0.94858401  1
  Se  Se62  1  0.40264313  0.69489039  0.44858401  1
  Se  Se63  1  0.90264313  0.30510961  0.05141599  1
