# generated using pymatgen
data_MgV3CoSn2(PO4)6
_symmetry_space_group_name_H-M   'P 1'
_cell_length_a   9.19310477
_cell_length_b   8.48141847
_cell_length_c   8.45242549
_cell_angle_alpha   60.22667058
_cell_angle_beta   64.39349661
_cell_angle_gamma   62.82339873
_symmetry_Int_Tables_number   1
_chemical_formula_structural   MgV3CoSn2(PO4)6
_chemical_formula_sum   'Mg1 V3 Co1 Sn2 P6 O24'
_cell_volume   490.56088683
_cell_formula_units_Z   1
loop_
 _symmetry_equiv_pos_site_id
 _symmetry_equiv_pos_as_xyz
  1  'x, y, z'
loop_
 _atom_site_type_symbol
 _atom_site_label
 _atom_site_symmetry_multiplicity
 _atom_site_fract_x
 _atom_site_fract_y
 _atom_site_fract_z
 _atom_site_occupancy
  Mg  Mg0  1  0.20395000  0.25367300  0.92200200  1
  V  V1  1  0.05603400  0.65849000  0.64133100  1
  V  V2  1  0.45823800  0.84689200  0.84351800  1
  V  V3  1  0.95722900  0.35879400  0.34645100  1
  Co  Co4  1  0.51956700  0.15555500  0.16908100  1
  Sn  Sn5  1  0.92066900  0.01301200  0.02407900  1
  Sn  Sn6  1  0.55474600  0.48522000  0.46426700  1
  P  P7  1  0.25589300  0.25064100  0.54301300  1
  P  P8  1  0.25470000  0.95799300  0.25642000  1
  P  P9  1  0.23922100  0.54565700  0.96700200  1
  P  P10  1  0.76916200  0.45475300  0.02990900  1
  P  P11  1  0.74231400  0.04550800  0.74005800  1
  P  P12  1  0.74645900  0.74588900  0.46860300  1
  O  O13  1  0.10311900  0.14813300  0.23963700  1
  O  O14  1  0.07162600  0.54576100  0.12564400  1
  O  O15  1  0.08857800  0.29014100  0.50921200  1
  O  O16  1  0.28365300  0.05669500  0.70978800  1
  O  O17  1  0.40519800  0.27328400  0.36645000  1
  O  O18  1  0.22283000  0.39549200  0.63237000  1
  O  O19  1  0.30656900  0.96455100  0.05079500  1
  O  O20  1  0.19583800  0.77999900  0.40003000  1
  O  O21  1  0.63358000  0.64719300  0.98584300  1
  O  O22  1  0.19081100  0.62917400  0.77497100  1
  O  O23  1  0.72878100  0.29749000  0.02544500  1
  O  O24  1  0.58005100  0.04316000  0.73294300  1
  O  O25  1  0.40129400  0.95148300  0.30195500  1
  O  O26  1  0.32314600  0.66659100  0.95913200  1
  O  O27  1  0.77682400  0.39394200  0.23599200  1
  O  O28  1  0.35458800  0.33781600  0.98069500  1
  O  O29  1  0.76882300  0.24313900  0.59188300  1
  O  O30  1  0.71923300  0.03127700  0.94178500  1
  O  O31  1  0.76685600  0.59781500  0.39673500  1
  O  O32  1  0.58907800  0.75133900  0.63182600  1
  O  O33  1  0.73705500  0.94294700  0.30139300  1
  O  O34  1  0.91102600  0.67582500  0.52896600  1
  O  O35  1  0.95272500  0.45649400  0.89991200  1
  O  O36  1  0.90339300  0.88943900  0.69055600  1
