# generated using pymatgen
data_TlFeO2
_symmetry_space_group_name_H-M   'P 1'
_cell_length_a   6.01870924
_cell_length_b   6.01870923
_cell_length_c   6.01870924
_cell_angle_alpha   59.68491280
_cell_angle_beta   59.68491285
_cell_angle_gamma   59.68491283
_symmetry_Int_Tables_number   1
_chemical_formula_structural   TlFeO2
_chemical_formula_sum   'Tl2 Fe2 O4'
_cell_volume   153.06479155
_cell_formula_units_Z   2
loop_
 _symmetry_equiv_pos_site_id
 _symmetry_equiv_pos_as_xyz
  1  'x, y, z'
loop_
 _atom_site_type_symbol
 _atom_site_label
 _atom_site_symmetry_multiplicity
 _atom_site_fract_x
 _atom_site_fract_y
 _atom_site_fract_z
 _atom_site_occupancy
  Tl  Tl0  1  0.87834409  0.87834513  0.87834616  1
  Tl  Tl1  1  0.12165487  0.12165447  0.12165561  1
  Fe  Fe2  1  0.62452598  0.62452571  0.62452741  1
  Fe  Fe3  1  0.37547298  0.37547389  0.37547435  1
  O  O4  1  0.49999885  0.00000090  0.50000077  1
  O  O5  1  0.00000068  0.50000043  0.50000004  1
  O  O6  1  0.50000069  0.50000042  0.99999915  1
  O  O7  1  0.49999911  0.50000087  0.50000051  1
