# generated using pymatgen
data_Mg(BeN)2
_symmetry_space_group_name_H-M   'P 1'
_cell_length_a   2.94091868
_cell_length_b   2.94091717
_cell_length_c   5.06363173
_cell_angle_alpha   90.00000000
_cell_angle_beta   90.00000000
_cell_angle_gamma   120.00000576
_symmetry_Int_Tables_number   1
_chemical_formula_structural   Mg(BeN)2
_chemical_formula_sum   'Mg1 Be2 N2'
_cell_volume   37.92787645
_cell_formula_units_Z   1
loop_
 _symmetry_equiv_pos_site_id
 _symmetry_equiv_pos_as_xyz
  1  'x, y, z'
loop_
 _atom_site_type_symbol
 _atom_site_label
 _atom_site_symmetry_multiplicity
 _atom_site_fract_x
 _atom_site_fract_y
 _atom_site_fract_z
 _atom_site_occupancy
  Mg  Mg0  1  -0.00000000  -0.00000000  -0.00000000  1
  Be  Be1  1  0.66666700  0.33333300  0.37214721  1
  Be  Be2  1  0.33333300  0.66666700  0.62785279  1
  N  N3  1  0.66666700  0.33333300  0.72295508  1
  N  N4  1  0.33333300  0.66666700  0.27704492  1
