# generated using pymatgen
data_NaNbO3
_symmetry_space_group_name_H-M   'P 1'
_cell_length_a   7.94730459
_cell_length_b   7.93582613
_cell_length_c   23.77232728
_cell_angle_alpha   90.00000000
_cell_angle_beta   90.00000000
_cell_angle_gamma   90.00000000
_symmetry_Int_Tables_number   1
_chemical_formula_structural   NaNbO3
_chemical_formula_sum   'Na24 Nb24 O72'
_cell_volume   1499.28329786
_cell_formula_units_Z   24
loop_
 _symmetry_equiv_pos_site_id
 _symmetry_equiv_pos_as_xyz
  1  'x, y, z'
loop_
 _atom_site_type_symbol
 _atom_site_label
 _atom_site_symmetry_multiplicity
 _atom_site_fract_x
 _atom_site_fract_y
 _atom_site_fract_z
 _atom_site_occupancy
  Na  Na0  1  0.25000000  0.25127603  0.41936189  1
  Na  Na1  1  0.25000000  0.25127603  0.08063811  1
  Na  Na2  1  0.75000000  0.74872397  0.58063811  1
  Na  Na3  1  0.75000000  0.74872397  0.91936189  1
  Na  Na4  1  0.25000000  0.75103289  0.41694173  1
  Na  Na5  1  0.25000000  0.75103289  0.08305827  1
  Na  Na6  1  0.75000000  0.24896711  0.58305827  1
  Na  Na7  1  0.75000000  0.24896711  0.91694173  1
  Na  Na8  1  0.25000000  0.23134363  0.25000000  1
  Na  Na9  1  0.75000000  0.76865637  0.75000000  1
  Na  Na10  1  0.25000000  0.74956170  0.25000000  1
  Na  Na11  1  0.75000000  0.25043830  0.75000000  1
  Na  Na12  1  0.25000000  0.25345662  0.91542967  1
  Na  Na13  1  0.25000000  0.25345662  0.58457033  1
  Na  Na14  1  0.75000000  0.74654338  0.08457033  1
  Na  Na15  1  0.75000000  0.74654338  0.41542967  1
  Na  Na16  1  0.25000000  0.74648070  0.91765292  1
  Na  Na17  1  0.25000000  0.74648070  0.58234708  1
  Na  Na18  1  0.75000000  0.25351930  0.08234708  1
  Na  Na19  1  0.75000000  0.25351930  0.41765292  1
  Na  Na20  1  0.25000000  0.24070447  0.75000000  1
  Na  Na21  1  0.75000000  0.75929553  0.25000000  1
  Na  Na22  1  0.25000000  0.73006159  0.75000000  1
  Na  Na23  1  0.75000000  0.26993841  0.25000000  1
  Nb  Nb24  1  0.50000000  0.00000000  0.50000000  1
  Nb  Nb25  1  0.00000000  0.00000000  0.50000000  1
  Nb  Nb26  1  0.50000000  0.00000000  0.00000000  1
  Nb  Nb27  1  0.00000000  0.00000000  -0.00000000  1
  Nb  Nb28  1  0.50000000  0.50000000  0.50000000  1
  Nb  Nb29  1  0.00000000  0.50000000  0.50000000  1
  Nb  Nb30  1  0.50000000  0.50000000  -0.00000000  1
  Nb  Nb31  1  0.00000000  0.50000000  0.00000000  1
  Nb  Nb32  1  0.50024499  0.00115653  0.33342102  1
  Nb  Nb33  1  0.99975501  0.00115653  0.33342102  1
  Nb  Nb34  1  0.50024499  0.00115653  0.16657898  1
  Nb  Nb35  1  0.99975501  0.00115653  0.16657898  1
  Nb  Nb36  1  0.49975501  0.99884347  0.66657898  1
  Nb  Nb37  1  0.00024499  0.99884347  0.66657898  1
  Nb  Nb38  1  0.49975501  0.99884347  0.83342102  1
  Nb  Nb39  1  0.00024499  0.99884347  0.83342102  1
  Nb  Nb40  1  0.49957167  0.50083469  0.33299699  1
  Nb  Nb41  1  0.00042833  0.50083469  0.33299699  1
  Nb  Nb42  1  0.49957167  0.50083469  0.16700301  1
  Nb  Nb43  1  0.00042833  0.50083469  0.16700301  1
  Nb  Nb44  1  0.50042833  0.49916531  0.66700301  1
  Nb  Nb45  1  0.99957167  0.49916531  0.66700301  1
  Nb  Nb46  1  0.50042833  0.49916531  0.83299699  1
  Nb  Nb47  1  0.99957167  0.49916531  0.83299699  1
  O  O48  1  0.46623164  0.25031884  0.51013054  1
  O  O49  1  0.03376836  0.25031884  0.51013054  1
  O  O50  1  0.46623164  0.25031884  0.98986946  1
  O  O51  1  0.03376836  0.25031884  0.98986946  1
  O  O52  1  0.53376836  0.74968116  0.48986946  1
  O  O53  1  0.96623164  0.74968116  0.48986946  1
  O  O54  1  0.53376836  0.74968116  0.01013054  1
  O  O55  1  0.96623164  0.74968116  0.01013054  1
  O  O56  1  0.51967729  0.25068025  0.32208102  1
  O  O57  1  0.98032271  0.25068025  0.32208102  1
  O  O58  1  0.51967729  0.25068025  0.17791898  1
  O  O59  1  0.98032271  0.25068025  0.17791898  1
  O  O60  1  0.48032271  0.74931975  0.67791898  1
  O  O61  1  0.01967729  0.74931975  0.67791898  1
  O  O62  1  0.48032271  0.74931975  0.82208102  1
  O  O63  1  0.01967729  0.74931975  0.82208102  1
  O  O64  1  0.48031856  0.75100259  0.34456921  1
  O  O65  1  0.01968144  0.75100259  0.34456921  1
  O  O66  1  0.48031856  0.75100259  0.15543079  1
  O  O67  1  0.01968144  0.75100259  0.15543079  1
  O  O68  1  0.51968144  0.24899741  0.65543079  1
  O  O69  1  0.98031856  0.24899741  0.65543079  1
  O  O70  1  0.51968144  0.24899741  0.84456921  1
  O  O71  1  0.98031856  0.24899741  0.84456921  1
  O  O72  1  0.52865413  0.03349903  0.41685389  1
  O  O73  1  0.97134587  0.03349903  0.41685389  1
  O  O74  1  0.52865413  0.03349903  0.08314611  1
  O  O75  1  0.97134587  0.03349903  0.08314611  1
  O  O76  1  0.47134587  0.96650097  0.58314611  1
  O  O77  1  0.02865413  0.96650097  0.58314611  1
  O  O78  1  0.47134587  0.96650097  0.91685389  1
  O  O79  1  0.02865413  0.96650097  0.91685389  1
  O  O80  1  0.47127404  0.46964410  0.41680736  1
  O  O81  1  0.02872596  0.46964410  0.41680736  1
  O  O82  1  0.47127404  0.46964410  0.08319264  1
  O  O83  1  0.02872596  0.46964410  0.08319264  1
  O  O84  1  0.52872596  0.53035590  0.58319264  1
  O  O85  1  0.97127404  0.53035590  0.58319264  1
  O  O86  1  0.52872596  0.53035590  0.91680736  1
  O  O87  1  0.97127404  0.53035590  0.91680736  1
  O  O88  1  0.46794097  0.97051707  0.25000000  1
  O  O89  1  0.03205903  0.97051707  0.25000000  1
  O  O90  1  0.53205903  0.02948293  0.75000000  1
  O  O91  1  0.96794097  0.02948293  0.75000000  1
  O  O92  1  0.53087581  0.53660802  0.25000000  1
  O  O93  1  0.96912419  0.53660802  0.25000000  1
  O  O94  1  0.46912419  0.46339198  0.75000000  1
  O  O95  1  0.03087581  0.46339198  0.75000000  1
  O  O96  1  0.25000000  0.96990575  0.48926750  1
  O  O97  1  0.25000000  0.96990575  0.01073250  1
  O  O98  1  0.75000000  0.03009425  0.51073250  1
  O  O99  1  0.75000000  0.03009425  0.98926750  1
  O  O100  1  0.25000000  0.53631393  0.50767925  1
  O  O101  1  0.25000000  0.53631393  0.99232075  1
  O  O102  1  0.75000000  0.46368607  0.49232075  1
  O  O103  1  0.75000000  0.46368607  0.00767925  1
  O  O104  1  0.25000000  0.02410979  0.34248963  1
  O  O105  1  0.25000000  0.02410979  0.15751037  1
  O  O106  1  0.75000000  0.97589021  0.65751037  1
  O  O107  1  0.75000000  0.97589021  0.84248963  1
  O  O108  1  0.25000000  0.48431093  0.32250446  1
  O  O109  1  0.25000000  0.48431093  0.17749554  1
  O  O110  1  0.75000000  0.51568907  0.67749554  1
  O  O111  1  0.75000000  0.51568907  0.82250446  1
  O  O112  1  0.25000000  0.02464698  0.82425645  1
  O  O113  1  0.25000000  0.02464698  0.67574355  1
  O  O114  1  0.75000000  0.97535302  0.17574355  1
  O  O115  1  0.75000000  0.97535302  0.32425645  1
  O  O116  1  0.25000000  0.48614976  0.84424957  1
  O  O117  1  0.25000000  0.48614976  0.65575043  1
  O  O118  1  0.75000000  0.51385024  0.15575043  1
  O  O119  1  0.75000000  0.51385024  0.34424957  1
