# generated using pymatgen
data_Pr2WO6
_symmetry_space_group_name_H-M   'P 1'
_cell_length_a   10.16537889
_cell_length_b   10.16537889
_cell_length_c   5.58790248
_cell_angle_alpha   75.65940633
_cell_angle_beta   75.65940633
_cell_angle_gamma   68.92296086
_symmetry_Int_Tables_number   1
_chemical_formula_structural   Pr2WO6
_chemical_formula_sum   'Pr8 W4 O24'
_cell_volume   513.90854162
_cell_formula_units_Z   4
loop_
 _symmetry_equiv_pos_site_id
 _symmetry_equiv_pos_as_xyz
  1  'x, y, z'
loop_
 _atom_site_type_symbol
 _atom_site_label
 _atom_site_symmetry_multiplicity
 _atom_site_fract_x
 _atom_site_fract_y
 _atom_site_fract_z
 _atom_site_occupancy
  Pr  Pr0  1  0.62995569  0.37004431  0.75000000  1
  Pr  Pr1  1  0.37004431  0.62995569  0.25000000  1
  Pr  Pr2  1  0.10982368  0.89017632  0.75000000  1
  Pr  Pr3  1  0.89017632  0.10982368  0.25000000  1
  Pr  Pr4  1  0.70948572  0.94015359  0.88653032  1
  Pr  Pr5  1  0.29051428  0.05984641  0.11346968  1
  Pr  Pr6  1  0.05984641  0.29051428  0.61346968  1
  Pr  Pr7  1  0.94015359  0.70948572  0.38653032  1
  W  W8  1  0.50419797  0.80033343  0.56346953  1
  W  W9  1  0.49580203  0.19966657  0.43653047  1
  W  W10  1  0.19966657  0.49580203  0.93653047  1
  W  W11  1  0.80033343  0.50419797  0.06346953  1
  O  O12  1  0.67990811  0.16201436  0.57935178  1
  O  O13  1  0.32009189  0.83798564  0.42064822  1
  O  O14  1  0.83798564  0.32009189  0.92064822  1
  O  O15  1  0.16201436  0.67990811  0.07935178  1
  O  O16  1  0.38519550  0.82462177  0.86824707  1
  O  O17  1  0.61480450  0.17537823  0.13175293  1
  O  O18  1  0.17537823  0.61480450  0.63175293  1
  O  O19  1  0.82462177  0.38519550  0.36824707  1
  O  O20  1  0.67538643  0.78344117  0.63942088  1
  O  O21  1  0.32461357  0.21655883  0.36057912  1
  O  O22  1  0.21655883  0.32461357  0.86057912  1
  O  O23  1  0.78344117  0.67538643  0.13942088  1
  O  O24  1  0.47263354  0.06534704  0.72363937  1
  O  O25  1  0.52736646  0.93465296  0.27636063  1
  O  O26  1  0.93465296  0.52736646  0.77636063  1
  O  O27  1  0.06534704  0.47263354  0.22363937  1
  O  O28  1  0.54372628  0.61795622  0.52122188  1
  O  O29  1  0.45627372  0.38204378  0.47877812  1
  O  O30  1  0.38204378  0.45627372  0.97877812  1
  O  O31  1  0.61795622  0.54372628  0.02122188  1
  O  O32  1  0.89296202  0.92148339  0.07815635  1
  O  O33  1  0.10703798  0.07851661  0.92184365  1
  O  O34  1  0.07851661  0.10703798  0.42184365  1
  O  O35  1  0.92148339  0.89296202  0.57815635  1
