# generated using pymatgen
data_ErTl2P2Se7
_symmetry_space_group_name_H-M   'P 1'
_cell_length_a   12.50262398
_cell_length_b   12.50262398
_cell_length_c   19.14844682
_cell_angle_alpha   62.13114486
_cell_angle_beta   62.13114486
_cell_angle_gamma   32.55934450
_symmetry_Int_Tables_number   1
_chemical_formula_structural   ErTl2P2Se7
_chemical_formula_sum   'Er4 Tl8 P8 Se28'
_cell_volume   1406.95068643
_cell_formula_units_Z   4
loop_
 _symmetry_equiv_pos_site_id
 _symmetry_equiv_pos_as_xyz
  1  'x, y, z'
loop_
 _atom_site_type_symbol
 _atom_site_label
 _atom_site_symmetry_multiplicity
 _atom_site_fract_x
 _atom_site_fract_y
 _atom_site_fract_z
 _atom_site_occupancy
  Er  Er0  1  0.89144780  0.78612610  0.24053194  1
  Er  Er1  1  0.21387390  0.10855220  0.25946806  1
  Er  Er2  1  0.10855220  0.21387390  0.75946806  1
  Er  Er3  1  0.78612610  0.89144780  0.74053194  1
  Tl  Tl4  1  0.83425597  0.82110094  0.01917942  1
  Tl  Tl5  1  0.17889906  0.16574403  0.48082058  1
  Tl  Tl6  1  0.16574403  0.17889906  0.98082058  1
  Tl  Tl7  1  0.82110094  0.83425597  0.51917942  1
  Tl  Tl8  1  0.54099759  0.46588994  0.12802178  1
  Tl  Tl9  1  0.53411006  0.45900241  0.37197822  1
  Tl  Tl10  1  0.45900241  0.53411006  0.87197822  1
  Tl  Tl11  1  0.46588994  0.54099759  0.62802178  1
  P  P12  1  0.68220141  0.65756957  0.35821737  1
  P  P13  1  0.34243043  0.31779859  0.14178263  1
  P  P14  1  0.31779859  0.34243043  0.64178263  1
  P  P15  1  0.65756957  0.68220141  0.85821737  1
  P  P16  1  0.98565090  0.92039637  0.30663699  1
  P  P17  1  0.07960363  0.01434910  0.19336301  1
  P  P18  1  0.01434910  0.07960363  0.69336301  1
  P  P19  1  0.92039637  0.98565090  0.80663699  1
  Se  Se20  1  0.00500945  0.94725237  0.40217989  1
  Se  Se21  1  0.05274763  0.99498955  0.09782011  1
  Se  Se22  1  0.99499055  0.05274763  0.59782011  1
  Se  Se23  1  0.94725237  0.00501045  0.90217989  1
  Se  Se24  1  0.19192204  0.61371841  0.30215038  1
  Se  Se25  1  0.38628159  0.80807796  0.19784962  1
  Se  Se26  1  0.80807796  0.38628159  0.69784962  1
  Se  Se27  1  0.61371841  0.19192204  0.80215038  1
  Se  Se28  1  0.16919469  0.62584468  0.09096902  1
  Se  Se29  1  0.37415532  0.83080531  0.40903098  1
  Se  Se30  1  0.83080531  0.37415532  0.90903098  1
  Se  Se31  1  0.62584468  0.16919469  0.59096902  1
  Se  Se32  1  0.22452492  0.32578748  0.27162894  1
  Se  Se33  1  0.67421252  0.77547508  0.22837106  1
  Se  Se34  1  0.77547508  0.67421252  0.72837106  1
  Se  Se35  1  0.32578748  0.22452492  0.77162894  1
  Se  Se36  1  0.76416649  0.71098987  0.40373933  1
  Se  Se37  1  0.28901013  0.23583351  0.09626067  1
  Se  Se38  1  0.23583351  0.28901013  0.59626067  1
  Se  Se39  1  0.71098987  0.76416649  0.90373933  1
  Se  Se40  1  0.87987017  0.33878229  0.38931863  1
  Se  Se41  1  0.66121771  0.12012983  0.11068137  1
  Se  Se42  1  0.12012983  0.66121771  0.61068137  1
  Se  Se43  1  0.33878229  0.87987017  0.88931863  1
  Se  Se44  1  0.88849799  0.31390946  0.19794533  1
  Se  Se45  1  0.68609054  0.11150201  0.30205467  1
  Se  Se46  1  0.11150201  0.68609054  0.80205467  1
  Se  Se47  1  0.31390946  0.88849799  0.69794533  1
