# generated using pymatgen
data_InH12S3(NO4)3
_symmetry_space_group_name_H-M   'P 1'
_cell_length_a   15.61083606
_cell_length_b   8.96310249
_cell_length_c   9.12737500
_cell_angle_alpha   70.89768624
_cell_angle_beta   90.00000000
_cell_angle_gamma   90.00000000
_symmetry_Int_Tables_number   1
_chemical_formula_structural   InH12S3(NO4)3
_chemical_formula_sum   'In4 H48 S12 N12 O48'
_cell_volume   1206.79270282
_cell_formula_units_Z   4
loop_
 _symmetry_equiv_pos_site_id
 _symmetry_equiv_pos_as_xyz
  1  'x, y, z'
loop_
 _atom_site_type_symbol
 _atom_site_label
 _atom_site_symmetry_multiplicity
 _atom_site_fract_x
 _atom_site_fract_y
 _atom_site_fract_z
 _atom_site_occupancy
  In  In0  1  0.24901015  0.71952849  0.77142603  1
  In  In1  1  0.75098985  0.28047151  0.22857397  1
  In  In2  1  0.74901015  0.28047151  0.72857397  1
  In  In3  1  0.25098985  0.71952849  0.27142603  1
  H  H4  1  -0.00109256  0.90674058  0.19480806  1
  H  H5  1  0.00109256  0.09325942  0.80519194  1
  H  H6  1  0.49890744  0.09325942  0.30519194  1
  H  H7  1  0.50109256  0.90674058  0.69480806  1
  H  H8  1  0.45977464  0.42976568  0.87281734  1
  H  H9  1  0.54022536  0.57023432  0.12718266  1
  H  H10  1  0.95977464  0.57023432  0.62718266  1
  H  H11  1  0.04022536  0.42976568  0.37281734  1
  H  H12  1  0.99316967  0.91443723  0.37769073  1
  H  H13  1  0.00683033  0.08556277  0.62230927  1
  H  H14  1  0.49316967  0.08556277  0.12230927  1
  H  H15  1  0.50683033  0.91443723  0.87769073  1
  H  H16  1  0.93017162  0.70642401  0.70310193  1
  H  H17  1  0.06982838  0.29357599  0.29689807  1
  H  H18  1  0.43017162  0.29357599  0.79689807  1
  H  H19  1  0.56982838  0.70642401  0.20310193  1
  H  H20  1  0.29786855  0.23278636  0.60854667  1
  H  H21  1  0.70213145  0.76721364  0.39145333  1
  H  H22  1  0.79786855  0.76721364  0.89145333  1
  H  H23  1  0.20213145  0.23278636  0.10854667  1
  H  H24  1  0.06864981  0.21135421  0.67280803  1
  H  H25  1  0.93135019  0.78864579  0.32719197  1
  H  H26  1  0.56864981  0.78864579  0.82719197  1
  H  H27  1  0.43135019  0.21135421  0.17280803  1
  H  H28  1  0.39468845  0.24885623  0.51908906  1
  H  H29  1  0.60531155  0.75114377  0.48091094  1
  H  H30  1  0.89468845  0.75114377  0.98091094  1
  H  H31  1  0.10531155  0.24885623  0.01908906  1
  H  H32  1  0.91282916  0.98574645  0.25193339  1
  H  H33  1  0.08717084  0.01425355  0.74806661  1
  H  H34  1  0.41282916  0.01425355  0.24806661  1
  H  H35  1  0.58717084  0.98574645  0.75193339  1
  H  H36  1  0.83904711  0.91903650  0.93847587  1
  H  H37  1  0.16095289  0.08096350  0.06152413  1
  H  H38  1  0.33904711  0.08096350  0.56152413  1
  H  H39  1  0.66095289  0.91903650  0.43847587  1
  H  H40  1  0.69511385  0.75757560  0.57904398  1
  H  H41  1  0.30488615  0.24242440  0.42095602  1
  H  H42  1  0.19511385  0.24242440  0.92095602  1
  H  H43  1  0.80488615  0.75757560  0.07904398  1
  H  H44  1  0.47915272  0.46264525  0.68328163  1
  H  H45  1  0.52084728  0.53735475  0.31671837  1
  H  H46  1  0.97915272  0.53735475  0.81671837  1
  H  H47  1  0.02084728  0.46264525  0.18328163  1
  H  H48  1  0.03366379  0.67711648  0.67928111  1
  H  H49  1  0.96633621  0.32288352  0.32071889  1
  H  H50  1  0.53366379  0.32288352  0.82071889  1
  H  H51  1  0.46633621  0.67711648  0.17928111  1
  S  S52  1  0.40890609  0.75501971  0.52441001  1
  S  S53  1  0.59109391  0.24498029  0.47558999  1
  S  S54  1  0.90890609  0.24498029  0.97558999  1
  S  S55  1  0.09109391  0.75501971  0.02441001  1
  S  S56  1  0.34895491  0.95348435  0.95434903  1
  S  S57  1  0.65104509  0.04651565  0.04565097  1
  S  S58  1  0.84895491  0.04651565  0.54565097  1
  S  S59  1  0.15104509  0.95348435  0.45434903  1
  S  S60  1  0.17268558  0.45576761  0.60733221  1
  S  S61  1  0.82731442  0.54423239  0.39266779  1
  S  S62  1  0.67268558  0.54423239  0.89266779  1
  S  S63  1  0.32731442  0.45576761  0.10733221  1
  N  N64  1  0.33405401  0.20154269  0.52847713  1
  N  N65  1  0.66594599  0.79845731  0.47152287  1
  N  N66  1  0.83405401  0.79845731  0.97152287  1
  N  N67  1  0.16594599  0.20154269  0.02847713  1
  N  N68  1  0.97565841  0.62170511  0.70909406  1
  N  N69  1  0.02434159  0.37829489  0.29090594  1
  N  N70  1  0.47565841  0.37829489  0.79090594  1
  N  N71  1  0.52434159  0.62170511  0.20909406  1
  N  N72  1  0.95845741  0.89957067  0.28686322  1
  N  N73  1  0.04154259  0.10042933  0.71313678  1
  N  N74  1  0.45845741  0.10042933  0.21313678  1
  N  N75  1  0.54154259  0.89957067  0.78686322  1
  O  O76  1  0.35401212  0.65207284  0.65176527  1
  O  O77  1  0.64598788  0.34792716  0.34823473  1
  O  O78  1  0.85401212  0.34792716  0.84823473  1
  O  O79  1  0.14598788  0.65207284  0.15176527  1
  O  O80  1  0.13617623  0.78521787  0.87249800  1
  O  O81  1  0.86382377  0.21478213  0.12750200  1
  O  O82  1  0.63617623  0.21478213  0.62750200  1
  O  O83  1  0.36382377  0.78521787  0.37249800  1
  O  O84  1  0.48874654  0.67001627  0.52286453  1
  O  O85  1  0.51125346  0.32998373  0.47713547  1
  O  O86  1  0.98874654  0.32998373  0.97713547  1
  O  O87  1  0.01125346  0.67001627  0.02286453  1
  O  O88  1  0.21313047  0.31272555  0.70985302  1
  O  O89  1  0.78686953  0.68727445  0.29014698  1
  O  O90  1  0.71313047  0.68727445  0.79014698  1
  O  O91  1  0.28686953  0.31272555  0.20985302  1
  O  O92  1  0.16548900  0.57752524  0.68560472  1
  O  O93  1  0.83451100  0.42247476  0.31439528  1
  O  O94  1  0.66548900  0.42247476  0.81439528  1
  O  O95  1  0.33451100  0.57752524  0.18560472  1
  O  O96  1  0.07196272  0.88429078  0.53266328  1
  O  O97  1  0.92803728  0.11570922  0.46733672  1
  O  O98  1  0.57196272  0.11570922  0.96733672  1
  O  O99  1  0.42803728  0.88429078  0.03266328  1
  O  O100  1  0.32942959  0.88039168  0.83258652  1
  O  O101  1  0.67057041  0.11960832  0.16741348  1
  O  O102  1  0.82942959  0.11960832  0.66741348  1
  O  O103  1  0.17057041  0.88039168  0.33258652  1
  O  O104  1  0.08598410  0.42425402  0.56490886  1
  O  O105  1  0.91401590  0.57574598  0.43509114  1
  O  O106  1  0.58598410  0.57574598  0.93509114  1
  O  O107  1  0.41401590  0.42425402  0.06490886  1
  O  O108  1  0.42389680  0.90708441  0.54533481  1
  O  O109  1  0.57610320  0.09291559  0.45466519  1
  O  O110  1  0.92389680  0.09291559  0.95466519  1
  O  O111  1  0.07610320  0.90708441  0.04533481  1
  O  O112  1  0.22358200  0.91880416  0.56807140  1
  O  O113  1  0.77641800  0.08119584  0.43192860  1
  O  O114  1  0.72358200  0.08119584  0.93192860  1
  O  O115  1  0.27641800  0.91880416  0.06807140  1
  O  O116  1  0.27221956  0.51612600  0.96695523  1
  O  O117  1  0.72778044  0.48387400  0.03304477  1
  O  O118  1  0.77221956  0.48387400  0.53304477  1
  O  O119  1  0.22778044  0.51612600  0.46695523  1
  O  O120  1  0.85525582  0.87681558  0.61833950  1
  O  O121  1  0.14474418  0.12318442  0.38166050  1
  O  O122  1  0.35525582  0.12318442  0.88166050  1
  O  O123  1  0.64474418  0.87681558  0.11833950  1
