# generated using pymatgen
data_Cs2ZnGe3Se8
_symmetry_space_group_name_H-M   'P 1'
_cell_length_a   7.80076757
_cell_length_b   13.77594666
_cell_length_c   18.02940071
_cell_angle_alpha   90.00000000
_cell_angle_beta   90.00000000
_cell_angle_gamma   90.00000000
_symmetry_Int_Tables_number   1
_chemical_formula_structural   Cs2ZnGe3Se8
_chemical_formula_sum   'Cs8 Zn4 Ge12 Se32'
_cell_volume   1937.49273039
_cell_formula_units_Z   4
loop_
 _symmetry_equiv_pos_site_id
 _symmetry_equiv_pos_as_xyz
  1  'x, y, z'
loop_
 _atom_site_type_symbol
 _atom_site_label
 _atom_site_symmetry_multiplicity
 _atom_site_fract_x
 _atom_site_fract_y
 _atom_site_fract_z
 _atom_site_occupancy
  Cs  Cs0  1  0.75195502  0.62666024  0.05315570  1
  Cs  Cs1  1  0.74804498  0.37333976  0.55315570  1
  Cs  Cs2  1  0.25195502  0.87333976  0.94684430  1
  Cs  Cs3  1  0.24804498  0.12666024  0.44684430  1
  Cs  Cs4  1  0.25432981  0.80936112  0.34711400  1
  Cs  Cs5  1  0.24567019  0.19063888  0.84711400  1
  Cs  Cs6  1  0.75432981  0.69063888  0.65288600  1
  Cs  Cs7  1  0.74567019  0.30936112  0.15288600  1
  Zn  Zn8  1  0.99268709  0.49745797  0.34822770  1
  Zn  Zn9  1  0.50731291  0.50254203  0.84822770  1
  Zn  Zn10  1  0.49268709  0.00254203  0.65177230  1
  Zn  Zn11  1  0.00731291  0.99745797  0.15177230  1
  Ge  Ge12  1  0.76470411  0.04480249  0.32154913  1
  Ge  Ge13  1  0.73529589  0.95519751  0.82154913  1
  Ge  Ge14  1  0.26470411  0.45519751  0.67845087  1
  Ge  Ge15  1  0.23529589  0.54480249  0.17845087  1
  Ge  Ge16  1  0.73680776  0.94552855  0.48289100  1
  Ge  Ge17  1  0.76319224  0.05447145  0.98289100  1
  Ge  Ge18  1  0.23680776  0.55447145  0.51710900  1
  Ge  Ge19  1  0.26319224  0.44552855  0.01710900  1
  Ge  Ge20  1  0.51564068  0.98062873  0.15254689  1
  Ge  Ge21  1  0.98435932  0.01937127  0.65254689  1
  Ge  Ge22  1  0.01564068  0.51937127  0.84745311  1
  Ge  Ge23  1  0.48435932  0.48062873  0.34745311  1
  Se  Se24  1  0.99068075  0.60380169  0.23636758  1
  Se  Se25  1  0.50931925  0.39619831  0.73636758  1
  Se  Se26  1  0.49068075  0.89619831  0.76363242  1
  Se  Se27  1  0.00931925  0.10380169  0.26363242  1
  Se  Se28  1  0.98712576  0.60683722  0.45910039  1
  Se  Se29  1  0.51287424  0.39316278  0.95910039  1
  Se  Se30  1  0.48712576  0.89316278  0.54089961  1
  Se  Se31  1  0.01287424  0.10683722  0.04089961  1
  Se  Se32  1  0.76101200  0.88205887  0.15450539  1
  Se  Se33  1  0.73898800  0.11794113  0.65450539  1
  Se  Se34  1  0.26101200  0.61794113  0.84549461  1
  Se  Se35  1  0.23898800  0.38205887  0.34549461  1
  Se  Se36  1  0.76447193  0.61433253  0.84986739  1
  Se  Se37  1  0.73552807  0.38566747  0.34986739  1
  Se  Se38  1  0.26447193  0.88566747  0.15013261  1
  Se  Se39  1  0.23552807  0.11433253  0.65013261  1
  Se  Se40  1  0.76425731  0.87626686  0.36034043  1
  Se  Se41  1  0.73574269  0.12373314  0.86034043  1
  Se  Se42  1  0.26425731  0.62373314  0.63965957  1
  Se  Se43  1  0.23574269  0.37626686  0.13965957  1
  Se  Se44  1  0.74011268  0.11437732  0.44474234  1
  Se  Se45  1  0.75988732  0.88562268  0.94474234  1
  Se  Se46  1  0.24011268  0.38562268  0.55525766  1
  Se  Se47  1  0.25988732  0.61437732  0.05525766  1
  Se  Se48  1  0.49668027  0.58805749  0.24002880  1
  Se  Se49  1  0.00331973  0.41194251  0.74002880  1
  Se  Se50  1  -0.00331973  0.91194251  0.75997120  1
  Se  Se51  1  0.50331973  0.08805749  0.25997120  1
  Se  Se52  1  0.49485782  0.59455925  0.45142583  1
  Se  Se53  1  0.00514218  0.40544075  0.95142583  1
  Se  Se54  1  0.99485782  0.90544075  0.54857417  1
  Se  Se55  1  0.50514218  0.09455925  0.04857417  1
