# generated using pymatgen
data_K4MgV6O16
_symmetry_space_group_name_H-M   'P 1'
_cell_length_a   6.01396479
_cell_length_b   8.96274134
_cell_length_c   8.96274134
_cell_angle_alpha   92.98282195
_cell_angle_beta   89.23849394
_cell_angle_gamma   90.76150606
_symmetry_Int_Tables_number   1
_chemical_formula_structural   K4MgV6O16
_chemical_formula_sum   'K4 Mg1 V6 O16'
_cell_volume   482.37066428
_cell_formula_units_Z   1
loop_
 _symmetry_equiv_pos_site_id
 _symmetry_equiv_pos_as_xyz
  1  'x, y, z'
loop_
 _atom_site_type_symbol
 _atom_site_label
 _atom_site_symmetry_multiplicity
 _atom_site_fract_x
 _atom_site_fract_y
 _atom_site_fract_z
 _atom_site_occupancy
  K  K0  1  0.17894500  0.63140700  0.21061500  1
  K  K1  1  0.05550400  0.81331900  0.68668100  1
  K  K2  1  0.18269600  0.16483500  0.33516500  1
  K  K3  1  0.17894500  0.28938500  0.86859300  1
  Mg  Mg4  1  0.54598900  0.83541000  0.66459000  1
  V  V5  1  0.67671200  0.87512800  0.34465900  1
  V  V6  1  0.62857300  0.35733800  0.14266200  1
  V  V7  1  0.67671200  0.15534100  0.62487200  1
  V  V8  1  0.68817100  0.61220900  0.88779100  1
  V  V9  1  0.64971500  0.00094300  0.98135500  1
  V  V10  1  0.64971500  0.51864500  0.49905700  1
  O  O11  1  0.92233500  0.53097000  0.47049400  1
  O  O12  1  0.92233500  0.02950600  0.96903000  1
  O  O13  1  0.52780900  0.48880800  0.01119200  1
  O  O14  1  0.57579000  0.02113000  0.47887000  1
  O  O15  1  0.96918000  0.61092400  0.88907600  1
  O  O16  1  0.95617600  0.13905400  0.63187900  1
  O  O17  1  0.95617600  0.86812100  0.36094600  1
  O  O18  1  0.90655600  0.35286400  0.14713600  1
  O  O19  1  0.58642000  0.61437400  0.69093300  1
  O  O20  1  0.51262100  0.41980400  0.31486900  1
  O  O21  1  0.51262100  0.18513100  0.08019600  1
  O  O22  1  0.56975200  0.90323600  0.16829800  1
  O  O23  1  0.53603800  0.05241400  0.77535100  1
  O  O24  1  0.58642000  0.80906700  0.88562600  1
  O  O25  1  0.56975200  0.33170200  0.59676400  1
  O  O26  1  0.53603800  0.72464900  0.44758600  1
