# generated using pymatgen
data_Mg2SiSe4
_symmetry_space_group_name_H-M   'P 1'
_cell_length_a   6.25591605
_cell_length_b   7.83272927
_cell_length_c   13.39362675
_cell_angle_alpha   90.00000000
_cell_angle_beta   90.00000000
_cell_angle_gamma   90.00000000
_symmetry_Int_Tables_number   1
_chemical_formula_structural   Mg2SiSe4
_chemical_formula_sum   'Mg8 Si4 Se16'
_cell_volume   656.29972156
_cell_formula_units_Z   4
loop_
 _symmetry_equiv_pos_site_id
 _symmetry_equiv_pos_as_xyz
  1  'x, y, z'
loop_
 _atom_site_type_symbol
 _atom_site_label
 _atom_site_symmetry_multiplicity
 _atom_site_fract_x
 _atom_site_fract_y
 _atom_site_fract_z
 _atom_site_occupancy
  Mg  Mg0  1  0.00000000  0.50000000  -0.00000000  1
  Mg  Mg1  1  0.50000000  -0.00000000  0.50000000  1
  Mg  Mg2  1  0.00000000  -0.00000000  -0.00000000  1
  Mg  Mg3  1  0.50000000  0.50000000  0.50000000  1
  Mg  Mg4  1  0.49590974  0.75000000  0.23144787  1
  Mg  Mg5  1  0.00409026  0.75000000  0.73144787  1
  Mg  Mg6  1  0.50409026  0.25000000  0.76855213  1
  Mg  Mg7  1  0.99590974  0.25000000  0.26855213  1
  Si  Si8  1  0.90592079  0.75000000  0.41102378  1
  Si  Si9  1  0.59407921  0.75000000  0.91102378  1
  Si  Si10  1  0.09407921  0.25000000  0.58897622  1
  Si  Si11  1  0.40592079  0.25000000  0.08897622  1
  Se  Se12  1  0.26563086  0.75000000  0.40757623  1
  Se  Se13  1  0.23436914  0.75000000  0.90757623  1
  Se  Se14  1  0.73436914  0.25000000  0.59242377  1
  Se  Se15  1  0.76563086  0.25000000  0.09242377  1
  Se  Se16  1  0.75702373  0.75000000  0.56746299  1
  Se  Se17  1  0.74297627  0.75000000  0.06746299  1
  Se  Se18  1  0.24297627  0.25000000  0.43253701  1
  Se  Se19  1  0.25702373  0.25000000  0.93253701  1
  Se  Se20  1  0.75091862  0.52145104  0.33249573  1
  Se  Se21  1  0.74908138  0.97854896  0.83249573  1
  Se  Se22  1  0.24908138  0.02145104  0.66750427  1
  Se  Se23  1  0.25091862  0.47854896  0.16750427  1
  Se  Se24  1  0.24908138  0.47854896  0.66750427  1
  Se  Se25  1  0.25091862  0.02145104  0.16750427  1
  Se  Se26  1  0.75091862  0.97854896  0.33249573  1
  Se  Se27  1  0.74908138  0.52145104  0.83249573  1
