# generated using pymatgen
data_TlMo2P3O13
_symmetry_space_group_name_H-M   'P 1'
_cell_length_a   18.78430982
_cell_length_b   6.40144256
_cell_length_c   9.77374239
_cell_angle_alpha   73.70966650
_cell_angle_beta   90.00000000
_cell_angle_gamma   90.00000000
_symmetry_Int_Tables_number   1
_chemical_formula_structural   TlMo2P3O13
_chemical_formula_sum   'Tl4 Mo8 P12 O52'
_cell_volume   1128.07647469
_cell_formula_units_Z   4
loop_
 _symmetry_equiv_pos_site_id
 _symmetry_equiv_pos_as_xyz
  1  'x, y, z'
loop_
 _atom_site_type_symbol
 _atom_site_label
 _atom_site_symmetry_multiplicity
 _atom_site_fract_x
 _atom_site_fract_y
 _atom_site_fract_z
 _atom_site_occupancy
  Tl  Tl0  1  0.65449072  0.46870029  0.34317435  1
  Tl  Tl1  1  0.15449072  0.03129971  0.65682565  1
  Tl  Tl2  1  0.34550928  0.53129971  0.65682565  1
  Tl  Tl3  1  0.84550928  0.96870029  0.34317435  1
  Mo  Mo4  1  0.66139959  0.12480088  0.06187952  1
  Mo  Mo5  1  0.16139959  0.37519912  0.93812048  1
  Mo  Mo6  1  0.33860041  0.87519912  0.93812048  1
  Mo  Mo7  1  0.83860041  0.62480088  0.06187952  1
  Mo  Mo8  1  0.87335234  0.31425371  0.61797716  1
  Mo  Mo9  1  0.37335234  0.18574629  0.38202284  1
  Mo  Mo10  1  0.12664766  0.68574629  0.38202284  1
  Mo  Mo11  1  0.62664766  0.81425371  0.61797716  1
  P  P12  1  0.82692854  0.16709087  0.96417887  1
  P  P13  1  0.32692854  0.33290913  0.03582113  1
  P  P14  1  0.17307146  0.83290913  0.03582113  1
  P  P15  1  0.67307146  0.66709087  0.96417887  1
  P  P16  1  0.96444195  0.48915051  0.30614785  1
  P  P17  1  0.46444195  0.01084949  0.69385215  1
  P  P18  1  0.03555805  0.51084949  0.69385215  1
  P  P19  1  0.53555805  0.98915051  0.30614785  1
  P  P20  1  0.09060064  0.23180780  0.29298506  1
  P  P21  1  0.59060064  0.26819220  0.70701494  1
  P  P22  1  0.90939936  0.76819220  0.70701494  1
  P  P23  1  0.40939936  0.73180780  0.29298506  1
  O  O24  1  0.65154168  0.43995176  0.05548157  1
  O  O25  1  0.15154168  0.06004824  0.94451843  1
  O  O26  1  0.34845832  0.56004824  0.94451843  1
  O  O27  1  0.84845832  0.93995176  0.05548157  1
  O  O28  1  0.56493161  0.08718388  0.15759829  1
  O  O29  1  0.06493161  0.41281612  0.84240171  1
  O  O30  1  0.43506839  0.91281612  0.84240171  1
  O  O31  1  0.93506839  0.58718388  0.15759829  1
  O  O32  1  0.65190534  0.81613486  0.05588046  1
  O  O33  1  0.15190534  0.68386514  0.94411954  1
  O  O34  1  0.34809466  0.18386514  0.94411954  1
  O  O35  1  0.84809466  0.31613486  0.05588046  1
  O  O36  1  0.71171997  0.06674203  0.21043517  1
  O  O37  1  0.21171997  0.43325797  0.78956483  1
  O  O38  1  0.28828003  0.93325797  0.78956483  1
  O  O39  1  0.78828003  0.56674203  0.21043517  1
  O  O40  1  0.00715743  0.27379274  0.30284162  1
  O  O41  1  0.50715743  0.22620726  0.69715838  1
  O  O42  1  0.99284257  0.72620726  0.69715838  1
  O  O43  1  0.49284257  0.77379274  0.30284162  1
  O  O44  1  0.74763048  0.18125028  0.92950756  1
  O  O45  1  0.24763048  0.31874972  0.07049244  1
  O  O46  1  0.25236952  0.81874972  0.07049244  1
  O  O47  1  0.75236952  0.68125028  0.92950756  1
  O  O48  1  0.78769926  0.31195436  0.57470141  1
  O  O49  1  0.28769926  0.18804564  0.42529859  1
  O  O50  1  0.21230074  0.68804564  0.42529859  1
  O  O51  1  0.71230074  0.81195436  0.57470141  1
  O  O52  1  0.87248941  0.63163075  0.62268418  1
  O  O53  1  0.37248941  0.86836925  0.37731582  1
  O  O54  1  0.12751059  0.36836925  0.37731582  1
  O  O55  1  0.62751059  0.13163075  0.62268418  1
  O  O56  1  0.60938643  0.21361612  0.86166031  1
  O  O57  1  0.10938643  0.28638388  0.13833969  1
  O  O58  1  0.39061357  0.78638388  0.13833969  1
  O  O59  1  0.89061357  0.71361612  0.86166031  1
  O  O60  1  0.89989622  0.00561170  0.62317845  1
  O  O61  1  0.39989622  0.49438830  0.37682155  1
  O  O62  1  0.10010378  0.99438830  0.37682155  1
  O  O63  1  0.60010378  0.50561170  0.62317845  1
  O  O64  1  0.90326267  0.40481560  0.40796436  1
  O  O65  1  0.40326267  0.09518440  0.59203564  1
  O  O66  1  0.09673733  0.59518440  0.59203564  1
  O  O67  1  0.59673733  0.90481560  0.40796436  1
  O  O68  1  0.98595296  0.35865997  0.64879158  1
  O  O69  1  0.48595296  0.14134003  0.35120842  1
  O  O70  1  0.01404704  0.64134003  0.35120842  1
  O  O71  1  0.51404704  0.85865997  0.64879158  1
  O  O72  1  0.86983473  0.22557889  0.82716762  1
  O  O73  1  0.36983473  0.27442111  0.17283238  1
  O  O74  1  0.13016527  0.77442111  0.17283238  1
  O  O75  1  0.63016527  0.72557889  0.82716762  1
