# generated using pymatgen
data_MgMn6Nb4O18
_symmetry_space_group_name_H-M   'P 1'
_cell_length_a   5.38884715
_cell_length_b   5.56942453
_cell_length_c   15.20875422
_cell_angle_alpha   100.85308388
_cell_angle_beta   88.95786009
_cell_angle_gamma   120.82654149
_symmetry_Int_Tables_number   1
_chemical_formula_structural   MgMn6Nb4O18
_chemical_formula_sum   'Mg1 Mn6 Nb4 O18'
_cell_volume   383.29609881
_cell_formula_units_Z   1
loop_
 _symmetry_equiv_pos_site_id
 _symmetry_equiv_pos_as_xyz
  1  'x, y, z'
loop_
 _atom_site_type_symbol
 _atom_site_label
 _atom_site_symmetry_multiplicity
 _atom_site_fract_x
 _atom_site_fract_y
 _atom_site_fract_z
 _atom_site_occupancy
  Mg  Mg0  1  0.18754900  0.23467100  0.54025900  1
  Mn  Mn1  1  0.57326900  0.13976100  0.69560600  1
  Mn  Mn2  1  0.68491900  0.33497400  0.97662600  1
  Mn  Mn3  1  0.73416300  0.51763100  0.43445200  1
  Mn  Mn4  1  0.45611600  0.89216200  0.48399800  1
  Mn  Mn5  1  0.36322500  0.68756200  0.00164400  1
  Mn  Mn6  1  0.71930800  0.38394700  0.18141000  1
  Nb  Nb7  1  0.98925100  0.93132600  0.86750600  1
  Nb  Nb8  1  0.06215300  0.05891000  0.14233900  1
  Nb  Nb9  1  0.88748000  0.80075600  0.66683100  1
  Nb  Nb10  1  0.03000700  0.12094300  0.33829700  1
  O  O11  1  0.40433600  0.33507200  0.09456000  1
  O  O12  1  0.68740900  0.65993800  0.92561000  1
  O  O13  1  0.98313300  0.34001100  0.24785600  1
  O  O14  1  0.35106900  0.18975000  0.25273800  1
  O  O15  1  0.02374700  0.70528700  0.08347200  1
  O  O16  1  0.61943700  0.48062000  0.57338200  1
  O  O17  1  0.70157800  0.92863400  0.75997100  1
  O  O18  1  0.02327000  0.27467700  0.93169500  1
  O  O19  1  0.07459600  0.91088500  0.42516000  1
  O  O20  1  0.23946200  0.91979900  0.59579700  1
  O  O21  1  0.25455700  0.10176800  0.76086600  1
  O  O22  1  0.81901100  0.08074400  0.60249100  1
  O  O23  1  0.81480700  0.77916700  0.24267100  1
  O  O24  1  0.30665400  0.94533000  0.92418500  1
  O  O25  1  0.72799000  0.06617100  0.09282400  1
  O  O26  1  0.72624700  0.14481400  0.40189000  1
  O  O27  1  0.32424500  0.47074300  0.43256200  1
  O  O28  1  0.86434500  0.55561200  0.74680600  1
