# generated using pymatgen
data_Na2ZnSe2
_symmetry_space_group_name_H-M   'P 1'
_cell_length_a   7.35156651
_cell_length_b   7.12967088
_cell_length_c   9.12352617
_cell_angle_alpha   86.50949937
_cell_angle_beta   90.00000000
_cell_angle_gamma   90.00000000
_symmetry_Int_Tables_number   1
_chemical_formula_structural   Na2ZnSe2
_chemical_formula_sum   'Na8 Zn4 Se8'
_cell_volume   477.31566730
_cell_formula_units_Z   4
loop_
 _symmetry_equiv_pos_site_id
 _symmetry_equiv_pos_as_xyz
  1  'x, y, z'
loop_
 _atom_site_type_symbol
 _atom_site_label
 _atom_site_symmetry_multiplicity
 _atom_site_fract_x
 _atom_site_fract_y
 _atom_site_fract_z
 _atom_site_occupancy
  Na  Na0  1  0.17857307  0.95311620  0.67584797  1
  Na  Na1  1  0.67857307  0.54688380  0.32415203  1
  Na  Na2  1  0.82142693  0.04688380  0.32415203  1
  Na  Na3  1  0.32142693  0.45311620  0.67584797  1
  Na  Na4  1  0.26469286  0.98799416  0.05588583  1
  Na  Na5  1  0.76469286  0.51200584  0.94411417  1
  Na  Na6  1  0.73530714  0.01200584  0.94411417  1
  Na  Na7  1  0.23530714  0.48799416  0.05588583  1
  Zn  Zn8  1  0.09075818  0.65482592  0.37199696  1
  Zn  Zn9  1  0.59075818  0.84517408  0.62800304  1
  Zn  Zn10  1  0.90924182  0.34517408  0.62800304  1
  Zn  Zn11  1  0.40924182  0.15482592  0.37199696  1
  Se  Se12  1  0.60881638  0.19842920  0.59392196  1
  Se  Se13  1  0.10881638  0.30157080  0.40607804  1
  Se  Se14  1  0.39118362  0.80157080  0.40607804  1
  Se  Se15  1  0.89118362  0.69842920  0.59392196  1
  Se  Se16  1  0.54537170  0.25482763  0.14253207  1
  Se  Se17  1  0.04537170  0.24517237  0.85746793  1
  Se  Se18  1  0.45462830  0.74517237  0.85746793  1
  Se  Se19  1  0.95462830  0.75482763  0.14253207  1
