# generated using pymatgen
data_Tl2Hg3Se4
_symmetry_space_group_name_H-M   'P 1'
_cell_length_a   7.06706689
_cell_length_b   7.06706689
_cell_length_c   13.63267088
_cell_angle_alpha   67.79018012
_cell_angle_beta   67.79018012
_cell_angle_gamma   59.19808251
_symmetry_Int_Tables_number   1
_chemical_formula_structural   Tl2Hg3Se4
_chemical_formula_sum   'Tl4 Hg6 Se8'
_cell_volume   526.66753056
_cell_formula_units_Z   2
loop_
 _symmetry_equiv_pos_site_id
 _symmetry_equiv_pos_as_xyz
  1  'x, y, z'
loop_
 _atom_site_type_symbol
 _atom_site_label
 _atom_site_symmetry_multiplicity
 _atom_site_fract_x
 _atom_site_fract_y
 _atom_site_fract_z
 _atom_site_occupancy
  Tl  Tl0  1  0.08895880  0.25681200  0.94765644  1
  Tl  Tl1  1  0.74318800  0.91104120  0.55234356  1
  Tl  Tl2  1  0.91104120  0.74318800  0.05234356  1
  Tl  Tl3  1  0.25681200  0.08895880  0.44765644  1
  Hg  Hg4  1  0.13284647  0.86715353  0.25000000  1
  Hg  Hg5  1  0.86715353  0.13284647  0.75000000  1
  Hg  Hg6  1  0.56230102  0.32531356  0.15252630  1
  Hg  Hg7  1  0.67468644  0.43769898  0.34747370  1
  Hg  Hg8  1  0.43769898  0.67468644  0.84747370  1
  Hg  Hg9  1  0.32531356  0.56230102  0.65252630  1
  Se  Se10  1  0.71525140  0.92426670  0.25853670  1
  Se  Se11  1  0.07573330  0.28474860  0.24146330  1
  Se  Se12  1  0.28474860  0.07573330  0.74146330  1
  Se  Se13  1  0.92426670  0.71525140  0.75853670  1
  Se  Se14  1  0.26229628  0.55019928  0.42945591  1
  Se  Se15  1  0.44980072  0.73770372  0.07054409  1
  Se  Se16  1  0.73770372  0.44980072  0.57054409  1
  Se  Se17  1  0.55019928  0.26229628  0.92945591  1
