# generated using pymatgen
data_Al3CrO6
_symmetry_space_group_name_H-M   'P 1'
_cell_length_a   7.07805778
_cell_length_b   7.07750692
_cell_length_c   8.34671349
_cell_angle_alpha   113.14951564
_cell_angle_beta   113.14756686
_cell_angle_gamma   85.82216612
_symmetry_Int_Tables_number   1
_chemical_formula_structural   Al3CrO6
_chemical_formula_sum   'Al12 Cr4 O24'
_cell_volume   351.85693007
_cell_formula_units_Z   4
loop_
 _symmetry_equiv_pos_site_id
 _symmetry_equiv_pos_as_xyz
  1  'x, y, z'
loop_
 _atom_site_type_symbol
 _atom_site_label
 _atom_site_symmetry_multiplicity
 _atom_site_fract_x
 _atom_site_fract_y
 _atom_site_fract_z
 _atom_site_occupancy
  Al  Al0  1  0.97370836  0.47370795  0.64911726  1
  Al  Al1  1  0.47371511  0.97370673  0.64911878  1
  Al  Al2  1  0.22370151  0.22370709  0.14913445  1
  Al  Al3  1  0.72369539  0.72370921  0.14912856  1
  Al  Al4  1  0.97566648  0.97568841  0.65044467  1
  Al  Al5  1  0.47567799  0.47567904  0.65044890  1
  Al  Al6  1  0.22566957  0.72566805  0.15043029  1
  Al  Al7  1  0.72566742  0.22566592  0.15043529  1
  Al  Al8  1  0.52894154  0.02892695  0.35263195  1
  Al  Al9  1  0.02894041  0.52893358  0.35263427  1
  Al  Al10  1  0.77894448  0.77894043  0.85263875  1
  Al  Al11  1  0.27894389  0.27894451  0.85264765  1
  Cr  Cr12  1  0.52678268  0.52676034  0.35123130  1
  Cr  Cr13  1  0.27675623  0.77678966  0.85121145  1
  Cr  Cr14  1  0.02678951  0.02676218  0.35123404  1
  Cr  Cr15  1  0.77675644  0.27679016  0.85122342  1
  O  O16  1  0.04496485  0.70404186  0.59454444  1
  O  O17  1  0.54497459  0.20403242  0.59455731  1
  O  O18  1  0.29498788  0.45404651  0.09457298  1
  O  O19  1  0.79499977  0.95404705  0.09457416  1
  O  O20  1  0.78057411  0.96842682  0.74768351  1
  O  O21  1  0.28056772  0.46842168  0.74767498  1
  O  O22  1  0.03057861  0.71840387  0.24768228  1
  O  O23  1  0.53058334  0.21840353  0.24768791  1
  O  O24  1  0.79793565  0.95106861  0.40673893  1
  O  O25  1  0.29793451  0.45106422  0.40674481  1
  O  O26  1  0.04794414  0.70108004  0.90674664  1
  O  O27  1  0.54794689  0.20108503  0.90675993  1
  O  O28  1  0.72934931  0.52838468  0.24526401  1
  O  O29  1  0.22934714  0.02838152  0.24526535  1
  O  O30  1  0.97934495  0.27839472  0.74524901  1
  O  O31  1  0.47934885  0.77839559  0.74524726  1
  O  O32  1  0.70916800  0.54861050  0.60672710  1
  O  O33  1  0.20916447  0.04862447  0.60673001  1
  O  O34  1  0.95916370  0.29864807  0.10673237  1
  O  O35  1  0.45916130  0.79865338  0.10672003  1
  O  O36  1  0.44821214  0.80962741  0.40578022  1
  O  O37  1  0.94821289  0.30962300  0.40578096  1
  O  O38  1  0.69819508  0.55967273  0.90581461  1
  O  O39  1  0.19818708  0.05967811  0.90581512  1
