# generated using pymatgen
data_Na5SiAs3
_symmetry_space_group_name_H-M   'P 1'
_cell_length_a   7.47499676
_cell_length_b   8.14424122
_cell_length_c   15.60406188
_cell_angle_alpha   58.87313077
_cell_angle_beta   90.00000000
_cell_angle_gamma   90.00000000
_symmetry_Int_Tables_number   1
_chemical_formula_structural   Na5SiAs3
_chemical_formula_sum   'Na20 Si4 As12'
_cell_volume   813.17801181
_cell_formula_units_Z   4
loop_
 _symmetry_equiv_pos_site_id
 _symmetry_equiv_pos_as_xyz
  1  'x, y, z'
loop_
 _atom_site_type_symbol
 _atom_site_label
 _atom_site_symmetry_multiplicity
 _atom_site_fract_x
 _atom_site_fract_y
 _atom_site_fract_z
 _atom_site_occupancy
  Na  Na0  1  0.50472650  0.55949783  0.75705932  1
  Na  Na1  1  0.00472650  0.44050217  0.74294068  1
  Na  Na2  1  0.49527350  0.44050217  0.24294068  1
  Na  Na3  1  0.99527350  0.55949783  0.25705932  1
  Na  Na4  1  0.96721149  0.25229471  0.58293542  1
  Na  Na5  1  0.46721149  0.74770529  0.91706458  1
  Na  Na6  1  0.03278851  0.74770529  0.41706458  1
  Na  Na7  1  0.53278851  0.25229471  0.08293542  1
  Na  Na8  1  0.48208276  0.08885305  0.58663444  1
  Na  Na9  1  0.98208276  0.91114695  0.91336556  1
  Na  Na10  1  0.51791724  0.91114695  0.41336556  1
  Na  Na11  1  0.01791724  0.08885305  0.08663444  1
  Na  Na12  1  0.33794611  0.15770609  0.91883591  1
  Na  Na13  1  0.83794611  0.84229391  0.58116409  1
  Na  Na14  1  0.66205389  0.84229391  0.08116409  1
  Na  Na15  1  0.16205389  0.15770609  0.41883591  1
  Na  Na16  1  0.15055647  0.83436105  0.74145205  1
  Na  Na17  1  0.65055647  0.16563895  0.75854795  1
  Na  Na18  1  0.84944353  0.16563895  0.25854795  1
  Na  Na19  1  0.34944353  0.83436105  0.24145205  1
  Si  Si20  1  0.14138841  0.48557620  0.08537575  1
  Si  Si21  1  0.64138841  0.51442380  0.41462425  1
  Si  Si22  1  0.85861159  0.51442380  0.91462425  1
  Si  Si23  1  0.35861159  0.48557620  0.58537575  1
  As  As24  1  0.23823584  0.76118000  0.58015076  1
  As  As25  1  0.73823584  0.23882000  0.91984924  1
  As  As26  1  0.76176416  0.23882000  0.41984924  1
  As  As27  1  0.26176416  0.76118000  0.08015076  1
  As  As28  1  0.26539256  0.19200520  0.72533162  1
  As  As29  1  0.76539256  0.80799480  0.77466838  1
  As  As30  1  0.73460744  0.80799480  0.27466838  1
  As  As31  1  0.23460744  0.19200520  0.22533162  1
  As  As32  1  0.18392294  0.47793381  0.93365419  1
  As  As33  1  0.68392294  0.52206619  0.56634581  1
  As  As34  1  0.81607706  0.52206619  0.06634581  1
  As  As35  1  0.31607706  0.47793381  0.43365419  1
