# generated using pymatgen
data_Na2Mg5(Si2O5)6
_symmetry_space_group_name_H-M   'P 1'
_cell_length_a   10.27424336
_cell_length_b   10.27426709
_cell_length_c   14.42287326
_cell_angle_alpha   90.00000000
_cell_angle_beta   90.00000000
_cell_angle_gamma   119.99992363
_symmetry_Int_Tables_number   1
_chemical_formula_structural   Na2Mg5(Si2O5)6
_chemical_formula_sum   'Na4 Mg10 Si24 O60'
_cell_volume   1318.51007708
_cell_formula_units_Z   2
loop_
 _symmetry_equiv_pos_site_id
 _symmetry_equiv_pos_as_xyz
  1  'x, y, z'
loop_
 _atom_site_type_symbol
 _atom_site_label
 _atom_site_symmetry_multiplicity
 _atom_site_fract_x
 _atom_site_fract_y
 _atom_site_fract_z
 _atom_site_occupancy
  Na  Na0  1  0.33331141  0.66669121  0.50000000  1
  Na  Na1  1  0.66662020  0.33330879  -0.00000000  1
  Na  Na2  1  -0.00000003  -0.00000000  0.25000000  1
  Na  Na3  1  -0.00000003  -0.00000000  0.75000000  1
  Mg  Mg4  1  0.66667220  0.33333348  0.25384286  1
  Mg  Mg5  1  0.66667220  0.33333348  0.74615714  1
  Mg  Mg6  1  0.33333872  0.66666652  0.75384286  1
  Mg  Mg7  1  0.33333872  0.66666652  0.24615714  1
  Mg  Mg8  1  0.49955326  0.00000000  0.25000000  1
  Mg  Mg9  1  0.50044969  0.50044589  0.25000053  1
  Mg  Mg10  1  0.00000380  0.49955411  0.24999947  1
  Mg  Mg11  1  0.49955326  0.00000000  0.75000000  1
  Mg  Mg12  1  0.50044969  0.50044589  0.74999947  1
  Mg  Mg13  1  0.00000380  0.49955411  0.75000053  1
  Si  Si14  1  0.23581077  0.88546557  0.38915930  1
  Si  Si15  1  0.64965291  0.76418782  0.38915966  1
  Si  Si16  1  0.11453897  0.35034866  0.38916023  1
  Si  Si17  1  0.23581077  0.88546557  0.61084070  1
  Si  Si18  1  0.64965291  0.76418782  0.61084034  1
  Si  Si19  1  0.11453897  0.35034866  0.61083977  1
  Si  Si20  1  0.35034520  0.11453443  0.88915930  1
  Si  Si21  1  0.88546509  0.23581218  0.88915966  1
  Si  Si22  1  0.76419031  0.64965134  0.88916023  1
  Si  Si23  1  0.35034520  0.11453443  0.11084070  1
  Si  Si24  1  0.88546509  0.23581218  0.11084034  1
  Si  Si25  1  0.76419031  0.64965134  0.11083977  1
  Si  Si26  1  0.76260318  0.11541268  0.61027309  1
  Si  Si27  1  0.35281202  0.23739701  0.61027282  1
  Si  Si28  1  0.88458746  0.64718770  0.61027299  1
  Si  Si29  1  0.76260318  0.11541268  0.38972691  1
  Si  Si30  1  0.35281202  0.23739701  0.38972718  1
  Si  Si31  1  0.88458746  0.64718770  0.38972701  1
  Si  Si32  1  0.64719050  0.88458732  0.11027309  1
  Si  Si33  1  0.11541501  0.76260299  0.11027282  1
  Si  Si34  1  0.23739975  0.35281230  0.11027299  1
  Si  Si35  1  0.64719050  0.88458732  0.88972691  1
  Si  Si36  1  0.11541501  0.76260299  0.88972718  1
  Si  Si37  1  0.23739975  0.35281230  0.88972701  1
  O  O38  1  0.05684374  0.78265446  0.36510101  1
  O  O39  1  0.72581252  0.94315570  0.36510144  1
  O  O40  1  0.21734672  0.27418824  0.36510046  1
  O  O41  1  0.05684374  0.78265446  0.63489899  1
  O  O42  1  0.72581252  0.94315570  0.63489856  1
  O  O43  1  0.21734672  0.27418824  0.63489954  1
  O  O44  1  0.27418928  0.21734554  0.86510101  1
  O  O45  1  0.78265681  0.05684430  0.86510144  1
  O  O46  1  0.94315848  0.72581176  0.86510046  1
  O  O47  1  0.27418928  0.21734554  0.13489899  1
  O  O48  1  0.78265681  0.05684430  0.13489856  1
  O  O49  1  0.94315848  0.72581176  0.13489954  1
  O  O50  1  0.94278711  0.21766419  0.63496099  1
  O  O51  1  0.27487703  0.05721447  0.63496158  1
  O  O52  1  0.78233835  0.72512187  0.63496071  1
  O  O53  1  0.94278711  0.21766419  0.36503901  1
  O  O54  1  0.27487703  0.05721447  0.36503842  1
  O  O55  1  0.78233835  0.72512187  0.36503929  1
  O  O56  1  0.72512292  0.78233581  0.13496099  1
  O  O57  1  0.21766255  0.94278553  0.13496158  1
  O  O58  1  0.05721648  0.27487813  0.13496071  1
  O  O59  1  0.72512292  0.78233581  0.86503901  1
  O  O60  1  0.21766255  0.94278553  0.86503842  1
  O  O61  1  0.05721648  0.27487813  0.86503929  1
  O  O62  1  0.34194225  0.84328091  0.32985978  1
  O  O63  1  0.50134416  0.65805808  0.32985429  1
  O  O64  1  0.15672618  0.49866293  0.32985893  1
  O  O65  1  0.34194225  0.84328091  0.67014022  1
  O  O66  1  0.50134416  0.65805808  0.67014571  1
  O  O67  1  0.15672618  0.49866293  0.67014107  1
  O  O68  1  0.49866134  0.15671909  0.82985978  1
  O  O69  1  0.84328608  0.34194192  0.82985429  1
  O  O70  1  0.65806324  0.50133707  0.82985893  1
  O  O71  1  0.49866134  0.15671909  0.17014022  1
  O  O72  1  0.84328608  0.34194192  0.17014571  1
  O  O73  1  0.65806324  0.50133707  0.17014107  1
  O  O74  1  0.65899975  0.15500066  0.67325289  1
  O  O75  1  0.49600664  0.34099514  0.67325194  1
  O  O76  1  0.84500238  0.50399704  0.67325269  1
  O  O77  1  0.65899975  0.15500066  0.32674711  1
  O  O78  1  0.49600664  0.34099514  0.32674806  1
  O  O79  1  0.84500238  0.50399704  0.32674731  1
  O  O80  1  0.50399909  0.84499934  0.17325289  1
  O  O81  1  0.15501150  0.65900486  0.17325194  1
  O  O82  1  0.34100534  0.49600296  0.17325269  1
  O  O83  1  0.50399909  0.84499934  0.82674711  1
  O  O84  1  0.15501150  0.65900486  0.82674806  1
  O  O85  1  0.34100534  0.49600296  0.82674731  1
  O  O86  1  0.26128844  0.86391443  0.50000000  1
  O  O87  1  0.60262097  0.73871090  0.50000000  1
  O  O88  1  0.13608615  0.39737797  0.50000000  1
  O  O89  1  0.39737401  0.13608557  -0.00000000  1
  O  O90  1  0.86391007  0.26128910  -0.00000000  1
  O  O91  1  0.73870817  0.60262203  -0.00000000  1
  O  O92  1  0.73867842  0.12964720  0.50000000  1
  O  O93  1  0.39096879  0.26132029  0.50000000  1
  O  O94  1  0.87035250  0.60902885  0.50000000  1
  O  O95  1  0.60903123  0.87035280  -0.00000000  1
  O  O96  1  0.12964850  0.73867971  -0.00000000  1
  O  O97  1  0.26132366  0.39097115  -0.00000000  1
