# generated using pymatgen
data_MgB12(H3O)12
_symmetry_space_group_name_H-M   'P 1'
_cell_length_a   11.72755899
_cell_length_b   11.72755899
_cell_length_c   11.72755899
_cell_angle_alpha   60.00000000
_cell_angle_beta   60.00000000
_cell_angle_gamma   60.00000000
_symmetry_Int_Tables_number   1
_chemical_formula_structural   MgB12(H3O)12
_chemical_formula_sum   'Mg2 B24 H72 O24'
_cell_volume   1140.53306620
_cell_formula_units_Z   2
loop_
 _symmetry_equiv_pos_site_id
 _symmetry_equiv_pos_as_xyz
  1  'x, y, z'
loop_
 _atom_site_type_symbol
 _atom_site_label
 _atom_site_symmetry_multiplicity
 _atom_site_fract_x
 _atom_site_fract_y
 _atom_site_fract_z
 _atom_site_occupancy
  Mg  Mg0  1  0.75000000  0.75000000  0.75000000  1
  Mg  Mg1  1  -0.00000000  0.00000000  -0.00000000  1
  B  B2  1  0.39070177  0.21626042  0.10968001  1
  B  B3  1  0.39070177  0.10968001  0.28335780  1
  B  B4  1  0.39070177  0.28335780  0.21626042  1
  B  B5  1  0.35929823  0.64031999  0.53373958  1
  B  B6  1  0.35929823  0.53373958  0.46664220  1
  B  B7  1  0.35929823  0.46664220  0.64031999  1
  B  B8  1  0.10968001  0.28335780  0.39070177  1
  B  B9  1  0.28335780  0.21626042  0.39070177  1
  B  B10  1  0.21626042  0.10968001  0.39070177  1
  B  B11  1  0.53373958  0.46664220  0.35929823  1
  B  B12  1  0.46664220  0.64031999  0.35929823  1
  B  B13  1  0.64031999  0.53373958  0.35929823  1
  B  B14  1  0.21626042  0.39070177  0.28335780  1
  B  B15  1  0.10968001  0.39070177  0.21626042  1
  B  B16  1  0.28335780  0.39070177  0.10968001  1
  B  B17  1  0.64031999  0.35929823  0.46664220  1
  B  B18  1  0.53373958  0.35929823  0.64031999  1
  B  B19  1  0.46664220  0.35929823  0.53373958  1
  B  B20  1  0.28335780  0.10968001  0.21626042  1
  B  B21  1  0.21626042  0.28335780  0.10968001  1
  B  B22  1  0.10968001  0.21626042  0.28335780  1
  B  B23  1  0.46664220  0.53373958  0.64031999  1
  B  B24  1  0.64031999  0.46664220  0.53373958  1
  B  B25  1  0.53373958  0.64031999  0.46664220  1
  H  H26  1  0.61264349  0.85278386  0.97493809  1
  H  H27  1  0.61264349  0.97493809  0.55963457  1
  H  H28  1  0.61264349  0.55963457  0.85278386  1
  H  H29  1  0.13735651  0.77506191  0.89721614  1
  H  H30  1  0.13735651  0.89721614  0.19036543  1
  H  H31  1  0.13735651  0.19036543  0.77506191  1
  H  H32  1  0.97493809  0.55963457  0.61264349  1
  H  H33  1  0.55963457  0.85278386  0.61264349  1
  H  H34  1  0.85278386  0.97493809  0.61264349  1
  H  H35  1  0.89721614  0.19036543  0.13735651  1
  H  H36  1  0.19036543  0.77506191  0.13735651  1
  H  H37  1  0.77506191  0.89721614  0.13735651  1
  H  H38  1  0.85278386  0.61264349  0.55963457  1
  H  H39  1  0.97493809  0.61264349  0.85278386  1
  H  H40  1  0.55963457  0.61264349  0.97493809  1
  H  H41  1  0.77506191  0.13735651  0.19036543  1
  H  H42  1  0.89721614  0.13735651  0.77506191  1
  H  H43  1  0.19036543  0.13735651  0.89721614  1
  H  H44  1  0.55963457  0.97493809  0.85278386  1
  H  H45  1  0.85278386  0.55963457  0.97493809  1
  H  H46  1  0.97493809  0.85278386  0.55963457  1
  H  H47  1  0.19036543  0.89721614  0.77506191  1
  H  H48  1  0.77506191  0.19036543  0.89721614  1
  H  H49  1  0.89721614  0.77506191  0.19036543  1
  H  H50  1  0.35857519  0.65588156  0.02768248  1
  H  H51  1  0.35857519  0.02768248  0.95786077  1
  H  H52  1  0.35857519  0.95786077  0.65588156  1
  H  H53  1  0.39142481  0.72231752  0.09411844  1
  H  H54  1  0.39142481  0.09411844  0.79213923  1
  H  H55  1  0.39142481  0.79213923  0.72231752  1
  H  H56  1  0.02768248  0.95786077  0.35857519  1
  H  H57  1  0.95786077  0.65588156  0.35857519  1
  H  H58  1  0.65588156  0.02768248  0.35857519  1
  H  H59  1  0.09411844  0.79213923  0.39142481  1
  H  H60  1  0.79213923  0.72231752  0.39142481  1
  H  H61  1  0.72231752  0.09411844  0.39142481  1
  H  H62  1  0.65588156  0.35857519  0.95786077  1
  H  H63  1  0.02768248  0.35857519  0.65588156  1
  H  H64  1  0.95786077  0.35857519  0.02768248  1
  H  H65  1  0.72231752  0.39142481  0.79213923  1
  H  H66  1  0.09411844  0.39142481  0.72231752  1
  H  H67  1  0.79213923  0.39142481  0.09411844  1
  H  H68  1  0.95786077  0.02768248  0.65588156  1
  H  H69  1  0.65588156  0.95786077  0.02768248  1
  H  H70  1  0.02768248  0.65588156  0.95786077  1
  H  H71  1  0.79213923  0.09411844  0.72231752  1
  H  H72  1  0.72231752  0.79213923  0.09411844  1
  H  H73  1  0.09411844  0.72231752  0.79213923  1
  H  H74  1  0.49145127  0.19101990  0.01018123  1
  H  H75  1  0.49145127  0.01018123  0.30734760  1
  H  H76  1  0.49145127  0.30734760  0.19101990  1
  H  H77  1  0.25854873  0.73981877  0.55898010  1
  H  H78  1  0.25854873  0.55898010  0.44265240  1
  H  H79  1  0.25854873  0.44265240  0.73981877  1
  H  H80  1  0.01018123  0.30734760  0.49145127  1
  H  H81  1  0.30734760  0.19101990  0.49145127  1
  H  H82  1  0.19101990  0.01018123  0.49145127  1
  H  H83  1  0.55898010  0.44265240  0.25854873  1
  H  H84  1  0.44265240  0.73981877  0.25854873  1
  H  H85  1  0.73981877  0.55898010  0.25854873  1
  H  H86  1  0.19101990  0.49145127  0.30734760  1
  H  H87  1  0.01018123  0.49145127  0.19101990  1
  H  H88  1  0.30734760  0.49145127  0.01018123  1
  H  H89  1  0.73981877  0.25854873  0.44265240  1
  H  H90  1  0.55898010  0.25854873  0.73981877  1
  H  H91  1  0.44265240  0.25854873  0.55898010  1
  H  H92  1  0.30734760  0.01018123  0.19101990  1
  H  H93  1  0.19101990  0.30734760  0.01018123  1
  H  H94  1  0.01018123  0.19101990  0.30734760  1
  H  H95  1  0.44265240  0.55898010  0.73981877  1
  H  H96  1  0.73981877  0.44265240  0.55898010  1
  H  H97  1  0.55898010  0.73981877  0.44265240  1
  O  O98  1  0.62287914  0.87712086  0.87712086  1
  O  O99  1  0.62287914  0.87712086  0.62287914  1
  O  O100  1  0.62287914  0.62287914  0.87712086  1
  O  O101  1  0.12712086  0.87287914  0.87287914  1
  O  O102  1  0.12712086  0.87287914  0.12712086  1
  O  O103  1  0.12712086  0.12712086  0.87287914  1
  O  O104  1  0.87712086  0.62287914  0.62287914  1
  O  O105  1  0.87712086  0.87712086  0.62287914  1
  O  O106  1  0.87287914  0.12712086  0.12712086  1
  O  O107  1  0.87287914  0.87287914  0.12712086  1
  O  O108  1  0.87712086  0.62287914  0.87712086  1
  O  O109  1  0.87287914  0.12712086  0.87287914  1
  O  O110  1  0.37500000  0.64193037  0.10806963  1
  O  O111  1  0.37500000  0.10806963  0.87500000  1
  O  O112  1  0.37500000  0.87500000  0.64193037  1
  O  O113  1  0.10806963  0.87500000  0.37500000  1
  O  O114  1  0.87500000  0.64193037  0.37500000  1
  O  O115  1  0.64193037  0.10806963  0.37500000  1
  O  O116  1  0.64193037  0.37500000  0.87500000  1
  O  O117  1  0.10806963  0.37500000  0.64193037  1
  O  O118  1  0.87500000  0.37500000  0.10806963  1
  O  O119  1  0.87500000  0.10806963  0.64193037  1
  O  O120  1  0.64193037  0.87500000  0.10806963  1
  O  O121  1  0.10806963  0.64193037  0.87500000  1
