# generated using pymatgen
data_CsRbMg6O7
_symmetry_space_group_name_H-M   'P 1'
_cell_length_a   8.01571157
_cell_length_b   5.11553541
_cell_length_c   5.11553854
_cell_angle_alpha   90.00000000
_cell_angle_beta   90.00000357
_cell_angle_gamma   89.99999846
_symmetry_Int_Tables_number   1
_chemical_formula_structural   CsRbMg6O7
_chemical_formula_sum   'Cs1 Rb1 Mg6 O7'
_cell_volume   209.76089999
_cell_formula_units_Z   1
loop_
 _symmetry_equiv_pos_site_id
 _symmetry_equiv_pos_as_xyz
  1  'x, y, z'
loop_
 _atom_site_type_symbol
 _atom_site_label
 _atom_site_symmetry_multiplicity
 _atom_site_fract_x
 _atom_site_fract_y
 _atom_site_fract_z
 _atom_site_occupancy
  Cs  Cs0  1  0.43297435  0.99999990  0.00000029  1
  Rb  Rb1  1  0.02805636  0.99999984  0.00000000  1
  Mg  Mg2  1  0.00207053  0.49999904  0.50000033  1
  Mg  Mg3  1  0.50894864  0.49999930  0.50000072  1
  Mg  Mg4  1  0.25270011  -0.00000028  0.49999982  1
  Mg  Mg5  1  0.75229230  -0.00000012  0.49999832  1
  Mg  Mg6  1  0.25270744  0.50000002  -0.00000059  1
  Mg  Mg7  1  0.75230044  0.50000024  0.99999880  1
  O  O8  1  0.73490709  -0.00000008  0.00000107  1
  O  O9  1  0.25597759  0.50000041  0.50000039  1
  O  O10  1  0.75512141  0.50000025  0.50000092  1
  O  O11  1  0.01118434  0.00000103  0.50000001  1
  O  O12  1  0.49978035  0.00000070  0.50000032  1
  O  O13  1  0.01119195  0.49999986  -0.00000011  1
  O  O14  1  0.49978709  0.49999989  0.99999970  1
