# generated using pymatgen
data_PrCuSe2
_symmetry_space_group_name_H-M   'P 1'
_cell_length_a   6.77112982
_cell_length_b   7.21882870
_cell_length_c   7.52096174
_cell_angle_alpha   90.00000000
_cell_angle_beta   90.00000000
_cell_angle_gamma   96.81816210
_symmetry_Int_Tables_number   1
_chemical_formula_structural   PrCuSe2
_chemical_formula_sum   'Pr4 Cu4 Se8'
_cell_volume   365.02195042
_cell_formula_units_Z   4
loop_
 _symmetry_equiv_pos_site_id
 _symmetry_equiv_pos_as_xyz
  1  'x, y, z'
loop_
 _atom_site_type_symbol
 _atom_site_label
 _atom_site_symmetry_multiplicity
 _atom_site_fract_x
 _atom_site_fract_y
 _atom_site_fract_z
 _atom_site_occupancy
  Pr  Pr0  1  0.69152560  0.29971081  0.54800979  1
  Pr  Pr1  1  0.30847440  0.20028919  0.04801079  1
  Pr  Pr2  1  0.30847440  0.70028919  0.45199021  1
  Pr  Pr3  1  0.69152560  0.79971081  0.95199021  1
  Cu  Cu4  1  0.06649456  0.54701130  0.84026528  1
  Cu  Cu5  1  0.93350544  0.45298870  0.15973472  1
  Cu  Cu6  1  0.06649456  0.04701130  0.65973472  1
  Cu  Cu7  1  0.93350544  0.95298870  0.34026528  1
  Se  Se8  1  0.41354351  0.00187245  0.72347233  1
  Se  Se9  1  0.41354351  0.50187245  0.77652767  1
  Se  Se10  1  0.58645649  0.49812755  0.22347233  1
  Se  Se11  1  0.58645649  0.99812755  0.27652767  1
  Se  Se12  1  0.90513494  0.72291200  0.61292175  1
  Se  Se13  1  0.09486506  0.77708800  0.11292175  1
  Se  Se14  1  0.09486506  0.27708800  0.38707825  1
  Se  Se15  1  0.90513494  0.22291200  0.88707825  1
