# generated using pymatgen
data_WS2O9
_symmetry_space_group_name_H-M   'P 1'
_cell_length_a   11.88430287
_cell_length_b   7.50797836
_cell_length_c   9.07858248
_cell_angle_alpha   55.86388907
_cell_angle_beta   90.00000000
_cell_angle_gamma   90.00000000
_symmetry_Int_Tables_number   1
_chemical_formula_structural   WS2O9
_chemical_formula_sum   'W4 S8 O36'
_cell_volume   670.48845335
_cell_formula_units_Z   4
loop_
 _symmetry_equiv_pos_site_id
 _symmetry_equiv_pos_as_xyz
  1  'x, y, z'
loop_
 _atom_site_type_symbol
 _atom_site_label
 _atom_site_symmetry_multiplicity
 _atom_site_fract_x
 _atom_site_fract_y
 _atom_site_fract_z
 _atom_site_occupancy
  W  W0  1  0.64751290  0.16912010  0.25539673  1
  W  W1  1  0.85248710  0.16912010  0.75539673  1
  W  W2  1  0.35248710  0.83087990  0.74460327  1
  W  W3  1  0.14751290  0.83087990  0.24460327  1
  S  S4  1  0.67504255  0.95688847  0.09229059  1
  S  S5  1  0.82495745  0.95688847  0.59229059  1
  S  S6  1  0.32495745  0.04311153  0.90770941  1
  S  S7  1  0.17504255  0.04311153  0.40770941  1
  S  S8  1  0.47396332  0.31094490  0.36378889  1
  S  S9  1  0.02603668  0.31094490  0.86378889  1
  S  S10  1  0.52603668  0.68905510  0.63621111  1
  S  S11  1  0.97396332  0.68905510  0.13621111  1
  O  O12  1  0.69554740  0.40457669  0.07971180  1
  O  O13  1  0.80445260  0.40457669  0.57971180  1
  O  O14  1  0.30445260  0.59542331  0.92028820  1
  O  O15  1  0.19554740  0.59542331  0.42028820  1
  O  O16  1  0.65979256  0.74823487  0.13429202  1
  O  O17  1  0.84020744  0.74823487  0.63429202  1
  O  O18  1  0.34020744  0.25176513  0.86570798  1
  O  O19  1  0.15979256  0.25176513  0.36570798  1
  O  O20  1  0.71599657  0.11469750  0.90624266  1
  O  O21  1  0.78400343  0.11469750  0.40624266  1
  O  O22  1  0.28400343  0.88530250  0.09375734  1
  O  O23  1  0.21599657  0.88530250  0.59375734  1
  O  O24  1  0.57242078  0.06377829  0.11065511  1
  O  O25  1  0.92757922  0.06377829  0.61065511  1
  O  O26  1  0.42757922  0.93622171  0.88934489  1
  O  O27  1  0.07242078  0.93622171  0.38934489  1
  O  O28  1  0.75112710  0.97527041  0.21743742  1
  O  O29  1  0.74887290  0.97527041  0.71743742  1
  O  O30  1  0.24887290  0.02472959  0.78256258  1
  O  O31  1  0.25112710  0.02472959  0.28256258  1
  O  O32  1  0.43834548  0.52313606  0.29117804  1
  O  O33  1  0.06165452  0.52313606  0.79117804  1
  O  O34  1  0.56165452  0.47686394  0.70882196  1
  O  O35  1  0.93834548  0.47686394  0.20882196  1
  O  O36  1  0.40680176  0.14778843  0.51486292  1
  O  O37  1  0.09319824  0.14778843  0.01486292  1
  O  O38  1  0.59319824  0.85221157  0.48513708  1
  O  O39  1  0.90680176  0.85221157  0.98513708  1
  O  O40  1  0.59891329  0.26947316  0.41501306  1
  O  O41  1  0.90108671  0.26947316  0.91501306  1
  O  O42  1  0.40108671  0.73052684  0.58498694  1
  O  O43  1  0.09891329  0.73052684  0.08498694  1
  O  O44  1  0.48120964  0.24940655  0.22813888  1
  O  O45  1  0.01879036  0.24940655  0.72813888  1
  O  O46  1  0.51879036  0.75059345  0.77186112  1
  O  O47  1  0.98120964  0.75059345  0.27186112  1
