# generated using pymatgen
data_Ca(GaS2)2
_symmetry_space_group_name_H-M   'P 1'
_cell_length_a   5.89928394
_cell_length_b   5.89928394
_cell_length_c   10.19600526
_cell_angle_alpha   90.00000000
_cell_angle_beta   90.00000000
_cell_angle_gamma   118.76331716
_symmetry_Int_Tables_number   1
_chemical_formula_structural   Ca(GaS2)2
_chemical_formula_sum   'Ca2 Ga4 S8'
_cell_volume   311.05523668
_cell_formula_units_Z   2
loop_
 _symmetry_equiv_pos_site_id
 _symmetry_equiv_pos_as_xyz
  1  'x, y, z'
loop_
 _atom_site_type_symbol
 _atom_site_label
 _atom_site_symmetry_multiplicity
 _atom_site_fract_x
 _atom_site_fract_y
 _atom_site_fract_z
 _atom_site_occupancy
  Ca  Ca0  1  0.50000000  0.50000000  0.75000000  1
  Ca  Ca1  1  0.50000000  0.50000000  0.25000000  1
  Ga  Ga2  1  0.76761196  0.23554478  0.50000000  1
  Ga  Ga3  1  0.23238804  0.76445522  0.50000000  1
  Ga  Ga4  1  0.76445522  0.23238804  0.00000000  1
  Ga  Ga5  1  0.23554478  0.76761196  0.00000000  1
  S  S6  1  0.35409764  0.19140268  0.50000000  1
  S  S7  1  0.64590236  0.80859732  0.50000000  1
  S  S8  1  0.80859732  0.64590236  0.00000000  1
  S  S9  1  0.19140268  0.35409764  0.00000000  1
  S  S10  1  0.50000000  0.00000000  0.83037472  1
  S  S11  1  -0.00000000  0.50000000  0.66962528  1
  S  S12  1  0.50000000  0.00000000  0.16962528  1
  S  S13  1  -0.00000000  0.50000000  0.33037472  1
