# generated using pymatgen
data_TbOF
_symmetry_space_group_name_H-M   'P 1'
_cell_length_a   6.69742994
_cell_length_b   6.69742994
_cell_length_c   6.69743022
_cell_angle_alpha   33.05880988
_cell_angle_beta   33.05880988
_cell_angle_gamma   33.05881513
_symmetry_Int_Tables_number   1
_chemical_formula_structural   TbOF
_chemical_formula_sum   'Tb2 O2 F2'
_cell_volume   79.56146447
_cell_formula_units_Z   2
loop_
 _symmetry_equiv_pos_site_id
 _symmetry_equiv_pos_as_xyz
  1  'x, y, z'
loop_
 _atom_site_type_symbol
 _atom_site_label
 _atom_site_symmetry_multiplicity
 _atom_site_fract_x
 _atom_site_fract_y
 _atom_site_fract_z
 _atom_site_occupancy
  Tb  Tb0  1  0.74156108  0.74156108  0.74156108  1
  Tb  Tb1  1  0.25843892  0.25843892  0.25843892  1
  O  O2  1  0.62142897  0.62142897  0.62142897  1
  O  O3  1  0.37857103  0.37857103  0.37857103  1
  F  F4  1  0.13034864  0.13034864  0.13034864  1
  F  F5  1  0.86965136  0.86965136  0.86965136  1
