# generated using pymatgen
data_K2Sm2Mg(MoO4)4
_symmetry_space_group_name_H-M   'P 1'
_cell_length_a   7.46263638
_cell_length_b   7.97225214
_cell_length_c   7.78817390
_cell_angle_alpha   114.90762189
_cell_angle_beta   116.15869615
_cell_angle_gamma   93.80788599
_symmetry_Int_Tables_number   1
_chemical_formula_structural   K2Sm2Mg(MoO4)4
_chemical_formula_sum   'K2 Sm2 Mg1 Mo4 O16'
_cell_volume   358.66952258
_cell_formula_units_Z   1
loop_
 _symmetry_equiv_pos_site_id
 _symmetry_equiv_pos_as_xyz
  1  'x, y, z'
loop_
 _atom_site_type_symbol
 _atom_site_label
 _atom_site_symmetry_multiplicity
 _atom_site_fract_x
 _atom_site_fract_y
 _atom_site_fract_z
 _atom_site_occupancy
  K  K0  1  0.35519853  0.13142719  0.19663179  1
  K  K1  1  0.55594359  0.85045116  0.74813402  1
  Sm  Sm2  1  0.00424815  0.79142047  0.25018645  1
  Sm  Sm3  1  0.98732506  0.18556953  0.73098129  1
  Mg  Mg4  1  0.68691992  0.46105696  0.62109233  1
  Mo  Mo5  1  0.93708099  0.31348503  0.26062039  1
  Mo  Mo6  1  0.08639121  0.69446623  0.74507324  1
  Mo  Mo7  1  0.52282542  0.67039327  0.22657766  1
  Mo  Mo8  1  0.47665165  0.30907046  0.78232551  1
  O  O9  1  0.65983233  0.23252474  0.06284330  1
  O  O10  1  0.35893040  0.77305824  0.94417140  1
  O  O11  1  0.61609579  0.58055742  0.41753508  1
  O  O12  1  0.39990755  0.41554483  0.59194043  1
  O  O13  1  0.74827325  0.89303880  0.36991982  1
  O  O14  1  0.25780206  0.08150965  0.62404601  1
  O  O15  1  0.04684471  0.33288557  0.10216956  1
  O  O16  1  0.92820621  0.68155691  0.89151261  1
  O  O17  1  0.05419356  0.61370706  0.44646629  1
  O  O18  1  0.92523103  0.39311196  0.54882309  1
  O  O19  1  0.67418127  0.56811814  0.05000113  1
  O  O20  1  0.31645973  0.42710300  0.95708408  1
  O  O21  1  0.98099762  0.08961709  0.24768919  1
  O  O22  1  0.03565719  0.93479719  0.78482181  1
  O  O23  1  0.34165561  0.78145005  0.29486858  1
  O  O24  1  0.67707618  0.24050803  0.68781793  1
