# generated using pymatgen
data_TiPbO3
_symmetry_space_group_name_H-M   'P 1'
_cell_length_a   3.79136527
_cell_length_b   9.00965160
_cell_length_c   9.01137921
_cell_angle_alpha   87.46602168
_cell_angle_beta   77.85201053
_cell_angle_gamma   77.86351118
_symmetry_Int_Tables_number   1
_chemical_formula_structural   TiPbO3
_chemical_formula_sum   'Ti4 Pb4 O12'
_cell_volume   294.19991127
_cell_formula_units_Z   4
loop_
 _symmetry_equiv_pos_site_id
 _symmetry_equiv_pos_as_xyz
  1  'x, y, z'
loop_
 _atom_site_type_symbol
 _atom_site_label
 _atom_site_symmetry_multiplicity
 _atom_site_fract_x
 _atom_site_fract_y
 _atom_site_fract_z
 _atom_site_occupancy
  Ti  Ti0  1  0.35731863  0.67563686  0.61007218  1
  Ti  Ti1  1  0.64268266  0.32436242  0.38992604  1
  Ti  Ti2  1  0.96718720  0.38993112  0.67567805  1
  Ti  Ti3  1  0.03281146  0.61007017  0.32432265  1
  Pb  Pb4  1  0.35238953  0.98199410  0.31446556  1
  Pb  Pb5  1  0.64760917  0.01800589  0.68553482  1
  Pb  Pb6  1  0.66617088  0.68558067  0.98195671  1
  Pb  Pb7  1  0.33382941  0.31441862  0.01804394  1
  O  O8  1  0.47245436  0.42341388  0.63163850  1
  O  O9  1  0.52754532  0.57658648  0.36836170  1
  O  O10  1  0.10396029  0.36840219  0.42338717  1
  O  O11  1  0.89603973  0.63159792  0.57661317  1
  O  O12  1  0.23958514  0.71298513  0.80832096  1
  O  O13  1  0.76041780  0.28701544  0.19167969  1
  O  O14  1  0.04763918  0.19165052  0.71300335  1
  O  O15  1  0.95236188  0.80834870  0.28699548  1
  O  O16  1  0.28987828  0.87577216  0.54462039  1
  O  O17  1  0.71012025  0.12422932  0.45537985  1
  O  O18  1  0.83437372  0.45534933  0.87580380  1
  O  O19  1  0.16562712  0.54465009  0.12419599  1
