# generated using pymatgen
data_SrHfO3
_symmetry_space_group_name_H-M   'P 1'
_cell_length_a   5.76855927
_cell_length_b   5.76048345
_cell_length_c   5.76048417
_cell_angle_alpha   60.36996960
_cell_angle_beta   59.95360115
_cell_angle_gamma   59.95361180
_symmetry_Int_Tables_number   1
_chemical_formula_structural   SrHfO3
_chemical_formula_sum   'Sr2 Hf2 O6'
_cell_volume   135.63234606
_cell_formula_units_Z   2
loop_
 _symmetry_equiv_pos_site_id
 _symmetry_equiv_pos_as_xyz
  1  'x, y, z'
loop_
 _atom_site_type_symbol
 _atom_site_label
 _atom_site_symmetry_multiplicity
 _atom_site_fract_x
 _atom_site_fract_y
 _atom_site_fract_z
 _atom_site_occupancy
  Sr  Sr0  1  0.25000000  0.25774452  0.24225548  1
  Sr  Sr1  1  0.75000000  0.74225548  0.75774452  1
  Hf  Hf2  1  0.00000000  0.00000000  -0.00000000  1
  Hf  Hf3  1  0.50000000  0.50000000  0.50000000  1
  O  O4  1  0.71071941  0.28928059  0.78928059  1
  O  O5  1  0.78928059  0.71071941  0.21071941  1
  O  O6  1  0.28928059  0.71071941  0.21071941  1
  O  O7  1  0.21071941  0.28928059  0.78928059  1
  O  O8  1  0.25000000  0.82284997  0.67715003  1
  O  O9  1  0.75000000  0.17715003  0.32284997  1
