# generated using pymatgen
data_SF4
_symmetry_space_group_name_H-M   'P 1'
_cell_length_a   6.64115605
_cell_length_b   6.75691192
_cell_length_c   12.78942592
_cell_angle_alpha   90.00000000
_cell_angle_beta   90.00311413
_cell_angle_gamma   90.00000000
_symmetry_Int_Tables_number   1
_chemical_formula_structural   SF4
_chemical_formula_sum   'S8 F32'
_cell_volume   573.90894432
_cell_formula_units_Z   8
loop_
 _symmetry_equiv_pos_site_id
 _symmetry_equiv_pos_as_xyz
  1  'x, y, z'
loop_
 _atom_site_type_symbol
 _atom_site_label
 _atom_site_symmetry_multiplicity
 _atom_site_fract_x
 _atom_site_fract_y
 _atom_site_fract_z
 _atom_site_occupancy
  S  S0  1  0.77307697  0.92235154  0.26661389  1
  S  S1  1  0.72693472  0.07763622  0.76663269  1
  S  S2  1  0.27306528  0.57763622  0.73336731  1
  S  S3  1  0.22692303  0.42235154  0.23338611  1
  S  S4  1  0.78160888  0.55067861  0.52930190  1
  S  S5  1  0.71843151  0.44932045  0.02939322  1
  S  S6  1  0.28156849  0.94932045  0.47060678  1
  S  S7  1  0.21839112  0.05067861  0.97069810  1
  F  F8  1  0.72542097  0.04563259  0.16658355  1
  F  F9  1  0.77460117  0.95438578  0.66659598  1
  F  F10  1  0.22539883  0.45438578  0.83340402  1
  F  F11  1  0.27457903  0.54563259  0.33341645  1
  F  F12  1  0.78675039  0.09401716  0.34779050  1
  F  F13  1  0.71325945  0.90596956  0.84780289  1
  F  F14  1  0.28674055  0.40596956  0.65219711  1
  F  F15  1  0.21324961  0.59401716  0.15220950  1
  F  F16  1  0.01827751  0.95651910  0.24231106  1
  F  F17  1  0.48173914  0.04347149  0.74230951  1
  F  F18  1  0.51826086  0.54347149  0.75769049  1
  F  F19  1  0.98172249  0.45651910  0.25768894  1
  F  F20  1  0.51937195  0.91797904  0.29027555  1
  F  F21  1  0.98063732  0.08201074  0.79031712  1
  F  F22  1  0.01936268  0.58201074  0.70968288  1
  F  F23  1  0.48062805  0.41797904  0.20972445  1
  F  F24  1  0.65765392  0.49447028  0.43033844  1
  F  F25  1  0.84241167  0.50554561  0.93044294  1
  F  F26  1  0.15758833  0.00554561  0.56955706  1
  F  F27  1  0.34234608  0.99447028  0.06966156  1
  F  F28  1  0.98913545  0.46179845  0.49884687  1
  F  F29  1  0.51090170  0.53818805  0.99891586  1
  F  F30  1  0.48909830  0.03818805  0.50108414  1
  F  F31  1  0.01086455  0.96179845  0.00115313  1
  F  F32  1  0.85650780  0.76087687  0.46318710  1
  F  F33  1  0.64356096  0.23912954  0.96326456  1
  F  F34  1  0.35643904  0.73912954  0.53673544  1
  F  F35  1  0.14349220  0.26087687  0.03681290  1
  F  F36  1  0.72195099  0.33131997  0.58014073  1
  F  F37  1  0.77805208  0.66869594  0.08023557  1
  F  F38  1  0.22194792  0.16869594  0.41976443  1
  F  F39  1  0.27804901  0.83131997  0.91985927  1
