# generated using pymatgen
data_Sr3Sn2O7
_symmetry_space_group_name_H-M   'P 1'
_cell_length_a   10.69116610
_cell_length_b   10.69116610
_cell_length_c   5.72920398
_cell_angle_alpha   90.00000000
_cell_angle_beta   90.00000000
_cell_angle_gamma   148.49270807
_symmetry_Int_Tables_number   1
_chemical_formula_structural   Sr3Sn2O7
_chemical_formula_sum   'Sr6 Sn4 O14'
_cell_volume   342.23129699
_cell_formula_units_Z   2
loop_
 _symmetry_equiv_pos_site_id
 _symmetry_equiv_pos_as_xyz
  1  'x, y, z'
loop_
 _atom_site_type_symbol
 _atom_site_label
 _atom_site_symmetry_multiplicity
 _atom_site_fract_x
 _atom_site_fract_y
 _atom_site_fract_z
 _atom_site_occupancy
  Sr  Sr0  1  0.24671438  0.24671438  0.25000000  1
  Sr  Sr1  1  0.75328562  0.75328562  0.75000000  1
  Sr  Sr2  1  0.05256935  0.42610089  0.25000000  1
  Sr  Sr3  1  0.94743065  0.57389911  0.75000000  1
  Sr  Sr4  1  0.57389911  0.94743065  0.75000000  1
  Sr  Sr5  1  0.42610089  0.05256935  0.25000000  1
  Sn  Sn6  1  0.65054998  0.84739922  0.25000000  1
  Sn  Sn7  1  0.34945002  0.15260078  0.75000000  1
  Sn  Sn8  1  0.84739922  0.65054998  0.25000000  1
  Sn  Sn9  1  0.15260078  0.34945002  0.75000000  1
  O  O10  1  0.91600268  0.08399732  0.00000000  1
  O  O11  1  0.08399732  0.91600268  0.50000000  1
  O  O12  1  0.08399732  0.91600268  0.00000000  1
  O  O13  1  0.91600268  0.08399732  0.50000000  1
  O  O14  1  0.61030098  0.38969902  0.50000000  1
  O  O15  1  0.38969902  0.61030098  0.00000000  1
  O  O16  1  0.38969902  0.61030098  0.50000000  1
  O  O17  1  0.61030098  0.38969902  0.00000000  1
  O  O18  1  0.99921502  0.39309525  0.75000000  1
  O  O19  1  0.00078498  0.60690475  0.25000000  1
  O  O20  1  0.68328728  0.68328728  0.25000000  1
  O  O21  1  0.31671272  0.31671272  0.75000000  1
  O  O22  1  0.60690475  0.00078498  0.25000000  1
  O  O23  1  0.39309525  0.99921502  0.75000000  1
