# generated using pymatgen
data_Ba2Tl2O5
_symmetry_space_group_name_H-M   'P 1'
_cell_length_a   6.08954380
_cell_length_b   6.31373980
_cell_length_c   17.37301171
_cell_angle_alpha   90.00000000
_cell_angle_beta   90.00000000
_cell_angle_gamma   90.00000000
_symmetry_Int_Tables_number   1
_chemical_formula_structural   Ba2Tl2O5
_chemical_formula_sum   'Ba8 Tl8 O20'
_cell_volume   667.95399370
_cell_formula_units_Z   4
loop_
 _symmetry_equiv_pos_site_id
 _symmetry_equiv_pos_as_xyz
  1  'x, y, z'
loop_
 _atom_site_type_symbol
 _atom_site_label
 _atom_site_symmetry_multiplicity
 _atom_site_fract_x
 _atom_site_fract_y
 _atom_site_fract_z
 _atom_site_occupancy
  Ba  Ba0  1  0.49664999  0.98487879  0.11083447  1
  Ba  Ba1  1  0.99664999  0.51512121  0.38916553  1
  Ba  Ba2  1  0.00335001  0.48487879  0.88916553  1
  Ba  Ba3  1  0.50335001  0.01512121  0.61083447  1
  Ba  Ba4  1  0.50335001  0.01512121  0.88916553  1
  Ba  Ba5  1  0.00335001  0.48487879  0.61083447  1
  Ba  Ba6  1  0.99664999  0.51512121  0.11083447  1
  Ba  Ba7  1  0.49664999  0.98487879  0.38916553  1
  Tl  Tl8  1  -0.00000000  -0.00000000  -0.00000000  1
  Tl  Tl9  1  0.50000000  0.50000000  0.50000000  1
  Tl  Tl10  1  0.50000000  0.50000000  -0.00000000  1
  Tl  Tl11  1  -0.00000000  -0.00000000  0.50000000  1
  Tl  Tl12  1  0.97731473  0.05200806  0.25000000  1
  Tl  Tl13  1  0.47731473  0.44799194  0.25000000  1
  Tl  Tl14  1  0.52268527  0.55200806  0.75000000  1
  Tl  Tl15  1  0.02268527  0.94799194  0.75000000  1
  O  O16  1  0.38488277  0.87950596  0.75000000  1
  O  O17  1  0.88488277  0.62049404  0.75000000  1
  O  O18  1  0.11511723  0.37950596  0.25000000  1
  O  O19  1  0.61511723  0.12049404  0.25000000  1
  O  O20  1  0.03595855  0.93630293  0.36211064  1
  O  O21  1  0.53595855  0.56369707  0.13788936  1
  O  O22  1  0.46404145  0.43630293  0.63788936  1
  O  O23  1  0.96404145  0.06369707  0.86211064  1
  O  O24  1  0.96404145  0.06369707  0.63788936  1
  O  O25  1  0.46404145  0.43630293  0.86211064  1
  O  O26  1  0.53595855  0.56369707  0.36211064  1
  O  O27  1  0.03595855  0.93630293  0.13788936  1
  O  O28  1  0.24047826  0.76927409  0.51177694  1
  O  O29  1  0.74047826  0.73072591  0.98822306  1
  O  O30  1  0.25952174  0.26927409  0.48822306  1
  O  O31  1  0.75952174  0.23072591  0.01177694  1
  O  O32  1  0.24047826  0.76927409  0.98822306  1
  O  O33  1  0.74047826  0.73072591  0.51177694  1
  O  O34  1  0.25952174  0.26927409  0.01177694  1
  O  O35  1  0.75952174  0.23072591  0.48822306  1
