# generated using pymatgen
data_PrSI
_symmetry_space_group_name_H-M   'P 1'
_cell_length_a   7.12053635
_cell_length_b   7.35293454
_cell_length_c   14.48859775
_cell_angle_alpha   90.00000000
_cell_angle_beta   90.00000000
_cell_angle_gamma   90.00000000
_symmetry_Int_Tables_number   1
_chemical_formula_structural   PrSI
_chemical_formula_sum   'Pr8 S8 I8'
_cell_volume   758.57716048
_cell_formula_units_Z   8
loop_
 _symmetry_equiv_pos_site_id
 _symmetry_equiv_pos_as_xyz
  1  'x, y, z'
loop_
 _atom_site_type_symbol
 _atom_site_label
 _atom_site_symmetry_multiplicity
 _atom_site_fract_x
 _atom_site_fract_y
 _atom_site_fract_z
 _atom_site_occupancy
  Pr  Pr0  1  0.25782562  0.97085099  0.91618465  1
  Pr  Pr1  1  0.74217438  0.02914901  0.08381535  1
  Pr  Pr2  1  0.24217438  0.47085099  0.08381535  1
  Pr  Pr3  1  0.74217438  0.52914901  0.41618465  1
  Pr  Pr4  1  0.75782562  0.52914901  0.91618465  1
  Pr  Pr5  1  0.25782562  0.47085099  0.58381535  1
  Pr  Pr6  1  0.75782562  0.02914901  0.58381535  1
  Pr  Pr7  1  0.24217438  0.97085099  0.41618465  1
  S  S8  1  0.99862458  0.74207298  0.52331578  1
  S  S9  1  0.00137542  0.25792702  0.47668422  1
  S  S10  1  0.50137542  0.24207298  0.47668422  1
  S  S11  1  0.00137542  0.75792702  0.02331578  1
  S  S12  1  0.49862458  0.75792702  0.52331578  1
  S  S13  1  0.99862458  0.24207298  0.97668422  1
  S  S14  1  0.49862458  0.25792702  0.97668422  1
  S  S15  1  0.50137542  0.74207298  0.02331578  1
  I  I16  1  0.17873889  0.59614839  0.79922488  1
  I  I17  1  0.82126111  0.40385161  0.20077512  1
  I  I18  1  0.32126111  0.09614839  0.20077512  1
  I  I19  1  0.82126111  0.90385161  0.29922488  1
  I  I20  1  0.67873889  0.90385161  0.79922488  1
  I  I21  1  0.17873889  0.09614839  0.70077512  1
  I  I22  1  0.67873889  0.40385161  0.70077512  1
  I  I23  1  0.32126111  0.59614839  0.29922488  1
