# generated using pymatgen
data_K2B4O7
_symmetry_space_group_name_H-M   'P 1'
_cell_length_a   6.49257375
_cell_length_b   9.58921859
_cell_length_c   10.39870213
_cell_angle_alpha   89.42084256
_cell_angle_beta   102.61885819
_cell_angle_gamma   101.06938802
_symmetry_Int_Tables_number   1
_chemical_formula_structural   K2B4O7
_chemical_formula_sum   'K8 B16 O28'
_cell_volume   619.67497347
_cell_formula_units_Z   4
loop_
 _symmetry_equiv_pos_site_id
 _symmetry_equiv_pos_as_xyz
  1  'x, y, z'
loop_
 _atom_site_type_symbol
 _atom_site_label
 _atom_site_symmetry_multiplicity
 _atom_site_fract_x
 _atom_site_fract_y
 _atom_site_fract_z
 _atom_site_occupancy
  K  K0  1  0.74700757  -0.00270551  0.59315859  1
  K  K1  1  0.25299243  0.00270551  0.40684141  1
  K  K2  1  0.20889021  0.62687114  0.50333184  1
  K  K3  1  0.79110979  0.37312886  0.49666816  1
  K  K4  1  0.66352098  0.47752478  0.87308609  1
  K  K5  1  0.33647902  0.52247522  0.12691391  1
  K  K6  1  0.62724651  0.87335861  0.95837851  1
  K  K7  1  0.37275349  0.12664139  0.04162149  1
  B  B8  1  0.66599730  0.69944383  0.45482668  1
  B  B9  1  0.33400270  0.30055617  0.54517332  1
  B  B10  1  0.13133039  0.80962421  0.15904112  1
  B  B11  1  0.86866961  0.19037579  0.84095888  1
  B  B12  1  0.12474075  0.55554317  0.81301092  1
  B  B13  1  0.87525925  0.44445683  0.18698908  1
  B  B14  1  0.18912642  0.91017695  0.72988608  1
  B  B15  1  0.81087358  0.08982305  0.27011392  1
  B  B16  1  0.54777437  0.84787856  0.26949383  1
  B  B17  1  0.45222563  0.15212144  0.73050617  1
  B  B18  1  0.88152219  0.70080284  0.68601506  1
  B  B19  1  0.11847781  0.29919716  0.31398494  1
  B  B20  1  0.05518069  0.77788491  0.90687652  1
  B  B21  1  0.94481931  0.22211509  0.09312348  1
  B  B22  1  0.81184940  0.68718207  0.25200384  1
  B  B23  1  0.18815060  0.31281793  0.74799616  1
  O  O24  1  0.84969563  0.74416761  0.81118735  1
  O  O25  1  0.04194851  0.81437799  0.64017777  1
  O  O26  1  0.32203404  0.32175744  0.41260275  1
  O  O27  1  0.67796596  0.67824256  0.58739725  1
  O  O28  1  0.02851358  0.43328016  0.29971604  1
  O  O29  1  0.95805149  0.18562201  0.35982223  1
  O  O30  1  0.32395972  0.00996324  0.67703222  1
  O  O31  1  0.67604028  0.99003676  0.32296778  1
  O  O32  1  0.65405498  0.12823763  0.81592021  1
  O  O33  1  0.34594502  0.87176237  0.18407979  1
  O  O34  1  0.34781940  0.23120958  0.80386778  1
  O  O35  1  0.65218060  0.76879042  0.19613222  1
  O  O36  1  0.23208709  0.44527248  0.83122736  1
  O  O37  1  0.76791291  0.55472752  0.16877264  1
  O  O38  1  0.48829607  0.22683924  0.60763847  1
  O  O39  1  0.51170393  0.77316076  0.39236153  1
  O  O40  1  0.20287855  0.35247213  0.61016201  1
  O  O41  1  0.79712145  0.64752787  0.38983799  1
  O  O42  1  0.96238885  0.23632096  0.73782263  1
  O  O43  1  0.03761115  0.76367904  0.26217737  1
  O  O44  1  0.17194956  0.65581236  0.91407128  1
  O  O45  1  0.82805044  0.34418764  0.08592872  1
  O  O46  1  0.19717325  0.90275455  0.86242532  1
  O  O47  1  0.80282675  0.09724545  0.13757468  1
  O  O48  1  0.01059989  0.80269715  0.03370417  1
  O  O49  1  0.98940011  0.19730285  0.96629583  1
  O  O50  1  0.97148642  0.56671984  0.70028396  1
  O  O51  1  0.15030437  0.25583239  0.18881265  1
