# generated using pymatgen
data_WO3
_symmetry_space_group_name_H-M   'P 1'
_cell_length_a   5.20732218
_cell_length_b   5.30583957
_cell_length_c   7.69318882
_cell_angle_alpha   88.49796292
_cell_angle_beta   90.00000000
_cell_angle_gamma   90.00000000
_symmetry_Int_Tables_number   1
_chemical_formula_structural   WO3
_chemical_formula_sum   'W4 O12'
_cell_volume   212.48374037
_cell_formula_units_Z   4
loop_
 _symmetry_equiv_pos_site_id
 _symmetry_equiv_pos_as_xyz
  1  'x, y, z'
loop_
 _atom_site_type_symbol
 _atom_site_label
 _atom_site_symmetry_multiplicity
 _atom_site_fract_x
 _atom_site_fract_y
 _atom_site_fract_z
 _atom_site_occupancy
  W  W0  1  0.76832870  0.25416469  0.21675893  1
  W  W1  1  0.26832870  0.74583531  0.28324107  1
  W  W2  1  0.23167130  0.74583531  0.78324107  1
  W  W3  1  0.73167130  0.25416469  0.71675893  1
  O  O4  1  0.53463770  0.54071392  0.71601337  1
  O  O5  1  0.18289846  0.74831963  0.50606495  1
  O  O6  1  0.46536230  0.45928608  0.28398663  1
  O  O7  1  0.53728333  0.96675083  0.28377184  1
  O  O8  1  0.31710154  0.74831963  0.00606495  1
  O  O9  1  0.46271667  0.03324917  0.71622816  1
  O  O10  1  0.96536230  0.54071392  0.21601337  1
  O  O11  1  0.03728333  0.03324917  0.21622816  1
  O  O12  1  0.96271667  0.96675083  0.78377184  1
  O  O13  1  0.03463770  0.45928608  0.78398663  1
  O  O14  1  0.81710154  0.25168037  0.49393505  1
  O  O15  1  0.68289846  0.25168037  0.99393505  1
