# generated using pymatgen
data_Tl3AsSe4
_symmetry_space_group_name_H-M   'P 1'
_cell_length_a   9.31482926
_cell_length_b   9.55295169
_cell_length_c   11.22787553
_cell_angle_alpha   90.00000000
_cell_angle_beta   90.00000000
_cell_angle_gamma   90.00000000
_symmetry_Int_Tables_number   1
_chemical_formula_structural   Tl3AsSe4
_chemical_formula_sum   'Tl12 As4 Se16'
_cell_volume   999.10255526
_cell_formula_units_Z   4
loop_
 _symmetry_equiv_pos_site_id
 _symmetry_equiv_pos_as_xyz
  1  'x, y, z'
loop_
 _atom_site_type_symbol
 _atom_site_label
 _atom_site_symmetry_multiplicity
 _atom_site_fract_x
 _atom_site_fract_y
 _atom_site_fract_z
 _atom_site_occupancy
  Tl  Tl0  1  0.89524182  0.38787713  0.75000000  1
  Tl  Tl1  1  0.39524182  0.11212287  0.75000000  1
  Tl  Tl2  1  0.10475818  0.61212287  0.25000000  1
  Tl  Tl3  1  0.60475818  0.88787713  0.25000000  1
  Tl  Tl4  1  0.56751079  0.69202443  0.55246970  1
  Tl  Tl5  1  0.06751079  0.80797557  0.94753030  1
  Tl  Tl6  1  0.43248921  0.30797557  0.05246970  1
  Tl  Tl7  1  0.93248921  0.19202443  0.44753030  1
  Tl  Tl8  1  0.43248921  0.30797557  0.44753030  1
  Tl  Tl9  1  0.93248921  0.19202443  0.05246970  1
  Tl  Tl10  1  0.56751079  0.69202443  0.94753030  1
  Tl  Tl11  1  0.06751079  0.80797557  0.55246970  1
  As  As12  1  0.78075248  0.97292516  0.75000000  1
  As  As13  1  0.28075248  0.52707484  0.75000000  1
  As  As14  1  0.21924752  0.02707484  0.25000000  1
  As  As15  1  0.71924752  0.47292516  0.25000000  1
  Se  Se16  1  0.81201497  0.72904690  0.75000000  1
  Se  Se17  1  0.31201497  0.77095310  0.75000000  1
  Se  Se18  1  0.18798503  0.27095310  0.25000000  1
  Se  Se19  1  0.68798503  0.22904690  0.25000000  1
  Se  Se20  1  0.50911848  0.42696654  0.75000000  1
  Se  Se21  1  0.00911848  0.07303346  0.75000000  1
  Se  Se22  1  0.49088152  0.57303346  0.25000000  1
  Se  Se23  1  0.99088152  0.92696654  0.25000000  1
  Se  Se24  1  0.65120519  0.03317239  0.58013157  1
  Se  Se25  1  0.15120519  0.46682761  0.91986843  1
  Se  Se26  1  0.34879481  0.96682761  0.08013157  1
  Se  Se27  1  0.84879481  0.53317239  0.41986843  1
  Se  Se28  1  0.34879481  0.96682761  0.41986843  1
  Se  Se29  1  0.84879481  0.53317239  0.08013157  1
  Se  Se30  1  0.65120519  0.03317239  0.91986843  1
  Se  Se31  1  0.15120519  0.46682761  0.58013157  1
