# generated using pymatgen
data_Sr6Mg(Te4O11)2
_symmetry_space_group_name_H-M   'P 1'
_cell_length_a   8.05257255
_cell_length_b   9.41039138
_cell_length_c   9.60034944
_cell_angle_alpha   101.50418580
_cell_angle_beta   107.32100246
_cell_angle_gamma   103.83675683
_symmetry_Int_Tables_number   1
_chemical_formula_structural   Sr6Mg(Te4O11)2
_chemical_formula_sum   'Sr6 Mg1 Te8 O22'
_cell_volume   644.96622459
_cell_formula_units_Z   1
loop_
 _symmetry_equiv_pos_site_id
 _symmetry_equiv_pos_as_xyz
  1  'x, y, z'
loop_
 _atom_site_type_symbol
 _atom_site_label
 _atom_site_symmetry_multiplicity
 _atom_site_fract_x
 _atom_site_fract_y
 _atom_site_fract_z
 _atom_site_occupancy
  Sr  Sr0  1  0.28188764  0.04593623  0.15147629  1
  Sr  Sr1  1  0.77203115  0.96692627  0.88388384  1
  Sr  Sr2  1  0.82861534  0.06886044  0.30452423  1
  Sr  Sr3  1  0.10034901  0.93777690  0.64080734  1
  Sr  Sr4  1  0.30545013  0.50582070  0.61436411  1
  Sr  Sr5  1  0.70128108  0.48445103  0.38405397  1
  Mg  Mg6  1  0.38713403  0.86412361  0.86477511  1
  Te  Te7  1  0.07989802  0.36329327  0.20630890  1
  Te  Te8  1  0.92518450  0.64441141  0.79030855  1
  Te  Te9  1  0.04963328  0.27609187  0.78571790  1
  Te  Te10  1  0.95321730  0.71639866  0.19860306  1
  Te  Te11  1  0.50208316  0.72270807  0.09645859  1
  Te  Te12  1  0.53738613  0.29055049  0.95405007  1
  Te  Te13  1  0.47422854  0.80407905  0.47209586  1
  Te  Te14  1  0.54405066  0.20767216  0.57101116  1
  O  O15  1  0.99873696  0.53381777  0.64700491  1
  O  O16  1  0.00436534  0.46338319  0.35468058  1
  O  O17  1  0.41208207  0.58959476  0.39289761  1
  O  O18  1  0.60127609  0.42259341  0.63169694  1
  O  O19  1  0.84920350  0.20204156  0.09745231  1
  O  O20  1  0.14003037  0.82216919  0.86986324  1
  O  O21  1  0.74536810  0.17145370  0.71295676  1
  O  O22  1  0.29670129  0.86144648  0.33428081  1
  O  O23  1  0.36766129  0.79805802  0.62899924  1
  O  O24  1  0.61421108  0.19387676  0.39981777  1
  O  O25  1  0.02947653  0.17403006  0.58785944  1
  O  O26  1  0.92857632  0.81312491  0.37910615  1
  O  O27  1  0.47405352  0.28745159  0.12571468  1
  O  O28  1  0.52491898  0.71438463  0.89252932  1
  O  O29  1  0.50779827  0.93972623  0.09413036  1
  O  O30  1  0.43274237  0.07519568  0.84067410  1
  O  O31  1  0.93930716  0.88206186  0.11031658  1
  O  O32  1  0.06013899  0.11212613  0.87097592  1
  O  O33  1  0.18924570  0.24602193  0.32240961  1
  O  O34  1  0.79693664  0.74842968  0.66717507  1
  O  O35  1  0.70364471  0.56941892  0.12000422  1
  O  O36  1  0.33276173  0.35192236  0.83434936  1
