# generated using pymatgen
data_NbSeOF7
_symmetry_space_group_name_H-M   'P 1'
_cell_length_a   7.00467486
_cell_length_b   7.88239826
_cell_length_c   11.03596631
_cell_angle_alpha   90.00000000
_cell_angle_beta   90.00000000
_cell_angle_gamma   90.00000000
_symmetry_Int_Tables_number   1
_chemical_formula_structural   NbSeOF7
_chemical_formula_sum   'Nb4 Se4 O4 F28'
_cell_volume   609.33583699
_cell_formula_units_Z   4
loop_
 _symmetry_equiv_pos_site_id
 _symmetry_equiv_pos_as_xyz
  1  'x, y, z'
loop_
 _atom_site_type_symbol
 _atom_site_label
 _atom_site_symmetry_multiplicity
 _atom_site_fract_x
 _atom_site_fract_y
 _atom_site_fract_z
 _atom_site_occupancy
  Nb  Nb0  1  0.70051116  0.75000000  0.15037079  1
  Nb  Nb1  1  0.20051116  0.25000000  0.34962921  1
  Nb  Nb2  1  0.29948884  0.25000000  0.84962921  1
  Nb  Nb3  1  0.79948884  0.75000000  0.65037079  1
  Se  Se4  1  0.25442597  0.75000000  0.99650378  1
  Se  Se5  1  0.75442597  0.25000000  0.50349622  1
  Se  Se6  1  0.74557403  0.25000000  0.00349622  1
  Se  Se7  1  0.24557403  0.75000000  0.49650378  1
  O  O8  1  0.48674212  0.75000000  0.01428733  1
  O  O9  1  0.01325788  0.75000000  0.51428733  1
  O  O10  1  0.51325788  0.25000000  0.98571267  1
  O  O11  1  0.98674212  0.25000000  0.48571267  1
  F  F12  1  0.69689785  0.09084648  0.40109454  1
  F  F13  1  0.80310215  0.40915352  0.90109454  1
  F  F14  1  0.30310215  0.59084648  0.59890546  1
  F  F15  1  0.19689785  0.90915352  0.09890546  1
  F  F16  1  0.30310215  0.90915352  0.59890546  1
  F  F17  1  0.80310215  0.09084648  0.90109454  1
  F  F18  1  0.69689785  0.40915352  0.40109454  1
  F  F19  1  0.19689785  0.59084648  0.09890546  1
  F  F20  1  0.86994148  0.75000000  0.01293924  1
  F  F21  1  0.36994148  0.25000000  0.48706076  1
  F  F22  1  0.13005852  0.25000000  0.98706076  1
  F  F23  1  0.63005852  0.75000000  0.51293924  1
  F  F24  1  0.89371388  0.75000000  0.26690481  1
  F  F25  1  0.39371388  0.25000000  0.23309519  1
  F  F26  1  0.10628612  0.25000000  0.73309519  1
  F  F27  1  0.60628612  0.75000000  0.76690481  1
  F  F28  1  0.49324732  0.75000000  0.26124857  1
  F  F29  1  0.99324732  0.25000000  0.23875143  1
  F  F30  1  0.50675268  0.25000000  0.73875143  1
  F  F31  1  0.00675268  0.75000000  0.76124857  1
  F  F32  1  0.69336518  0.50558844  0.13835666  1
  F  F33  1  0.19336518  0.49441156  0.36164334  1
  F  F34  1  0.30663482  0.00558844  0.86164334  1
  F  F35  1  0.80663482  0.99441156  0.63835666  1
  F  F36  1  0.30663482  0.49441156  0.86164334  1
  F  F37  1  0.80663482  0.50558844  0.63835666  1
  F  F38  1  0.69336518  0.99441156  0.13835666  1
  F  F39  1  0.19336518  0.00558844  0.36164334  1
