# generated using pymatgen
data_MgAl4(HO)12
_symmetry_space_group_name_H-M   'P 1'
_cell_length_a   7.42724629
_cell_length_b   8.69699802
_cell_length_c   7.25349019
_cell_angle_alpha   107.52503727
_cell_angle_beta   138.54716113
_cell_angle_gamma   90.28538473
_symmetry_Int_Tables_number   1
_chemical_formula_structural   MgAl4(HO)12
_chemical_formula_sum   'Mg1 Al4 H12 O12'
_cell_volume   275.32323509
_cell_formula_units_Z   1
loop_
 _symmetry_equiv_pos_site_id
 _symmetry_equiv_pos_as_xyz
  1  'x, y, z'
loop_
 _atom_site_type_symbol
 _atom_site_label
 _atom_site_symmetry_multiplicity
 _atom_site_fract_x
 _atom_site_fract_y
 _atom_site_fract_z
 _atom_site_occupancy
  Mg  Mg0  1  0.42957465  0.68915611  0.69610272  1
  Al  Al1  1  0.50772901  0.83189473  0.31778884  1
  Al  Al2  1  0.51086301  0.09278997  0.69814423  1
  Al  Al3  1  0.98456585  0.69252288  0.62322625  1
  Al  Al4  1  0.05167605  0.28460324  0.40212155  1
  H  H5  1  0.99365559  0.97808233  0.59904174  1
  H  H6  1  0.84064384  0.78074780  0.03635528  1
  H  H7  1  0.57248288  0.44670538  0.81325083  1
  H  H8  1  0.43929017  0.52619071  0.11461940  1
  H  H9  1  0.93071161  0.71276490  0.24658451  1
  H  H10  1  0.89143531  0.40423807  0.59109777  1
  H  H11  1  0.31066610  0.06540379  0.21151754  1
  H  H12  1  0.73949588  0.88012433  0.83555261  1
  H  H13  1  0.50895920  0.93306543  0.03823206  1
  H  H14  1  0.51165658  0.17576592  0.03214867  1
  H  H15  1  0.99106133  0.30932969  0.02162414  1
  H  H16  1  0.98005250  0.73347253  0.98713731  1
  O  O17  1  0.92557822  0.91508222  0.63983301  1
  O  O18  1  0.20934403  0.14011556  0.55098580  1
  O  O19  1  0.39190836  0.44831640  0.62130203  1
  O  O20  1  0.57748489  0.62000694  0.32578354  1
  O  O21  1  0.00548058  0.65172805  0.37650020  1
  O  O22  1  0.99727786  0.44839822  0.57451525  1
  O  O23  1  0.48019726  0.05844752  0.40316476  1
  O  O24  1  0.54657358  0.87437943  0.63419608  1
  O  O25  1  0.42987333  0.81452150  0.99190422  1
  O  O26  1  0.64381681  0.11892130  0.07290268  1
  O  O27  1  0.88066340  0.25810432  0.02781979  1
  O  O28  1  0.10096611  0.71690072  0.96801319  1
