# generated using pymatgen
data_Rb2Hg3Se4
_symmetry_space_group_name_H-M   'P 1'
_cell_length_a   6.53727611
_cell_length_b   9.97881664
_cell_length_c   9.97881664
_cell_angle_alpha   72.78082195
_cell_angle_beta   70.87939633
_cell_angle_gamma   70.87939633
_symmetry_Int_Tables_number   1
_chemical_formula_structural   Rb2Hg3Se4
_chemical_formula_sum   'Rb4 Hg6 Se8'
_cell_volume   567.98102836
_cell_formula_units_Z   2
loop_
 _symmetry_equiv_pos_site_id
 _symmetry_equiv_pos_as_xyz
  1  'x, y, z'
loop_
 _atom_site_type_symbol
 _atom_site_label
 _atom_site_symmetry_multiplicity
 _atom_site_fract_x
 _atom_site_fract_y
 _atom_site_fract_z
 _atom_site_occupancy
  Rb  Rb0  1  0.22727705  0.88021129  0.11978871  1
  Rb  Rb1  1  0.77272295  0.11978871  0.88021129  1
  Rb  Rb2  1  0.27272295  0.38021129  0.61978871  1
  Rb  Rb3  1  0.72727705  0.61978871  0.38021129  1
  Hg  Hg4  1  0.25000000  0.25000000  0.25000000  1
  Hg  Hg5  1  0.75000000  0.75000000  0.75000000  1
  Hg  Hg6  1  0.25000000  0.58918616  0.91081384  1
  Hg  Hg7  1  0.25000000  0.91081384  0.58918616  1
  Hg  Hg8  1  0.75000000  0.41081384  0.08918616  1
  Hg  Hg9  1  0.75000000  0.08918616  0.41081384  1
  Se  Se10  1  0.35927625  0.49627238  0.23321031  1
  Se  Se11  1  0.91124007  0.23321031  0.49627238  1
  Se  Se12  1  0.14072375  0.26678969  0.00372762  1
  Se  Se13  1  0.58875993  0.00372762  0.26678969  1
  Se  Se14  1  0.64072375  0.50372762  0.76678969  1
  Se  Se15  1  0.08875993  0.76678969  0.50372762  1
  Se  Se16  1  0.85927625  0.73321031  0.99627238  1
  Se  Se17  1  0.41124007  0.99627238  0.73321031  1
