# generated using pymatgen
data_K4MgV6O16
_symmetry_space_group_name_H-M   'P 1'
_cell_length_a   5.58800900
_cell_length_b   9.15923227
_cell_length_c   9.15923227
_cell_angle_alpha   87.14867654
_cell_angle_beta   90.00000000
_cell_angle_gamma   90.00000000
_symmetry_Int_Tables_number   1
_chemical_formula_structural   K4MgV6O16
_chemical_formula_sum   'K4 Mg1 V6 O16'
_cell_volume   468.20628909
_cell_formula_units_Z   1
loop_
 _symmetry_equiv_pos_site_id
 _symmetry_equiv_pos_as_xyz
  1  'x, y, z'
loop_
 _atom_site_type_symbol
 _atom_site_label
 _atom_site_symmetry_multiplicity
 _atom_site_fract_x
 _atom_site_fract_y
 _atom_site_fract_z
 _atom_site_occupancy
  K  K0  1  0.18819500  0.72064100  0.22064100  1
  K  K1  1  0.17158300  0.82332000  0.67668000  1
  K  K2  1  0.17158300  0.17668000  0.32332000  1
  K  K3  1  0.18819500  0.27935900  0.77935900  1
  Mg  Mg4  1  0.12907700  0.50000000  0.00000000  1
  V  V5  1  0.64808000  0.87412400  0.37412400  1
  V  V6  1  0.62753000  0.36241600  0.13758400  1
  V  V7  1  0.64808000  0.12587600  0.62587600  1
  V  V8  1  0.62753000  0.63758400  0.86241600  1
  V  V9  1  0.63954000  0.00000000  0.00000000  1
  V  V10  1  0.63954000  0.50000000  0.50000000  1
  O  O11  1  0.93455000  0.50000000  0.50000000  1
  O  O12  1  0.93455000  0.00000000  0.00000000  1
  O  O13  1  0.47574600  0.50000000  0.00000000  1
  O  O14  1  0.51329900  0.00000000  0.50000000  1
  O  O15  1  0.95350700  0.62670000  0.87330000  1
  O  O16  1  0.94654900  0.11601400  0.61601400  1
  O  O17  1  0.94654900  0.88398600  0.38398600  1
  O  O18  1  0.95350700  0.37330000  0.12670000  1
  O  O19  1  0.53223800  0.57698600  0.68917500  1
  O  O20  1  0.53223800  0.42301400  0.31082500  1
  O  O21  1  0.53223800  0.18917500  0.07698600  1
  O  O22  1  0.54312500  0.91897900  0.19908600  1
  O  O23  1  0.54312500  0.08102100  0.80091400  1
  O  O24  1  0.53223800  0.81082500  0.92301400  1
  O  O25  1  0.54312500  0.30091400  0.58102100  1
  O  O26  1  0.54312500  0.69908600  0.41897900  1
