# generated using pymatgen
data_KIO3
_symmetry_space_group_name_H-M   'P 1'
_cell_length_a   6.28762872
_cell_length_b   6.28762918
_cell_length_c   6.28762951
_cell_angle_alpha   59.93186773
_cell_angle_beta   59.93186075
_cell_angle_gamma   59.93187505
_symmetry_Int_Tables_number   1
_chemical_formula_structural   KIO3
_chemical_formula_sum   'K2 I2 O6'
_cell_volume   175.49877238
_cell_formula_units_Z   2
loop_
 _symmetry_equiv_pos_site_id
 _symmetry_equiv_pos_as_xyz
  1  'x, y, z'
loop_
 _atom_site_type_symbol
 _atom_site_label
 _atom_site_symmetry_multiplicity
 _atom_site_fract_x
 _atom_site_fract_y
 _atom_site_fract_z
 _atom_site_occupancy
  K  K0  1  0.24579014  0.24579014  0.24579014  1
  K  K1  1  0.74594688  0.74594688  0.74594688  1
  I  I2  1  0.99590327  0.99590327  0.99590327  1
  I  I3  1  0.49589923  0.49589923  0.49589923  1
  O  O4  1  0.22718776  0.74006483  0.85343315  1
  O  O5  1  0.85343315  0.22718776  0.74006483  1
  O  O6  1  0.74006483  0.85343315  0.22718776  1
  O  O7  1  0.72713137  0.35373156  0.23978182  1
  O  O8  1  0.23978182  0.72713137  0.35373156  1
  O  O9  1  0.35373156  0.23978182  0.72713137  1
