# generated using pymatgen
data_RbVO3
_symmetry_space_group_name_H-M   'P 1'
_cell_length_a   5.31955200
_cell_length_b   5.70559893
_cell_length_c   11.31629318
_cell_angle_alpha   90.00000000
_cell_angle_beta   90.00000000
_cell_angle_gamma   90.00000000
_symmetry_Int_Tables_number   1
_chemical_formula_structural   RbVO3
_chemical_formula_sum   'Rb4 V4 O12'
_cell_volume   343.46341931
_cell_formula_units_Z   4
loop_
 _symmetry_equiv_pos_site_id
 _symmetry_equiv_pos_as_xyz
  1  'x, y, z'
loop_
 _atom_site_type_symbol
 _atom_site_label
 _atom_site_symmetry_multiplicity
 _atom_site_fract_x
 _atom_site_fract_y
 _atom_site_fract_z
 _atom_site_occupancy
  Rb  Rb0  1  0.93297370  0.75000000  0.10124343  1
  Rb  Rb1  1  0.93297370  0.25000000  0.39875657  1
  Rb  Rb2  1  0.06702630  0.25000000  0.89875657  1
  Rb  Rb3  1  0.06702630  0.75000000  0.60124343  1
  V  V4  1  0.46695241  0.75000000  0.33494665  1
  V  V5  1  0.46695241  0.25000000  0.16505335  1
  V  V6  1  0.53304759  0.25000000  0.66505335  1
  V  V7  1  0.53304759  0.75000000  0.83494665  1
  O  O8  1  0.42897170  0.50000000  0.75000000  1
  O  O9  1  0.57102830  -0.00000000  0.25000000  1
  O  O10  1  0.57102830  0.50000000  0.25000000  1
  O  O11  1  0.42897170  0.00000000  0.75000000  1
  O  O12  1  0.60070133  0.75000000  0.46628750  1
  O  O13  1  0.60070133  0.25000000  0.03371250  1
  O  O14  1  0.39929867  0.25000000  0.53371250  1
  O  O15  1  0.39929867  0.75000000  0.96628750  1
  O  O16  1  0.84370322  0.75000000  0.84855440  1
  O  O17  1  0.84370322  0.25000000  0.65144560  1
  O  O18  1  0.15629678  0.25000000  0.15144560  1
  O  O19  1  0.15629678  0.75000000  0.34855440  1
