# generated using pymatgen
data_CsBrF4
_symmetry_space_group_name_H-M   'P 1'
_cell_length_a   7.55804264
_cell_length_b   7.55804264
_cell_length_c   7.55804264
_cell_angle_alpha   137.34733797
_cell_angle_beta   125.74831681
_cell_angle_gamma   71.35518870
_symmetry_Int_Tables_number   1
_chemical_formula_structural   CsBrF4
_chemical_formula_sum   'Cs2 Br2 F8'
_cell_volume   232.61788709
_cell_formula_units_Z   2
loop_
 _symmetry_equiv_pos_site_id
 _symmetry_equiv_pos_as_xyz
  1  'x, y, z'
loop_
 _atom_site_type_symbol
 _atom_site_label
 _atom_site_symmetry_multiplicity
 _atom_site_fract_x
 _atom_site_fract_y
 _atom_site_fract_z
 _atom_site_occupancy
  Cs  Cs0  1  0.71656424  0.71656424  -0.00000000  1
  Cs  Cs1  1  0.28343576  0.28343576  -0.00000000  1
  Br  Br2  1  0.50000000  -0.00000000  0.50000000  1
  Br  Br3  1  -0.00000000  0.50000000  0.50000000  1
  F  F4  1  0.27671960  0.50000000  0.77671960  1
  F  F5  1  0.72328040  0.50000000  0.22328040  1
  F  F6  1  0.80543764  0.11209628  0.69334135  1
  F  F7  1  0.19456236  0.88790372  0.30665865  1
  F  F8  1  0.58124407  0.88790372  0.69334135  1
  F  F9  1  0.41875593  0.11209628  0.30665865  1
  F  F10  1  0.84310652  0.34310652  0.50000000  1
  F  F11  1  0.15689348  0.65689348  0.50000000  1
