# generated using pymatgen
data_Sr2V2O7
_symmetry_space_group_name_H-M   'P 1'
_cell_length_a   7.04383390
_cell_length_b   7.04383390
_cell_length_c   25.67630528
_cell_angle_alpha   90.00000000
_cell_angle_beta   90.00000000
_cell_angle_gamma   90.00000000
_symmetry_Int_Tables_number   1
_chemical_formula_structural   Sr2V2O7
_chemical_formula_sum   'Sr16 V16 O56'
_cell_volume   1273.94518986
_cell_formula_units_Z   8
loop_
 _symmetry_equiv_pos_site_id
 _symmetry_equiv_pos_as_xyz
  1  'x, y, z'
loop_
 _atom_site_type_symbol
 _atom_site_label
 _atom_site_symmetry_multiplicity
 _atom_site_fract_x
 _atom_site_fract_y
 _atom_site_fract_z
 _atom_site_occupancy
  Sr  Sr0  1  0.21932887  0.08843589  0.39286713  1
  Sr  Sr1  1  0.08843589  0.78067113  0.14286713  1
  Sr  Sr2  1  0.83630391  0.49532045  0.40229291  1
  Sr  Sr3  1  0.31465516  0.93555430  0.00269826  1
  Sr  Sr4  1  0.72132782  0.30809353  -0.00027662  1
  Sr  Sr5  1  0.91156411  0.21932887  0.64286713  1
  Sr  Sr6  1  0.93555430  0.68534484  0.75269826  1
  Sr  Sr7  1  0.16369609  0.50467955  0.90229291  1
  Sr  Sr8  1  0.49532045  0.16369609  0.15229291  1
  Sr  Sr9  1  0.06444570  0.31465516  0.25269826  1
  Sr  Sr10  1  0.27867218  0.69190647  0.49972338  1
  Sr  Sr11  1  0.30809353  0.27867218  0.74972338  1
  Sr  Sr12  1  0.50467955  0.83630391  0.65229291  1
  Sr  Sr13  1  0.68534484  0.06444570  0.50269826  1
  Sr  Sr14  1  0.78067113  0.91156411  0.89286713  1
  Sr  Sr15  1  0.69190647  0.72132782  0.24972338  1
  V  V16  1  0.43410985  0.29797694  0.61647525  1
  V  V17  1  0.82666334  0.77302682  0.01721758  1
  V  V18  1  0.17333666  0.22697318  0.51721758  1
  V  V19  1  0.23256091  0.39243222  0.02933858  1
  V  V20  1  0.29797694  0.56589015  0.36647525  1
  V  V21  1  0.22697318  0.82666334  0.26721758  1
  V  V22  1  0.69538984  0.96629892  0.37698428  1
  V  V23  1  0.76743909  0.60756778  0.52933858  1
  V  V24  1  0.96629892  0.30461016  0.12698428  1
  V  V25  1  0.77302682  0.17333666  0.76721758  1
  V  V26  1  0.03370108  0.69538984  0.62698428  1
  V  V27  1  0.30461016  0.03370108  0.87698428  1
  V  V28  1  0.70202306  0.43410985  0.86647525  1
  V  V29  1  0.56589015  0.70202306  0.11647525  1
  V  V30  1  0.60756778  0.23256091  0.27933858  1
  V  V31  1  0.39243222  0.76743909  0.77933858  1
  O  O32  1  0.69154763  0.95049478  0.99136649  1
  O  O33  1  0.80134926  0.78869024  0.34461232  1
  O  O34  1  0.04950522  0.69154763  0.24136649  1
  O  O35  1  0.31796191  0.57643706  0.99460422  1
  O  O36  1  0.24665571  0.58799868  0.79851311  1
  O  O37  1  0.39953330  0.86523989  0.09804042  1
  O  O38  1  0.13476011  0.39953330  0.34804042  1
  O  O39  1  0.38240566  0.68944326  0.30860628  1
  O  O40  1  0.87726796  0.44225530  0.17471043  1
  O  O41  1  0.27673548  0.18120022  0.65501189  1
  O  O42  1  0.19865074  0.21130976  0.84461232  1
  O  O43  1  0.58799868  0.75334429  0.54851311  1
  O  O44  1  0.12273204  0.55774470  0.67471043  1
  O  O45  1  0.52915862  0.54690575  0.89827972  1
  O  O46  1  0.11778530  0.14701661  0.15632918  1
  O  O47  1  0.53211727  0.09311219  0.33497448  1
  O  O48  1  0.63556235  0.10726436  0.71652278  1
  O  O49  1  0.90487328  0.74030113  0.48968826  1
  O  O50  1  0.55774470  0.87726796  0.42471043  1
  O  O51  1  0.36443765  0.89273564  0.21652278  1
  O  O52  1  0.44225530  0.12273204  0.92471043  1
  O  O53  1  0.68203809  0.42356294  0.49460422  1
  O  O54  1  0.47084138  0.45309425  0.39827972  1
  O  O55  1  0.61759434  0.31055674  0.80860628  1
  O  O56  1  0.98496596  0.13738828  0.54894503  1
  O  O57  1  0.74030113  0.09512672  0.23968826  1
  O  O58  1  0.85298339  0.11778530  0.40632918  1
  O  O59  1  0.86523989  0.60046670  0.84804042  1
  O  O60  1  0.78869024  0.19865074  0.09461232  1
  O  O61  1  0.21130976  0.80134926  0.59461232  1
  O  O62  1  0.09512672  0.25969887  0.98968826  1
  O  O63  1  0.54690575  0.47084138  0.64827972  1
  O  O64  1  0.30845237  0.04950522  0.49136649  1
  O  O65  1  0.18120022  0.72326452  0.40501189  1
  O  O66  1  0.88221470  0.85298339  0.65632918  1
  O  O67  1  0.14701661  0.88221470  0.90632918  1
  O  O68  1  0.89273564  0.63556235  0.96652278  1
  O  O69  1  0.72326452  0.81879978  0.15501189  1
  O  O70  1  0.13738828  0.01503404  0.29894503  1
  O  O71  1  0.31055674  0.38240566  0.55860628  1
  O  O72  1  0.60046670  0.13476011  0.59804042  1
  O  O73  1  0.75334429  0.41200132  0.29851311  1
  O  O74  1  0.45309425  0.52915862  0.14827972  1
  O  O75  1  0.42356294  0.31796191  0.24460422  1
  O  O76  1  0.41200132  0.24665571  0.04851311  1
  O  O77  1  0.81879978  0.27673548  0.90501189  1
  O  O78  1  0.90688781  0.53211727  0.58497448  1
  O  O79  1  0.57643706  0.68203809  0.74460422  1
  O  O80  1  0.10726436  0.36443765  0.46652278  1
  O  O81  1  0.01503404  0.86261172  0.04894503  1
  O  O82  1  0.86261172  0.98496596  0.79894503  1
  O  O83  1  0.46788273  0.90688781  0.83497448  1
  O  O84  1  0.68944326  0.61759434  0.05860628  1
  O  O85  1  0.95049478  0.30845237  0.74136649  1
  O  O86  1  0.09311219  0.46788273  0.08497448  1
  O  O87  1  0.25969887  0.90487328  0.73968826  1
