# generated using pymatgen
data_Ho3GaS6
_symmetry_space_group_name_H-M   'P 1'
_cell_length_a   8.47305192
_cell_length_b   8.47305192
_cell_length_c   6.41691965
_cell_angle_alpha   90.00000000
_cell_angle_beta   90.00000000
_cell_angle_gamma   102.39817191
_symmetry_Int_Tables_number   1
_chemical_formula_structural   Ho3GaS6
_chemical_formula_sum   'Ho6 Ga2 S12'
_cell_volume   449.94377094
_cell_formula_units_Z   2
loop_
 _symmetry_equiv_pos_site_id
 _symmetry_equiv_pos_as_xyz
  1  'x, y, z'
loop_
 _atom_site_type_symbol
 _atom_site_label
 _atom_site_symmetry_multiplicity
 _atom_site_fract_x
 _atom_site_fract_y
 _atom_site_fract_z
 _atom_site_occupancy
  Ho  Ho0  1  0.28449006  0.08570374  0.22635992  1
  Ho  Ho1  1  0.91429626  0.71550994  0.22635992  1
  Ho  Ho2  1  0.71550994  0.91429626  0.72635992  1
  Ho  Ho3  1  0.08570374  0.28449006  0.72635992  1
  Ho  Ho4  1  0.40216425  0.59783575  0.13675177  1
  Ho  Ho5  1  0.59783575  0.40216425  0.63675177  1
  Ga  Ga6  1  0.20108105  0.79891895  0.76235168  1
  Ga  Ga7  1  0.79891895  0.20108105  0.26235168  1
  S  S8  1  0.56668823  0.10192978  0.44170219  1
  S  S9  1  0.89807022  0.43331177  0.44170219  1
  S  S10  1  0.43331177  0.89807022  0.94170219  1
  S  S11  1  0.10192978  0.56668823  0.94170219  1
  S  S12  1  0.63188426  0.69329632  0.43053997  1
  S  S13  1  0.30670368  0.36811574  0.43053997  1
  S  S14  1  0.36811574  0.30670368  0.93053997  1
  S  S15  1  0.69329732  0.63188426  0.93053997  1
  S  S16  1  0.21710275  0.78289725  0.41126910  1
  S  S17  1  0.78289725  0.21710275  0.91126910  1
  S  S18  1  0.95934885  0.04065115  0.40742429  1
  S  S19  1  0.04065115  0.95934885  0.90742429  1
