# generated using pymatgen
data_Sr4LiMn2Cu3(SO)4
_symmetry_space_group_name_H-M   'P 1'
_cell_length_a   5.83710645
_cell_length_b   6.22769522
_cell_length_c   9.04800478
_cell_angle_alpha   94.17207077
_cell_angle_beta   69.84004050
_cell_angle_gamma   93.46565200
_symmetry_Int_Tables_number   1
_chemical_formula_structural   Sr4LiMn2Cu3(SO)4
_chemical_formula_sum   'Sr4 Li1 Mn2 Cu3 S4 O4'
_cell_volume   307.72142970
_cell_formula_units_Z   1
loop_
 _symmetry_equiv_pos_site_id
 _symmetry_equiv_pos_as_xyz
  1  'x, y, z'
loop_
 _atom_site_type_symbol
 _atom_site_label
 _atom_site_symmetry_multiplicity
 _atom_site_fract_x
 _atom_site_fract_y
 _atom_site_fract_z
 _atom_site_occupancy
  Sr  Sr0  1  0.37444000  0.96230500  0.22583000  1
  Sr  Sr1  1  0.91451500  0.44389600  0.18556400  1
  Sr  Sr2  1  0.06930900  0.60807000  0.77760500  1
  Sr  Sr3  1  0.62647700  0.02131600  0.80789600  1
  Li  Li4  1  0.12482500  0.20597500  0.85700900  1
  Mn  Mn5  1  0.50183700  0.49427200  0.99635200  1
  Mn  Mn6  1  0.98275800  0.94255900  0.06769700  1
  Cu  Cu7  1  0.47638500  0.28115500  0.51855100  1
  Cu  Cu8  1  0.54590400  0.71993300  0.47923900  1
  Cu  Cu9  1  0.98255600  0.27689100  0.49815300  1
  S  S10  1  0.18353400  0.01663900  0.61558500  1
  S  S11  1  0.65590200  0.51622300  0.65380300  1
  S  S12  1  0.34249300  0.47976700  0.33804300  1
  S  S13  1  0.80296100  0.00596500  0.35786800  1
  O  O14  1  0.26088500  0.18280200  0.01523000  1
  O  O15  1  0.72094500  0.80194100  0.99253400  1
  O  O16  1  0.81575600  0.31739700  0.94708600  1
  O  O17  1  0.21226600  0.69164300  0.01595500  1
