# generated using pymatgen
data_Y2Ge2O7
_symmetry_space_group_name_H-M   'P 1'
_cell_length_a   6.81659758
_cell_length_b   6.81659758
_cell_length_c   12.41204628
_cell_angle_alpha   90.00000000
_cell_angle_beta   90.00000000
_cell_angle_gamma   90.00000000
_symmetry_Int_Tables_number   1
_chemical_formula_structural   Y2Ge2O7
_chemical_formula_sum   'Y8 Ge8 O28'
_cell_volume   576.73817432
_cell_formula_units_Z   4
loop_
 _symmetry_equiv_pos_site_id
 _symmetry_equiv_pos_as_xyz
  1  'x, y, z'
loop_
 _atom_site_type_symbol
 _atom_site_label
 _atom_site_symmetry_multiplicity
 _atom_site_fract_x
 _atom_site_fract_y
 _atom_site_fract_z
 _atom_site_occupancy
  Y  Y0  1  0.12428115  0.64734576  0.86492217  1
  Y  Y1  1  0.87571885  0.35265424  0.36492217  1
  Y  Y2  1  0.64734576  0.12428115  0.13507783  1
  Y  Y3  1  0.14734576  0.37571885  0.11492217  1
  Y  Y4  1  0.85265424  0.62428115  0.61492217  1
  Y  Y5  1  0.37571885  0.14734576  0.88507783  1
  Y  Y6  1  0.62428115  0.85265424  0.38507783  1
  Y  Y7  1  0.35265424  0.87571885  0.63507783  1
  Ge  Ge8  1  0.15274335  0.90068780  0.11944323  1
  Ge  Ge9  1  0.84725665  0.09931220  0.61944323  1
  Ge  Ge10  1  0.90068780  0.15274335  0.88055677  1
  Ge  Ge11  1  0.40068780  0.34725665  0.36944323  1
  Ge  Ge12  1  0.59931220  0.65274335  0.86944323  1
  Ge  Ge13  1  0.34725665  0.40068780  0.63055677  1
  Ge  Ge14  1  0.65274335  0.59931220  0.13055677  1
  Ge  Ge15  1  0.09931220  0.84725665  0.38055677  1
  O  O16  1  0.14308476  0.68444351  0.04482853  1
  O  O17  1  0.85691524  0.31555649  0.54482853  1
  O  O18  1  0.68444351  0.14308476  0.95517147  1
  O  O19  1  0.18444351  0.35691524  0.29482853  1
  O  O20  1  0.81555649  0.64308476  0.79482853  1
  O  O21  1  0.35691524  0.18444351  0.70517147  1
  O  O22  1  0.64308476  0.81555649  0.20517147  1
  O  O23  1  0.31555649  0.85691524  0.45517147  1
  O  O24  1  0.33836568  0.06317909  0.07129100  1
  O  O25  1  0.66163432  0.93682091  0.57129100  1
  O  O26  1  0.06317909  0.33836568  0.92870900  1
  O  O27  1  0.56317909  0.16163432  0.32129100  1
  O  O28  1  0.43682091  0.83836568  0.82129100  1
  O  O29  1  0.16163432  0.56317909  0.67870900  1
  O  O30  1  0.83836568  0.43682091  0.17870900  1
  O  O31  1  0.93682091  0.66163432  0.42870900  1
  O  O32  1  0.19618637  0.80381363  0.25000000  1
  O  O33  1  0.69618637  0.69618637  0.00000000  1
  O  O34  1  0.30381363  0.30381363  0.50000000  1
  O  O35  1  0.80381363  0.19618637  0.75000000  1
  O  O36  1  0.92260819  0.03147022  0.37651714  1
  O  O37  1  0.46852978  0.42260819  0.12651714  1
  O  O38  1  0.53147022  0.57739181  0.62651714  1
  O  O39  1  0.42260819  0.46852978  0.87348286  1
  O  O40  1  0.57739181  0.53147022  0.37348286  1
  O  O41  1  0.07739181  0.96852978  0.87651714  1
  O  O42  1  0.03147022  0.92260819  0.62348286  1
  O  O43  1  0.96852978  0.07739181  0.12348286  1
