# generated using pymatgen
data_Sr(ErS2)2
_symmetry_space_group_name_H-M   'P 1'
_cell_length_a   3.95153793
_cell_length_b   11.96759851
_cell_length_c   14.21407658
_cell_angle_alpha   90.00000000
_cell_angle_beta   90.00000000
_cell_angle_gamma   90.00000000
_symmetry_Int_Tables_number   1
_chemical_formula_structural   Sr(ErS2)2
_chemical_formula_sum   'Sr4 Er8 S16'
_cell_volume   672.18964347
_cell_formula_units_Z   4
loop_
 _symmetry_equiv_pos_site_id
 _symmetry_equiv_pos_as_xyz
  1  'x, y, z'
loop_
 _atom_site_type_symbol
 _atom_site_label
 _atom_site_symmetry_multiplicity
 _atom_site_fract_x
 _atom_site_fract_y
 _atom_site_fract_z
 _atom_site_occupancy
  Sr  Sr0  1  0.25000000  0.75847143  0.33735711  1
  Sr  Sr1  1  0.25000000  0.25847143  0.16264289  1
  Sr  Sr2  1  0.75000000  0.24152857  0.66264289  1
  Sr  Sr3  1  0.75000000  0.74152857  0.83735711  1
  Er  Er4  1  0.25000000  0.43441590  0.38964107  1
  Er  Er5  1  0.25000000  0.93441590  0.11035893  1
  Er  Er6  1  0.75000000  0.56558410  0.61035893  1
  Er  Er7  1  0.75000000  0.06558410  0.88964107  1
  Er  Er8  1  0.25000000  0.41849951  0.89968368  1
  Er  Er9  1  0.25000000  0.91849951  0.60031632  1
  Er  Er10  1  0.75000000  0.58150049  0.10031632  1
  Er  Er11  1  0.75000000  0.08150049  0.39968368  1
  S  S12  1  0.25000000  0.20636227  0.82875128  1
  S  S13  1  0.25000000  0.70636227  0.67124872  1
  S  S14  1  0.75000000  0.79363773  0.17124872  1
  S  S15  1  0.75000000  0.29363773  0.32875128  1
  S  S16  1  0.25000000  0.12806235  0.52728026  1
  S  S17  1  0.25000000  0.62806235  0.97271974  1
  S  S18  1  0.75000000  0.87193765  0.47271974  1
  S  S19  1  0.75000000  0.37193765  0.02728026  1
  S  S20  1  0.25000000  0.02453053  0.28402275  1
  S  S21  1  0.25000000  0.52453053  0.21597725  1
  S  S22  1  0.75000000  0.97546947  0.71597725  1
  S  S23  1  0.75000000  0.47546947  0.78402275  1
  S  S24  1  0.25000000  0.41391004  0.57746614  1
  S  S25  1  0.25000000  0.91391004  0.92253386  1
  S  S26  1  0.75000000  0.58608996  0.42253386  1
  S  S27  1  0.75000000  0.08608996  0.07746614  1
