# generated using pymatgen
data_Ce(PO3)4
_symmetry_space_group_name_H-M   'P 1'
_cell_length_a   16.64617122
_cell_length_b   16.64617122
_cell_length_c   9.12349111
_cell_angle_alpha   89.99629583
_cell_angle_beta   89.99629583
_cell_angle_gamma   130.27917738
_symmetry_Int_Tables_number   1
_chemical_formula_structural   Ce(PO3)4
_chemical_formula_sum   'Ce8 P32 O96'
_cell_volume   1928.67600724
_cell_formula_units_Z   8
loop_
 _symmetry_equiv_pos_site_id
 _symmetry_equiv_pos_as_xyz
  1  'x, y, z'
loop_
 _atom_site_type_symbol
 _atom_site_label
 _atom_site_symmetry_multiplicity
 _atom_site_fract_x
 _atom_site_fract_y
 _atom_site_fract_z
 _atom_site_occupancy
  Ce  Ce0  1  0.93071000  0.06929000  0.25000000  1
  Ce  Ce1  1  0.06929000  0.93071000  0.75000000  1
  Ce  Ce2  1  0.41898000  0.05747700  0.25080100  1
  Ce  Ce3  1  0.94252300  0.58102000  0.24919900  1
  Ce  Ce4  1  0.58102000  0.94252300  0.74919900  1
  Ce  Ce5  1  0.05747700  0.41898000  0.75080100  1
  Ce  Ce6  1  0.43139700  0.56860300  0.25000000  1
  Ce  Ce7  1  0.56860300  0.43139700  0.75000000  1
  P  P8  1  0.36485100  0.84673500  0.00898900  1
  P  P9  1  0.15326500  0.63514900  0.49101100  1
  P  P10  1  0.63514900  0.15326500  0.99101100  1
  P  P11  1  0.84673500  0.36485100  0.50898900  1
  P  P12  1  0.86535000  0.34818200  0.02785900  1
  P  P13  1  0.65181800  0.13465000  0.47214100  1
  P  P14  1  0.13465000  0.65181800  0.97214100  1
  P  P15  1  0.34818200  0.86535000  0.52785900  1
  P  P16  1  0.15038100  0.13785000  0.01602800  1
  P  P17  1  0.86215000  0.84961900  0.48397200  1
  P  P18  1  0.84961900  0.86215000  0.98397200  1
  P  P19  1  0.13785000  0.15038100  0.51602800  1
  P  P20  1  0.65559100  0.63227700  0.02336500  1
  P  P21  1  0.36772300  0.34440900  0.47663500  1
  P  P22  1  0.34440900  0.36772300  0.97663500  1
  P  P23  1  0.63227700  0.65559100  0.52336500  1
  P  P24  1  0.32902400  0.01472000  0.64115200  1
  P  P25  1  0.98528000  0.67097600  0.85884800  1
  P  P26  1  0.67097600  0.98528000  0.35884800  1
  P  P27  1  0.01472000  0.32902400  0.14115200  1
  P  P28  1  0.83033200  0.51625900  0.63245400  1
  P  P29  1  0.48374100  0.16966800  0.86754600  1
  P  P30  1  0.16966800  0.48374100  0.36754600  1
  P  P31  1  0.51625900  0.83033200  0.13245400  1
  P  P32  1  0.51692100  0.32529000  0.36265400  1
  P  P33  1  0.67471000  0.48307900  0.13734600  1
  P  P34  1  0.48307900  0.67471000  0.63734600  1
  P  P35  1  0.32529000  0.51692100  0.86265400  1
  P  P36  1  0.01474700  0.83472000  0.36446000  1
  P  P37  1  0.16528000  0.98525300  0.13554000  1
  P  P38  1  0.98525300  0.16528000  0.63554000  1
  P  P39  1  0.83472000  0.01474700  0.86446000  1
  O  O40  1  0.74110000  0.26199700  0.05034100  1
  O  O41  1  0.73800300  0.25890000  0.44965900  1
  O  O42  1  0.25890000  0.73800300  0.94965900  1
  O  O43  1  0.26199700  0.74110000  0.55034100  1
  O  O44  1  0.07892200  0.43111300  0.24521600  1
  O  O45  1  0.56888700  0.92107800  0.25478400  1
  O  O46  1  0.92107800  0.56888700  0.75478400  1
  O  O47  1  0.43111300  0.07892200  0.74521600  1
  O  O48  1  0.06980200  0.93019800  0.25000000  1
  O  O49  1  0.93019800  0.06980200  0.75000000  1
  O  O50  1  0.57723500  0.42276500  0.25000000  1
  O  O51  1  0.42276500  0.57723500  0.75000000  1
  O  O52  1  0.59577500  0.70246500  0.63419100  1
  O  O53  1  0.29753500  0.40422500  0.86580900  1
  O  O54  1  0.40422500  0.29753500  0.36580900  1
  O  O55  1  0.70246500  0.59577500  0.13419100  1
  O  O56  1  0.09860900  0.19617800  0.62373800  1
  O  O57  1  0.80382200  0.90139100  0.87626200  1
  O  O58  1  0.90139100  0.80382200  0.37626200  1
  O  O59  1  0.19617800  0.09860900  0.12373800  1
  O  O60  1  0.59618100  0.19742300  0.87956500  1
  O  O61  1  0.80257700  0.40381900  0.62043500  1
  O  O62  1  0.40381900  0.80257700  0.12043500  1
  O  O63  1  0.19742300  0.59618100  0.37956500  1
  O  O64  1  0.09737200  0.69774200  0.86118100  1
  O  O65  1  0.30225800  0.90262800  0.63881900  1
  O  O66  1  0.90262800  0.30225800  0.13881900  1
  O  O67  1  0.69774200  0.09737200  0.36118100  1
  O  O68  1  0.25855200  0.24331400  0.95473800  1
  O  O69  1  0.75668600  0.74144800  0.54526200  1
  O  O70  1  0.74144800  0.75668600  0.04526200  1
  O  O71  1  0.24331400  0.25855200  0.45473800  1
  O  O72  1  0.43862100  0.89817000  0.87966000  1
  O  O73  1  0.10183000  0.56137900  0.62034000  1
  O  O74  1  0.56137900  0.10183000  0.12034000  1
  O  O75  1  0.89817000  0.43862100  0.37966000  1
  O  O76  1  0.65667200  0.08996700  0.91323200  1
  O  O77  1  0.91003300  0.34332800  0.58676800  1
  O  O78  1  0.34332800  0.91003300  0.08676800  1
  O  O79  1  0.08996700  0.65667200  0.41323200  1
  O  O80  1  0.89827500  0.34786300  0.87460500  1
  O  O81  1  0.65213700  0.10172500  0.62539500  1
  O  O82  1  0.10172500  0.65213700  0.12539500  1
  O  O83  1  0.34786300  0.89827500  0.37460500  1
  O  O84  1  0.89677600  0.44986300  0.08345800  1
  O  O85  1  0.55013700  0.10322400  0.41654200  1
  O  O86  1  0.10322400  0.55013700  0.91654200  1
  O  O87  1  0.44986300  0.89677600  0.58345800  1
  O  O88  1  0.93700700  0.90363900  0.61206400  1
  O  O89  1  0.09636100  0.06299300  0.88793600  1
  O  O90  1  0.06299300  0.09636100  0.38793600  1
  O  O91  1  0.90363900  0.93700700  0.11206400  1
  O  O92  1  0.83997100  0.91026200  0.39956400  1
  O  O93  1  0.08973800  0.16002900  0.10043600  1
  O  O94  1  0.16002900  0.08973800  0.60043600  1
  O  O95  1  0.91026200  0.83997100  0.89956400  1
  O  O96  1  0.40098700  0.34563700  0.63034200  1
  O  O97  1  0.65436300  0.59901300  0.86965800  1
  O  O98  1  0.59901300  0.65436300  0.36965800  1
  O  O99  1  0.34563700  0.40098700  0.13034200  1
  O  O100  1  0.39943600  0.44602700  0.41828900  1
  O  O101  1  0.55397300  0.60056400  0.08171100  1
  O  O102  1  0.60056400  0.55397300  0.58171100  1
  O  O103  1  0.44602700  0.39943600  0.91828900  1
  O  O104  1  0.35799700  0.06265100  0.49117200  1
  O  O105  1  0.93734900  0.64200300  0.00882800  1
  O  O106  1  0.64200300  0.93734900  0.50882800  1
  O  O107  1  0.06265100  0.35799700  0.99117200  1
  O  O108  1  0.00239000  0.75965200  0.77751400  1
  O  O109  1  0.24034800  0.99761000  0.72248600  1
  O  O110  1  0.99761000  0.24034800  0.22248600  1
  O  O111  1  0.75965200  0.00239000  0.27751400  1
  O  O112  1  0.87239300  0.57513600  0.49043500  1
  O  O113  1  0.42486400  0.12760700  0.00956500  1
  O  O114  1  0.12760700  0.42486400  0.50956500  1
  O  O115  1  0.57513600  0.87239300  0.99043500  1
  O  O116  1  0.50220300  0.26278500  0.79923300  1
  O  O117  1  0.73721500  0.49779700  0.70076700  1
  O  O118  1  0.49779700  0.73721500  0.20076700  1
  O  O119  1  0.26278500  0.50220300  0.29923300  1
  O  O120  1  0.36146000  0.56797900  0.01055800  1
  O  O121  1  0.43202100  0.63854000  0.48944200  1
  O  O122  1  0.63854000  0.43202100  0.98944200  1
  O  O123  1  0.56797900  0.36146000  0.51055800  1
  O  O124  1  0.49977100  0.76584900  0.70994600  1
  O  O125  1  0.23415100  0.50022900  0.79005400  1
  O  O126  1  0.50022900  0.23415100  0.29005400  1
  O  O127  1  0.76584900  0.49977100  0.20994600  1
  O  O128  1  0.87201500  0.07105400  0.00874500  1
  O  O129  1  0.92894600  0.12798500  0.49125500  1
  O  O130  1  0.12798500  0.92894600  0.99125500  1
  O  O131  1  0.07105400  0.87201500  0.50874500  1
  O  O132  1  0.00141000  0.25496400  0.71157100  1
  O  O133  1  0.74503600  0.99859000  0.78842900  1
  O  O134  1  0.99859000  0.74503600  0.28842900  1
  O  O135  1  0.25496400  0.00141000  0.21157100  1
