# generated using pymatgen
data_Cd3(AsO4)2
_symmetry_space_group_name_H-M   'P 1'
_cell_length_a   12.07996432
_cell_length_b   6.65751238
_cell_length_c   9.28880579
_cell_angle_alpha   81.67061731
_cell_angle_beta   90.00000000
_cell_angle_gamma   90.00000000
_symmetry_Int_Tables_number   1
_chemical_formula_structural   Cd3(AsO4)2
_chemical_formula_sum   'Cd12 As8 O32'
_cell_volume   739.14915581
_cell_formula_units_Z   4
loop_
 _symmetry_equiv_pos_site_id
 _symmetry_equiv_pos_as_xyz
  1  'x, y, z'
loop_
 _atom_site_type_symbol
 _atom_site_label
 _atom_site_symmetry_multiplicity
 _atom_site_fract_x
 _atom_site_fract_y
 _atom_site_fract_z
 _atom_site_occupancy
  Cd  Cd0  1  0.69168785  0.36937009  0.35567966  1
  Cd  Cd1  1  0.19168785  0.13062991  0.64432034  1
  Cd  Cd2  1  0.30831215  0.63062991  0.64432034  1
  Cd  Cd3  1  0.80831215  0.86937009  0.35567966  1
  Cd  Cd4  1  0.58086290  0.16640718  0.71779869  1
  Cd  Cd5  1  0.08086290  0.33359282  0.28220131  1
  Cd  Cd6  1  0.41913710  0.83359282  0.28220131  1
  Cd  Cd7  1  0.91913710  0.66640718  0.71779869  1
  Cd  Cd8  1  0.61668859  0.65621524  0.94973321  1
  Cd  Cd9  1  0.11668859  0.84378476  0.05026679  1
  Cd  Cd10  1  0.38331141  0.34378476  0.05026679  1
  Cd  Cd11  1  0.88331141  0.15621524  0.94973321  1
  As  As12  1  0.58805788  0.68728466  0.60718205  1
  As  As13  1  0.08805788  0.81271534  0.39281795  1
  As  As14  1  0.41194212  0.31271534  0.39281795  1
  As  As15  1  0.91194212  0.18728466  0.60718205  1
  As  As16  1  0.63653288  0.10814663  0.08167067  1
  As  As17  1  0.13653288  0.39185337  0.91832933  1
  As  As18  1  0.36346712  0.89185337  0.91832933  1
  As  As19  1  0.86346712  0.60814663  0.08167067  1
  O  O20  1  0.46188270  0.75254989  0.52986443  1
  O  O21  1  0.96188270  0.74745011  0.47013557  1
  O  O22  1  0.53811730  0.24745011  0.47013557  1
  O  O23  1  0.03811730  0.25254989  0.52986443  1
  O  O24  1  0.57587687  0.48169252  0.73653762  1
  O  O25  1  0.07587687  0.01830748  0.26346238  1
  O  O26  1  0.42412313  0.51830748  0.26346238  1
  O  O27  1  0.92412313  0.98169252  0.73653762  1
  O  O28  1  0.63496554  0.86198161  0.70835669  1
  O  O29  1  0.13496554  0.63801839  0.29164331  1
  O  O30  1  0.36503446  0.13801839  0.29164331  1
  O  O31  1  0.86503446  0.36198161  0.70835669  1
  O  O32  1  0.68178329  0.65390662  0.47683996  1
  O  O33  1  0.18178329  0.84609338  0.52316004  1
  O  O34  1  0.31821671  0.34609338  0.52316004  1
  O  O35  1  0.81821671  0.15390662  0.47683996  1
  O  O36  1  0.56236349  0.89067509  0.12008820  1
  O  O37  1  0.06236349  0.60932491  0.87991180  1
  O  O38  1  0.43763651  0.10932491  0.87991180  1
  O  O39  1  0.93763651  0.39067509  0.12008820  1
  O  O40  1  0.93301466  0.83085807  0.07992068  1
  O  O41  1  0.43301466  0.66914193  0.92007932  1
  O  O42  1  0.06698534  0.16914193  0.92007932  1
  O  O43  1  0.56698534  0.33085807  0.07992068  1
  O  O44  1  0.79602174  0.59820810  0.92234197  1
  O  O45  1  0.29602174  0.90179190  0.07765803  1
  O  O46  1  0.20397826  0.40179190  0.07765803  1
  O  O47  1  0.70397826  0.09820810  0.92234197  1
  O  O48  1  0.76454853  0.62455081  0.21052715  1
  O  O49  1  0.26454853  0.87544919  0.78947285  1
  O  O50  1  0.23545147  0.37544919  0.78947285  1
  O  O51  1  0.73545147  0.12455081  0.21052715  1
