# generated using pymatgen
data_Mg2H32Ru2Cl10O17
_symmetry_space_group_name_H-M   'P 1'
_cell_length_a   8.44331799
_cell_length_b   10.70619227
_cell_length_c   16.59874847
_cell_angle_alpha   90.00000000
_cell_angle_beta   90.00000000
_cell_angle_gamma   96.52736181
_symmetry_Int_Tables_number   1
_chemical_formula_structural   Mg2H32Ru2Cl10O17
_chemical_formula_sum   'Mg4 H64 Ru4 Cl20 O34'
_cell_volume   1490.73047251
_cell_formula_units_Z   2
loop_
 _symmetry_equiv_pos_site_id
 _symmetry_equiv_pos_as_xyz
  1  'x, y, z'
loop_
 _atom_site_type_symbol
 _atom_site_label
 _atom_site_symmetry_multiplicity
 _atom_site_fract_x
 _atom_site_fract_y
 _atom_site_fract_z
 _atom_site_occupancy
  Mg  Mg0  1  0.99100673  0.24456535  0.68889376  1
  Mg  Mg1  1  0.00899327  0.25543465  0.18889376  1
  Mg  Mg2  1  0.00899327  0.75543465  0.31110624  1
  Mg  Mg3  1  0.99100673  0.74456535  0.81110624  1
  H  H4  1  0.91341326  0.29013793  0.84296501  1
  H  H5  1  0.08658674  0.20986207  0.34296501  1
  H  H6  1  0.08658674  0.70986207  0.15703499  1
  H  H7  1  0.91341326  0.79013793  0.65703499  1
  H  H8  1  0.07437165  0.37984243  0.82346217  1
  H  H9  1  0.92562835  0.12015757  0.32346217  1
  H  H10  1  0.92562835  0.62015757  0.17653783  1
  H  H11  1  0.07437165  0.87984243  0.67653783  1
  H  H12  1  0.73906544  0.07692060  0.75377167  1
  H  H13  1  0.26093456  0.42307940  0.25377167  1
  H  H14  1  0.26093456  0.92307940  0.24622833  1
  H  H15  1  0.73906544  0.57692060  0.74622833  1
  H  H16  1  0.87552856  0.00169283  0.72128193  1
  H  H17  1  0.12447144  0.49830717  0.22128193  1
  H  H18  1  0.12447144  0.99830717  0.27871807  1
  H  H19  1  0.87552856  0.50169283  0.77871807  1
  H  H20  1  0.79675682  0.38627774  0.59936503  1
  H  H21  1  0.20324318  0.11372226  0.09936503  1
  H  H22  1  0.20324318  0.61372226  0.40063497  1
  H  H23  1  0.79675682  0.88627774  0.90063497  1
  H  H24  1  0.68246729  0.30831194  0.65772777  1
  H  H25  1  0.31753271  0.19168806  0.15772777  1
  H  H26  1  0.31753271  0.69168806  0.34227223  1
  H  H27  1  0.68246729  0.80831194  0.84227223  1
  H  H28  1  0.91851999  0.11699251  0.55299918  1
  H  H29  1  0.08148001  0.38300749  0.05299918  1
  H  H30  1  0.08148001  0.88300749  0.44700082  1
  H  H31  1  0.91851999  0.61699251  0.94700082  1
  H  H32  1  0.07899249  0.20875534  0.53694830  1
  H  H33  1  0.92100751  0.29124466  0.03694830  1
  H  H34  1  0.92100751  0.79124466  0.46305170  1
  H  H35  1  0.07899249  0.70875534  0.96305170  1
  H  H36  1  0.13239463  0.46831747  0.61140157  1
  H  H37  1  0.86760537  0.03168253  0.11140157  1
  H  H38  1  0.86760537  0.53168253  0.38859843  1
  H  H39  1  0.13239463  0.96831747  0.88859843  1
  H  H40  1  0.25848257  0.39979918  0.65592073  1
  H  H41  1  0.74151743  0.10020082  0.15592073  1
  H  H42  1  0.74151743  0.60020082  0.34407927  1
  H  H43  1  0.25848257  0.89979918  0.84407927  1
  H  H44  1  0.21882567  0.16327879  0.78972560  1
  H  H45  1  0.78117433  0.33672121  0.28972560  1
  H  H46  1  0.78117433  0.83672121  0.21027440  1
  H  H47  1  0.21882567  0.66327879  0.71027440  1
  H  H48  1  0.23051216  0.09997581  0.70360718  1
  H  H49  1  0.76948784  0.40002419  0.20360718  1
  H  H50  1  0.76948784  0.90002419  0.29639282  1
  H  H51  1  0.23051216  0.59997581  0.79639282  1
  H  H52  1  0.24884768  0.47049954  0.91199995  1
  H  H53  1  0.75115232  0.02950046  0.41199995  1
  H  H54  1  0.75115232  0.52950046  0.08800005  1
  H  H55  1  0.24884768  0.97049954  0.58800005  1
  H  H56  1  0.33843420  0.41481548  0.84077494  1
  H  H57  1  0.66156580  0.08518452  0.34077494  1
  H  H58  1  0.66156580  0.58518452  0.15922506  1
  H  H59  1  0.33843420  0.91481548  0.65922506  1
  H  H60  1  0.30589374  0.52946516  0.04759452  1
  H  H61  1  0.69410626  0.97053484  0.54759452  1
  H  H62  1  0.69410626  0.47053484  0.95240548  1
  H  H63  1  0.30589374  0.02946516  0.45240548  1
  H  H64  1  0.34406778  0.39258879  0.02966982  1
  H  H65  1  0.65593222  0.10741121  0.52966982  1
  H  H66  1  0.65593222  0.60741121  0.97033018  1
  H  H67  1  0.34406778  0.89258879  0.47033018  1
  Ru  Ru68  1  0.52872416  0.13978649  0.94000334  1
  Ru  Ru69  1  0.47127584  0.36021351  0.44000334  1
  Ru  Ru70  1  0.47127584  0.86021351  0.05999666  1
  Ru  Ru71  1  0.52872416  0.63978649  0.55999666  1
  Cl  Cl72  1  0.54596349  0.27506472  0.05472962  1
  Cl  Cl73  1  0.45403651  0.22493528  0.55472962  1
  Cl  Cl74  1  0.45403651  0.72493528  0.94527038  1
  Cl  Cl75  1  0.54596349  0.77506472  0.44527038  1
  Cl  Cl76  1  0.24928508  0.15942015  0.93244517  1
  Cl  Cl77  1  0.75071492  0.34057985  0.43244517  1
  Cl  Cl78  1  0.75071492  0.84057985  0.06755483  1
  Cl  Cl79  1  0.24928508  0.65942015  0.56755483  1
  Cl  Cl80  1  0.81474057  0.14255376  0.93909106  1
  Cl  Cl81  1  0.18525943  0.35744624  0.43909106  1
  Cl  Cl82  1  0.18525943  0.85744624  0.06090894  1
  Cl  Cl83  1  0.81474057  0.64255376  0.56090894  1
  Cl  Cl84  1  0.57237806  0.32284220  0.85927233  1
  Cl  Cl85  1  0.42762194  0.17715780  0.35927233  1
  Cl  Cl86  1  0.42762194  0.67715780  0.14072767  1
  Cl  Cl87  1  0.57237806  0.82284220  0.64072767  1
  Cl  Cl88  1  0.51067617  0.02317923  0.81590515  1
  Cl  Cl89  1  0.48932383  0.47682077  0.31590515  1
  Cl  Cl90  1  0.48932383  0.97682077  0.18409485  1
  Cl  Cl91  1  0.51067617  0.52317923  0.68409485  1
  O  O92  1  0.96958516  0.34124416  0.80014477  1
  O  O93  1  0.03041484  0.15875584  0.30014477  1
  O  O94  1  0.03041484  0.65875584  0.19985523  1
  O  O95  1  0.96958516  0.84124416  0.69985523  1
  O  O96  1  0.83935344  0.08603269  0.72279504  1
  O  O97  1  0.16064656  0.41396731  0.22279504  1
  O  O98  1  0.16064656  0.91396731  0.27720496  1
  O  O99  1  0.83935344  0.58603269  0.77720496  1
  O  O100  1  0.79557538  0.33313847  0.64724496  1
  O  O101  1  0.20442462  0.16686153  0.14724496  1
  O  O102  1  0.20442462  0.66686153  0.35275504  1
  O  O103  1  0.79557538  0.83313847  0.85275504  1
  O  O104  1  0.01931911  0.15681760  0.57804766  1
  O  O105  1  0.98068089  0.34318240  0.07804766  1
  O  O106  1  0.98068089  0.84318240  0.42195234  1
  O  O107  1  0.01931911  0.65681760  0.92195234  1
  O  O108  1  0.14293845  0.39848408  0.64846139  1
  O  O109  1  0.85706155  0.10151592  0.14846139  1
  O  O110  1  0.85706155  0.60151592  0.35153861  1
  O  O111  1  0.14293845  0.89848408  0.85153861  1
  O  O112  1  0.19344368  0.17276144  0.73264067  1
  O  O113  1  0.80655632  0.32723856  0.23264067  1
  O  O114  1  0.80655632  0.82723856  0.26735933  1
  O  O115  1  0.19344368  0.67276144  0.76735933  1
  O  O116  1  0.24581968  0.45992830  0.85228583  1
  O  O117  1  0.75418032  0.04007170  0.35228583  1
  O  O118  1  0.75418032  0.54007170  0.14771417  1
  O  O119  1  0.24581968  0.95992830  0.64771417  1
  O  O120  1  0.26473528  0.45185491  0.01904291  1
  O  O121  1  0.73526472  0.04814509  0.51904291  1
  O  O122  1  0.73526472  0.54814509  0.98095709  1
  O  O123  1  0.26473528  0.95185491  0.48095709  1
  O  O124  1  0.50000000  -0.00000000  0.00000000  1
  O  O125  1  0.50000000  0.50000000  0.50000000  1
