# generated using pymatgen
data_LiMg14CoO16
_symmetry_space_group_name_H-M   'P 1'
_cell_length_a   8.47338491
_cell_length_b   8.50066431
_cell_length_c   4.23149425
_cell_angle_alpha   90.00000000
_cell_angle_beta   90.00000000
_cell_angle_gamma   90.00000000
_symmetry_Int_Tables_number   1
_chemical_formula_structural   LiMg14CoO16
_chemical_formula_sum   'Li1 Mg14 Co1 O16'
_cell_volume   304.79199485
_cell_formula_units_Z   1
loop_
 _symmetry_equiv_pos_site_id
 _symmetry_equiv_pos_as_xyz
  1  'x, y, z'
loop_
 _atom_site_type_symbol
 _atom_site_label
 _atom_site_symmetry_multiplicity
 _atom_site_fract_x
 _atom_site_fract_y
 _atom_site_fract_z
 _atom_site_occupancy
  Li  Li0  1  0.00000000  0.50000000  0.00000000  1
  Mg  Mg1  1  0.50000000  0.00000000  0.00000000  1
  Mg  Mg2  1  0.50000000  0.50000000  0.00000000  1
  Mg  Mg3  1  0.00000000  0.25641455  0.50000000  1
  Mg  Mg4  1  0.00000000  0.74358545  0.50000000  1
  Mg  Mg5  1  0.50000000  0.25188828  0.50000000  1
  Mg  Mg6  1  0.50000000  0.74811172  0.50000000  1
  Mg  Mg7  1  0.24774416  0.00000000  0.50000000  1
  Mg  Mg8  1  0.24419772  0.50000000  0.50000000  1
  Mg  Mg9  1  0.75225584  0.00000000  0.50000000  1
  Mg  Mg10  1  0.75580228  0.50000000  0.50000000  1
  Mg  Mg11  1  0.24727190  0.25477588  0.00000000  1
  Mg  Mg12  1  0.24727190  0.74522412  0.00000000  1
  Mg  Mg13  1  0.75272810  0.25477588  0.00000000  1
  Mg  Mg14  1  0.75272810  0.74522412  0.00000000  1
  Co  Co15  1  0.00000000  0.00000000  0.00000000  1
  O  O16  1  0.23756791  0.00000000  0.00000000  1
  O  O17  1  0.25412455  0.50000000  0.00000000  1
  O  O18  1  0.76243209  0.00000000  0.00000000  1
  O  O19  1  0.74587545  0.50000000  0.00000000  1
  O  O20  1  0.24878695  0.24811679  0.50000000  1
  O  O21  1  0.24878695  0.75188321  0.50000000  1
  O  O22  1  0.75121305  0.24811679  0.50000000  1
  O  O23  1  0.75121305  0.75188321  0.50000000  1
  O  O24  1  0.00000000  0.00000000  0.50000000  1
  O  O25  1  0.00000000  0.50000000  0.50000000  1
  O  O26  1  0.50000000  0.00000000  0.50000000  1
  O  O27  1  0.50000000  0.50000000  0.50000000  1
  O  O28  1  0.00000000  0.22837328  0.00000000  1
  O  O29  1  0.00000000  0.77162672  0.00000000  1
  O  O30  1  0.50000000  0.24463293  0.00000000  1
  O  O31  1  0.50000000  0.75536707  0.00000000  1
