# generated using pymatgen
data_BaFe2(P2O7)2
_symmetry_space_group_name_H-M   'P 1'
_cell_length_a   6.16075810
_cell_length_b   6.24323992
_cell_length_c   7.86495574
_cell_angle_alpha   96.33688942
_cell_angle_beta   101.15655308
_cell_angle_gamma   105.59995191
_symmetry_Int_Tables_number   1
_chemical_formula_structural   BaFe2(P2O7)2
_chemical_formula_sum   'Ba1 Fe2 P4 O14'
_cell_volume   281.60710697
_cell_formula_units_Z   1
loop_
 _symmetry_equiv_pos_site_id
 _symmetry_equiv_pos_as_xyz
  1  'x, y, z'
loop_
 _atom_site_type_symbol
 _atom_site_label
 _atom_site_symmetry_multiplicity
 _atom_site_fract_x
 _atom_site_fract_y
 _atom_site_fract_z
 _atom_site_occupancy
  Ba  Ba0  1  -0.00000000  -0.00000000  0.00000000  1
  Fe  Fe1  1  0.37593405  0.69455788  0.22833035  1
  Fe  Fe2  1  0.62406595  0.30544212  0.77166965  1
  P  P3  1  0.51974269  0.75315212  0.66444738  1
  P  P4  1  0.48025731  0.24684788  0.33555262  1
  P  P5  1  0.81626328  0.53255454  0.19193362  1
  P  P6  1  0.18373672  0.46744546  0.80806638  1
  O  O7  1  0.53063697  0.76752537  0.47782913  1
  O  O8  1  0.46936303  0.23247463  0.52217087  1
  O  O9  1  0.56667606  0.97908449  0.78085224  1
  O  O10  1  0.43332394  0.02091551  0.21914776  1
  O  O11  1  0.68633936  0.63709277  0.75721063  1
  O  O12  1  0.31366064  0.36290723  0.24278937  1
  O  O13  1  0.26207971  0.60289874  0.65869002  1
  O  O14  1  0.73792029  0.39710126  0.34130998  1
  O  O15  1  0.06343969  0.67709878  0.26632277  1
  O  O16  1  0.93656031  0.32290122  0.73367723  1
  O  O17  1  0.21337638  0.64411138  0.96648587  1
  O  O18  1  0.78662362  0.35588862  0.03351413  1
  O  O19  1  0.66687994  0.68833960  0.15448199  1
  O  O20  1  0.33312006  0.31166040  0.84551801  1
