# generated using pymatgen
data_Mg14CrSiO16
_symmetry_space_group_name_H-M   'P 1'
_cell_length_a   8.70991509
_cell_length_b   8.54835075
_cell_length_c   4.28659001
_cell_angle_alpha   90.00000000
_cell_angle_beta   90.00000000
_cell_angle_gamma   90.00000000
_symmetry_Int_Tables_number   1
_chemical_formula_structural   Mg14CrSiO16
_chemical_formula_sum   'Mg14 Cr1 Si1 O16'
_cell_volume   319.15981323
_cell_formula_units_Z   1
loop_
 _symmetry_equiv_pos_site_id
 _symmetry_equiv_pos_as_xyz
  1  'x, y, z'
loop_
 _atom_site_type_symbol
 _atom_site_label
 _atom_site_symmetry_multiplicity
 _atom_site_fract_x
 _atom_site_fract_y
 _atom_site_fract_z
 _atom_site_occupancy
  Mg  Mg0  1  0.50000000  0.00000000  0.00000000  1
  Mg  Mg1  1  0.50000000  0.50000000  0.00000000  1
  Mg  Mg2  1  0.00000000  0.25173723  0.50000000  1
  Mg  Mg3  1  0.00000000  0.74826277  0.50000000  1
  Mg  Mg4  1  0.50000000  0.25046304  0.50000000  1
  Mg  Mg5  1  0.50000000  0.74953696  0.50000000  1
  Mg  Mg6  1  0.25395143  0.00000000  0.50000000  1
  Mg  Mg7  1  0.25363154  0.50000000  0.50000000  1
  Mg  Mg8  1  0.74604857  0.00000000  0.50000000  1
  Mg  Mg9  1  0.74636846  0.50000000  0.50000000  1
  Mg  Mg10  1  0.25412418  0.25186236  0.00000000  1
  Mg  Mg11  1  0.25412418  0.74813764  0.00000000  1
  Mg  Mg12  1  0.74587582  0.25186236  0.00000000  1
  Mg  Mg13  1  0.74587582  0.74813764  0.00000000  1
  Cr  Cr14  1  0.00000000  0.50000000  0.00000000  1
  Si  Si15  1  0.00000000  0.00000000  0.00000000  1
  O  O16  1  0.26107972  0.00000000  0.00000000  1
  O  O17  1  0.26518341  0.50000000  0.00000000  1
  O  O18  1  0.73892028  0.00000000  0.00000000  1
  O  O19  1  0.73481659  0.50000000  0.00000000  1
  O  O20  1  0.24834529  0.24949122  0.50000000  1
  O  O21  1  0.24834529  0.75050878  0.50000000  1
  O  O22  1  0.75165471  0.24949122  0.50000000  1
  O  O23  1  0.75165471  0.75050878  0.50000000  1
  O  O24  1  0.00000000  0.00000000  0.50000000  1
  O  O25  1  0.00000000  0.50000000  0.50000000  1
  O  O26  1  0.50000000  0.00000000  0.50000000  1
  O  O27  1  0.50000000  0.50000000  0.50000000  1
  O  O28  1  0.00000000  0.25735620  0.00000000  1
  O  O29  1  0.00000000  0.74264380  0.00000000  1
  O  O30  1  0.50000000  0.24864177  0.00000000  1
  O  O31  1  0.50000000  0.75135823  0.00000000  1
