# generated using pymatgen
data_AsRhS
_symmetry_space_group_name_H-M   'P 1'
_cell_length_a   5.80635051
_cell_length_b   5.80635051
_cell_length_c   5.80635051
_cell_angle_alpha   90.00000000
_cell_angle_beta   90.00000000
_cell_angle_gamma   90.00000000
_symmetry_Int_Tables_number   1
_chemical_formula_structural   AsRhS
_chemical_formula_sum   'As4 Rh4 S4'
_cell_volume   195.75359545
_cell_formula_units_Z   4
loop_
 _symmetry_equiv_pos_site_id
 _symmetry_equiv_pos_as_xyz
  1  'x, y, z'
loop_
 _atom_site_type_symbol
 _atom_site_label
 _atom_site_symmetry_multiplicity
 _atom_site_fract_x
 _atom_site_fract_y
 _atom_site_fract_z
 _atom_site_occupancy
  As  As0  1  0.11533530  0.88466470  0.38466470  1
  As  As1  1  0.88466470  0.38466470  0.11533530  1
  As  As2  1  0.38466470  0.11533530  0.88466470  1
  As  As3  1  0.61533530  0.61533530  0.61533530  1
  Rh  Rh4  1  0.49764154  0.50235846  0.00235846  1
  Rh  Rh5  1  0.50235846  0.00235846  0.49764154  1
  Rh  Rh6  1  0.00235846  0.49764154  0.50235846  1
  Rh  Rh7  1  0.99764154  0.99764154  0.99764154  1
  S  S8  1  0.88701934  0.11298066  0.61298066  1
  S  S9  1  0.11298066  0.61298066  0.88701934  1
  S  S10  1  0.61298066  0.88701934  0.11298066  1
  S  S11  1  0.38701934  0.38701934  0.38701934  1
