# generated using pymatgen
data_SmZr6(PO4)9
_symmetry_space_group_name_H-M   'P 1'
_cell_length_a   8.93139156
_cell_length_b   8.93139156
_cell_length_c   23.17709403
_cell_angle_alpha   90.00000000
_cell_angle_beta   90.00000000
_cell_angle_gamma   120.00000102
_symmetry_Int_Tables_number   1
_chemical_formula_structural   SmZr6(PO4)9
_chemical_formula_sum   'Sm2 Zr12 P18 O72'
_cell_volume   1601.13469735
_cell_formula_units_Z   2
loop_
 _symmetry_equiv_pos_site_id
 _symmetry_equiv_pos_as_xyz
  1  'x, y, z'
loop_
 _atom_site_type_symbol
 _atom_site_label
 _atom_site_symmetry_multiplicity
 _atom_site_fract_x
 _atom_site_fract_y
 _atom_site_fract_z
 _atom_site_occupancy
  Sm  Sm0  1  0.00000000  0.00000000  -0.00000000  1
  Sm  Sm1  1  0.00000000  0.00000000  0.50000000  1
  Zr  Zr2  1  0.66666700  0.33333300  0.97336898  1
  Zr  Zr3  1  0.33333300  0.66666700  0.02663102  1
  Zr  Zr4  1  0.33333300  0.66666700  0.52663102  1
  Zr  Zr5  1  0.66666700  0.33333300  0.47336898  1
  Zr  Zr6  1  0.00000000  0.00000000  0.84987124  1
  Zr  Zr7  1  0.00000000  0.00000000  0.15012876  1
  Zr  Zr8  1  0.00000000  0.00000000  0.65012876  1
  Zr  Zr9  1  0.00000000  0.00000000  0.34987124  1
  Zr  Zr10  1  0.66666700  0.33333300  0.68691331  1
  Zr  Zr11  1  0.33333300  0.66666700  0.31308669  1
  Zr  Zr12  1  0.33333300  0.66666700  0.81308669  1
  Zr  Zr13  1  0.66666700  0.33333300  0.18691331  1
  P  P14  1  0.62605349  0.94680535  0.92067325  1
  P  P15  1  0.37394651  0.05319465  0.07932675  1
  P  P16  1  0.32075187  0.37394651  0.92067325  1
  P  P17  1  0.67924813  0.05319465  0.57932675  1
  P  P18  1  0.67924813  0.62605349  0.07932675  1
  P  P19  1  0.32075187  0.94680535  0.42067325  1
  P  P20  1  0.05319465  0.67924813  0.92067325  1
  P  P21  1  0.94680535  0.62605349  0.57932675  1
  P  P22  1  0.94680535  0.32075187  0.07932675  1
  P  P23  1  0.05319465  0.37394651  0.42067325  1
  P  P24  1  0.37394651  0.32075187  0.57932675  1
  P  P25  1  0.62605349  0.67924813  0.42067325  1
  P  P26  1  0.70776015  0.70776015  0.75000000  1
  P  P27  1  0.29223985  0.29223985  0.25000000  1
  P  P28  1  0.00000000  0.29223985  0.75000000  1
  P  P29  1  1.00000000  0.70776015  0.25000000  1
  P  P30  1  0.29223985  0.00000000  0.75000000  1
  P  P31  1  0.70776015  1.00000000  0.25000000  1
  O  O32  1  0.54697764  0.82724612  0.97306213  1
  O  O33  1  0.45302236  0.17275388  0.02693787  1
  O  O34  1  0.28026848  0.45302236  0.97306213  1
  O  O35  1  0.71973152  0.17275388  0.52693787  1
  O  O36  1  0.71973152  0.54697764  0.02693787  1
  O  O37  1  0.28026848  0.82724612  0.47306213  1
  O  O38  1  0.17275388  0.71973152  0.97306213  1
  O  O39  1  0.82724612  0.54697764  0.52693787  1
  O  O40  1  0.82724612  0.28026848  0.02693787  1
  O  O41  1  0.17275388  0.45302236  0.47306213  1
  O  O42  1  0.45302236  0.28026848  0.52693787  1
  O  O43  1  0.54697764  0.71973152  0.47306213  1
  O  O44  1  0.62297908  0.11630745  0.92719589  1
  O  O45  1  0.37702092  0.88369255  0.07280411  1
  O  O46  1  0.49332837  0.37702092  0.92719589  1
  O  O47  1  0.50667163  0.88369255  0.57280411  1
  O  O48  1  0.50667163  0.62297908  0.07280411  1
  O  O49  1  0.49332837  0.11630745  0.42719589  1
  O  O50  1  0.88369255  0.50667163  0.92719589  1
  O  O51  1  0.11630745  0.62297908  0.57280411  1
  O  O52  1  0.11630745  0.49332837  0.07280411  1
  O  O53  1  0.88369255  0.37702092  0.42719589  1
  O  O54  1  0.37702092  0.49332837  0.57280411  1
  O  O55  1  0.62297908  0.50667163  0.42719589  1
  O  O56  1  0.82252545  0.99314001  0.91951849  1
  O  O57  1  0.17747455  0.00685999  0.08048151  1
  O  O58  1  0.17061456  0.17747455  0.91951849  1
  O  O59  1  0.82938544  0.00685999  0.58048151  1
  O  O60  1  0.82938544  0.82252545  0.08048151  1
  O  O61  1  0.17061456  0.99314001  0.41951849  1
  O  O62  1  0.00685999  0.82938544  0.91951849  1
  O  O63  1  0.99314001  0.82252545  0.58048151  1
  O  O64  1  0.99314001  0.17061456  0.08048151  1
  O  O65  1  0.00685999  0.17747455  0.41951849  1
  O  O66  1  0.17747455  0.17061456  0.58048151  1
  O  O67  1  0.82252545  0.82938544  0.41951849  1
  O  O68  1  0.96908946  0.17428029  0.80360708  1
  O  O69  1  0.03091054  0.82571971  0.19639292  1
  O  O70  1  0.20519083  0.03091054  0.80360708  1
  O  O71  1  0.79480917  0.82571971  0.69639292  1
  O  O72  1  0.79480917  0.96908946  0.19639292  1
  O  O73  1  0.20519083  0.17428029  0.30360708  1
  O  O74  1  0.82571971  0.79480917  0.80360708  1
  O  O75  1  0.17428029  0.96908946  0.69639292  1
  O  O76  1  0.17428029  0.20519083  0.19639292  1
  O  O77  1  0.82571971  0.03091054  0.30360708  1
  O  O78  1  0.03091054  0.20519083  0.69639292  1
  O  O79  1  0.96908946  0.79480917  0.30360708  1
  O  O80  1  0.53543202  0.85593034  0.86463576  1
  O  O81  1  0.46456798  0.14406966  0.13536424  1
  O  O82  1  0.32049832  0.46456798  0.86463576  1
  O  O83  1  0.67950168  0.14406966  0.63536424  1
  O  O84  1  0.67950168  0.53543202  0.13536424  1
  O  O85  1  0.32049832  0.85593034  0.36463576  1
  O  O86  1  0.14406966  0.67950168  0.86463576  1
  O  O87  1  0.85593034  0.53543202  0.63536424  1
  O  O88  1  0.85593034  0.32049832  0.13536424  1
  O  O89  1  0.14406966  0.46456798  0.36463576  1
  O  O90  1  0.46456798  0.32049832  0.63536424  1
  O  O91  1  0.53543202  0.67950168  0.36463576  1
  O  O92  1  0.53171741  0.69077771  0.76036784  1
  O  O93  1  0.46828259  0.30922229  0.23963216  1
  O  O94  1  0.15906030  0.46828259  0.76036784  1
  O  O95  1  0.84093970  0.30922229  0.73963216  1
  O  O96  1  0.84093970  0.53171741  0.23963216  1
  O  O97  1  0.15906030  0.69077771  0.26036784  1
  O  O98  1  0.30922229  0.84093970  0.76036784  1
  O  O99  1  0.69077771  0.53171741  0.73963216  1
  O  O100  1  0.69077771  0.15906030  0.23963216  1
  O  O101  1  0.30922229  0.46828259  0.26036784  1
  O  O102  1  0.46828259  0.15906030  0.73963216  1
  O  O103  1  0.53171741  0.84093970  0.26036784  1
