# generated using pymatgen
data_Rb3H12N5
_symmetry_space_group_name_H-M   'P 1'
_cell_length_a   8.60321292
_cell_length_b   8.60288410
_cell_length_c   8.60287099
_cell_angle_alpha   109.46938659
_cell_angle_beta   109.47094495
_cell_angle_gamma   109.47218449
_symmetry_Int_Tables_number   1
_chemical_formula_structural   Rb3H12N5
_chemical_formula_sum   'Rb6 H24 N10'
_cell_volume   490.15383442
_cell_formula_units_Z   2
loop_
 _symmetry_equiv_pos_site_id
 _symmetry_equiv_pos_as_xyz
  1  'x, y, z'
loop_
 _atom_site_type_symbol
 _atom_site_label
 _atom_site_symmetry_multiplicity
 _atom_site_fract_x
 _atom_site_fract_y
 _atom_site_fract_z
 _atom_site_occupancy
  Rb  Rb0  1  0.74999957  0.83041488  0.08041284  1
  Rb  Rb1  1  0.66959179  0.41960133  0.25000102  1
  Rb  Rb2  1  0.41959880  0.25000543  0.66960915  1
  Rb  Rb3  1  0.24999984  0.66960058  0.41959587  1
  Rb  Rb4  1  0.08040346  0.75000601  0.83040408  1
  Rb  Rb5  1  0.83040821  0.08041366  0.75000790  1
  H  H6  1  0.46559412  0.63694143  0.20319025  1
  H  H7  1  0.26240893  0.29676563  0.93375777  1
  H  H8  1  0.32864976  0.56624701  0.86299146  1
  H  H9  1  0.93374536  0.26241086  0.29673894  1
  H  H10  1  0.86302712  0.32864410  0.56623557  1
  H  H11  1  0.20315151  0.46556791  0.63692323  1
  H  H12  1  0.56625780  0.86301294  0.32866396  1
  H  H13  1  0.63696883  0.20320260  0.46561192  1
  H  H14  1  0.29682937  0.93377193  0.26241448  1
  H  H15  1  0.03442172  0.23759561  0.17134118  1
  H  H16  1  0.23758556  0.17134311  0.03440574  1
  H  H17  1  0.17135038  0.03436589  0.23759839  1
  H  H18  1  0.82227278  0.44368029  0.86342825  1
  H  H19  1  0.95886373  0.63659195  0.08025774  1
  H  H20  1  0.87861336  0.41976312  0.05633340  1
  H  H21  1  0.08023707  0.95886247  0.63659030  1
  H  H22  1  0.05632483  0.87860368  0.41976365  1
  H  H23  1  0.86341234  0.82228500  0.44367416  1
  H  H24  1  0.41975743  0.05635663  0.87863874  1
  H  H25  1  0.44367609  0.86344632  0.82227287  1
  H  H26  1  0.63658360  0.08026313  0.95886253  1
  H  H27  1  0.67772799  0.54115641  0.62141097  1
  H  H28  1  0.54112699  0.62138681  0.67772242  1
  H  H29  1  0.62139818  0.67772784  0.54116381  1
  N  N30  1  0.58091188  0.74997920  0.33089729  1
  N  N31  1  0.24999893  0.16906750  0.91910896  1
  N  N32  1  0.33087554  0.58088588  0.74995111  1
  N  N33  1  0.91910301  0.24999007  0.16905155  1
  N  N34  1  0.75000079  0.33090828  0.58090571  1
  N  N35  1  0.16911799  0.91909120  0.25001993  1
  N  N36  1  0.84342846  0.50001338  0.00001096  1
  N  N37  1  0.00000017  0.84343733  0.50000629  1
  N  N38  1  0.50000361  0.00000757  0.84343612  1
  N  N39  1  0.65657611  0.65658503  0.65658653  1
