# generated using pymatgen
data_Ca5(TiN3)2
_symmetry_space_group_name_H-M   'P 1'
_cell_length_a   6.10657579
_cell_length_b   6.55391325
_cell_length_c   12.89618820
_cell_angle_alpha   90.00000041
_cell_angle_beta   101.44650745
_cell_angle_gamma   122.45435244
_symmetry_Int_Tables_number   1
_chemical_formula_structural   Ca5(TiN3)2
_chemical_formula_sum   'Ca10 Ti4 N12'
_cell_volume   423.30511411
_cell_formula_units_Z   2
loop_
 _symmetry_equiv_pos_site_id
 _symmetry_equiv_pos_as_xyz
  1  'x, y, z'
loop_
 _atom_site_type_symbol
 _atom_site_label
 _atom_site_symmetry_multiplicity
 _atom_site_fract_x
 _atom_site_fract_y
 _atom_site_fract_z
 _atom_site_occupancy
  Ca  Ca0  1  0.05613924  0.77284026  0.00733459  1
  Ca  Ca1  1  0.94386076  0.71670103  0.49266541  1
  Ca  Ca2  1  0.94386076  0.22715974  0.99266541  1
  Ca  Ca3  1  0.05613924  0.28329897  0.50733459  1
  Ca  Ca4  1  0.31309764  0.00886702  0.72567284  1
  Ca  Ca5  1  0.68690236  0.69576938  0.77432716  1
  Ca  Ca6  1  0.68690236  0.99113298  0.27432716  1
  Ca  Ca7  1  0.31309764  0.30423062  0.22567284  1
  Ca  Ca8  1  0.00000000  0.34208503  0.75000000  1
  Ca  Ca9  1  0.00000000  0.65791497  0.25000000  1
  Ti  Ti10  1  0.54875819  0.86386425  0.56843729  1
  Ti  Ti11  1  0.45124181  0.31510606  0.93156271  1
  Ti  Ti12  1  0.45124181  0.13613575  0.43156271  1
  Ti  Ti13  1  0.54875819  0.68489394  0.06843729  1
  N  N14  1  0.90049406  0.93991739  0.62378675  1
  N  N15  1  0.09950594  0.03942333  0.87621325  1
  N  N16  1  0.09950594  0.06008261  0.37621325  1
  N  N17  1  0.90049406  0.96057667  0.12378675  1
  N  N18  1  0.28485659  0.64281540  0.64257691  1
  N  N19  1  0.71514341  0.35795881  0.85742309  1
  N  N20  1  0.71514341  0.35718460  0.35742309  1
  N  N21  1  0.28485659  0.64204119  0.14257691  1
  N  N22  1  0.57961913  0.17329496  0.58614610  1
  N  N23  1  0.42038087  0.59367583  0.91385390  1
  N  N24  1  0.42038087  0.82670504  0.41385390  1
  N  N25  1  0.57961913  0.40632417  0.08614610  1
