# generated using pymatgen
data_RbV3O8
_symmetry_space_group_name_H-M   'P 1'
_cell_length_a   8.41689799
_cell_length_b   5.00654176
_cell_length_c   7.90686964
_cell_angle_alpha   83.05610050
_cell_angle_beta   90.00000000
_cell_angle_gamma   90.00000000
_symmetry_Int_Tables_number   1
_chemical_formula_structural   RbV3O8
_chemical_formula_sum   'Rb2 V6 O16'
_cell_volume   330.74797674
_cell_formula_units_Z   2
loop_
 _symmetry_equiv_pos_site_id
 _symmetry_equiv_pos_as_xyz
  1  'x, y, z'
loop_
 _atom_site_type_symbol
 _atom_site_label
 _atom_site_symmetry_multiplicity
 _atom_site_fract_x
 _atom_site_fract_y
 _atom_site_fract_z
 _atom_site_occupancy
  Rb  Rb0  1  0.25000000  0.06296582  0.06434598  1
  Rb  Rb1  1  0.75000000  0.93703418  0.93565402  1
  V  V2  1  0.55407341  0.43913539  0.31807463  1
  V  V3  1  0.05407341  0.56086461  0.68192537  1
  V  V4  1  0.44592659  0.56086461  0.68192537  1
  V  V5  1  0.94592659  0.43913539  0.31807463  1
  V  V6  1  0.25000000  0.07435967  0.57409951  1
  V  V7  1  0.75000000  0.92564033  0.42590049  1
  O  O8  1  0.59974915  0.11309388  0.27235761  1
  O  O9  1  0.09974915  0.88690612  0.72764239  1
  O  O10  1  0.40025085  0.88690612  0.72764239  1
  O  O11  1  0.90025085  0.11309388  0.27235761  1
  O  O12  1  0.56498814  0.43149556  0.82913261  1
  O  O13  1  0.06498814  0.56850444  0.17086739  1
  O  O14  1  0.43501186  0.56850444  0.17086739  1
  O  O15  1  0.93501186  0.43149556  0.82913261  1
  O  O16  1  0.75000000  0.12177368  0.57292424  1
  O  O17  1  0.25000000  0.87822632  0.42707576  1
  O  O18  1  0.75000000  0.58255514  0.24780851  1
  O  O19  1  0.25000000  0.41744486  0.75219149  1
  O  O20  1  0.91234516  0.68293985  0.49478523  1
  O  O21  1  0.41234516  0.31706015  0.50521477  1
  O  O22  1  0.08765484  0.31706015  0.50521477  1
  O  O23  1  0.58765484  0.68293985  0.49478523  1
