# generated using pymatgen
data_Ba6Mg(P2O7)3
_symmetry_space_group_name_H-M   'P 1'
_cell_length_a   7.25522500
_cell_length_b   9.76093659
_cell_length_c   9.36563259
_cell_angle_alpha   118.66832591
_cell_angle_beta   90.00000000
_cell_angle_gamma   90.00000000
_symmetry_Int_Tables_number   1
_chemical_formula_structural   Ba6Mg(P2O7)3
_chemical_formula_sum   'Ba6 Mg1 P6 O21'
_cell_volume   581.94617530
_cell_formula_units_Z   1
loop_
 _symmetry_equiv_pos_site_id
 _symmetry_equiv_pos_as_xyz
  1  'x, y, z'
loop_
 _atom_site_type_symbol
 _atom_site_label
 _atom_site_symmetry_multiplicity
 _atom_site_fract_x
 _atom_site_fract_y
 _atom_site_fract_z
 _atom_site_occupancy
  Ba  Ba0  1  0.50000000  0.38802990  0.38267813  1
  Ba  Ba1  1  0.50000000  0.99995298  0.58200730  1
  Ba  Ba2  1  0.50000000  0.61196580  0.99463399  1
  Ba  Ba3  1  0.00000000  0.31394247  0.03613133  1
  Ba  Ba4  1  0.00000000  0.68606938  0.72222320  1
  Ba  Ba5  1  0.00000000  0.00000056  0.29502215  1
  Mg  Mg6  1  0.00000000  0.99998956  0.67242410  1
  P  P7  1  0.21848709  0.66061764  0.32260176  1
  P  P8  1  0.78151291  0.66061764  0.32260176  1
  P  P9  1  0.21849990  0.33942689  0.66195876  1
  P  P10  1  0.78150010  0.33942689  0.66195876  1
  P  P11  1  0.28583934  0.99998031  0.98661160  1
  P  P12  1  0.71416066  0.99998031  0.98661160  1
  O  O13  1  0.29597644  0.50460490  0.18968143  1
  O  O14  1  0.23826181  0.67407109  0.49108861  1
  O  O15  1  0.29047248  0.80024765  0.30647648  1
  O  O16  1  0.70402356  0.50460490  0.18968143  1
  O  O17  1  0.76173819  0.67407109  0.49108861  1
  O  O18  1  0.70952752  0.80024765  0.30647648  1
  O  O19  1  0.23829001  0.32608249  0.81705218  1
  O  O20  1  0.29048322  0.19974169  0.50625576  1
  O  O21  1  0.29598855  0.49540074  0.68495329  1
  O  O22  1  0.76170999  0.32608249  0.81705218  1
  O  O23  1  0.70951678  0.19974169  0.50625576  1
  O  O24  1  0.70401145  0.49540074  0.68495329  1
  O  O25  1  0.24568950  0.85034917  0.99632530  1
  O  O26  1  0.24567475  0.14957278  0.14598435  1
  O  O27  1  0.19075972  0.00001551  0.83915953  1
  O  O28  1  0.75431050  0.85034917  0.99632530  1
  O  O29  1  0.75432525  0.14957278  0.14598435  1
  O  O30  1  0.80924028  0.00001551  0.83915953  1
  O  O31  1  0.00000000  0.35574137  0.62377201  1
  O  O32  1  0.00000000  0.64428723  0.26809455  1
  O  O33  1  0.50000000  0.99999908  0.93688813  1
