# generated using pymatgen
data_MgTl2Pb16(Br9O4)2
_symmetry_space_group_name_H-M   'P 1'
_cell_length_a   8.48296736
_cell_length_b   12.60176692
_cell_length_c   12.80211276
_cell_angle_alpha   90.38755270
_cell_angle_beta   88.37155075
_cell_angle_gamma   89.56675584
_symmetry_Int_Tables_number   1
_chemical_formula_structural   MgTl2Pb16(Br9O4)2
_chemical_formula_sum   'Mg1 Tl2 Pb16 Br18 O8'
_cell_volume   1367.92551661
_cell_formula_units_Z   1
loop_
 _symmetry_equiv_pos_site_id
 _symmetry_equiv_pos_as_xyz
  1  'x, y, z'
loop_
 _atom_site_type_symbol
 _atom_site_label
 _atom_site_symmetry_multiplicity
 _atom_site_fract_x
 _atom_site_fract_y
 _atom_site_fract_z
 _atom_site_occupancy
  Mg  Mg0  1  0.80927980  0.36398797  0.90656745  1
  Tl  Tl1  1  0.66188866  0.75682200  0.74912175  1
  Tl  Tl2  1  0.33023419  0.25325517  0.24847156  1
  Pb  Pb3  1  0.87471063  0.28526059  0.11346343  1
  Pb  Pb4  1  0.35527164  0.18695991  0.61062641  1
  Pb  Pb5  1  0.18850734  0.67113172  0.01881313  1
  Pb  Pb6  1  0.62664233  0.39303473  0.66733579  1
  Pb  Pb7  1  0.65375380  0.12862692  0.79748507  1
  Pb  Pb8  1  0.64316067  0.80584822  0.38290078  1
  Pb  Pb9  1  0.17131737  0.83263971  0.47556747  1
  Pb  Pb10  1  0.82244335  0.97903950  0.16404076  1
  Pb  Pb11  1  0.36283630  0.61050050  0.30129490  1
  Pb  Pb12  1  0.16589063  0.47946568  0.64960663  1
  Pb  Pb13  1  0.81889420  0.16211925  0.50445012  1
  Pb  Pb14  1  0.35811060  0.88527625  0.19543252  1
  Pb  Pb15  1  0.35491368  0.31725184  0.87332462  1
  Pb  Pb16  1  0.18723315  0.02265318  0.83503892  1
  Pb  Pb17  1  0.65450266  0.69133299  0.11360424  1
  Pb  Pb18  1  0.82594078  0.51764622  0.33081202  1
  Br  Br19  1  0.89089095  0.86691599  0.96194593  1
  Br  Br20  1  0.14269418  0.12735767  0.04481008  1
  Br  Br21  1  0.11590131  0.46813263  0.13498428  1
  Br  Br22  1  0.58463283  0.43746377  0.12833287  1
  Br  Br23  1  0.39791720  0.57246372  0.85913395  1
  Br  Br24  1  0.39624038  0.62689319  0.55872914  1
  Br  Br25  1  0.11028378  0.36157336  0.45502430  1
  Br  Br26  1  0.11833839  0.03554615  0.36725486  1
  Br  Br27  1  0.59227214  0.06619497  0.36691282  1
  Br  Br28  1  0.00344247  0.75406854  0.24917094  1
  Br  Br29  1  0.87243271  0.96514830  0.62646562  1
  Br  Br30  1  0.38127256  0.92750084  0.63102894  1
  Br  Br31  1  0.89220758  0.55163432  0.84977326  1
  Br  Br32  1  0.59804136  0.36747935  0.42160243  1
  Br  Br33  1  0.39949016  0.87270630  0.93204126  1
  Br  Br34  1  0.87988971  0.63099667  0.53114624  1
  Br  Br35  1  0.60452372  0.12452134  0.06105948  1
  Br  Br36  1  0.99436499  0.25723216  0.75202453  1
  O  O37  1  0.62558940  0.20579375  0.62967102  1
  O  O38  1  0.37640439  0.14563820  0.79113103  1
  O  O39  1  0.38044666  0.70286604  0.13905664  1
  O  O40  1  0.63340126  0.64229250  0.29376381  1
  O  O41  1  0.63018931  0.85633239  0.20258281  1
  O  O42  1  0.36232801  0.35882683  0.68998111  1
  O  O43  1  0.62234431  0.31181920  0.83654485  1
  O  O44  1  0.37267847  0.79474950  0.35516225  1
