# generated using pymatgen
data_CaSc4(FeO3)4
_symmetry_space_group_name_H-M   'P 1'
_cell_length_a   5.17266290
_cell_length_b   5.45789172
_cell_length_c   8.99952003
_cell_angle_alpha   87.07920150
_cell_angle_beta   92.87399881
_cell_angle_gamma   92.49237336
_symmetry_Int_Tables_number   1
_chemical_formula_structural   CaSc4(FeO3)4
_chemical_formula_sum   'Ca1 Sc4 Fe4 O12'
_cell_volume   253.21027122
_cell_formula_units_Z   1
loop_
 _symmetry_equiv_pos_site_id
 _symmetry_equiv_pos_as_xyz
  1  'x, y, z'
loop_
 _atom_site_type_symbol
 _atom_site_label
 _atom_site_symmetry_multiplicity
 _atom_site_fract_x
 _atom_site_fract_y
 _atom_site_fract_z
 _atom_site_occupancy
  Ca  Ca0  1  0.38398700  0.17515600  0.08964400  1
  Sc  Sc1  1  0.00047900  0.92911100  0.69898100  1
  Sc  Sc2  1  0.43730100  0.40051800  0.74781700  1
  Sc  Sc3  1  0.56826400  0.61895600  0.27325200  1
  Sc  Sc4  1  0.92778500  0.10580800  0.28325200  1
  Fe  Fe5  1  0.96529700  0.59706800  0.01167800  1
  Fe  Fe6  1  0.05574200  0.52248800  0.46597800  1
  Fe  Fe7  1  0.53053200  0.84627600  0.87787100  1
  Fe  Fe8  1  0.48403700  0.02790500  0.50126100  1
  O  O9  1  0.20783900  0.43441300  0.28260700  1
  O  O10  1  0.19763900  0.22404500  0.57323500  1
  O  O11  1  0.22127100  0.05869000  0.86718900  1
  O  O12  1  0.28638900  0.70982400  0.60640000  1
  O  O13  1  0.31912700  0.53957100  0.94289700  1
  O  O14  1  0.31000800  0.93930000  0.30827500  1
  O  O15  1  0.65809600  0.09989800  0.70659900  1
  O  O16  1  0.74905400  0.37184200  0.14027800  1
  O  O17  1  0.72131800  0.32428700  0.42471000  1
  O  O18  1  0.74583900  0.87193600  0.11704100  1
  O  O19  1  0.80130100  0.81853700  0.43917000  1
  O  O20  1  0.79119400  0.62187100  0.79186700  1
