# generated using pymatgen
data_KSbO3
_symmetry_space_group_name_H-M   'P 1'
_cell_length_a   9.59970638
_cell_length_b   9.59970638
_cell_length_c   9.59970638
_cell_angle_alpha   90.00000000
_cell_angle_beta   90.00000000
_cell_angle_gamma   90.00000000
_symmetry_Int_Tables_number   1
_chemical_formula_structural   KSbO3
_chemical_formula_sum   'K12 Sb12 O36'
_cell_volume   884.65482243
_cell_formula_units_Z   12
loop_
 _symmetry_equiv_pos_site_id
 _symmetry_equiv_pos_as_xyz
  1  'x, y, z'
loop_
 _atom_site_type_symbol
 _atom_site_label
 _atom_site_symmetry_multiplicity
 _atom_site_fract_x
 _atom_site_fract_y
 _atom_site_fract_z
 _atom_site_occupancy
  K  K0  1  0.00000000  0.00000000  0.00000000  1
  K  K1  1  0.50000000  0.50000000  0.00000000  1
  K  K2  1  0.00000000  0.50000000  0.50000000  1
  K  K3  1  0.50000000  0.00000000  0.50000000  1
  K  K4  1  0.40328209  0.40328209  0.40328209  1
  K  K5  1  0.09671791  0.09671791  0.40328209  1
  K  K6  1  0.40328209  0.09671791  0.09671791  1
  K  K7  1  0.09671791  0.40328209  0.09671791  1
  K  K8  1  0.59671791  0.59671791  0.59671791  1
  K  K9  1  0.90328209  0.90328209  0.59671791  1
  K  K10  1  0.59671791  0.90328209  0.90328209  1
  K  K11  1  0.90328209  0.59671791  0.90328209  1
  Sb  Sb12  1  0.59245748  0.75000000  0.25000000  1
  Sb  Sb13  1  0.25000000  0.59245748  0.75000000  1
  Sb  Sb14  1  0.75000000  0.25000000  0.59245748  1
  Sb  Sb15  1  0.25000000  0.90754252  0.75000000  1
  Sb  Sb16  1  0.75000000  0.25000000  0.90754252  1
  Sb  Sb17  1  0.90754252  0.75000000  0.25000000  1
  Sb  Sb18  1  0.40754252  0.25000000  0.75000000  1
  Sb  Sb19  1  0.75000000  0.40754252  0.25000000  1
  Sb  Sb20  1  0.25000000  0.75000000  0.40754252  1
  Sb  Sb21  1  0.75000000  0.09245748  0.25000000  1
  Sb  Sb22  1  0.25000000  0.75000000  0.09245748  1
  Sb  Sb23  1  0.09245748  0.25000000  0.75000000  1
  O  O24  1  0.04052040  0.75335709  0.40596186  1
  O  O25  1  0.04052040  0.74664291  0.09403814  1
  O  O26  1  0.45947960  0.75335709  0.09403814  1
  O  O27  1  0.74664291  0.09403814  0.04052040  1
  O  O28  1  0.09403814  0.45947960  0.75335709  1
  O  O29  1  0.09403814  0.04052040  0.74664291  1
  O  O30  1  0.75335709  0.40596186  0.04052040  1
  O  O31  1  0.40596186  0.04052040  0.75335709  1
  O  O32  1  0.75335709  0.09403814  0.45947960  1
  O  O33  1  0.74664291  0.40596186  0.45947960  1
  O  O34  1  0.40596186  0.45947960  0.74664291  1
  O  O35  1  0.45947960  0.74664291  0.40596186  1
  O  O36  1  0.95947960  0.24664291  0.59403814  1
  O  O37  1  0.95947960  0.25335709  0.90596186  1
  O  O38  1  0.11188460  0.75000000  0.75000000  1
  O  O39  1  0.54052040  0.24664291  0.90596186  1
  O  O40  1  0.90596186  0.54052040  0.24664291  1
  O  O41  1  0.90596186  0.95947960  0.25335709  1
  O  O42  1  0.24664291  0.59403814  0.95947960  1
  O  O43  1  0.59403814  0.95947960  0.24664291  1
  O  O44  1  0.24664291  0.90596186  0.54052040  1
  O  O45  1  0.25335709  0.59403814  0.54052040  1
  O  O46  1  0.59403814  0.54052040  0.25335709  1
  O  O47  1  0.54052040  0.25335709  0.59403814  1
  O  O48  1  0.61188460  0.25000000  0.25000000  1
  O  O49  1  0.25000000  0.61188460  0.25000000  1
  O  O50  1  0.25000000  0.25000000  0.61188460  1
  O  O51  1  0.25000000  0.88811540  0.25000000  1
  O  O52  1  0.25000000  0.25000000  0.88811540  1
  O  O53  1  0.88811540  0.25000000  0.25000000  1
  O  O54  1  0.38811540  0.75000000  0.75000000  1
  O  O55  1  0.75000000  0.38811540  0.75000000  1
  O  O56  1  0.75000000  0.75000000  0.38811540  1
  O  O57  1  0.75000000  0.11188460  0.75000000  1
  O  O58  1  0.75000000  0.75000000  0.11188460  1
  O  O59  1  0.25335709  0.90596186  0.95947960  1
