# generated using pymatgen
data_Y2HfS5
_symmetry_space_group_name_H-M   'P 1'
_cell_length_a   7.25115172
_cell_length_b   7.72975322
_cell_length_c   11.52913282
_cell_angle_alpha   90.00000000
_cell_angle_beta   90.00000000
_cell_angle_gamma   90.00000000
_symmetry_Int_Tables_number   1
_chemical_formula_structural   Y2HfS5
_chemical_formula_sum   'Y8 Hf4 S20'
_cell_volume   646.20343690
_cell_formula_units_Z   4
loop_
 _symmetry_equiv_pos_site_id
 _symmetry_equiv_pos_as_xyz
  1  'x, y, z'
loop_
 _atom_site_type_symbol
 _atom_site_label
 _atom_site_symmetry_multiplicity
 _atom_site_fract_x
 _atom_site_fract_y
 _atom_site_fract_z
 _atom_site_occupancy
  Y  Y0  1  0.97803326  0.00248352  0.17876504  1
  Y  Y1  1  0.47803326  0.99751648  0.32123496  1
  Y  Y2  1  0.02196674  0.50248352  0.82123496  1
  Y  Y3  1  0.52196674  0.49751648  0.67876504  1
  Y  Y4  1  0.47803326  0.50248352  0.32123496  1
  Y  Y5  1  0.97803326  0.49751648  0.17876504  1
  Y  Y6  1  0.52196674  0.00248352  0.67876504  1
  Y  Y7  1  0.02196674  0.99751648  0.82123496  1
  Hf  Hf8  1  0.42491198  0.75000000  0.00549164  1
  Hf  Hf9  1  0.92491198  0.25000000  0.49450836  1
  Hf  Hf10  1  0.57508802  0.25000000  0.99450836  1
  Hf  Hf11  1  0.07508802  0.75000000  0.50549164  1
  S  S12  1  0.31117114  0.75000000  0.79332958  1
  S  S13  1  0.81117114  0.25000000  0.70667042  1
  S  S14  1  0.68882886  0.25000000  0.20667042  1
  S  S15  1  0.18882886  0.75000000  0.29332958  1
  S  S16  1  0.05374686  0.75000000  0.00362419  1
  S  S17  1  0.55374686  0.25000000  0.49637581  1
  S  S18  1  0.94625314  0.25000000  0.99637581  1
  S  S19  1  0.44625314  0.75000000  0.50362419  1
  S  S20  1  0.83326815  0.75000000  0.68068232  1
  S  S21  1  0.33326815  0.25000000  0.81931768  1
  S  S22  1  0.16673185  0.25000000  0.31931768  1
  S  S23  1  0.66673185  0.75000000  0.18068232  1
  S  S24  1  0.83982915  0.96422453  0.40712482  1
  S  S25  1  0.33982915  0.03577547  0.09287518  1
  S  S26  1  0.16017085  0.46422453  0.59287518  1
  S  S27  1  0.66017085  0.53577547  0.90712482  1
  S  S28  1  0.16017085  0.03577547  0.59287518  1
  S  S29  1  0.66017085  0.96422453  0.90712482  1
  S  S30  1  0.83982915  0.53577547  0.40712482  1
  S  S31  1  0.33982915  0.46422453  0.09287518  1
