# generated using pymatgen
data_Na11TiNb2Si4P2O25F
_symmetry_space_group_name_H-M   'P 1'
_cell_length_a   5.51439786
_cell_length_b   7.16920290
_cell_length_c   14.36366309
_cell_angle_alpha   92.45708414
_cell_angle_beta   95.43173833
_cell_angle_gamma   90.81169869
_symmetry_Int_Tables_number   1
_chemical_formula_structural   Na11TiNb2Si4P2O25F
_chemical_formula_sum   'Na11 Ti1 Nb2 Si4 P2 O25 F1'
_cell_volume   564.68633519
_cell_formula_units_Z   1
loop_
 _symmetry_equiv_pos_site_id
 _symmetry_equiv_pos_as_xyz
  1  'x, y, z'
loop_
 _atom_site_type_symbol
 _atom_site_label
 _atom_site_symmetry_multiplicity
 _atom_site_fract_x
 _atom_site_fract_y
 _atom_site_fract_z
 _atom_site_occupancy
  Na  Na0  1  0.48811806  0.73855243  0.49899131  1
  Na  Na1  1  0.49762112  0.26232837  0.49582696  1
  Na  Na2  1  0.75522520  0.76319846  0.91966764  1
  Na  Na3  1  0.24469455  0.23893618  0.07981176  1
  Na  Na4  1  0.81808761  0.52019884  0.09959510  1
  Na  Na5  1  0.18315803  0.48006219  0.90006602  1
  Na  Na6  1  0.28951177  0.50878072  0.26442077  1
  Na  Na7  1  0.70976014  0.49009832  0.73626408  1
  Na  Na8  1  0.80619642  0.99232195  0.13404261  1
  Na  Na9  1  0.19444290  0.00759776  0.86582656  1
  Na  Na10  1  0.99924436  0.00057904  0.50002332  1
  Ti  Ti11  1  0.97274323  0.50074310  0.50803985  1
  Nb  Nb12  1  0.30097182  0.99229962  0.28261274  1
  Nb  Nb13  1  0.70082207  0.00686123  0.71636360  1
  Si  Si14  1  0.79837940  0.70553576  0.31406046  1
  Si  Si15  1  0.20455507  0.29441098  0.68544121  1
  Si  Si16  1  0.18301493  0.71816421  0.69855018  1
  Si  Si17  1  0.82059213  0.28210685  0.30228680  1
  P  P18  1  0.31276399  0.75599448  0.06472616  1
  P  P19  1  0.68898910  0.24391676  0.93537388  1
  O  O20  1  0.58789155  0.75794586  0.05617335  1
  O  O21  1  0.41354112  0.24162002  0.94356304  1
  O  O22  1  0.84097171  0.69947263  0.42549223  1
  O  O23  1  0.16448645  0.30261999  0.57384201  1
  O  O24  1  0.17122871  0.77268871  0.96806975  1
  O  O25  1  0.82915820  0.22705755  0.03238708  1
  O  O26  1  0.25373943  0.93116771  0.12760235  1
  O  O27  1  0.75004669  0.06976720  0.87244518  1
  O  O28  1  0.53252495  0.78297328  0.28014587  1
  O  O29  1  0.46834881  0.21486786  0.72019605  1
  O  O30  1  0.94547868  0.79756644  0.74694825  1
  O  O31  1  0.05824038  0.20307323  0.25375608  1
  O  O32  1  0.23442942  0.57337609  0.10764089  1
  O  O33  1  0.76742626  0.42730424  0.89316133  1
  O  O34  1  0.79734911  0.49495063  0.26311862  1
  O  O35  1  0.20652383  0.50463363  0.73706576  1
  O  O36  1  0.67685870  0.98506347  0.59100360  1
  O  O37  1  0.32029226  0.01135239  0.40812771  1
  O  O38  1  0.43039124  0.82682113  0.74524886  1
  O  O39  1  0.57351447  0.17222323  0.25577136  1
  O  O40  1  0.00674390  0.82061874  0.26861447  1
  O  O41  1  0.99345880  0.17961333  0.72952471  1
  O  O42  1  0.16070979  0.70993553  0.58601913  1
  O  O43  1  0.84100399  0.29133555  0.41453244  1
  O  O44  1  0.73469545  0.49700652  0.57714230  1
  F  F45  1  0.27205614  0.50226181  0.42041459  1
