# generated using pymatgen
data_LiAs3H2O9
_symmetry_space_group_name_H-M   'P 1'
_cell_length_a   8.61600875
_cell_length_b   9.69244877
_cell_length_c   10.12068084
_cell_angle_alpha   60.11611940
_cell_angle_beta   90.00000000
_cell_angle_gamma   90.00000000
_symmetry_Int_Tables_number   1
_chemical_formula_structural   LiAs3H2O9
_chemical_formula_sum   'Li4 As12 H8 O36'
_cell_volume   732.80257134
_cell_formula_units_Z   4
loop_
 _symmetry_equiv_pos_site_id
 _symmetry_equiv_pos_as_xyz
  1  'x, y, z'
loop_
 _atom_site_type_symbol
 _atom_site_label
 _atom_site_symmetry_multiplicity
 _atom_site_fract_x
 _atom_site_fract_y
 _atom_site_fract_z
 _atom_site_occupancy
  Li  Li0  1  0.89354070  0.87924342  0.50391649  1
  Li  Li1  1  0.60645930  0.87924342  0.00391649  1
  Li  Li2  1  0.10645930  0.12075658  0.49608351  1
  Li  Li3  1  0.39354070  0.12075658  0.99608351  1
  As  As4  1  0.81973569  0.56973620  0.25170457  1
  As  As5  1  0.68026431  0.56973620  0.75170457  1
  As  As6  1  0.18026431  0.43026380  0.74829543  1
  As  As7  1  0.31973569  0.43026380  0.24829543  1
  As  As8  1  0.24025800  0.90470837  0.36019401  1
  As  As9  1  0.25974200  0.90470837  0.86019401  1
  As  As10  1  0.75974200  0.09529163  0.63980599  1
  As  As11  1  0.74025800  0.09529163  0.13980599  1
  As  As12  1  0.12160757  0.58111908  0.40628203  1
  As  As13  1  0.37839243  0.58111908  0.90628203  1
  As  As14  1  0.87839243  0.41888092  0.59371797  1
  As  As15  1  0.62160757  0.41888092  0.09371797  1
  H  H16  1  0.42117487  0.75557517  0.53667791  1
  H  H17  1  0.07882513  0.75557517  0.03667791  1
  H  H18  1  0.57882513  0.24442483  0.46332209  1
  H  H19  1  0.92117487  0.24442483  0.96332209  1
  H  H20  1  0.26225900  0.16664255  0.21219970  1
  H  H21  1  0.23774100  0.16664255  0.71219970  1
  H  H22  1  0.73774100  0.83335745  0.78780030  1
  H  H23  1  0.76225900  0.83335745  0.28780030  1
  O  O24  1  0.72380341  0.73775130  0.19092571  1
  O  O25  1  0.77619659  0.73775130  0.69092571  1
  O  O26  1  0.27619659  0.26224870  0.80907429  1
  O  O27  1  0.22380341  0.26224870  0.30907429  1
  O  O28  1  0.80012656  0.48142512  0.14213539  1
  O  O29  1  0.69987344  0.48142512  0.64213539  1
  O  O30  1  0.19987344  0.51857488  0.85786461  1
  O  O31  1  0.30012656  0.51857488  0.35786461  1
  O  O32  1  0.77323166  0.42070265  0.43345012  1
  O  O33  1  0.72676834  0.42070265  0.93345012  1
  O  O34  1  0.22676834  0.57929735  0.56654988  1
  O  O35  1  0.27323166  0.57929735  0.06654988  1
  O  O36  1  0.02072606  0.59352130  0.23745109  1
  O  O37  1  0.47927394  0.59352130  0.73745109  1
  O  O38  1  0.97927394  0.40647870  0.76254891  1
  O  O39  1  0.52072606  0.40647870  0.26254891  1
  O  O40  1  0.11516864  0.92977976  0.46925917  1
  O  O41  1  0.38483136  0.92977976  0.96925917  1
  O  O42  1  0.88483136  0.07022024  0.53074083  1
  O  O43  1  0.61516864  0.07022024  0.03074083  1
  O  O44  1  0.42431560  0.84747330  0.43301869  1
  O  O45  1  0.07568440  0.84747330  0.93301869  1
  O  O46  1  0.57568440  0.15252670  0.56698131  1
  O  O47  1  0.92431560  0.15252670  0.06698131  1
  O  O48  1  0.27967398  0.07694708  0.19132171  1
  O  O49  1  0.22032602  0.07694708  0.69132171  1
  O  O50  1  0.72032602  0.92305292  0.80867829  1
  O  O51  1  0.77967398  0.92305292  0.30867829  1
  O  O52  1  0.17210339  0.78816406  0.28740653  1
  O  O53  1  0.32789661  0.78816406  0.78740653  1
  O  O54  1  0.82789661  0.21183594  0.71259347  1
  O  O55  1  0.67210339  0.21183594  0.21259347  1
  O  O56  1  0.93855701  0.62507483  0.46945632  1
  O  O57  1  0.56144299  0.62507483  0.96945632  1
  O  O58  1  0.06144299  0.37492517  0.53054368  1
  O  O59  1  0.43855701  0.37492517  0.03054368  1
