# generated using pymatgen
data_Rb2Pr2Mg(WO4)4
_symmetry_space_group_name_H-M   'P 1'
_cell_length_a   7.92605197
_cell_length_b   7.92605197
_cell_length_c   7.59087730
_cell_angle_alpha   63.10044925
_cell_angle_beta   63.10044925
_cell_angle_gamma   93.83595243
_symmetry_Int_Tables_number   1
_chemical_formula_structural   Rb2Pr2Mg(WO4)4
_chemical_formula_sum   'Rb2 Pr2 Mg1 W4 O16'
_cell_volume   356.46471348
_cell_formula_units_Z   1
loop_
 _symmetry_equiv_pos_site_id
 _symmetry_equiv_pos_as_xyz
  1  'x, y, z'
loop_
 _atom_site_type_symbol
 _atom_site_label
 _atom_site_symmetry_multiplicity
 _atom_site_fract_x
 _atom_site_fract_y
 _atom_site_fract_z
 _atom_site_occupancy
  Rb  Rb0  1  0.77876700  0.22123300  0.75000000  1
  Rb  Rb1  1  0.25759100  0.74240900  0.25000000  1
  Pr  Pr2  1  0.23329900  0.76670100  0.75000000  1
  Pr  Pr3  1  0.74752800  0.25247200  0.25000000  1
  Mg  Mg4  1  0.00685600  0.99314400  0.25000000  1
  W  W5  1  0.28444100  0.30675400  0.70927000  1
  W  W6  1  0.71591200  0.69527400  0.28565500  1
  W  W7  1  0.69324600  0.71555900  0.79073000  1
  W  W8  1  0.30472600  0.28408800  0.21434400  1
  O  O9  1  0.31669700  0.19967300  0.99268800  1
  O  O10  1  0.64407900  0.75980800  0.03544700  1
  O  O11  1  0.80032700  0.68330300  0.50731200  1
  O  O12  1  0.24019200  0.35592100  0.46455200  1
  O  O13  1  0.62168600  0.93104800  0.63293700  1
  O  O14  1  0.38676500  0.07583700  0.36791400  1
  O  O15  1  0.06895200  0.37831400  0.86706300  1
  O  O16  1  0.92416300  0.61323500  0.13208600  1
  O  O17  1  0.42629900  0.62673600  0.52730000  1
  O  O18  1  0.57221200  0.36656500  0.50115100  1
  O  O19  1  0.37326400  0.57370100  0.97270000  1
  O  O20  1  0.63343500  0.42778800  0.99884900  1
  O  O21  1  0.19468800  0.03024800  0.84139600  1
  O  O22  1  0.79275000  0.97929300  0.17411500  1
  O  O23  1  0.96975200  0.80531200  0.65860400  1
  O  O24  1  0.02070700  0.20725000  0.32588500  1
