# generated using pymatgen
data_Ba3TiO5
_symmetry_space_group_name_H-M   'P 1'
_cell_length_a   7.91842111
_cell_length_b   7.91843878
_cell_length_c   7.91837939
_cell_angle_alpha   124.66854792
_cell_angle_beta   124.66848522
_cell_angle_gamma   82.08712241
_symmetry_Int_Tables_number   1
_chemical_formula_structural   Ba3TiO5
_chemical_formula_sum   'Ba6 Ti2 O10'
_cell_volume   322.91479868
_cell_formula_units_Z   2
loop_
 _symmetry_equiv_pos_site_id
 _symmetry_equiv_pos_as_xyz
  1  'x, y, z'
loop_
 _atom_site_type_symbol
 _atom_site_label
 _atom_site_symmetry_multiplicity
 _atom_site_fract_x
 _atom_site_fract_y
 _atom_site_fract_z
 _atom_site_occupancy
  Ba  Ba0  1  0.24999911  0.24999976  0.00000018  1
  Ba  Ba1  1  0.75000111  0.75000097  0.00000022  1
  Ba  Ba2  1  0.17869138  0.67869003  0.85738137  1
  Ba  Ba3  1  0.82130956  0.32131059  0.14261912  1
  Ba  Ba4  1  0.67869171  0.82130784  0.49999910  1
  Ba  Ba5  1  0.32130862  0.17869285  0.50000123  1
  Ti  Ti6  1  0.75001451  0.25001054  0.50002263  1
  Ti  Ti7  1  0.24998018  0.74998175  0.49997840  1
  O  O8  1  0.79596919  0.29596957  0.77754198  1
  O  O9  1  0.20403012  0.70403110  0.22245375  1
  O  O10  1  0.51841431  0.01841462  0.22244041  1
  O  O11  1  0.29597220  0.51842498  0.50000016  1
  O  O12  1  0.98157680  0.20402820  0.50000002  1
  O  O13  1  0.48158768  0.98158703  0.77756068  1
  O  O14  1  0.70402845  0.48157869  0.49999976  1
  O  O15  1  0.01842613  0.79597262  0.50000159  1
  O  O16  1  -0.00000013  -0.00000028  0.00000008  1
  O  O17  1  0.50000006  0.50000014  0.00000033  1
