# generated using pymatgen
data_MnH4(CO3)2
_symmetry_space_group_name_H-M   'P 1'
_cell_length_a   5.75444559
_cell_length_b   8.29326090
_cell_length_c   12.10607927
_cell_angle_alpha   89.76437010
_cell_angle_beta   90.01983368
_cell_angle_gamma   69.74919619
_symmetry_Int_Tables_number   1
_chemical_formula_structural   MnH4(CO3)2
_chemical_formula_sum   'Mn4 H16 C8 O24'
_cell_volume   542.02217427
_cell_formula_units_Z   4
loop_
 _symmetry_equiv_pos_site_id
 _symmetry_equiv_pos_as_xyz
  1  'x, y, z'
loop_
 _atom_site_type_symbol
 _atom_site_label
 _atom_site_symmetry_multiplicity
 _atom_site_fract_x
 _atom_site_fract_y
 _atom_site_fract_z
 _atom_site_occupancy
  Mn  Mn0  1  0.30627800  0.75005600  0.87500100  1
  Mn  Mn1  1  0.19401800  0.24992000  0.62519200  1
  Mn  Mn2  1  0.80665200  0.75003100  0.37481700  1
  Mn  Mn3  1  0.69379300  0.24995700  0.12494100  1
  H  H4  1  0.71009200  0.85459800  0.59243800  1
  H  H5  1  0.21015400  0.85475500  0.09259800  1
  H  H6  1  0.81513200  0.64531000  0.15736900  1
  H  H7  1  0.31504500  0.64522000  0.65754300  1
  H  H8  1  0.78973800  0.14535400  0.90753100  1
  H  H9  1  0.28982700  0.14524600  0.40741500  1
  H  H10  1  0.68482200  0.35467400  0.34260900  1
  H  H11  1  0.18479900  0.35474100  0.84246700  1
  H  H12  1  0.76082800  0.65064000  0.59198600  1
  H  H13  1  0.26075500  0.65079300  0.09208300  1
  H  H14  1  0.66130300  0.84917000  0.15786500  1
  H  H15  1  0.16102900  0.84903500  0.65793300  1
  H  H16  1  0.73908900  0.34936800  0.90787900  1
  H  H17  1  0.23917600  0.34921800  0.40796300  1
  H  H18  1  0.83866700  0.15086700  0.34208300  1
  H  H19  1  0.33879600  0.15089600  0.84211700  1
  C  C20  1  0.75453300  0.85044100  0.87566000  1
  C  C21  1  0.25475400  0.85033800  0.37557400  1
  C  C22  1  0.85471100  0.64977100  0.87440000  1
  C  C23  1  0.35497300  0.64964900  0.37433900  1
  C  C24  1  0.74525900  0.14949900  0.62437900  1
  C  C25  1  0.24544700  0.14977600  0.12442000  1
  C  C26  1  0.64509300  0.35017200  0.62565300  1
  C  C27  1  0.14521200  0.35043500  0.12567000  1
  O  O28  1  0.52177800  0.92463200  0.87605600  1
  O  O29  1  0.02201100  0.92452100  0.37598300  1
  O  O30  1  0.69595200  0.57560100  0.87406900  1
  O  O31  1  0.19627500  0.57542900  0.37400700  1
  O  O32  1  0.97802200  0.07530400  0.62397500  1
  O  O33  1  0.47820500  0.07558100  0.12398700  1
  O  O34  1  0.80386700  0.42434300  0.62601200  1
  O  O35  1  0.30396200  0.42463300  0.12602600  1
  O  O36  1  0.91379100  0.92493600  0.87635000  1
  O  O37  1  0.41406200  0.92477900  0.37622100  1
  O  O38  1  0.08831000  0.57526500  0.87372000  1
  O  O39  1  0.58856300  0.57521600  0.37367200  1
  O  O40  1  0.58596300  0.07504800  0.62370200  1
  O  O41  1  0.08620300  0.07526500  0.12376400  1
  O  O42  1  0.41151400  0.42467400  0.62634800  1
  O  O43  1  0.91162000  0.42485700  0.12629400  1
  O  O44  1  0.80063800  0.75668300  0.19220000  1
  O  O45  1  0.30031800  0.75662300  0.69237200  1
  O  O46  1  0.80721100  0.74335500  0.55759300  1
  O  O47  1  0.30708000  0.74353600  0.05769300  1
  O  O48  1  0.69945500  0.24334700  0.30767200  1
  O  O49  1  0.19956000  0.24331500  0.80766400  1
  O  O50  1  0.69274600  0.25666800  0.94233000  1
  O  O51  1  0.19291900  0.25645700  0.44236600  1
