# generated using pymatgen
data_MgCr2Fe3Ni(PO4)6
_symmetry_space_group_name_H-M   'P 1'
_cell_length_a   8.55120871
_cell_length_b   8.55374711
_cell_length_c   8.55350916
_cell_angle_alpha   60.88727895
_cell_angle_beta   60.89736990
_cell_angle_gamma   60.88949334
_symmetry_Int_Tables_number   1
_chemical_formula_structural   MgCr2Fe3Ni(PO4)6
_chemical_formula_sum   'Mg1 Cr2 Fe3 Ni1 P6 O24'
_cell_volume   451.28716113
_cell_formula_units_Z   1
loop_
 _symmetry_equiv_pos_site_id
 _symmetry_equiv_pos_as_xyz
  1  'x, y, z'
loop_
 _atom_site_type_symbol
 _atom_site_label
 _atom_site_symmetry_multiplicity
 _atom_site_fract_x
 _atom_site_fract_y
 _atom_site_fract_z
 _atom_site_occupancy
  Mg  Mg0  1  0.12424400  0.12480600  0.12408600  1
  Cr  Cr1  1  0.99050100  0.99048200  0.99032400  1
  Cr  Cr2  1  0.49881700  0.49901900  0.49892900  1
  Fe  Fe3  1  0.24605500  0.24617000  0.24637100  1
  Fe  Fe4  1  0.36252800  0.36258100  0.36234000  1
  Fe  Fe5  1  0.64559000  0.64588100  0.64549000  1
  Ni  Ni6  1  0.84801800  0.84808100  0.84786700  1
  P  P7  1  0.04013400  0.74803600  0.44792400  1
  P  P8  1  0.44810000  0.04036100  0.74778100  1
  P  P9  1  0.74783900  0.44846500  0.04007100  1
  P  P10  1  0.24491400  0.55020900  0.93980800  1
  P  P11  1  0.55015300  0.93985000  0.24492300  1
  P  P12  1  0.93968600  0.24504700  0.55026200  1
  O  O13  1  0.10630200  0.31188700  0.49450600  1
  O  O14  1  0.31195200  0.49425800  0.10638300  1
  O  O15  1  0.04944200  0.88919800  0.24050200  1
  O  O16  1  0.49438200  0.10635400  0.31184200  1
  O  O17  1  0.99666900  0.83421700  0.58676200  1
  O  O18  1  0.25004700  0.59667500  0.43205100  1
  O  O19  1  0.24054900  0.04986300  0.88854400  1
  O  O20  1  0.43226800  0.25027000  0.59637500  1
  O  O21  1  0.18388900  0.38248600  0.99516600  1
  O  O22  1  0.59640900  0.43249700  0.25005000  1
  O  O23  1  0.09332500  0.74850600  0.92704900  1
  O  O24  1  0.38237200  0.99519000  0.18391200  1
  O  O25  1  0.58675000  0.99702700  0.83415200  1
  O  O26  1  0.88864600  0.24116400  0.04933500  1
  O  O27  1  0.40350200  0.56251500  0.74194500  1
  O  O28  1  0.83409300  0.58709500  0.99695600  1
  O  O29  1  0.56238200  0.74203700  0.40360600  1
  O  O30  1  0.74853100  0.92702300  0.09343000  1
  O  O31  1  0.74178200  0.40358000  0.56274600  1
  O  O32  1  0.99485400  0.18413300  0.38253900  1
  O  O33  1  0.50744000  0.89909900  0.65220500  1
  O  O34  1  0.92721200  0.09320300  0.74844000  1
  O  O35  1  0.65209100  0.50820400  0.89872900  1
  O  O36  1  0.89884200  0.65265600  0.50691300  1
