# generated using pymatgen
data_Cs2Mo3SeO12
_symmetry_space_group_name_H-M   'P 1'
_cell_length_a   7.32227198
_cell_length_b   7.32227153
_cell_length_c   12.49214090
_cell_angle_alpha   90.00000000
_cell_angle_beta   90.00000000
_cell_angle_gamma   119.99999773
_symmetry_Int_Tables_number   1
_chemical_formula_structural   Cs2Mo3SeO12
_chemical_formula_sum   'Cs4 Mo6 Se2 O24'
_cell_volume   580.04168010
_cell_formula_units_Z   2
loop_
 _symmetry_equiv_pos_site_id
 _symmetry_equiv_pos_as_xyz
  1  'x, y, z'
loop_
 _atom_site_type_symbol
 _atom_site_label
 _atom_site_symmetry_multiplicity
 _atom_site_fract_x
 _atom_site_fract_y
 _atom_site_fract_z
 _atom_site_occupancy
  Cs  Cs0  1  0.66666700  0.33333300  0.23252967  1
  Cs  Cs1  1  0.33333300  0.66666700  0.73252967  1
  Cs  Cs2  1  0.66666700  0.33333300  0.59991319  1
  Cs  Cs3  1  0.33333300  0.66666700  0.09991319  1
  Mo  Mo4  1  0.79687832  0.66106194  0.89821819  1
  Mo  Mo5  1  0.66106194  0.86418462  0.39821819  1
  Mo  Mo6  1  0.86418462  0.20312168  0.89821819  1
  Mo  Mo7  1  0.13581538  0.79687832  0.39821819  1
  Mo  Mo8  1  0.33893806  0.13581538  0.89821819  1
  Mo  Mo9  1  0.20312168  0.33893806  0.39821819  1
  Se  Se10  1  0.00000000  -0.00000000  0.17445917  1
  Se  Se11  1  0.00000000  -0.00000000  0.67445917  1
  O  O12  1  0.75417675  0.87129893  0.23226887  1
  O  O13  1  0.88287782  0.75417675  0.73226887  1
  O  O14  1  0.87129893  0.11712218  0.73226887  1
  O  O15  1  0.12870107  0.88287782  0.23226887  1
  O  O16  1  0.11712218  0.24582325  0.23226887  1
  O  O17  1  0.24582325  0.12870107  0.73226887  1
  O  O18  1  0.45294239  0.91115352  0.35504112  1
  O  O19  1  0.54178986  0.45294239  0.85504112  1
  O  O20  1  0.91115352  0.45821014  0.85504112  1
  O  O21  1  0.08884648  0.54178986  0.35504112  1
  O  O22  1  0.45821014  0.54705761  0.35504112  1
  O  O23  1  0.54705761  0.08884648  0.85504112  1
  O  O24  1  0.12330290  0.87158908  0.90867976  1
  O  O25  1  0.25171383  0.12330290  0.40867976  1
  O  O26  1  0.87158908  0.74828617  0.40867976  1
  O  O27  1  0.12841092  0.25171383  0.90867976  1
  O  O28  1  0.74828617  0.87669710  0.90867976  1
  O  O29  1  0.87669710  0.12841092  0.40867976  1
  O  O30  1  0.60073505  0.80046266  0.52992405  1
  O  O31  1  0.19972761  0.39926495  0.52992405  1
  O  O32  1  0.19953734  0.80027239  0.52992405  1
  O  O33  1  0.80046266  0.19972761  0.02992405  1
  O  O34  1  0.80027239  0.60073505  0.02992405  1
  O  O35  1  0.39926495  0.19953734  0.02992405  1
