# generated using pymatgen
data_K2WO4
_symmetry_space_group_name_H-M   'P 1'
_cell_length_a   6.10050713
_cell_length_b   6.90053940
_cell_length_c   7.53814173
_cell_angle_alpha   112.94772080
_cell_angle_beta   90.00000000
_cell_angle_gamma   116.23354563
_symmetry_Int_Tables_number   1
_chemical_formula_structural   K2WO4
_chemical_formula_sum   'K4 W2 O8'
_cell_volume   256.35077697
_cell_formula_units_Z   2
loop_
 _symmetry_equiv_pos_site_id
 _symmetry_equiv_pos_as_xyz
  1  'x, y, z'
loop_
 _atom_site_type_symbol
 _atom_site_label
 _atom_site_symmetry_multiplicity
 _atom_site_fract_x
 _atom_site_fract_y
 _atom_site_fract_z
 _atom_site_occupancy
  K  K0  1  0.50750610  0.01501521  0.23292515  1
  K  K1  1  0.49249390  0.98498479  0.76707485  1
  K  K2  1  0.15539605  0.31079411  0.74877537  1
  K  K3  1  0.84460395  0.68920589  0.25122463  1
  W  W4  1  0.17580893  0.35161885  0.22760296  1
  W  W5  1  0.82419107  0.64838115  0.77239704  1
  O  O6  1  0.38152896  0.28480166  0.07548823  1
  O  O7  1  0.09672630  0.71519834  0.92451177  1
  O  O8  1  0.61847104  0.71519834  0.92451177  1
  O  O9  1  0.90327370  0.28480166  0.07548823  1
  O  O10  1  0.91292590  0.82584980  0.63747797  1
  O  O11  1  0.08707410  0.17415020  0.36252203  1
  O  O12  1  0.33368080  0.66736059  0.38629327  1
  O  O13  1  0.66631920  0.33263941  0.61370673  1
