# generated using pymatgen
data_Ba3Al3As5
_symmetry_space_group_name_H-M   'P 1'
_cell_length_a   13.25402166
_cell_length_b   13.25402166
_cell_length_c   13.25402160
_cell_angle_alpha   69.46550934
_cell_angle_beta   69.46550934
_cell_angle_gamma   69.46550710
_symmetry_Int_Tables_number   1
_chemical_formula_structural   Ba3Al3As5
_chemical_formula_sum   'Ba18 Al18 As30'
_cell_volume   1971.79698270
_cell_formula_units_Z   6
loop_
 _symmetry_equiv_pos_site_id
 _symmetry_equiv_pos_as_xyz
  1  'x, y, z'
loop_
 _atom_site_type_symbol
 _atom_site_label
 _atom_site_symmetry_multiplicity
 _atom_site_fract_x
 _atom_site_fract_y
 _atom_site_fract_z
 _atom_site_occupancy
  Ba  Ba0  1  0.14474312  0.22377728  0.65087433  1
  Ba  Ba1  1  0.65087433  0.14474312  0.22377728  1
  Ba  Ba2  1  0.22377728  0.65087433  0.14474312  1
  Ba  Ba3  1  0.15087433  0.72377728  0.64474312  1
  Ba  Ba4  1  0.64474312  0.15087433  0.72377728  1
  Ba  Ba5  1  0.72377728  0.64474312  0.15087433  1
  Ba  Ba6  1  0.85525688  0.77622272  0.34912567  1
  Ba  Ba7  1  0.34912567  0.85525688  0.77622272  1
  Ba  Ba8  1  0.77622272  0.34912567  0.85525688  1
  Ba  Ba9  1  0.84912567  0.27622272  0.35525688  1
  Ba  Ba10  1  0.35525688  0.84912567  0.27622272  1
  Ba  Ba11  1  0.27622272  0.35525688  0.84912567  1
  Ba  Ba12  1  0.39777136  0.39777136  0.39777136  1
  Ba  Ba13  1  0.89777136  0.89777136  0.89777136  1
  Ba  Ba14  1  0.60222864  0.60222864  0.60222864  1
  Ba  Ba15  1  0.10222864  0.10222864  0.10222864  1
  Ba  Ba16  1  0.25000000  0.25000000  0.25000000  1
  Ba  Ba17  1  0.75000000  0.75000000  0.75000000  1
  Al  Al18  1  0.07895538  0.57199799  0.49449560  1
  Al  Al19  1  0.49449560  0.07895538  0.57199799  1
  Al  Al20  1  0.57199799  0.49449560  0.07895538  1
  Al  Al21  1  0.99449560  0.07199799  0.57895538  1
  Al  Al22  1  0.57895538  0.99449560  0.07199799  1
  Al  Al23  1  0.07199799  0.57895538  0.99449560  1
  Al  Al24  1  0.92104462  0.42800201  0.50550440  1
  Al  Al25  1  0.50550440  0.92104462  0.42800201  1
  Al  Al26  1  0.42800201  0.50550440  0.92104462  1
  Al  Al27  1  0.00550440  0.92800201  0.42104462  1
  Al  Al28  1  0.42104462  0.00550440  0.92800201  1
  Al  Al29  1  0.92800201  0.42104462  0.00550440  1
  Al  Al30  1  0.97821376  0.52178624  0.25000000  1
  Al  Al31  1  0.25000000  0.97821376  0.52178624  1
  Al  Al32  1  0.52178624  0.25000000  0.97821376  1
  Al  Al33  1  0.75000000  0.02178624  0.47821376  1
  Al  Al34  1  0.47821376  0.75000000  0.02178624  1
  Al  Al35  1  0.02178624  0.47821376  0.75000000  1
  As  As36  1  0.11153151  0.44949496  0.37381321  1
  As  As37  1  0.37381321  0.11153151  0.44949496  1
  As  As38  1  0.44949496  0.37381321  0.11153151  1
  As  As39  1  0.87381321  0.94949496  0.61153151  1
  As  As40  1  0.61153151  0.87381321  0.94949496  1
  As  As41  1  0.94949496  0.61153151  0.87381321  1
  As  As42  1  0.88846849  0.55050504  0.62618679  1
  As  As43  1  0.62618679  0.88846849  0.55050504  1
  As  As44  1  0.55050504  0.62618679  0.88846849  1
  As  As45  1  0.12618679  0.05050504  0.38846849  1
  As  As46  1  0.38846849  0.12618679  0.05050504  1
  As  As47  1  0.05050504  0.38846849  0.12618679  1
  As  As48  1  0.20605783  0.47032979  0.61460945  1
  As  As49  1  0.61460945  0.20605783  0.47032979  1
  As  As50  1  0.47032979  0.61460945  0.20605783  1
  As  As51  1  0.11460945  0.97032979  0.70605783  1
  As  As52  1  0.70605783  0.11460945  0.97032979  1
  As  As53  1  0.97032979  0.70605783  0.11460945  1
  As  As54  1  0.79394217  0.52967021  0.38539055  1
  As  As55  1  0.38539055  0.79394217  0.52967021  1
  As  As56  1  0.52967021  0.38539055  0.79394217  1
  As  As57  1  0.88539055  0.02967021  0.29394217  1
  As  As58  1  0.29394217  0.88539055  0.02967021  1
  As  As59  1  0.02967021  0.29394217  0.88539055  1
  As  As60  1  0.61622192  0.88377808  0.25000000  1
  As  As61  1  0.25000000  0.61622192  0.88377808  1
  As  As62  1  0.88377808  0.25000000  0.61622192  1
  As  As63  1  0.75000000  0.38377808  0.11622192  1
  As  As64  1  0.11622192  0.75000000  0.38377808  1
  As  As65  1  0.38377808  0.11622192  0.75000000  1
