# generated using pymatgen
data_Na3Cr2(AsO4)3
_symmetry_space_group_name_H-M   'P 1'
_cell_length_a   10.68824131
_cell_length_b   10.68824131
_cell_length_c   10.68824131
_cell_angle_alpha   109.47122063
_cell_angle_beta   109.47122063
_cell_angle_gamma   109.47122063
_symmetry_Int_Tables_number   1
_chemical_formula_structural   Na3Cr2(AsO4)3
_chemical_formula_sum   'Na12 Cr8 As12 O48'
_cell_volume   939.93292086
_cell_formula_units_Z   4
loop_
 _symmetry_equiv_pos_site_id
 _symmetry_equiv_pos_as_xyz
  1  'x, y, z'
loop_
 _atom_site_type_symbol
 _atom_site_label
 _atom_site_symmetry_multiplicity
 _atom_site_fract_x
 _atom_site_fract_y
 _atom_site_fract_z
 _atom_site_occupancy
  Na  Na0  1  0.25000000  0.87500000  0.62500000  1
  Na  Na1  1  0.87500000  0.62500000  0.25000000  1
  Na  Na2  1  0.62500000  0.87500000  0.75000000  1
  Na  Na3  1  0.87500000  0.75000000  0.62500000  1
  Na  Na4  1  0.62500000  0.25000000  0.87500000  1
  Na  Na5  1  0.75000000  0.62500000  0.87500000  1
  Na  Na6  1  0.75000000  0.12500000  0.37500000  1
  Na  Na7  1  0.12500000  0.37500000  0.75000000  1
  Na  Na8  1  0.37500000  0.12500000  0.25000000  1
  Na  Na9  1  0.12500000  0.25000000  0.37500000  1
  Na  Na10  1  0.37500000  0.75000000  0.12500000  1
  Na  Na11  1  0.25000000  0.37500000  0.12500000  1
  Cr  Cr12  1  0.00000000  0.00000000  0.00000000  1
  Cr  Cr13  1  0.00000000  0.50000000  0.00000000  1
  Cr  Cr14  1  0.50000000  0.00000000  0.00000000  1
  Cr  Cr15  1  0.00000000  0.00000000  0.50000000  1
  Cr  Cr16  1  0.50000000  0.00000000  0.50000000  1
  Cr  Cr17  1  0.00000000  0.50000000  0.50000000  1
  Cr  Cr18  1  0.50000000  0.50000000  0.00000000  1
  Cr  Cr19  1  0.50000000  0.50000000  0.50000000  1
  As  As20  1  0.25000000  0.12500000  0.87500000  1
  As  As21  1  0.75000000  0.87500000  0.12500000  1
  As  As22  1  0.37500000  0.25000000  0.62500000  1
  As  As23  1  0.62500000  0.37500000  0.25000000  1
  As  As24  1  0.12500000  0.75000000  0.87500000  1
  As  As25  1  0.87500000  0.12500000  0.75000000  1
  As  As26  1  0.75000000  0.37500000  0.62500000  1
  As  As27  1  0.37500000  0.62500000  0.75000000  1
  As  As28  1  0.12500000  0.87500000  0.25000000  1
  As  As29  1  0.87500000  0.25000000  0.12500000  1
  As  As30  1  0.62500000  0.75000000  0.37500000  1
  As  As31  1  0.25000000  0.62500000  0.37500000  1
  O  O32  1  0.80159600  0.88596200  0.98989300  1
  O  O33  1  0.61403800  0.41563400  0.10393100  1
  O  O34  1  0.51010700  0.39606900  0.81170300  1
  O  O35  1  0.69840400  0.68829700  0.08436600  1
  O  O36  1  0.69840400  0.51010700  0.61403800  1
  O  O37  1  0.68829700  0.08436600  0.69840400  1
  O  O38  1  0.39606900  0.08436600  0.88596200  1
  O  O39  1  0.08436600  0.69840400  0.68829700  1
  O  O40  1  0.10393100  0.98989300  0.68829700  1
  O  O41  1  0.41563400  0.81170300  0.80159600  1
  O  O42  1  0.81170300  0.80159600  0.41563400  1
  O  O43  1  0.61403800  0.69840400  0.51010700  1
  O  O44  1  0.08436600  0.88596200  0.39606900  1
  O  O45  1  0.68829700  0.10393100  0.98989300  1
  O  O46  1  0.51010700  0.61403800  0.69840400  1
  O  O47  1  0.88596200  0.39606900  0.08436600  1
  O  O48  1  0.98989300  0.68829700  0.10393100  1
  O  O49  1  0.10393100  0.61403800  0.41563400  1
  O  O50  1  0.39606900  0.81170300  0.51010700  1
  O  O51  1  0.89606900  0.01010700  0.31170300  1
  O  O52  1  0.81170300  0.51010700  0.39606900  1
  O  O53  1  0.98989300  0.80159600  0.88596200  1
  O  O54  1  0.41563400  0.10393100  0.61403800  1
  O  O55  1  0.80159600  0.41563400  0.81170300  1
  O  O56  1  0.19840400  0.11403800  0.01010700  1
  O  O57  1  0.38596200  0.58436600  0.89606900  1
  O  O58  1  0.48989300  0.60393100  0.18829700  1
  O  O59  1  0.30159600  0.31170300  0.91563400  1
  O  O60  1  0.30159600  0.48989300  0.38596200  1
  O  O61  1  0.31170300  0.91563400  0.30159600  1
  O  O62  1  0.60393100  0.91563400  0.11403800  1
  O  O63  1  0.91563400  0.30159600  0.31170300  1
  O  O64  1  0.19840400  0.58436600  0.18829700  1
  O  O65  1  0.58436600  0.89606900  0.38596200  1
  O  O66  1  0.01010700  0.19840400  0.11403800  1
  O  O67  1  0.11403800  0.01010700  0.19840400  1
  O  O68  1  0.18829700  0.48989300  0.60393100  1
  O  O69  1  0.60393100  0.18829700  0.48989300  1
  O  O70  1  0.89606900  0.38596200  0.58436600  1
  O  O71  1  0.01010700  0.31170300  0.89606900  1
  O  O72  1  0.11403800  0.60393100  0.91563400  1
  O  O73  1  0.48989300  0.38596200  0.30159600  1
  O  O74  1  0.31170300  0.89606900  0.01010700  1
  O  O75  1  0.91563400  0.11403800  0.60393100  1
  O  O76  1  0.38596200  0.30159600  0.48989300  1
  O  O77  1  0.18829700  0.19840400  0.58436600  1
  O  O78  1  0.58436600  0.18829700  0.19840400  1
  O  O79  1  0.88596200  0.98989300  0.80159600  1
