# generated using pymatgen
data_ErGaO3
_symmetry_space_group_name_H-M   'P 1'
_cell_length_a   5.98487367
_cell_length_b   5.98486948
_cell_length_c   11.60914576
_cell_angle_alpha   90.00001880
_cell_angle_beta   89.99998474
_cell_angle_gamma   119.99995306
_symmetry_Int_Tables_number   1
_chemical_formula_structural   ErGaO3
_chemical_formula_sum   'Er6 Ga6 O18'
_cell_volume   360.11463570
_cell_formula_units_Z   6
loop_
 _symmetry_equiv_pos_site_id
 _symmetry_equiv_pos_as_xyz
  1  'x, y, z'
loop_
 _atom_site_type_symbol
 _atom_site_label
 _atom_site_symmetry_multiplicity
 _atom_site_fract_x
 _atom_site_fract_y
 _atom_site_fract_z
 _atom_site_occupancy
  Er  Er0  1  0.66666721  0.33333420  0.95986530  1
  Er  Er1  1  0.33333263  0.66666575  0.45986913  1
  Er  Er2  1  0.66666632  0.33333283  0.45986801  1
  Er  Er3  1  0.33333385  0.66666773  0.95986667  1
  Er  Er4  1  0.00000071  0.00000026  0.00174889  1
  Er  Er5  1  0.99999873  -0.00000037  0.50175325  1
  Ga  Ga6  1  0.66582464  0.66582489  0.72708492  1
  Ga  Ga7  1  -0.00000277  0.33416561  0.72708520  1
  Ga  Ga8  1  0.33417453  0.33417503  0.22708539  1
  Ga  Ga9  1  0.00000354  0.66583504  0.22708530  1
  Ga  Ga10  1  0.33416546  -0.00000360  0.72708444  1
  Ga  Ga11  1  0.66583464  0.00000311  0.22708473  1
  O  O12  1  0.69445155  0.69445187  0.89025352  1
  O  O13  1  0.00000033  0.30554879  0.89025337  1
  O  O14  1  0.30555028  0.30554984  0.39025344  1
  O  O15  1  0.00000017  0.69444964  0.39025359  1
  O  O16  1  0.30554806  0.00000003  0.89025348  1
  O  O17  1  0.69444928  0.99999900  0.39025337  1
  O  O18  1  0.63921656  0.63921616  0.56506880  1
  O  O19  1  0.99999909  0.36078287  0.56506901  1
  O  O20  1  0.36078384  0.36078301  0.06506875  1
  O  O21  1  0.00000031  0.63921724  0.06506846  1
  O  O22  1  0.36078215  0.00000034  0.56506877  1
  O  O23  1  0.63921759  0.00000041  0.06506845  1
  O  O24  1  -0.00000121  0.99999839  0.70411473  1
  O  O25  1  0.00000062  0.00000082  0.20411421  1
  O  O26  1  0.66666481  0.33333171  0.74653406  1
  O  O27  1  0.33333430  0.66666847  0.24653374  1
  O  O28  1  0.66666902  0.33333489  0.24653393  1
  O  O29  1  0.33333275  0.66666604  0.74653407  1
