# generated using pymatgen
data_V2H12C4S4O15
_symmetry_space_group_name_H-M   'P 1'
_cell_length_a   5.86370071
_cell_length_b   10.75974718
_cell_length_c   13.22389569
_cell_angle_alpha   87.39825580
_cell_angle_beta   77.19059748
_cell_angle_gamma   74.18791460
_symmetry_Int_Tables_number   1
_chemical_formula_structural   V2H12C4S4O15
_chemical_formula_sum   'V4 H24 C8 S8 O30'
_cell_volume   782.67256183
_cell_formula_units_Z   2
loop_
 _symmetry_equiv_pos_site_id
 _symmetry_equiv_pos_as_xyz
  1  'x, y, z'
loop_
 _atom_site_type_symbol
 _atom_site_label
 _atom_site_symmetry_multiplicity
 _atom_site_fract_x
 _atom_site_fract_y
 _atom_site_fract_z
 _atom_site_occupancy
  V  V0  1  0.02832986  0.31290850  0.62651072  1
  V  V1  1  0.96774908  0.18709150  0.87348928  1
  V  V2  1  0.97167014  0.68709150  0.37348928  1
  V  V3  1  0.03225092  0.81290850  0.12651072  1
  H  H4  1  0.68137860  0.40733667  0.40724344  1
  H  H5  1  0.49595872  0.09266333  0.09275656  1
  H  H6  1  0.31862140  0.59266333  0.59275656  1
  H  H7  1  0.50404128  0.90733667  0.90724344  1
  H  H8  1  0.64021560  0.24762269  0.42937077  1
  H  H9  1  0.31720906  0.25237731  0.07062923  1
  H  H10  1  0.35978440  0.75237731  0.57062923  1
  H  H11  1  0.68279094  0.74762269  0.92937077  1
  H  H12  1  0.67720048  0.30917265  0.30138994  1
  H  H13  1  0.28776307  0.19082735  0.19861006  1
  H  H14  1  0.32279952  0.69082735  0.69861006  1
  H  H15  1  0.71223693  0.80917265  0.80138994  1
  H  H16  1  0.76921516  0.02087437  0.54914983  1
  H  H17  1  0.33923936  0.47912563  0.95085017  1
  H  H18  1  0.23078484  0.97912563  0.45085017  1
  H  H19  1  0.66076064  0.52087437  0.04914983  1
  H  H20  1  0.78212514  0.06517326  0.67699604  1
  H  H21  1  0.52429444  0.43482674  0.82300396  1
  H  H22  1  0.21787486  0.93482674  0.32300396  1
  H  H23  1  0.47570556  0.56517326  0.17699604  1
  H  H24  1  0.76629010  0.90545264  0.64983250  1
  H  H25  1  0.32157524  0.59454736  0.85016750  1
  H  H26  1  0.23370990  0.09454736  0.35016750  1
  H  H27  1  0.67842476  0.40545264  0.14983250  1
  C  C28  1  0.60619774  0.33449244  0.38327208  1
  C  C29  1  0.32396227  0.16550756  0.11672792  1
  C  C30  1  0.39380226  0.66550756  0.61672792  1
  C  C31  1  0.67603773  0.83449244  0.88327208  1
  C  C32  1  0.71258651  0.00770850  0.63210098  1
  C  C33  1  0.35239700  0.49229150  0.86789902  1
  C  C34  1  0.28741349  0.99229150  0.36789902  1
  C  C35  1  0.64760300  0.50770850  0.13210098  1
  S  S36  1  0.29163616  0.39504445  0.40376908  1
  S  S37  1  0.09044969  0.10495555  0.09623092  1
  S  S38  1  0.70836384  0.60495555  0.59623092  1
  S  S39  1  0.90955031  0.89504445  0.90376908  1
  S  S40  1  0.39581429  0.05846430  0.66288572  1
  S  S41  1  0.11716431  0.44153570  0.83711528  1
  S  S42  1  0.60418571  0.94153570  0.33711528  1
  S  S43  1  0.88283569  0.55846430  0.16288572  1
  O  O44  1  0.18770683  0.31324891  0.35703457  1
  O  O45  1  0.85798932  0.18675109  0.14296543  1
  O  O46  1  0.81229317  0.68675109  0.64296543  1
  O  O47  1  0.14201068  0.81324891  0.85703457  1
  O  O48  1  0.31621200  0.06777918  0.77585203  1
  O  O49  1  0.15984221  0.43222082  0.72414797  1
  O  O50  1  0.68378800  0.93222082  0.22414797  1
  O  O51  1  0.84015779  0.56777918  0.27585203  1
  O  O52  1  0.91456064  0.25000000  0.75000000  1
  O  O53  1  0.08543936  0.75000000  0.25000000  1
  O  O54  1  0.24981342  0.52857073  0.36224785  1
  O  O55  1  0.14063200  0.97142927  0.13775215  1
  O  O56  1  0.75018658  0.47142927  0.63775215  1
  O  O57  1  0.85936800  0.02857073  0.86224785  1
  O  O58  1  0.34476800  0.19479028  0.61931982  1
  O  O59  1  0.15887810  0.30520972  0.88068018  1
  O  O60  1  0.65523200  0.80520972  0.38068018  1
  O  O61  1  0.84112190  0.69479028  0.11931982  1
  O  O62  1  0.93278736  0.23542422  0.55298072  1
  O  O63  1  0.72119330  0.26457578  0.94701928  1
  O  O64  1  0.06721264  0.76457578  0.44701928  1
  O  O65  1  0.27880670  0.73542422  0.05298072  1
  O  O66  1  0.20700214  0.40802258  0.51954916  1
  O  O67  1  0.13457388  0.09197742  0.98045084  1
  O  O68  1  0.79299786  0.59197742  0.48045084  1
  O  O69  1  0.86542612  0.90802258  0.01954916  1
  O  O70  1  0.29606667  0.97644700  0.61341227  1
  O  O71  1  0.88592593  0.52355300  0.88658773  1
  O  O72  1  0.70393333  0.02355300  0.38658773  1
  O  O73  1  0.11407407  0.47644700  0.11341227  1
