# generated using pymatgen
data_GdInO3
_symmetry_space_group_name_H-M   'P 1'
_cell_length_a   6.36721447
_cell_length_b   6.36721454
_cell_length_c   12.34803472
_cell_angle_alpha   90.00000308
_cell_angle_beta   90.00000487
_cell_angle_gamma   119.99985170
_symmetry_Int_Tables_number   1
_chemical_formula_structural   GdInO3
_chemical_formula_sum   'Gd6 In6 O18'
_cell_volume   433.53891373
_cell_formula_units_Z   6
loop_
 _symmetry_equiv_pos_site_id
 _symmetry_equiv_pos_as_xyz
  1  'x, y, z'
loop_
 _atom_site_type_symbol
 _atom_site_label
 _atom_site_symmetry_multiplicity
 _atom_site_fract_x
 _atom_site_fract_y
 _atom_site_fract_z
 _atom_site_occupancy
  Gd  Gd0  1  0.66666768  0.33333433  0.96125756  1
  Gd  Gd1  1  0.33333208  0.66666561  0.46125764  1
  Gd  Gd2  1  0.66666562  0.33333218  0.46125753  1
  Gd  Gd3  1  0.33333471  0.66666787  0.96125806  1
  Gd  Gd4  1  -0.00000009  -0.00000066  0.99717603  1
  Gd  Gd5  1  0.00000058  0.00000055  0.49717630  1
  In  In6  1  0.66651516  0.66651527  0.72664941  1
  In  In7  1  0.00000045  0.33348519  0.72664969  1
  In  In8  1  0.33348422  0.33348426  0.22664948  1
  In  In9  1  -0.00000075  0.66651514  0.22664965  1
  In  In10  1  0.33348522  0.00000052  0.72664969  1
  In  In11  1  0.66651533  -0.00000047  0.22664972  1
  O  O12  1  0.69312314  0.69312312  0.89659160  1
  O  O13  1  -0.00000122  0.30687517  0.89659132  1
  O  O14  1  0.30687687  0.30687677  0.39659171  1
  O  O15  1  0.00000141  0.69312494  0.39659152  1
  O  O16  1  0.30687519  -0.00000107  0.89659147  1
  O  O17  1  0.69312502  0.00000141  0.39659157  1
  O  O18  1  0.63947250  0.63947259  0.55809169  1
  O  O19  1  -0.00000031  0.36052633  0.55809170  1
  O  O20  1  0.36052736  0.36052732  0.05809161  1
  O  O21  1  0.00000023  0.63947366  0.05809173  1
  O  O22  1  0.36052623  -0.00000028  0.55809178  1
  O  O23  1  0.63947383  0.00000035  0.05809168  1
  O  O24  1  -0.00000094  -0.00000089  0.69723130  1
  O  O25  1  0.00000088  0.00000095  0.19723064  1
  O  O26  1  0.66666553  0.33333220  0.75248502  1
  O  O27  1  0.33333419  0.66666763  0.25248491  1
  O  O28  1  0.66666762  0.33333428  0.25248498  1
  O  O29  1  0.33333227  0.66666572  0.75248502  1
