# generated using pymatgen
data_KNa2GaO3
_symmetry_space_group_name_H-M   'P 1'
_cell_length_a   6.14233876
_cell_length_b   6.48366423
_cell_length_c   10.12678501
_cell_angle_alpha   90.00000000
_cell_angle_beta   90.00000000
_cell_angle_gamma   90.00000000
_symmetry_Int_Tables_number   1
_chemical_formula_structural   KNa2GaO3
_chemical_formula_sum   'K4 Na8 Ga4 O12'
_cell_volume   403.29781661
_cell_formula_units_Z   4
loop_
 _symmetry_equiv_pos_site_id
 _symmetry_equiv_pos_as_xyz
  1  'x, y, z'
loop_
 _atom_site_type_symbol
 _atom_site_label
 _atom_site_symmetry_multiplicity
 _atom_site_fract_x
 _atom_site_fract_y
 _atom_site_fract_z
 _atom_site_occupancy
  K  K0  1  0.75000000  0.65945636  0.96666133  1
  K  K1  1  0.25000000  0.84054364  0.46666133  1
  K  K2  1  0.25000000  0.34054364  0.03333867  1
  K  K3  1  0.75000000  0.15945636  0.53333867  1
  Na  Na4  1  0.00906639  0.99089262  0.76896944  1
  Na  Na5  1  0.99093361  0.50910738  0.26896944  1
  Na  Na6  1  0.00906639  0.49089262  0.73103056  1
  Na  Na7  1  0.49093361  0.99089262  0.76896944  1
  Na  Na8  1  0.99093361  0.00910738  0.23103056  1
  Na  Na9  1  0.50906639  0.00910738  0.23103056  1
  Na  Na10  1  0.50906639  0.50910738  0.26896944  1
  Na  Na11  1  0.49093361  0.49089262  0.73103056  1
  Ga  Ga12  1  0.25000000  0.83038002  0.01019758  1
  Ga  Ga13  1  0.25000000  0.33038002  0.48980242  1
  Ga  Ga14  1  0.75000000  0.66961998  0.51019758  1
  Ga  Ga15  1  0.75000000  0.16961998  0.98980242  1
  O  O16  1  0.25000000  0.71842004  0.17597823  1
  O  O17  1  0.00000000  0.50000000  0.50000000  1
  O  O18  1  0.50000000  0.50000000  0.50000000  1
  O  O19  1  0.25000000  0.17167710  0.63943886  1
  O  O20  1  0.75000000  0.82832290  0.36056114  1
  O  O21  1  0.25000000  0.67167710  0.86056114  1
  O  O22  1  0.75000000  0.32832290  0.13943886  1
  O  O23  1  0.75000000  0.78157996  0.67597823  1
  O  O24  1  0.50000000  -0.00000000  0.00000000  1
  O  O25  1  0.00000000  -0.00000000  0.00000000  1
  O  O26  1  0.75000000  0.28157996  0.82402177  1
  O  O27  1  0.25000000  0.21842004  0.32402177  1
