# generated using pymatgen
data_Tl2TeMo2(PO7)2
_symmetry_space_group_name_H-M   'P 1'
_cell_length_a   8.88534938
_cell_length_b   11.29831281
_cell_length_c   12.52804879
_cell_angle_alpha   90.00000000
_cell_angle_beta   90.00000000
_cell_angle_gamma   90.00000000
_symmetry_Int_Tables_number   1
_chemical_formula_structural   Tl2TeMo2(PO7)2
_chemical_formula_sum   'Tl8 Te4 Mo8 P8 O56'
_cell_volume   1257.68401181
_cell_formula_units_Z   4
loop_
 _symmetry_equiv_pos_site_id
 _symmetry_equiv_pos_as_xyz
  1  'x, y, z'
loop_
 _atom_site_type_symbol
 _atom_site_label
 _atom_site_symmetry_multiplicity
 _atom_site_fract_x
 _atom_site_fract_y
 _atom_site_fract_z
 _atom_site_occupancy
  Tl  Tl0  1  0.52399024  0.27730063  0.18695017  1
  Tl  Tl1  1  0.52399024  0.22269937  0.81304983  1
  Tl  Tl2  1  0.97600976  0.77730063  0.31304983  1
  Tl  Tl3  1  0.97600976  0.72269937  0.68695017  1
  Tl  Tl4  1  0.47600976  0.72269937  0.81304983  1
  Tl  Tl5  1  0.47600976  0.77730063  0.18695017  1
  Tl  Tl6  1  0.02399024  0.22269937  0.68695017  1
  Tl  Tl7  1  0.02399024  0.27730063  0.31304983  1
  Te  Te8  1  0.62796301  0.25000000  0.50000000  1
  Te  Te9  1  0.87203699  0.75000000  0.00000000  1
  Te  Te10  1  0.37203699  0.75000000  0.50000000  1
  Te  Te11  1  0.12796301  0.25000000  0.00000000  1
  Mo  Mo12  1  0.75604733  0.51956635  0.37803471  1
  Mo  Mo13  1  0.75604733  0.98043365  0.62196529  1
  Mo  Mo14  1  0.74395267  0.01956635  0.12196529  1
  Mo  Mo15  1  0.74395267  0.48043365  0.87803471  1
  Mo  Mo16  1  0.24395267  0.48043365  0.62196529  1
  Mo  Mo17  1  0.24395267  0.01956635  0.37803471  1
  Mo  Mo18  1  0.25604733  0.98043365  0.87803471  1
  Mo  Mo19  1  0.25604733  0.51956635  0.12196529  1
  P  P20  1  0.64144971  0.99594784  0.36907830  1
  P  P21  1  0.64144971  0.50405216  0.63092170  1
  P  P22  1  0.85855029  0.49594784  0.13092170  1
  P  P23  1  0.85855029  0.00405216  0.86907830  1
  P  P24  1  0.35855029  0.00405216  0.63092170  1
  P  P25  1  0.35855029  0.49594784  0.36907830  1
  P  P26  1  0.14144971  0.50405216  0.86907830  1
  P  P27  1  0.14144971  0.99594784  0.13092170  1
  O  O28  1  0.65082021  0.13194930  0.36978511  1
  O  O29  1  0.65082021  0.36805070  0.63021489  1
  O  O30  1  0.84917979  0.63194930  0.13021489  1
  O  O31  1  0.84917979  0.86805070  0.86978511  1
  O  O32  1  0.34917979  0.86805070  0.63021489  1
  O  O33  1  0.34917979  0.63194930  0.36978511  1
  O  O34  1  0.15082021  0.36805070  0.86978511  1
  O  O35  1  0.15082021  0.13194930  0.13021489  1
  O  O36  1  0.52010329  0.45184824  0.36536488  1
  O  O37  1  0.52010329  0.04815176  0.63463512  1
  O  O38  1  0.97989671  0.95184824  0.13463512  1
  O  O39  1  0.97989671  0.54815176  0.86536488  1
  O  O40  1  0.47989671  0.54815176  0.63463512  1
  O  O41  1  0.47989671  0.95184824  0.36536488  1
  O  O42  1  0.02010329  0.04815176  0.86536488  1
  O  O43  1  0.02010329  0.45184824  0.13463512  1
  O  O44  1  0.71737242  0.55542982  0.53097364  1
  O  O45  1  0.71737242  0.94457018  0.46902636  1
  O  O46  1  0.78262758  0.05542982  0.96902636  1
  O  O47  1  0.78262758  0.44457018  0.03097364  1
  O  O48  1  0.31039494  0.34543698  0.66262365  1
  O  O49  1  0.28262758  0.44457018  0.46902636  1
  O  O50  1  0.21737242  0.94457018  0.03097364  1
  O  O51  1  0.21737242  0.55542982  0.96902636  1
  O  O52  1  0.68960506  0.65456302  0.33737635  1
  O  O53  1  0.68960506  0.84543698  0.66262365  1
  O  O54  1  0.81039494  0.15456302  0.16262365  1
  O  O55  1  0.81039494  0.34543698  0.83737635  1
  O  O56  1  0.26797749  0.34395463  0.07192235  1
  O  O57  1  0.26797749  0.15604537  0.92807765  1
  O  O58  1  0.23202251  0.84395463  0.42807765  1
  O  O59  1  0.23202251  0.65604537  0.57192235  1
  O  O60  1  0.73202251  0.65604537  0.92807765  1
  O  O61  1  0.73202251  0.84395463  0.07192235  1
  O  O62  1  0.76797749  0.15604537  0.57192235  1
  O  O63  1  0.76797749  0.34395463  0.42807765  1
  O  O64  1  0.26986972  0.44986061  0.27161896  1
  O  O65  1  0.26986972  0.05013939  0.72838104  1
  O  O66  1  0.23013028  0.94986061  0.22838104  1
  O  O67  1  0.23013028  0.55013939  0.77161896  1
  O  O68  1  0.73013028  0.55013939  0.72838104  1
  O  O69  1  0.73013028  0.94986061  0.27161896  1
  O  O70  1  0.76986972  0.05013939  0.77161896  1
  O  O71  1  0.76986972  0.44986061  0.22838104  1
  O  O72  1  0.44543022  0.54172404  0.11856121  1
  O  O73  1  0.44543022  0.95827596  0.88143879  1
  O  O74  1  0.05456978  0.04172404  0.38143879  1
  O  O75  1  0.05456978  0.45827596  0.61856121  1
  O  O76  1  0.55456978  0.45827596  0.88143879  1
  O  O77  1  0.55456978  0.04172404  0.11856121  1
  O  O78  1  0.94543022  0.95827596  0.61856121  1
  O  O79  1  0.94543022  0.54172404  0.38143879  1
  O  O80  1  0.18960506  0.65456302  0.16262365  1
  O  O81  1  0.18960506  0.84543698  0.83737635  1
  O  O82  1  0.31039494  0.15456302  0.33737635  1
  O  O83  1  0.28262758  0.05542982  0.53097364  1
