# generated using pymatgen
data_Er2TeS2
_symmetry_space_group_name_H-M   'P 1'
_cell_length_a   7.45324113
_cell_length_b   7.45324113
_cell_length_c   7.45324113
_cell_angle_alpha   147.79363051
_cell_angle_beta   138.35025005
_cell_angle_gamma   53.60453029
_symmetry_Int_Tables_number   1
_chemical_formula_structural   Er2TeS2
_chemical_formula_sum   'Er2 Te1 S2'
_cell_volume   145.76339722
_cell_formula_units_Z   1
loop_
 _symmetry_equiv_pos_site_id
 _symmetry_equiv_pos_as_xyz
  1  'x, y, z'
loop_
 _atom_site_type_symbol
 _atom_site_label
 _atom_site_symmetry_multiplicity
 _atom_site_fract_x
 _atom_site_fract_y
 _atom_site_fract_z
 _atom_site_occupancy
  Er  Er0  1  0.83277311  0.33277311  0.50000000  1
  Er  Er1  1  0.16722689  0.66722689  0.50000000  1
  Te  Te2  1  -0.00000000  -0.00000000  0.00000000  1
  S  S3  1  0.70231788  0.70231788  0.00000000  1
  S  S4  1  0.29768212  0.29768212  -0.00000000  1
