# generated using pymatgen
data_Sr10Mg5Mo4WO30
_symmetry_space_group_name_H-M   'P 1'
_cell_length_a   5.57271650
_cell_length_b   5.58730231
_cell_length_c   23.05540551
_cell_angle_alpha   83.60131776
_cell_angle_beta   83.15982483
_cell_angle_gamma   60.06213163
_symmetry_Int_Tables_number   1
_chemical_formula_structural   Sr10Mg5Mo4WO30
_chemical_formula_sum   'Sr10 Mg5 Mo4 W1 O30'
_cell_volume   616.51971398
_cell_formula_units_Z   1
loop_
 _symmetry_equiv_pos_site_id
 _symmetry_equiv_pos_as_xyz
  1  'x, y, z'
loop_
 _atom_site_type_symbol
 _atom_site_label
 _atom_site_symmetry_multiplicity
 _atom_site_fract_x
 _atom_site_fract_y
 _atom_site_fract_z
 _atom_site_occupancy
  Sr  Sr0  1  0.84865765  0.84966814  0.94957291  1
  Sr  Sr1  1  0.44865365  0.45030439  0.15095243  1
  Sr  Sr2  1  0.04860825  0.05020684  0.35027483  1
  Sr  Sr3  1  0.64849769  0.64963698  0.55014543  1
  Sr  Sr4  1  0.24817082  0.24931678  0.75005936  1
  Sr  Sr5  1  0.55134635  0.54969561  0.84904757  1
  Sr  Sr6  1  0.15134235  0.15033186  0.05042709  1
  Sr  Sr7  1  0.75182918  0.75068322  0.24994064  1
  Sr  Sr8  1  0.35150231  0.35036302  0.44985457  1
  Sr  Sr9  1  0.95139175  0.94979316  0.64972517  1
  Mg  Mg10  1  0.19953421  0.19880634  0.90008419  1
  Mg  Mg11  1  0.80046579  0.80119366  0.09991581  1
  Mg  Mg12  1  0.40034229  0.40071376  0.30023955  1
  Mg  Mg13  1  0.00000000  0.00000000  0.50000000  1
  Mg  Mg14  1  0.59965771  0.59928624  0.69976045  1
  Mo  Mo15  1  0.89964069  0.89946324  0.79981177  1
  Mo  Mo16  1  0.10035931  0.10053676  0.20018823  1
  Mo  Mo17  1  0.70003369  0.70024975  0.40009928  1
  Mo  Mo18  1  0.29996631  0.29975025  0.59990072  1
  W  W19  1  0.50000000  0.50000000  0.00000000  1
  O  O20  1  0.54099281  0.03219975  0.84071441  1
  O  O21  1  0.13900774  0.63317394  0.04077869  1
  O  O22  1  0.74150587  0.23264894  0.24122742  1
  O  O23  1  0.34114285  0.83268551  0.44099925  1
  O  O24  1  0.94104665  0.43218048  0.64082825  1
  O  O25  1  0.86099226  0.36682606  0.95922131  1
  O  O26  1  0.45900719  0.96780025  0.15928559  1
  O  O27  1  0.05895335  0.56781952  0.35917175  1
  O  O28  1  0.65885715  0.16731449  0.55900075  1
  O  O29  1  0.25849413  0.76735106  0.75877258  1
  O  O30  1  0.36961215  0.84437533  0.95365213  1
  O  O31  1  0.96923505  0.44354200  0.15395605  1
  O  O32  1  0.56887692  0.04365952  0.35390682  1
  O  O33  1  0.16916291  0.64313124  0.55370446  1
  O  O34  1  0.76856093  0.24304449  0.75356224  1
  O  O35  1  0.03076495  0.55645800  0.84604395  1
  O  O36  1  0.63038785  0.15562467  0.04634787  1
  O  O37  1  0.23143907  0.75695551  0.24643776  1
  O  O38  1  0.83083709  0.35686876  0.44629554  1
  O  O39  1  0.43112308  0.95634048  0.64609318  1
  O  O40  1  0.00826011  0.04552847  0.85662823  1
  O  O41  1  0.60736880  0.64582826  0.05752411  1
  O  O42  1  0.20831472  0.24643370  0.25706659  1
  O  O43  1  0.80824201  0.84583568  0.45699137  1
  O  O44  1  0.40786649  0.44557632  0.65682059  1
  O  O45  1  0.39263120  0.35417174  0.94247589  1
  O  O46  1  0.99173989  0.95447153  0.14337177  1
  O  O47  1  0.59213351  0.55442368  0.34317941  1
  O  O48  1  0.19175799  0.15416432  0.54300863  1
  O  O49  1  0.79168528  0.75356630  0.74293341  1
