# generated using pymatgen
data_Zn3(AsO4)2
_symmetry_space_group_name_H-M   'P 1'
_cell_length_a   6.61949261
_cell_length_b   8.82725907
_cell_length_c   10.94454626
_cell_angle_alpha   90.00000000
_cell_angle_beta   93.73458501
_cell_angle_gamma   90.00000000
_symmetry_Int_Tables_number   1
_chemical_formula_structural   Zn3(AsO4)2
_chemical_formula_sum   'Zn12 As8 O32'
_cell_volume   638.15345283
_cell_formula_units_Z   4
loop_
 _symmetry_equiv_pos_site_id
 _symmetry_equiv_pos_as_xyz
  1  'x, y, z'
loop_
 _atom_site_type_symbol
 _atom_site_label
 _atom_site_symmetry_multiplicity
 _atom_site_fract_x
 _atom_site_fract_y
 _atom_site_fract_z
 _atom_site_occupancy
  Zn  Zn0  1  0.24401110  0.14574175  0.63443588  1
  Zn  Zn1  1  0.75598890  0.64574175  0.86556412  1
  Zn  Zn2  1  0.75598890  0.85425825  0.36556412  1
  Zn  Zn3  1  0.24401110  0.35425825  0.13443588  1
  Zn  Zn4  1  0.61908409  0.02170976  0.88470691  1
  Zn  Zn5  1  0.38091591  0.52170976  0.61529309  1
  Zn  Zn6  1  0.38091591  0.97829024  0.11529309  1
  Zn  Zn7  1  0.61908409  0.47829024  0.38470691  1
  Zn  Zn8  1  0.91784393  0.28525541  0.92199531  1
  Zn  Zn9  1  0.08215607  0.78525541  0.57800469  1
  Zn  Zn10  1  0.08215607  0.71474459  0.07800469  1
  Zn  Zn11  1  0.91784393  0.21474459  0.42199531  1
  As  As12  1  0.41689009  0.12965618  0.36470338  1
  As  As13  1  0.58310991  0.62965618  0.13529662  1
  As  As14  1  0.58310991  0.87034382  0.63529662  1
  As  As15  1  0.41689009  0.37034382  0.86470338  1
  As  As16  1  0.89341875  0.06116145  0.14742269  1
  As  As17  1  0.10658125  0.56116145  0.35257731  1
  As  As18  1  0.10658125  0.93883855  0.85257731  1
  As  As19  1  0.89341875  0.43883855  0.64742269  1
  O  O20  1  0.87402668  0.45341300  0.80227380  1
  O  O21  1  0.12597332  0.95341300  0.69772620  1
  O  O22  1  0.12597332  0.54658700  0.19772620  1
  O  O23  1  0.87402668  0.04658700  0.30227380  1
  O  O24  1  0.47837070  0.55414336  0.85795427  1
  O  O25  1  0.52162930  0.05414336  0.64204573  1
  O  O26  1  0.52162930  0.44585664  0.14204573  1
  O  O27  1  0.47837070  0.94585664  0.35795427  1
  O  O28  1  0.67306743  0.50300332  0.57690831  1
  O  O29  1  0.32693257  0.00300332  0.92309169  1
  O  O30  1  0.32693257  0.49699668  0.42309169  1
  O  O31  1  0.67306743  0.99699668  0.07690831  1
  O  O32  1  0.33610933  0.33296391  0.71516193  1
  O  O33  1  0.66389067  0.83296391  0.78483807  1
  O  O34  1  0.66389067  0.66703609  0.28483807  1
  O  O35  1  0.33610933  0.16703609  0.21516193  1
  O  O36  1  0.07787437  0.56612235  0.61851930  1
  O  O37  1  0.92212563  0.06612235  0.88148070  1
  O  O38  1  0.92212563  0.43387765  0.38148070  1
  O  O39  1  0.07787437  0.93387765  0.11851930  1
  O  O40  1  0.60863770  0.25055979  0.40733246  1
  O  O41  1  0.39136230  0.75055979  0.09266754  1
  O  O42  1  0.39136230  0.74944021  0.59266754  1
  O  O43  1  0.60863770  0.24944021  0.90733246  1
  O  O44  1  0.94900885  0.24137202  0.10732265  1
  O  O45  1  0.05099115  0.74137202  0.39267735  1
  O  O46  1  0.05099115  0.75862798  0.89267735  1
  O  O47  1  0.94900885  0.25862798  0.60732265  1
  O  O48  1  0.21641703  0.15833841  0.45303930  1
  O  O49  1  0.78358297  0.65833841  0.04696070  1
  O  O50  1  0.78358297  0.84166159  0.54696070  1
  O  O51  1  0.21641703  0.34166159  0.95303930  1
