# generated using pymatgen
data_Cs6Ho21S34Cl
_symmetry_space_group_name_H-M   'P 1'
_cell_length_a   12.99005031
_cell_length_b   12.99005031
_cell_length_c   12.99639993
_cell_angle_alpha   65.60910514
_cell_angle_beta   65.60910514
_cell_angle_gamma   97.35354590
_symmetry_Int_Tables_number   1
_chemical_formula_structural   Cs6Ho21S34Cl
_chemical_formula_sum   'Cs6 Ho21 S34 Cl1'
_cell_volume   1697.14583849
_cell_formula_units_Z   1
loop_
 _symmetry_equiv_pos_site_id
 _symmetry_equiv_pos_as_xyz
  1  'x, y, z'
loop_
 _atom_site_type_symbol
 _atom_site_label
 _atom_site_symmetry_multiplicity
 _atom_site_fract_x
 _atom_site_fract_y
 _atom_site_fract_z
 _atom_site_occupancy
  Cs  Cs0  1  0.05151494  0.80569608  0.72962079  1
  Cs  Cs1  1  0.80569608  0.05151494  0.72962079  1
  Cs  Cs2  1  0.94848506  0.19430392  0.27037921  1
  Cs  Cs3  1  0.19430392  0.94848506  0.27037921  1
  Cs  Cs4  1  0.76821547  0.76821547  0.58497557  1
  Cs  Cs5  1  0.23178453  0.23178453  0.41502443  1
  Ho  Ho6  1  0.69858010  0.30141990  -0.00000000  1
  Ho  Ho7  1  0.30141990  0.69858010  -0.00000000  1
  Ho  Ho8  1  0.04524629  0.46301719  0.75150645  1
  Ho  Ho9  1  0.46301719  0.04524629  0.75150645  1
  Ho  Ho10  1  0.95475371  0.53698281  0.24849355  1
  Ho  Ho11  1  0.53698281  0.95475371  0.24849355  1
  Ho  Ho12  1  0.82848889  0.42747541  0.62303813  1
  Ho  Ho13  1  0.42747541  0.82848889  0.62303813  1
  Ho  Ho14  1  0.17151111  0.57252459  0.37696187  1
  Ho  Ho15  1  0.57252459  0.17151111  0.37696187  1
  Ho  Ho16  1  0.90043190  0.09956810  -0.00000000  1
  Ho  Ho17  1  0.09956810  0.90043190  -0.00000000  1
  Ho  Ho18  1  0.26096389  0.46540784  0.89358364  1
  Ho  Ho19  1  0.46540784  0.26096389  0.89358364  1
  Ho  Ho20  1  0.73903611  0.53459216  0.10641636  1
  Ho  Ho21  1  0.53459216  0.73903611  0.10641636  1
  Ho  Ho22  1  0.39972823  0.60027177  0.50000000  1
  Ho  Ho23  1  0.60027177  0.39972823  0.50000000  1
  Ho  Ho24  1  0.50000000  0.50000000  -0.00000000  1
  Ho  Ho25  1  0.24344553  0.24344553  0.74294668  1
  Ho  Ho26  1  0.75655447  0.75655447  0.25705332  1
  S  S27  1  0.68253556  0.68253556  0.94147588  1
  S  S28  1  0.31746444  0.31746444  0.05852412  1
  S  S29  1  0.05878162  0.05878162  0.82099494  1
  S  S30  1  0.94121838  0.94121838  0.17900506  1
  S  S31  1  0.08951096  0.29002065  0.92251599  1
  S  S32  1  0.29002065  0.08951096  0.92251599  1
  S  S33  1  0.91048904  0.70997935  0.07748401  1
  S  S34  1  0.70997935  0.91048904  0.07748401  1
  S  S35  1  0.88171842  0.48589952  0.93605928  1
  S  S36  1  0.48589952  0.88171842  0.93605928  1
  S  S37  1  0.11828158  0.51410048  0.06394072  1
  S  S38  1  0.51410048  0.11828158  0.06394072  1
  S  S39  1  0.86698911  0.27370749  0.81435687  1
  S  S40  1  0.27370749  0.86698911  0.81435687  1
  S  S41  1  0.13301089  0.72629251  0.18564313  1
  S  S42  1  0.72629251  0.13301089  0.18564313  1
  S  S43  1  0.24587353  0.63232897  0.68900180  1
  S  S44  1  0.63232897  0.24587353  0.68900180  1
  S  S45  1  0.75412647  0.36767103  0.31099820  1
  S  S46  1  0.36767103  0.75412647  0.31099820  1
  S  S47  1  0.01264405  0.60794015  0.55827199  1
  S  S48  1  0.60794015  0.01264405  0.55827199  1
  S  S49  1  0.98735595  0.39205985  0.44172801  1
  S  S50  1  0.39205985  0.98735595  0.44172801  1
  S  S51  1  0.21319264  0.42209635  0.56332626  1
  S  S52  1  0.42209635  0.21319264  0.56332626  1
  S  S53  1  0.78680736  0.57790365  0.43667374  1
  S  S54  1  0.57790365  0.78680736  0.43667374  1
  S  S55  1  0.65075159  0.44926886  0.81951492  1
  S  S56  1  0.44926886  0.65075159  0.81951492  1
  S  S57  1  0.34924841  0.55073114  0.18048508  1
  S  S58  1  0.55073114  0.34924841  0.18048508  1
  S  S59  1  0.42564866  0.42564866  0.69206453  1
  S  S60  1  0.57435134  0.57435134  0.30793547  1
  Cl  Cl61  1  0.00000000  0.00000000  0.50000000  1
