# generated using pymatgen
data_MgFe3Ni2Sb(PO4)6
_symmetry_space_group_name_H-M   'P 1'
_cell_length_a   8.46388443
_cell_length_b   8.59788387
_cell_length_c   8.62465133
_cell_angle_alpha   61.62647114
_cell_angle_beta   61.92672456
_cell_angle_gamma   62.01031881
_symmetry_Int_Tables_number   1
_chemical_formula_structural   MgFe3Ni2Sb(PO4)6
_chemical_formula_sum   'Mg1 Fe3 Ni2 Sb1 P6 O24'
_cell_volume   462.21824237
_cell_formula_units_Z   1
loop_
 _symmetry_equiv_pos_site_id
 _symmetry_equiv_pos_as_xyz
  1  'x, y, z'
loop_
 _atom_site_type_symbol
 _atom_site_label
 _atom_site_symmetry_multiplicity
 _atom_site_fract_x
 _atom_site_fract_y
 _atom_site_fract_z
 _atom_site_occupancy
  Mg  Mg0  1  0.74493600  0.14067500  0.36024200  1
  Fe  Fe1  1  0.15288900  0.15241300  0.14353300  1
  Fe  Fe2  1  0.34176000  0.36330100  0.34818400  1
  Fe  Fe3  1  0.64369900  0.63757300  0.64641400  1
  Ni  Ni4  1  0.01560900  0.00293700  0.99600200  1
  Ni  Ni5  1  0.48919800  0.51181900  0.50234000  1
  Sb  Sb6  1  0.85827700  0.85234400  0.86283300  1
  P  P7  1  0.04346000  0.74031100  0.46084300  1
  P  P8  1  0.45801600  0.03924300  0.75084100  1
  P  P9  1  0.74569600  0.45467400  0.04568300  1
  P  P10  1  0.25460800  0.54802400  0.94286500  1
  P  P11  1  0.56112100  0.94675800  0.25672300  1
  P  P12  1  0.93135700  0.24911800  0.54676300  1
  O  O13  1  0.10416500  0.29652600  0.49037200  1
  O  O14  1  0.32177300  0.51794500  0.09120700  1
  O  O15  1  0.01724200  0.91625200  0.28314600  1
  O  O16  1  0.56277500  0.09034000  0.31338900  1
  O  O17  1  0.99735000  0.81375400  0.61959300  1
  O  O18  1  0.24669600  0.60709700  0.43332100  1
  O  O19  1  0.26075900  0.06040000  0.89679800  1
  O  O20  1  0.47804100  0.22313800  0.58402700  1
  O  O21  1  0.17288900  0.40772500  0.97788700  1
  O  O22  1  0.60177100  0.42970100  0.24743900  1
  O  O23  1  0.09319500  0.75421400  0.92860000  1
  O  O24  1  0.39576000  0.00761900  0.19660400  1
  O  O25  1  0.60370600  0.99535000  0.84329800  1
  O  O26  1  0.89685600  0.25494700  0.06826900  1
  O  O27  1  0.40184500  0.57721600  0.74351000  1
  O  O28  1  0.81477800  0.60994600  0.01565800  1
  O  O29  1  0.57853100  0.74938200  0.40460900  1
  O  O30  1  0.76086100  0.92733000  0.08871500  1
  O  O31  1  0.73751500  0.40355800  0.57906600  1
  O  O32  1  0.93502300  0.17863400  0.41082100  1
  O  O33  1  0.52228600  0.88266500  0.67771500  1
  O  O34  1  0.92846400  0.08768800  0.74783100  1
  O  O35  1  0.67782100  0.50500600  0.89062700  1
  O  O36  1  0.89927200  0.65031800  0.51829700  1
