# generated using pymatgen
data_SnPO4F
_symmetry_space_group_name_H-M   'P 1'
_cell_length_a   6.40032883
_cell_length_b   7.28969304
_cell_length_c   7.73490025
_cell_angle_alpha   90.00000000
_cell_angle_beta   90.00000000
_cell_angle_gamma   90.00000000
_symmetry_Int_Tables_number   1
_chemical_formula_structural   SnPO4F
_chemical_formula_sum   'Sn4 P4 O16 F4'
_cell_volume   360.88285161
_cell_formula_units_Z   4
loop_
 _symmetry_equiv_pos_site_id
 _symmetry_equiv_pos_as_xyz
  1  'x, y, z'
loop_
 _atom_site_type_symbol
 _atom_site_label
 _atom_site_symmetry_multiplicity
 _atom_site_fract_x
 _atom_site_fract_y
 _atom_site_fract_z
 _atom_site_occupancy
  Sn  Sn0  1  0.75000000  0.24593096  0.87225796  1
  Sn  Sn1  1  0.75000000  0.25406904  0.37225796  1
  Sn  Sn2  1  0.25000000  0.75406904  0.12774204  1
  Sn  Sn3  1  0.25000000  0.74593096  0.62774204  1
  P  P4  1  0.75000000  0.87352343  0.12812542  1
  P  P5  1  0.75000000  0.62647657  0.62812542  1
  P  P6  1  0.25000000  0.12647657  0.87187458  1
  P  P7  1  0.25000000  0.37352343  0.37187458  1
  O  O8  1  0.75000000  0.98721625  0.96122062  1
  O  O9  1  0.75000000  0.51278375  0.46122062  1
  O  O10  1  0.25000000  0.01278375  0.03877938  1
  O  O11  1  0.25000000  0.48721625  0.53877938  1
  O  O12  1  0.93911642  0.74605526  0.13094703  1
  O  O13  1  0.56088358  0.75394474  0.63094703  1
  O  O14  1  0.43911642  0.25394474  0.86905297  1
  O  O15  1  0.06088358  0.24605526  0.36905297  1
  O  O16  1  0.06088358  0.25394474  0.86905297  1
  O  O17  1  0.43911642  0.24605526  0.36905297  1
  O  O18  1  0.56088358  0.74605526  0.13094703  1
  O  O19  1  0.93911642  0.75394474  0.63094703  1
  O  O20  1  0.75000000  0.99536649  0.28843801  1
  O  O21  1  0.75000000  0.50463351  0.78843801  1
  O  O22  1  0.25000000  0.00463351  0.71156199  1
  O  O23  1  0.25000000  0.49536649  0.21156199  1
  F  F24  1  0.75000000  0.34686954  0.12049727  1
  F  F25  1  0.75000000  0.15313046  0.62049727  1
  F  F26  1  0.25000000  0.65313046  0.87950273  1
  F  F27  1  0.25000000  0.84686954  0.37950273  1
