# generated using pymatgen
data_CrAgS2
_symmetry_space_group_name_H-M   'P 1'
_cell_length_a   3.54033789
_cell_length_b   10.61220133
_cell_length_c   7.94764690
_cell_angle_alpha   79.72553599
_cell_angle_beta   90.08759523
_cell_angle_gamma   90.06800250
_symmetry_Int_Tables_number   1
_chemical_formula_structural   CrAgS2
_chemical_formula_sum   'Cr4 Ag4 S8'
_cell_volume   293.81066074
_cell_formula_units_Z   4
loop_
 _symmetry_equiv_pos_site_id
 _symmetry_equiv_pos_as_xyz
  1  'x, y, z'
loop_
 _atom_site_type_symbol
 _atom_site_label
 _atom_site_symmetry_multiplicity
 _atom_site_fract_x
 _atom_site_fract_y
 _atom_site_fract_z
 _atom_site_occupancy
  Cr  Cr0  1  0.99978400  0.49728800  0.50310800  1
  Cr  Cr1  1  0.49915900  0.75298300  0.24648100  1
  Cr  Cr2  1  0.99975700  0.99726700  0.00308700  1
  Cr  Cr3  1  0.49915000  0.25298300  0.74642900  1
  Ag  Ag4  1  0.99951300  0.15409600  0.30461900  1
  Ag  Ag5  1  0.49908200  0.40369000  0.05960100  1
  Ag  Ag6  1  0.99952300  0.65409500  0.80465900  1
  Ag  Ag7  1  0.49909900  0.90370300  0.55955000  1
  S  S8  1  0.99844900  0.26985200  0.54206900  1
  S  S9  1  0.49894600  0.52311300  0.29691900  1
  S  S10  1  0.99846400  0.76983400  0.04211900  1
  S  S11  1  0.49892800  0.02310500  0.79688200  1
  S  S12  1  0.00036300  0.23097400  0.96025200  1
  S  S13  1  0.50051100  0.48391400  0.71668400  1
  S  S14  1  0.00037300  0.73098800  0.46029200  1
  S  S15  1  0.50049800  0.98391500  0.21664900  1
