# generated using pymatgen
data_Li7H5N4
_symmetry_space_group_name_H-M   'P 1'
_cell_length_a   7.05971844
_cell_length_b   7.05878066
_cell_length_c   10.39773116
_cell_angle_alpha   90.00000000
_cell_angle_beta   90.00000000
_cell_angle_gamma   90.00000000
_symmetry_Int_Tables_number   1
_chemical_formula_structural   Li7H5N4
_chemical_formula_sum   'Li28 H20 N16'
_cell_volume   518.15017838
_cell_formula_units_Z   4
loop_
 _symmetry_equiv_pos_site_id
 _symmetry_equiv_pos_as_xyz
  1  'x, y, z'
loop_
 _atom_site_type_symbol
 _atom_site_label
 _atom_site_symmetry_multiplicity
 _atom_site_fract_x
 _atom_site_fract_y
 _atom_site_fract_z
 _atom_site_occupancy
  Li  Li0  1  0.40453545  0.50759508  0.39242089  1
  Li  Li1  1  0.90453545  0.49240492  0.60757911  1
  Li  Li2  1  0.90453545  0.99240492  0.89242089  1
  Li  Li3  1  0.40453545  0.00759508  0.10757911  1
  Li  Li4  1  0.36033809  0.44737534  0.85408321  1
  Li  Li5  1  0.86033809  0.55262466  0.14591679  1
  Li  Li6  1  0.86033809  0.05262466  0.35408321  1
  Li  Li7  1  0.36033809  0.94737534  0.64591679  1
  Li  Li8  1  0.32855030  0.50232902  0.61393429  1
  Li  Li9  1  0.82855030  0.49767098  0.38606571  1
  Li  Li10  1  0.82855030  0.99767098  0.11393429  1
  Li  Li11  1  0.32855030  0.00232902  0.88606571  1
  Li  Li12  1  0.09836955  0.75363002  0.63049342  1
  Li  Li13  1  0.59836955  0.24636998  0.36950658  1
  Li  Li14  1  0.59836955  0.74636998  0.13049342  1
  Li  Li15  1  0.09836955  0.25363002  0.86950658  1
  Li  Li16  1  0.15265066  0.73435911  0.85514022  1
  Li  Li17  1  0.65265066  0.26564089  0.14485978  1
  Li  Li18  1  0.65265066  0.76564089  0.35514022  1
  Li  Li19  1  0.15265066  0.23435911  0.64485978  1
  Li  Li20  1  0.11331265  0.69882606  0.40830407  1
  Li  Li21  1  0.61331265  0.30117394  0.59169593  1
  Li  Li22  1  0.61331265  0.80117394  0.90830407  1
  Li  Li23  1  0.11331265  0.19882606  0.09169593  1
  Li  Li24  1  0.12134539  0.79477932  0.08692957  1
  Li  Li25  1  0.62134539  0.20522068  0.91307043  1
  Li  Li26  1  0.62134539  0.70522068  0.58692957  1
  Li  Li27  1  0.12134539  0.29477932  0.41307043  1
  H  H28  1  0.21130041  0.51664833  0.20660156  1
  H  H29  1  0.71130041  0.48335167  0.79339844  1
  H  H30  1  0.71130041  0.98335167  0.70660156  1
  H  H31  1  0.21130041  0.01664833  0.29339844  1
  H  H32  1  0.50118072  0.49661233  0.20557499  1
  H  H33  1  0.00118072  0.50338767  0.79442501  1
  H  H34  1  0.00118072  0.00338767  0.70557499  1
  H  H35  1  0.50118072  0.99661233  0.29442501  1
  H  H36  1  0.86543114  0.86864884  0.52346284  1
  H  H37  1  0.36543114  0.13135116  0.47653716  1
  H  H38  1  0.36543114  0.63135116  0.02346284  1
  H  H39  1  0.86543114  0.36864884  0.97653716  1
  H  H40  1  0.87496525  0.65362384  0.95252002  1
  H  H41  1  0.37496525  0.34637616  0.04747998  1
  H  H42  1  0.37496525  0.84637616  0.45252002  1
  H  H43  1  0.87496525  0.15362384  0.54747998  1
  H  H44  1  0.54093606  0.62543201  0.76119595  1
  H  H45  1  0.04093606  0.37456799  0.23880405  1
  H  H46  1  0.04093606  0.87456799  0.26119595  1
  H  H47  1  0.54093606  0.12543201  0.73880405  1
  N  N48  1  0.59824724  0.49845108  0.73276152  1
  N  N49  1  0.09824724  0.50154892  0.26723848  1
  N  N50  1  0.09824724  0.00154892  0.23276152  1
  N  N51  1  0.59824724  0.99845108  0.76723848  1
  N  N52  1  0.12464815  0.49167358  0.74203056  1
  N  N53  1  0.62464815  0.50832642  0.25796944  1
  N  N54  1  0.62464815  0.00832642  0.24203056  1
  N  N55  1  0.12464815  0.99167358  0.75796944  1
  N  N56  1  0.35661055  0.73235964  0.51314928  1
  N  N57  1  0.85661055  0.26764036  0.48685072  1
  N  N58  1  0.85661055  0.76764036  0.01314928  1
  N  N59  1  0.35661055  0.23235964  0.98685072  1
  N  N60  1  0.36557639  0.77052139  0.99366401  1
  N  N61  1  0.86557639  0.22947861  0.00633599  1
  N  N62  1  0.86557639  0.72947861  0.49366401  1
  N  N63  1  0.36557639  0.27052139  0.50633599  1
