# generated using pymatgen
data_RhSCl5
_symmetry_space_group_name_H-M   'P 1'
_cell_length_a   13.99433233
_cell_length_b   13.99433233
_cell_length_c   27.53375942
_cell_angle_alpha   61.86234048
_cell_angle_beta   61.86234048
_cell_angle_gamma   29.29123151
_symmetry_Int_Tables_number   1
_chemical_formula_structural   RhSCl5
_chemical_formula_sum   'Rh12 S12 Cl60'
_cell_volume   2303.53565659
_cell_formula_units_Z   12
loop_
 _symmetry_equiv_pos_site_id
 _symmetry_equiv_pos_as_xyz
  1  'x, y, z'
loop_
 _atom_site_type_symbol
 _atom_site_label
 _atom_site_symmetry_multiplicity
 _atom_site_fract_x
 _atom_site_fract_y
 _atom_site_fract_z
 _atom_site_occupancy
  Rh  Rh0  1  0.93760500  0.83983800  0.93778900  1
  Rh  Rh1  1  0.31504500  0.06007800  0.41560900  1
  Rh  Rh2  1  0.06007800  0.31504500  0.91560900  1
  Rh  Rh3  1  0.01800600  0.63724100  0.85251300  1
  Rh  Rh4  1  0.68495500  0.93992200  0.58439100  1
  Rh  Rh5  1  0.16016200  0.06239500  0.56221100  1
  Rh  Rh6  1  0.06239500  0.16016200  0.06221100  1
  Rh  Rh7  1  0.93992200  0.68495500  0.08439100  1
  Rh  Rh8  1  0.36275900  0.98199400  0.64748700  1
  Rh  Rh9  1  0.63724100  0.01800600  0.35251300  1
  Rh  Rh10  1  0.83983800  0.93760500  0.43778900  1
  Rh  Rh11  1  0.98199400  0.36275900  0.14748700  1
  S  S12  1  0.91985300  0.29475000  0.91365400  1
  S  S13  1  0.29475000  0.91985300  0.41365400  1
  S  S14  1  0.75436600  0.53924400  0.21729100  1
  S  S15  1  0.70525000  0.08014700  0.58634600  1
  S  S16  1  0.08014700  0.70525000  0.08634600  1
  S  S17  1  0.72909800  0.12917100  0.88150700  1
  S  S18  1  0.24563400  0.46075600  0.78270900  1
  S  S19  1  0.27090200  0.87082900  0.11849300  1
  S  S20  1  0.53924400  0.75436600  0.71729100  1
  S  S21  1  0.46075600  0.24563400  0.28270900  1
  S  S22  1  0.12917100  0.72909800  0.38150700  1
  S  S23  1  0.87082900  0.27090200  0.61849300  1
  Cl  Cl24  1  0.17304900  0.21307600  0.56746700  1
  Cl  Cl25  1  0.37650600  0.44260700  0.06825100  1
  Cl  Cl26  1  0.93518600  0.31439800  0.83288800  1
  Cl  Cl27  1  0.55739300  0.62349400  0.43174900  1
  Cl  Cl28  1  0.53228900  0.14514600  0.50123800  1
  Cl  Cl29  1  0.44260700  0.37650600  0.56825100  1
  Cl  Cl30  1  0.69586200  0.85377400  0.15987700  1
  Cl  Cl31  1  0.68560200  0.06481400  0.66711200  1
  Cl  Cl32  1  0.14514600  0.53228900  0.00123800  1
  Cl  Cl33  1  0.58345600  0.33813700  0.91800100  1
  Cl  Cl34  1  0.66186300  0.41654400  0.58199900  1
  Cl  Cl35  1  0.37341400  0.14066600  0.64194300  1
  Cl  Cl36  1  0.14066600  0.37341400  0.14194300  1
  Cl  Cl37  1  0.33537100  0.83890400  0.63885200  1
  Cl  Cl38  1  0.21307600  0.17304900  0.06746700  1
  Cl  Cl39  1  0.32840000  0.54425300  0.73529900  1
  Cl  Cl40  1  0.12088700  0.88195800  0.31383500  1
  Cl  Cl41  1  0.90446200  0.15048900  0.05692900  1
  Cl  Cl42  1  0.27060800  0.01221000  0.97814800  1
  Cl  Cl43  1  0.13952600  0.30244800  0.34005800  1
  Cl  Cl44  1  0.82695100  0.78692400  0.43253300  1
  Cl  Cl45  1  0.54425300  0.32840000  0.23529900  1
  Cl  Cl46  1  0.62349400  0.55739300  0.93174900  1
  Cl  Cl47  1  0.31439800  0.93518600  0.33288800  1
  Cl  Cl48  1  0.44608800  0.88821200  0.77301200  1
  Cl  Cl49  1  0.66462900  0.16109600  0.36114800  1
  Cl  Cl50  1  0.83890400  0.33537100  0.13885200  1
  Cl  Cl51  1  0.33813700  0.58345600  0.41800100  1
  Cl  Cl52  1  0.30244800  0.13952600  0.84005800  1
  Cl  Cl53  1  0.62151300  0.85687700  0.35790900  1
  Cl  Cl54  1  0.45033400  0.66901100  0.76446300  1
  Cl  Cl55  1  0.78011300  0.66105200  0.08370000  1
  Cl  Cl56  1  0.84951100  0.09553800  0.44307100  1
  Cl  Cl57  1  0.05331300  0.19526300  0.70525600  1
  Cl  Cl58  1  0.01221000  0.27060800  0.47814800  1
  Cl  Cl59  1  0.09553800  0.84951100  0.94307100  1
  Cl  Cl60  1  0.16109600  0.66462900  0.86114800  1
  Cl  Cl61  1  0.11804200  0.87911300  0.18616500  1
  Cl  Cl62  1  0.11442600  0.54177800  0.72768400  1
  Cl  Cl63  1  0.66105200  0.78011300  0.58370000  1
  Cl  Cl64  1  0.06028100  0.68116100  0.16790900  1
  Cl  Cl65  1  0.85485400  0.46771100  0.99876200  1
  Cl  Cl66  1  0.88821200  0.44608800  0.27301200  1
  Cl  Cl67  1  0.85377400  0.69586200  0.65987700  1
  Cl  Cl68  1  0.78692400  0.82695100  0.93253300  1
  Cl  Cl69  1  0.21988700  0.33894800  0.91630000  1
  Cl  Cl70  1  0.80560800  0.93971500  0.79388400  1
  Cl  Cl71  1  0.98779000  0.72939200  0.52185200  1
  Cl  Cl72  1  0.46771100  0.85485400  0.49876200  1
  Cl  Cl73  1  0.15048900  0.90446200  0.55692900  1
  Cl  Cl74  1  0.88195800  0.12088700  0.81383500  1
  Cl  Cl75  1  0.41654400  0.66186300  0.08199900  1
  Cl  Cl76  1  0.33894800  0.21988700  0.41630000  1
  Cl  Cl77  1  0.67160000  0.45574700  0.26470100  1
  Cl  Cl78  1  0.87911300  0.11804200  0.68616500  1
  Cl  Cl79  1  0.93971500  0.80560800  0.29388400  1
  Cl  Cl80  1  0.54177800  0.11442600  0.22768400  1
  Cl  Cl81  1  0.85933400  0.62658600  0.85805700  1
  Cl  Cl82  1  0.19526300  0.05331300  0.20525600  1
  Cl  Cl83  1  0.72939200  0.98779000  0.02185200  1
