# generated using pymatgen
data_K2Nd2Mg(SO4)4
_symmetry_space_group_name_H-M   'P 1'
_cell_length_a   5.46829504
_cell_length_b   8.46986291
_cell_length_c   9.85015537
_cell_angle_alpha   104.62986991
_cell_angle_beta   91.82412173
_cell_angle_gamma   90.05756335
_symmetry_Int_Tables_number   1
_chemical_formula_structural   K2Nd2Mg(SO4)4
_chemical_formula_sum   'K2 Nd2 Mg1 S4 O16'
_cell_volume   441.18230918
_cell_formula_units_Z   1
loop_
 _symmetry_equiv_pos_site_id
 _symmetry_equiv_pos_as_xyz
  1  'x, y, z'
loop_
 _atom_site_type_symbol
 _atom_site_label
 _atom_site_symmetry_multiplicity
 _atom_site_fract_x
 _atom_site_fract_y
 _atom_site_fract_z
 _atom_site_occupancy
  K  K0  1  0.76080798  0.13477591  0.07744296  1
  K  K1  1  0.24592852  0.97379121  0.66166666  1
  Nd  Nd2  1  0.22947802  0.58629063  0.29143813  1
  Nd  Nd3  1  0.76871933  0.39387485  0.72960937  1
  Mg  Mg4  1  0.25207623  0.79529133  0.96725408  1
  S  S5  1  0.24720911  0.34626908  0.91117226  1
  S  S6  1  0.74861027  0.74166534  0.56010451  1
  S  S7  1  0.75270454  0.62760123  0.11489177  1
  S  S8  1  0.25239182  0.23965723  0.46196202  1
  O  O9  1  0.72136300  0.56932672  0.96099138  1
  O  O10  1  0.21318652  0.34153495  0.35850730  1
  O  O11  1  0.77737053  0.63266175  0.65727603  1
  O  O12  1  0.96434277  0.71540898  0.46722045  1
  O  O13  1  0.26624050  0.06742884  0.39170997  1
  O  O14  1  0.46665750  0.25630914  0.84645640  1
  O  O15  1  0.97652446  0.73613213  0.14943151  1
  O  O16  1  0.20914530  0.49593999  0.85771066  1
  O  O17  1  0.04367370  0.26986960  0.56063323  1
  O  O18  1  0.52764846  0.71869675  0.16952724  1
  O  O19  1  0.79434249  0.49157017  0.18462616  1
  O  O20  1  0.28089496  0.38679234  0.06592245  1
  O  O21  1  0.02368254  0.24058461  0.86693176  1
  O  O22  1  0.73975904  0.91257875  0.63848296  1
  O  O23  1  0.48165998  0.29930676  0.54673379  1
  O  O24  1  0.51808242  0.69330871  0.47372596  1
