# generated using pymatgen
data_BaSbF5
_symmetry_space_group_name_H-M   'P 1'
_cell_length_a   4.71608785
_cell_length_b   9.32623265
_cell_length_c   11.16453858
_cell_angle_alpha   90.00000000
_cell_angle_beta   90.00000000
_cell_angle_gamma   90.00000000
_symmetry_Int_Tables_number   1
_chemical_formula_structural   BaSbF5
_chemical_formula_sum   'Ba4 Sb4 F20'
_cell_volume   491.05361243
_cell_formula_units_Z   4
loop_
 _symmetry_equiv_pos_site_id
 _symmetry_equiv_pos_as_xyz
  1  'x, y, z'
loop_
 _atom_site_type_symbol
 _atom_site_label
 _atom_site_symmetry_multiplicity
 _atom_site_fract_x
 _atom_site_fract_y
 _atom_site_fract_z
 _atom_site_occupancy
  Ba  Ba0  1  0.03337881  0.25000000  0.50000000  1
  Ba  Ba1  1  0.96662119  0.75000000  0.00000000  1
  Ba  Ba2  1  0.96662119  0.75000000  0.50000000  1
  Ba  Ba3  1  0.03337881  0.25000000  0.00000000  1
  Sb  Sb4  1  0.58830378  0.95054478  0.75000000  1
  Sb  Sb5  1  0.58830378  0.54945522  0.25000000  1
  Sb  Sb6  1  0.41169622  0.45054478  0.75000000  1
  Sb  Sb7  1  0.41169622  0.04945522  0.25000000  1
  F  F8  1  0.12631852  0.98641806  0.38390152  1
  F  F9  1  0.12631852  0.51358194  0.61609848  1
  F  F10  1  0.87368148  0.48641806  0.11609848  1
  F  F11  1  0.87368148  0.01358194  0.88390152  1
  F  F12  1  0.87368148  0.01358194  0.61609848  1
  F  F13  1  0.87368148  0.48641806  0.38390152  1
  F  F14  1  0.12631852  0.51358194  0.88390152  1
  F  F15  1  0.12631852  0.98641806  0.11609848  1
  F  F16  1  0.11927665  0.20399031  0.25000000  1
  F  F17  1  0.11927665  0.29600969  0.75000000  1
  F  F18  1  0.88072335  0.70399031  0.25000000  1
  F  F19  1  0.88072335  0.79600969  0.75000000  1
  F  F20  1  0.45332210  0.68920568  0.11571257  1
  F  F21  1  0.45332210  0.81079432  0.88428743  1
  F  F22  1  0.54667790  0.18920568  0.38428743  1
  F  F23  1  0.54667790  0.31079432  0.61571257  1
  F  F24  1  0.54667790  0.31079432  0.88428743  1
  F  F25  1  0.54667790  0.18920568  0.11571257  1
  F  F26  1  0.45332210  0.81079432  0.61571257  1
  F  F27  1  0.45332210  0.68920568  0.38428743  1
