# generated using pymatgen
data_Mn2ZnO4
_symmetry_space_group_name_H-M   'P 1'
_cell_length_a   5.71624738
_cell_length_b   5.71623521
_cell_length_c   6.14961926
_cell_angle_alpha   117.73127832
_cell_angle_beta   117.73157321
_cell_angle_gamma   89.96639720
_symmetry_Int_Tables_number   1
_chemical_formula_structural   Mn2ZnO4
_chemical_formula_sum   'Mn4 Zn2 O8'
_cell_volume   151.33353656
_cell_formula_units_Z   2
loop_
 _symmetry_equiv_pos_site_id
 _symmetry_equiv_pos_as_xyz
  1  'x, y, z'
loop_
 _atom_site_type_symbol
 _atom_site_label
 _atom_site_symmetry_multiplicity
 _atom_site_fract_x
 _atom_site_fract_y
 _atom_site_fract_z
 _atom_site_occupancy
  Mn  Mn0  1  0.00000049  -0.00000561  0.99999863  1
  Mn  Mn1  1  0.49999518  -0.00000112  0.49999437  1
  Mn  Mn2  1  0.99999716  -0.00000293  0.49999613  1
  Mn  Mn3  1  0.99999500  0.49999000  0.99999015  1
  Zn  Zn4  1  0.62523451  0.37476345  0.25000067  1
  Zn  Zn5  1  0.37476724  0.62522978  0.74999983  1
  O  O6  1  0.75498282  0.77856726  0.50974081  1
  O  O7  1  0.76885441  0.24523013  0.99023797  1
  O  O8  1  0.22143433  0.24501029  0.99025714  1
  O  O9  1  0.24501331  0.22143413  0.49025368  1
  O  O10  1  0.24522210  0.76885701  0.49024047  1
  O  O11  1  0.23115069  0.75477700  0.00976641  1
  O  O12  1  0.75478458  0.23115607  0.50977398  1
  O  O13  1  0.77856818  0.75499354  0.00974876  1
