# generated using pymatgen
data_Ta2O5
_symmetry_space_group_name_H-M   'P 1'
_cell_length_a   3.86271575
_cell_length_b   3.84140801
_cell_length_c   6.77759999
_cell_angle_alpha   74.43237438
_cell_angle_beta   90.00000000
_cell_angle_gamma   90.00000000
_symmetry_Int_Tables_number   1
_chemical_formula_structural   Ta2O5
_chemical_formula_sum   'Ta2 O5'
_cell_volume   96.87844466
_cell_formula_units_Z   1
loop_
 _symmetry_equiv_pos_site_id
 _symmetry_equiv_pos_as_xyz
  1  'x, y, z'
loop_
 _atom_site_type_symbol
 _atom_site_label
 _atom_site_symmetry_multiplicity
 _atom_site_fract_x
 _atom_site_fract_y
 _atom_site_fract_z
 _atom_site_occupancy
  Ta  Ta0  1  0.00000000  0.35046927  0.79131453  1
  Ta  Ta1  1  0.00000000  0.64953073  0.20868547  1
  O  O2  1  0.50000000  0.33787570  0.79832929  1
  O  O3  1  0.50000000  0.66212430  0.20167071  1
  O  O4  1  0.00000000  0.81023943  0.87062125  1
  O  O5  1  0.00000000  0.18976057  0.12937875  1
  O  O6  1  0.00000000  0.50000000  0.50000000  1
