# generated using pymatgen
data_PrTl(MoO4)2
_symmetry_space_group_name_H-M   'P 1'
_cell_length_a   5.19739743
_cell_length_b   8.28062285
_cell_length_c   18.56349573
_cell_angle_alpha   90.00000000
_cell_angle_beta   90.00000000
_cell_angle_gamma   90.00000000
_symmetry_Int_Tables_number   1
_chemical_formula_structural   PrTl(MoO4)2
_chemical_formula_sum   'Pr4 Tl4 Mo8 O32'
_cell_volume   798.92993592
_cell_formula_units_Z   4
loop_
 _symmetry_equiv_pos_site_id
 _symmetry_equiv_pos_as_xyz
  1  'x, y, z'
loop_
 _atom_site_type_symbol
 _atom_site_label
 _atom_site_symmetry_multiplicity
 _atom_site_fract_x
 _atom_site_fract_y
 _atom_site_fract_z
 _atom_site_occupancy
  Pr  Pr0  1  0.50000000  0.75000000  0.50814552  1
  Pr  Pr1  1  0.00000000  0.25000000  0.99185448  1
  Pr  Pr2  1  0.50000000  0.25000000  0.49185448  1
  Pr  Pr3  1  0.00000000  0.75000000  0.00814552  1
  Tl  Tl4  1  0.00000000  0.75000000  0.76816139  1
  Tl  Tl5  1  0.50000000  0.25000000  0.73183861  1
  Tl  Tl6  1  0.00000000  0.25000000  0.23183861  1
  Tl  Tl7  1  0.50000000  0.75000000  0.26816139  1
  Mo  Mo8  1  0.48285023  0.51973563  0.89644989  1
  Mo  Mo9  1  0.98285023  0.48026437  0.60355011  1
  Mo  Mo10  1  0.01714977  0.01973563  0.60355011  1
  Mo  Mo11  1  0.51714977  0.98026437  0.89644989  1
  Mo  Mo12  1  0.51714977  0.48026437  0.10355011  1
  Mo  Mo13  1  0.01714977  0.51973563  0.39644989  1
  Mo  Mo14  1  0.98285023  0.98026437  0.39644989  1
  Mo  Mo15  1  0.48285023  0.01973563  0.10355011  1
  O  O16  1  0.60982139  0.52863996  0.81071923  1
  O  O17  1  0.10982139  0.47136004  0.68928077  1
  O  O18  1  0.89017861  0.02863996  0.68928077  1
  O  O19  1  0.39017861  0.97136004  0.81071923  1
  O  O20  1  0.39017861  0.47136004  0.18928077  1
  O  O21  1  0.89017861  0.52863996  0.31071923  1
  O  O22  1  0.10982139  0.97136004  0.31071923  1
  O  O23  1  0.60982139  0.02863996  0.18928077  1
  O  O24  1  0.74453697  0.49889834  0.96209903  1
  O  O25  1  0.24453697  0.50110166  0.53790097  1
  O  O26  1  0.75546303  0.99889834  0.53790097  1
  O  O27  1  0.25546303  0.00110166  0.96209903  1
  O  O28  1  0.25546303  0.50110166  0.03790097  1
  O  O29  1  0.75546303  0.49889834  0.46209903  1
  O  O30  1  0.24453697  0.00110166  0.46209903  1
  O  O31  1  0.74453697  0.99889834  0.03790097  1
  O  O32  1  0.28454000  0.84714884  0.10242779  1
  O  O33  1  0.78454000  0.15285116  0.39757221  1
  O  O34  1  0.21546000  0.34714884  0.39757221  1
  O  O35  1  0.71546000  0.65285116  0.10242779  1
  O  O36  1  0.71546000  0.15285116  0.89757221  1
  O  O37  1  0.21546000  0.84714884  0.60242779  1
  O  O38  1  0.78454000  0.65285116  0.60242779  1
  O  O39  1  0.28454000  0.34714884  0.89757221  1
  O  O40  1  0.26585508  0.18601311  0.09346137  1
  O  O41  1  0.76585508  0.81398689  0.40653863  1
  O  O42  1  0.23414492  0.68601311  0.40653863  1
  O  O43  1  0.73414492  0.31398689  0.09346137  1
  O  O44  1  0.73414492  0.81398689  0.90653863  1
  O  O45  1  0.23414492  0.18601311  0.59346137  1
  O  O46  1  0.76585508  0.31398689  0.59346137  1
  O  O47  1  0.26585508  0.68601311  0.90653863  1
