# generated using pymatgen
data_Sr2YTaO6
_symmetry_space_group_name_H-M   'P 1'
_cell_length_a   5.80130217
_cell_length_b   5.87637564
_cell_length_c   8.23569302
_cell_angle_alpha   90.00000000
_cell_angle_beta   90.19007487
_cell_angle_gamma   90.00000000
_symmetry_Int_Tables_number   1
_chemical_formula_structural   Sr2YTaO6
_chemical_formula_sum   'Sr4 Y2 Ta2 O12'
_cell_volume   280.75842475
_cell_formula_units_Z   2
loop_
 _symmetry_equiv_pos_site_id
 _symmetry_equiv_pos_as_xyz
  1  'x, y, z'
loop_
 _atom_site_type_symbol
 _atom_site_label
 _atom_site_symmetry_multiplicity
 _atom_site_fract_x
 _atom_site_fract_y
 _atom_site_fract_z
 _atom_site_occupancy
  Sr  Sr0  1  0.99174682  0.46375884  0.24969589  1
  Sr  Sr1  1  0.50825318  0.96375884  0.25030411  1
  Sr  Sr2  1  0.49174682  0.03624116  0.74969589  1
  Sr  Sr3  1  0.00825318  0.53624116  0.75030411  1
  Y  Y4  1  0.00000000  0.00000000  0.00000000  1
  Y  Y5  1  0.50000000  0.50000000  0.50000000  1
  Ta  Ta6  1  0.50000000  0.50000000  0.00000000  1
  Ta  Ta7  1  0.00000000  0.00000000  0.50000000  1
  O  O8  1  0.80497689  0.72630098  0.45564924  1
  O  O9  1  0.69502311  0.22630098  0.04435076  1
  O  O10  1  0.19502311  0.27369902  0.54435076  1
  O  O11  1  0.30497689  0.77369902  0.95564924  1
  O  O12  1  0.72695382  0.19766010  0.45954076  1
  O  O13  1  0.77304618  0.69766010  0.04045924  1
  O  O14  1  0.27304618  0.80233990  0.54045924  1
  O  O15  1  0.22695382  0.30233990  0.95954076  1
  O  O16  1  0.07993604  0.02333832  0.26546832  1
  O  O17  1  0.42006396  0.52333832  0.23453168  1
  O  O18  1  0.92006396  0.97666168  0.73453168  1
  O  O19  1  0.57993604  0.47666168  0.76546832  1
