# generated using pymatgen
data_Li4NbCr5O12
_symmetry_space_group_name_H-M   'P 1'
_cell_length_a   5.23076189
_cell_length_b   20.97525074
_cell_length_c   5.23880637
_cell_angle_alpha   93.63290904
_cell_angle_beta   119.94943949
_cell_angle_gamma   82.70818443
_symmetry_Int_Tables_number   1
_chemical_formula_structural   Li4NbCr5O12
_chemical_formula_sum   'Li8 Nb2 Cr10 O24'
_cell_volume   494.00293553
_cell_formula_units_Z   2
loop_
 _symmetry_equiv_pos_site_id
 _symmetry_equiv_pos_as_xyz
  1  'x, y, z'
loop_
 _atom_site_type_symbol
 _atom_site_label
 _atom_site_symmetry_multiplicity
 _atom_site_fract_x
 _atom_site_fract_y
 _atom_site_fract_z
 _atom_site_occupancy
  Li  Li0  1  0.11358300  0.35394600  0.66238100  1
  Li  Li1  1  0.11361400  0.85419100  0.66224400  1
  Li  Li2  1  0.54868200  0.14606100  0.66235200  1
  Li  Li3  1  0.54864500  0.64580900  0.66220800  1
  Li  Li4  1  0.45112600  0.35394400  0.33751600  1
  Li  Li5  1  0.45144900  0.85419100  0.33790700  1
  Li  Li6  1  0.88624000  0.14605800  0.33753400  1
  Li  Li7  1  0.88649200  0.64580900  0.33790400  1
  Nb  Nb8  1  0.99995100  0.00013300  0.99998100  1
  Nb  Nb9  1  0.00009700  0.49989600  0.99999500  1
  Cr  Cr10  1  0.49987500  0.75003100  0.00011500  1
  Cr  Cr11  1  0.49998300  0.24997600  0.99995200  1
  Cr  Cr12  1  0.16290900  0.24997900  0.32601500  1
  Cr  Cr13  1  0.16309200  0.75004300  0.32615600  1
  Cr  Cr14  1  0.83687100  0.24998000  0.67386300  1
  Cr  Cr15  1  0.83698400  0.75005900  0.67398200  1
  Cr  Cr16  1  0.33467000  0.49990800  0.66921000  1
  Cr  Cr17  1  0.33467400  0.00005800  0.66919400  1
  Cr  Cr18  1  0.66546200  0.00006200  0.33074100  1
  Cr  Cr19  1  0.66544600  0.49989800  0.33076800  1
  O  O20  1  0.15152500  0.30197800  0.99993600  1
  O  O21  1  0.15093700  0.80245000  0.00008000  1
  O  O22  1  0.84827900  0.19802400  0.99993600  1
  O  O23  1  0.84912300  0.69755000  0.00008200  1
  O  O24  1  0.30748900  0.04805200  0.99999000  1
  O  O25  1  0.30749800  0.54784700  0.99999100  1
  O  O26  1  0.69262900  0.45194200  0.99999000  1
  O  O27  1  0.69262900  0.95214200  0.99997900  1
  O  O28  1  0.97477600  0.05042900  0.33330600  1
  O  O29  1  0.97485700  0.55019100  0.33332200  1
  O  O30  1  0.35858800  0.44956300  0.33328500  1
  O  O31  1  0.35853000  0.94980400  0.33329600  1
  O  O32  1  0.64146500  0.05043100  0.66665600  1
  O  O33  1  0.64152800  0.55019200  0.66666200  1
  O  O34  1  0.02529900  0.44956500  0.66669800  1
  O  O35  1  0.02523800  0.94980100  0.66669300  1
  O  O36  1  0.19266200  0.19849400  0.65485200  1
  O  O37  1  0.19239600  0.69828000  0.65443200  1
  O  O38  1  0.46203800  0.30151000  0.65486000  1
  O  O39  1  0.46203600  0.80172100  0.65441200  1
  O  O40  1  0.53775800  0.19849300  0.34502400  1
  O  O41  1  0.53804200  0.69828200  0.34573700  1
  O  O42  1  0.80712200  0.30151100  0.34501300  1
  O  O43  1  0.80770800  0.80171700  0.34575300  1
