# generated using pymatgen
data_NaNbS6
_symmetry_space_group_name_H-M   'P 1'
_cell_length_a   7.42668174
_cell_length_b   7.42668174
_cell_length_c   7.25568413
_cell_angle_alpha   86.22158727
_cell_angle_beta   86.22158727
_cell_angle_gamma   119.10023062
_symmetry_Int_Tables_number   1
_chemical_formula_structural   NaNbS6
_chemical_formula_sum   'Na2 Nb2 S12'
_cell_volume   346.70674787
_cell_formula_units_Z   2
loop_
 _symmetry_equiv_pos_site_id
 _symmetry_equiv_pos_as_xyz
  1  'x, y, z'
loop_
 _atom_site_type_symbol
 _atom_site_label
 _atom_site_symmetry_multiplicity
 _atom_site_fract_x
 _atom_site_fract_y
 _atom_site_fract_z
 _atom_site_occupancy
  Na  Na0  1  0.66652395  0.32725890  0.99473306  1
  Na  Na1  1  0.32725890  0.66652395  0.49473306  1
  Nb  Nb2  1  0.99131662  0.01877142  0.74187137  1
  Nb  Nb3  1  0.01877142  0.99131662  0.24187137  1
  S  S4  1  0.96080573  0.23885893  0.47746297  1
  S  S5  1  0.23885893  0.96080573  0.97746297  1
  S  S6  1  0.30343114  0.36298089  0.79498249  1
  S  S7  1  0.36298089  0.30343114  0.29498249  1
  S  S8  1  0.04856451  0.26737820  0.98343857  1
  S  S9  1  0.26737820  0.04856451  0.48343857  1
  S  S10  1  0.70210076  0.09178349  0.66731163  1
  S  S11  1  0.09178349  0.70210076  0.16731163  1
  S  S12  1  0.94654146  0.66566258  0.71116359  1
  S  S13  1  0.66566258  0.94654146  0.21116359  1
  S  S14  1  0.77996939  0.72553203  0.52641533  1
  S  S15  1  0.72553203  0.77996939  0.02641533  1
