# generated using pymatgen
data_CsBaI3
_symmetry_space_group_name_H-M   'P 1'
_cell_length_a   5.27736676
_cell_length_b   10.58078051
_cell_length_c   18.51071733
_cell_angle_alpha   90.00000000
_cell_angle_beta   90.00000000
_cell_angle_gamma   90.00000000
_symmetry_Int_Tables_number   1
_chemical_formula_structural   CsBaI3
_chemical_formula_sum   'Cs4 Ba4 I12'
_cell_volume   1033.61363947
_cell_formula_units_Z   4
loop_
 _symmetry_equiv_pos_site_id
 _symmetry_equiv_pos_as_xyz
  1  'x, y, z'
loop_
 _atom_site_type_symbol
 _atom_site_label
 _atom_site_symmetry_multiplicity
 _atom_site_fract_x
 _atom_site_fract_y
 _atom_site_fract_z
 _atom_site_occupancy
  Cs  Cs0  1  0.75000000  0.58365692  0.17629450  1
  Cs  Cs1  1  0.25000000  0.41634308  0.82370550  1
  Cs  Cs2  1  0.75000000  0.08365692  0.32370550  1
  Cs  Cs3  1  0.25000000  0.91634308  0.67629450  1
  Ba  Ba4  1  0.25000000  0.67427936  0.43851051  1
  Ba  Ba5  1  0.75000000  0.32572064  0.56148949  1
  Ba  Ba6  1  0.25000000  0.17427936  0.06148949  1
  Ba  Ba7  1  0.75000000  0.82572064  0.93851051  1
  I  I8  1  0.75000000  0.84381503  0.51147566  1
  I  I9  1  0.25000000  0.15618497  0.48852434  1
  I  I10  1  0.75000000  0.34381503  0.98852434  1
  I  I11  1  0.25000000  0.65618497  0.01147566  1
  I  I12  1  0.25000000  0.52720063  0.60893041  1
  I  I13  1  0.75000000  0.47279937  0.39106959  1
  I  I14  1  0.25000000  0.02720063  0.89106959  1
  I  I15  1  0.75000000  0.97279937  0.10893041  1
  I  I16  1  0.25000000  0.81145304  0.27452228  1
  I  I17  1  0.75000000  0.18854696  0.72547772  1
  I  I18  1  0.25000000  0.31145304  0.22547772  1
  I  I19  1  0.75000000  0.68854696  0.77452228  1
