# generated using pymatgen
data_Na2Sr3P4
_symmetry_space_group_name_H-M   'P 1'
_cell_length_a   7.35574136
_cell_length_b   8.00112004
_cell_length_c   17.20345473
_cell_angle_alpha   62.18496580
_cell_angle_beta   90.00000000
_cell_angle_gamma   90.00000000
_symmetry_Int_Tables_number   1
_chemical_formula_structural   Na2Sr3P4
_chemical_formula_sum   'Na8 Sr12 P16'
_cell_volume   895.50991397
_cell_formula_units_Z   4
loop_
 _symmetry_equiv_pos_site_id
 _symmetry_equiv_pos_as_xyz
  1  'x, y, z'
loop_
 _atom_site_type_symbol
 _atom_site_label
 _atom_site_symmetry_multiplicity
 _atom_site_fract_x
 _atom_site_fract_y
 _atom_site_fract_z
 _atom_site_occupancy
  Na  Na0  1  0.86350529  0.26127292  0.25005672  1
  Na  Na1  1  0.36350529  0.73872708  0.24994328  1
  Na  Na2  1  0.13649471  0.73872708  0.74994328  1
  Na  Na3  1  0.63649471  0.26127292  0.75005672  1
  Na  Na4  1  0.68766566  0.05607640  0.12250429  1
  Na  Na5  1  0.18766566  0.94392360  0.37749571  1
  Na  Na6  1  0.31233434  0.94392360  0.87749571  1
  Na  Na7  1  0.81233434  0.05607640  0.62250429  1
  Sr  Sr8  1  0.53770752  0.59271320  0.10219485  1
  Sr  Sr9  1  0.03770752  0.40728680  0.39780515  1
  Sr  Sr10  1  0.46208326  0.70781300  0.60146927  1
  Sr  Sr11  1  0.96208326  0.29218700  0.89853073  1
  Sr  Sr12  1  0.46229248  0.40728680  0.89780515  1
  Sr  Sr13  1  0.96229248  0.59271320  0.60219485  1
  Sr  Sr14  1  0.53791674  0.29218700  0.39853073  1
  Sr  Sr15  1  0.03791674  0.70781300  0.10146927  1
  Sr  Sr16  1  0.31556111  0.18361299  0.62900168  1
  Sr  Sr17  1  0.81556111  0.81638701  0.87099832  1
  Sr  Sr18  1  0.68443889  0.81638701  0.37099832  1
  Sr  Sr19  1  0.18443889  0.18361299  0.12900168  1
  P  P20  1  0.86528297  0.43763166  0.03550480  1
  P  P21  1  0.36528297  0.56236834  0.46449520  1
  P  P22  1  0.13162979  0.99387794  0.53572907  1
  P  P23  1  0.63162979  0.00612206  0.96427093  1
  P  P24  1  0.13471703  0.56236834  0.96449520  1
  P  P25  1  0.63471703  0.43763166  0.53550480  1
  P  P26  1  0.86837021  0.00612206  0.46427093  1
  P  P27  1  0.36837021  0.99387794  0.03572907  1
  P  P28  1  0.97881523  0.82860375  0.24795739  1
  P  P29  1  0.47881523  0.17139625  0.25204261  1
  P  P30  1  0.02118477  0.17139625  0.75204261  1
  P  P31  1  0.52118477  0.82860375  0.74795739  1
  P  P32  1  0.75691189  0.62990495  0.25094314  1
  P  P33  1  0.25691189  0.37009505  0.24905686  1
  P  P34  1  0.24308811  0.37009505  0.74905686  1
  P  P35  1  0.74308811  0.62990495  0.75094314  1
