# generated using pymatgen
data_Gd3Y13O24
_symmetry_space_group_name_H-M   'P 1'
_cell_length_a   9.22182444
_cell_length_b   9.22182391
_cell_length_c   10.64584401
_cell_angle_alpha   54.69543048
_cell_angle_beta   54.69543069
_cell_angle_gamma   70.50955917
_symmetry_Int_Tables_number   1
_chemical_formula_structural   Gd3Y13O24
_chemical_formula_sum   'Gd3 Y13 O24'
_cell_volume   602.96406097
_cell_formula_units_Z   1
loop_
 _symmetry_equiv_pos_site_id
 _symmetry_equiv_pos_as_xyz
  1  'x, y, z'
loop_
 _atom_site_type_symbol
 _atom_site_label
 _atom_site_symmetry_multiplicity
 _atom_site_fract_x
 _atom_site_fract_y
 _atom_site_fract_z
 _atom_site_occupancy
  Gd  Gd0  1  0.75021268  0.75031404  0.46750963  1
  Gd  Gd1  1  0.24968572  0.24978777  0.53249008  1
  Gd  Gd2  1  0.46830540  0.53169411  0.00000009  1
  Y  Y3  1  0.00179202  0.50027377  0.75041138  1
  Y  Y4  1  0.49934392  0.00055435  0.75121854  1
  Y  Y5  1  0.49972614  0.99820766  0.24958868  1
  Y  Y6  1  0.99944598  0.50065530  0.24878195  1
  Y  Y7  1  0.03257343  0.96742649  0.49999990  1
  Y  Y8  1  0.78385123  0.28266319  0.21727377  1
  Y  Y9  1  0.71733665  0.21614859  0.78272646  1
  Y  Y10  1  0.24973250  0.24909514  0.03258283  1
  Y  Y11  1  0.75090493  0.75026758  0.96741726  1
  Y  Y12  1  0.53294835  0.46705205  0.49999982  1
  Y  Y13  1  0.96683298  0.03316667  -0.00000002  1
  Y  Y14  1  0.21783518  0.71872930  0.28203568  1
  Y  Y15  1  0.28127015  0.78216460  0.71796443  1
  O  O16  1  0.03139806  0.72913078  0.76076645  1
  O  O17  1  0.46953691  0.77374800  0.02146433  1
  O  O18  1  0.27086951  0.96860211  0.23923360  1
  O  O19  1  0.22625205  0.53046306  0.97853569  1
  O  O20  1  0.73974474  0.95684813  0.02157721  1
  O  O21  1  0.04315203  0.26025477  0.97842290  1
  O  O22  1  0.45735172  0.23914385  0.78166490  1
  O  O23  1  0.76085629  0.54264819  0.21833503  1
  O  O24  1  0.22832305  0.98714902  0.79466129  1
  O  O25  1  0.48703078  0.72824033  0.49004943  1
  O  O26  1  0.27175957  0.51296920  0.50995053  1
  O  O27  1  0.01285096  0.77167648  0.20533883  1
  O  O28  1  0.96509285  0.27284303  0.74226819  1
  O  O29  1  0.53457461  0.22776678  0.47975276  1
  O  O30  1  0.72715704  0.03490692  0.25773179  1
  O  O31  1  0.77223316  0.46542519  0.52024726  1
  O  O32  1  0.26150666  0.03987052  0.47750101  1
  O  O33  1  0.96012971  0.73849308  0.52249920  1
  O  O34  1  0.53927519  0.76463019  0.71870671  1
  O  O35  1  0.23536975  0.46072487  0.28129354  1
  O  O36  1  0.77077843  0.01035883  0.70762926  1
  O  O37  1  0.51052716  0.26721308  0.01117469  1
  O  O38  1  0.73278733  0.48947243  0.98882432  1
  O  O39  1  0.98964121  0.22922155  0.29237060  1
