# generated using pymatgen
data_LaTeCl
_symmetry_space_group_name_H-M   'P 1'
_cell_length_a   4.53794737
_cell_length_b   8.00043396
_cell_length_c   9.46708535
_cell_angle_alpha   90.00000000
_cell_angle_beta   90.00000000
_cell_angle_gamma   90.00000000
_symmetry_Int_Tables_number   1
_chemical_formula_structural   LaTeCl
_chemical_formula_sum   'La4 Te4 Cl4'
_cell_volume   343.70772394
_cell_formula_units_Z   4
loop_
 _symmetry_equiv_pos_site_id
 _symmetry_equiv_pos_as_xyz
  1  'x, y, z'
loop_
 _atom_site_type_symbol
 _atom_site_label
 _atom_site_symmetry_multiplicity
 _atom_site_fract_x
 _atom_site_fract_y
 _atom_site_fract_z
 _atom_site_occupancy
  La  La0  1  0.75000000  0.26218503  0.86877038  1
  La  La1  1  0.75000000  0.76218503  0.63122962  1
  La  La2  1  0.25000000  0.73781497  0.13122962  1
  La  La3  1  0.25000000  0.23781497  0.36877038  1
  Te  Te4  1  0.75000000  0.03784752  0.16853033  1
  Te  Te5  1  0.75000000  0.53784752  0.33146967  1
  Te  Te6  1  0.25000000  0.96215248  0.83146967  1
  Te  Te7  1  0.25000000  0.46215248  0.66853033  1
  Cl  Cl8  1  0.75000000  0.63478751  0.94069463  1
  Cl  Cl9  1  0.75000000  0.13478751  0.55930537  1
  Cl  Cl10  1  0.25000000  0.36521249  0.05930537  1
  Cl  Cl11  1  0.25000000  0.86521249  0.44069463  1
