# generated using pymatgen
data_MgV3CoSn2(PO4)6
_symmetry_space_group_name_H-M   'P 1'
_cell_length_a   9.18703131
_cell_length_b   8.45895735
_cell_length_c   8.58519582
_cell_angle_alpha   60.50080048
_cell_angle_beta   62.18949857
_cell_angle_gamma   62.81649632
_symmetry_Int_Tables_number   1
_chemical_formula_structural   MgV3CoSn2(PO4)6
_chemical_formula_sum   'Mg1 V3 Co1 Sn2 P6 O24'
_cell_volume   490.75658210
_cell_formula_units_Z   1
loop_
 _symmetry_equiv_pos_site_id
 _symmetry_equiv_pos_as_xyz
  1  'x, y, z'
loop_
 _atom_site_type_symbol
 _atom_site_label
 _atom_site_symmetry_multiplicity
 _atom_site_fract_x
 _atom_site_fract_y
 _atom_site_fract_z
 _atom_site_occupancy
  Mg  Mg0  1  0.65306575  0.17203419  0.42782772  1
  V  V1  1  0.06127696  0.62847266  0.66424272  1
  V  V2  1  0.44204701  0.84440257  0.85342733  1
  V  V3  1  0.94919111  0.35461210  0.34055502  1
  Co  Co4  1  0.52445294  0.16367095  0.13985602  1
  Sn  Sn5  1  0.94627210  0.01222077  0.00842090  1
  Sn  Sn6  1  0.47040129  0.63410577  0.48955469  1
  P  P7  1  0.25572300  0.24661408  0.54008774  1
  P  P8  1  0.24255150  0.95882288  0.25358492  1
  P  P9  1  0.25069244  0.53907694  0.95869590  1
  P  P10  1  0.75814265  0.45591162  0.03160143  1
  P  P11  1  0.75902567  0.02638002  0.74286760  1
  P  P12  1  0.75868733  0.74055765  0.47342440  1
  O  O13  1  0.07566892  0.12156450  0.27912417  1
  O  O14  1  0.07964675  0.50868873  0.10464554  1
  O  O15  1  0.10718237  0.28461135  0.48218648  1
  O  O16  1  0.27873942  0.05875965  0.70731223  1
  O  O17  1  0.43185180  0.24680365  0.37779037  1
  O  O18  1  0.21472530  0.41199058  0.60539100  1
  O  O19  1  0.30192801  0.95834491  0.05630020  1
  O  O20  1  0.20731573  0.76670627  0.40823680  1
  O  O21  1  0.61395112  0.63818959  0.98722743  1
  O  O22  1  0.22855261  0.62333957  0.75579602  1
  O  O23  1  0.73657867  0.28503588  0.02393002  1
  O  O24  1  0.61157810  0.00732229  0.71514801  1
  O  O25  1  0.39253179  0.96098102  0.29514853  1
  O  O26  1  0.28113053  0.69329660  0.97629989  1
  O  O27  1  0.75363611  0.38860475  0.23993030  1
  O  O28  1  0.40608834  0.36221294  0.95979951  1
  O  O29  1  0.78272749  0.21536972  0.57837399  1
  O  O30  1  0.71947386  0.02798345  0.93850421  1
  O  O31  1  0.79233019  0.61557761  0.37038047  1
  O  O32  1  0.57282820  0.75037973  0.61702268  1
  O  O33  1  0.75837251  0.94995514  0.32669324  1
  O  O34  1  0.89465729  0.66155929  0.56673537  1
  O  O35  1  0.93988535  0.47314852  0.90449619  1
  O  O36  1  0.92566179  0.86113607  0.71344497  1
