# generated using pymatgen
data_Rb2Te2Pt
_symmetry_space_group_name_H-M   'P 1'
_cell_length_a   7.05502090
_cell_length_b   7.05502090
_cell_length_c   7.05502090
_cell_angle_alpha   146.88108644
_cell_angle_beta   108.89483150
_cell_angle_gamma   80.71354765
_symmetry_Int_Tables_number   1
_chemical_formula_structural   Rb2Te2Pt
_chemical_formula_sum   'Rb2 Te2 Pt1'
_cell_volume   177.37726246
_cell_formula_units_Z   1
loop_
 _symmetry_equiv_pos_site_id
 _symmetry_equiv_pos_as_xyz
  1  'x, y, z'
loop_
 _atom_site_type_symbol
 _atom_site_label
 _atom_site_symmetry_multiplicity
 _atom_site_fract_x
 _atom_site_fract_y
 _atom_site_fract_z
 _atom_site_occupancy
  Rb  Rb0  1  0.70150464  0.20150464  0.50000000  1
  Rb  Rb1  1  0.29849536  0.79849536  0.50000000  1
  Te  Te2  1  0.21235375  0.50000000  0.71235375  1
  Te  Te3  1  0.78764625  0.50000000  0.28764625  1
  Pt  Pt4  1  -0.00000000  -0.00000000  -0.00000000  1
