# generated using pymatgen
data_V(PO3)3
_symmetry_space_group_name_H-M   'P 1'
_cell_length_a   11.62958045
_cell_length_b   11.62958045
_cell_length_c   9.44441852
_cell_angle_alpha   69.93189844
_cell_angle_beta   69.93189844
_cell_angle_gamma   110.81457162
_symmetry_Int_Tables_number   1
_chemical_formula_structural   V(PO3)3
_chemical_formula_sum   'V6 P18 O54'
_cell_volume   951.21754849
_cell_formula_units_Z   6
loop_
 _symmetry_equiv_pos_site_id
 _symmetry_equiv_pos_as_xyz
  1  'x, y, z'
loop_
 _atom_site_type_symbol
 _atom_site_label
 _atom_site_symmetry_multiplicity
 _atom_site_fract_x
 _atom_site_fract_y
 _atom_site_fract_z
 _atom_site_occupancy
  V  V0  1  0.17090497  0.33070323  0.49966731  1
  V  V1  1  0.33070323  0.17090497  0.99966731  1
  V  V2  1  0.84216541  0.66573369  0.49643741  1
  V  V3  1  0.66573369  0.84216541  0.99643741  1
  V  V4  1  0.47687931  0.98688165  0.53255435  1
  V  V5  1  0.98688165  0.47687931  0.03255435  1
  P  P6  1  0.83146515  0.12116453  0.28922893  1
  P  P7  1  0.12116453  0.83146515  0.78922893  1
  P  P8  1  0.53498174  0.49592346  0.22626522  1
  P  P9  1  0.49592346  0.53498174  0.72626522  1
  P  P10  1  0.18953163  0.81657983  0.24540128  1
  P  P11  1  0.81657983  0.18953163  0.74540128  1
  P  P12  1  0.80057798  0.40550041  0.84591750  1
  P  P13  1  0.40550041  0.80057798  0.34591750  1
  P  P14  1  0.46139567  0.73513237  0.84570179  1
  P  P15  1  0.73513237  0.46139567  0.34570179  1
  P  P16  1  0.14736427  0.08529296  0.81824206  1
  P  P17  1  0.08529296  0.14736427  0.31824206  1
  P  P18  1  0.18229722  0.57487607  0.19704051  1
  P  P19  1  0.57487607  0.18229722  0.69704051  1
  P  P20  1  0.51634243  0.24324296  0.19115050  1
  P  P21  1  0.24324296  0.51634243  0.69115050  1
  P  P22  1  0.86990789  0.92383140  0.16156719  1
  P  P23  1  0.92383140  0.86990789  0.66156719  1
  O  O24  1  0.38511889  0.42326375  0.37669578  1
  O  O25  1  0.42326375  0.38511889  0.87669578  1
  O  O26  1  0.95733924  0.22434582  0.61198961  1
  O  O27  1  0.22434582  0.95733924  0.11198961  1
  O  O28  1  0.14922149  0.14755244  0.64981407  1
  O  O29  1  0.14755244  0.14922149  0.14981407  1
  O  O30  1  0.17096731  0.27921047  0.31412225  1
  O  O31  1  0.27921047  0.17096731  0.81412225  1
  O  O32  1  0.18596833  0.51314236  0.36154136  1
  O  O33  1  0.51314236  0.18596833  0.86154136  1
  O  O34  1  0.16818003  0.38827570  0.68262937  1
  O  O35  1  0.38827570  0.16818003  0.18262937  1
  O  O36  1  0.63903331  0.59815192  0.56901546  1
  O  O37  1  0.59815192  0.63903331  0.06901546  1
  O  O38  1  0.04726350  0.72258238  0.41748638  1
  O  O39  1  0.72258238  0.04726350  0.91748638  1
  O  O40  1  0.76627959  0.48260315  0.72118332  1
  O  O41  1  0.48260315  0.76627959  0.22118332  1
  O  O42  1  0.84123842  0.57079498  0.35618485  1
  O  O43  1  0.57079498  0.84123842  0.85618485  1
  O  O44  1  0.91090388  0.84970159  0.27909593  1
  O  O45  1  0.84970159  0.91090388  0.77909593  1
  O  O46  1  0.83338883  0.76274803  0.63390717  1
  O  O47  1  0.76274803  0.83338883  0.13390717  1
  O  O48  1  0.26688839  0.91375675  0.62601889  1
  O  O49  1  0.91375675  0.26688839  0.12601889  1
  O  O50  1  0.68821554  0.07033592  0.43548063  1
  O  O51  1  0.07033592  0.68821554  0.93548063  1
  O  O52  1  0.49455413  0.91365011  0.36773005  1
  O  O53  1  0.91365011  0.49455413  0.86773005  1
  O  O54  1  0.41967190  0.79550785  0.71972312  1
  O  O55  1  0.79550785  0.41967190  0.21972312  1
  O  O56  1  0.48149060  0.05309724  0.70215945  1
  O  O57  1  0.05309724  0.48149060  0.20215945  1
  O  O58  1  0.51295725  0.17178528  0.35800636  1
  O  O59  1  0.17178528  0.51295725  0.85800636  1
  O  O60  1  0.85305194  0.31420206  0.78444991  1
  O  O61  1  0.31420206  0.85305194  0.28444991  1
  O  O62  1  0.27988106  0.65779552  0.53259112  1
  O  O63  1  0.65779552  0.27988106  0.03259112  1
  O  O64  1  0.51543234  0.63876724  0.80039894  1
  O  O65  1  0.63876724  0.51543234  0.30039894  1
  O  O66  1  0.61392302  0.32258214  0.53671909  1
  O  O67  1  0.32258214  0.61392302  0.03671909  1
  O  O68  1  0.10820496  0.92402838  0.87755414  1
  O  O69  1  0.92402838  0.10820496  0.37755414  1
  O  O70  1  0.05594907  0.00975791  0.47458557  1
  O  O71  1  0.00975791  0.05594907  0.97458557  1
  O  O72  1  0.20728288  0.73056319  0.14809407  1
  O  O73  1  0.73056319  0.20728288  0.64809407  1
  O  O74  1  0.55258373  0.40134775  0.14438243  1
  O  O75  1  0.40134775  0.55258373  0.64438243  1
  O  O76  1  0.80790718  0.00548003  0.23356861  1
  O  O77  1  0.00548003  0.80790718  0.73356861  1
