# generated using pymatgen
data_Cs4PbO3
_symmetry_space_group_name_H-M   'P 1'
_cell_length_a   7.30914984
_cell_length_b   11.68470224
_cell_length_c   11.97181859
_cell_angle_alpha   69.10111696
_cell_angle_beta   90.00000000
_cell_angle_gamma   90.00000000
_symmetry_Int_Tables_number   1
_chemical_formula_structural   Cs4PbO3
_chemical_formula_sum   'Cs16 Pb4 O12'
_cell_volume   955.19011279
_cell_formula_units_Z   4
loop_
 _symmetry_equiv_pos_site_id
 _symmetry_equiv_pos_as_xyz
  1  'x, y, z'
loop_
 _atom_site_type_symbol
 _atom_site_label
 _atom_site_symmetry_multiplicity
 _atom_site_fract_x
 _atom_site_fract_y
 _atom_site_fract_z
 _atom_site_occupancy
  Cs  Cs0  1  0.61296774  0.66666119  0.65459673  1
  Cs  Cs1  1  0.11296774  0.33333881  0.34540327  1
  Cs  Cs2  1  0.36363348  0.81327168  0.32040747  1
  Cs  Cs3  1  0.86363348  0.18672832  0.67959253  1
  Cs  Cs4  1  0.31543574  0.46740225  0.90038379  1
  Cs  Cs5  1  0.81543574  0.53259775  0.09961621  1
  Cs  Cs6  1  0.21003406  0.95936123  0.93092315  1
  Cs  Cs7  1  0.71003406  0.04063877  0.06907685  1
  Cs  Cs8  1  0.47660949  0.01116586  0.58840652  1
  Cs  Cs9  1  0.97660949  0.98883414  0.41159348  1
  Cs  Cs10  1  0.61996409  0.44905456  0.42370301  1
  Cs  Cs11  1  0.11996409  0.55094544  0.57629699  1
  Cs  Cs12  1  0.82316618  0.36716779  0.88098522  1
  Cs  Cs13  1  0.32316618  0.63283221  0.11901478  1
  Cs  Cs14  1  0.18398438  0.15960015  0.10750840  1
  Cs  Cs15  1  0.68398438  0.84039985  0.89249160  1
  Pb  Pb16  1  0.62044724  0.21658033  0.27369431  1
  Pb  Pb17  1  0.12044724  0.78341967  0.72630569  1
  Pb  Pb18  1  0.36861907  0.25026425  0.71929134  1
  Pb  Pb19  1  0.86861907  0.74973575  0.28070866  1
  O  O20  1  0.87024748  0.25666573  0.16749231  1
  O  O21  1  0.37024748  0.74333427  0.83250769  1
  O  O22  1  0.74701132  0.20433906  0.44442386  1
  O  O23  1  0.24701132  0.79566094  0.55557614  1
  O  O24  1  0.49133020  0.39532061  0.21660346  1
  O  O25  1  0.99133020  0.60467939  0.78339654  1
  O  O26  1  0.15683591  0.24135028  0.85123820  1
  O  O27  1  0.65683591  0.75864972  0.14876180  1
  O  O28  1  0.54950103  0.09752149  0.82555416  1
  O  O29  1  0.04950103  0.90247851  0.17444584  1
  O  O30  1  0.51995157  0.41487989  0.70668861  1
  O  O31  1  0.01995157  0.58512011  0.29331139  1
