# generated using pymatgen
data_Na4ReN3
_symmetry_space_group_name_H-M   'P 1'
_cell_length_a   6.01549115
_cell_length_b   6.21127838
_cell_length_c   8.71135052
_cell_angle_alpha   69.96526855
_cell_angle_beta   69.80188274
_cell_angle_gamma   61.03735204
_symmetry_Int_Tables_number   1
_chemical_formula_structural   Na4ReN3
_chemical_formula_sum   'Na8 Re2 N6'
_cell_volume   261.10127908
_cell_formula_units_Z   2
loop_
 _symmetry_equiv_pos_site_id
 _symmetry_equiv_pos_as_xyz
  1  'x, y, z'
loop_
 _atom_site_type_symbol
 _atom_site_label
 _atom_site_symmetry_multiplicity
 _atom_site_fract_x
 _atom_site_fract_y
 _atom_site_fract_z
 _atom_site_occupancy
  Na  Na0  1  1.00084038  0.23859234  0.13642395  1
  Na  Na1  1  0.79599403  0.24044994  0.52660998  1
  Na  Na2  1  0.25711738  0.75343899  0.45655272  1
  Na  Na3  1  0.53289091  0.25343899  0.95655272  1
  Na  Na4  1  0.03949776  0.72964958  0.86135255  1
  Na  Na5  1  0.36949911  0.22964958  0.36135255  1
  Na  Na6  1  0.43694605  0.74044994  0.02660998  1
  Na  Na7  1  0.62414333  0.73859234  0.63642395  1
  Re  Re8  1  0.13706137  0.27157963  0.74886560  1
  Re  Re9  1  0.84249241  0.77157963  0.24886560  1
  N  N10  1  0.37867776  0.39311536  0.68907467  1
  N  N11  1  0.53913021  0.89311536  0.18907467  1
  N  N12  1  0.17022591  0.04577330  0.64490378  1
  N  N13  1  0.13909701  0.54577330  0.14490378  1
  N  N14  1  0.82743557  0.45369886  0.86831976  1
  N  N15  1  0.85054681  0.95369886  0.36831976  1
