# generated using pymatgen
data_K(B7H6)3
_symmetry_space_group_name_H-M   'P 1'
_cell_length_a   7.13902084
_cell_length_b   7.22746781
_cell_length_c   16.84699190
_cell_angle_alpha   94.24130611
_cell_angle_beta   90.00000000
_cell_angle_gamma   119.59600192
_symmetry_Int_Tables_number   1
_chemical_formula_structural   K(B7H6)3
_chemical_formula_sum   'K2 B42 H36'
_cell_volume   753.10381797
_cell_formula_units_Z   2
loop_
 _symmetry_equiv_pos_site_id
 _symmetry_equiv_pos_as_xyz
  1  'x, y, z'
loop_
 _atom_site_type_symbol
 _atom_site_label
 _atom_site_symmetry_multiplicity
 _atom_site_fract_x
 _atom_site_fract_y
 _atom_site_fract_z
 _atom_site_occupancy
  K  K0  1  0.93413902  0.00000000  0.00000000  1
  K  K1  1  0.14658313  0.00000000  0.50000000  1
  B  B2  1  0.45666821  0.30040288  0.26487484  1
  B  B3  1  0.15626633  0.69959712  0.73512516  1
  B  B4  1  0.71873753  0.50363888  0.23578488  1
  B  B5  1  0.21509865  0.49636112  0.76421512  1
  B  B6  1  0.67325273  0.23830305  0.25097949  1
  B  B7  1  0.43494968  0.76169695  0.74902051  1
  B  B8  1  0.93038733  0.47459865  0.29219012  1
  B  B9  1  0.45578768  0.52540135  0.70780988  1
  B  B10  1  0.49943803  0.14287871  0.33990286  1
  B  B11  1  0.35655932  0.85712129  0.66009714  1
  B  B12  1  0.57737562  0.57966847  0.31526566  1
  B  B13  1  0.99770715  0.42033153  0.68473434  1
  B  B14  1  0.82545381  0.37422499  0.16153072  1
  B  B15  1  0.45122882  0.62577501  0.83846928  1
  B  B16  1  0.39599019  0.03851842  0.20989063  1
  B  B17  1  0.35747178  0.96148158  0.79010937  1
  B  B18  1  0.46855030  0.47270826  0.18443915  1
  B  B19  1  0.99584204  0.52729174  0.81556085  1
  B  B20  1  0.44086941  0.35025515  0.36988524  1
  B  B21  1  0.09061426  0.64974485  0.63011476  1
  B  B22  1  0.85952095  0.67340533  0.32346724  1
  B  B23  1  0.18611562  0.32659467  0.67653276  1
  B  B24  1  0.78376413  0.24848872  0.34776447  1
  B  B25  1  0.53527641  0.75151128  0.65223553  1
  B  B26  1  0.28265648  0.19314493  0.17723436  1
  B  B27  1  0.08951155  0.80685507  0.82276564  1
  B  B28  1  0.70011761  0.51824432  0.13039294  1
  B  B29  1  0.18187329  0.48175568  0.86960706  1
  B  B30  1  0.62942417  0.09686920  0.15477817  1
  B  B31  1  0.53255597  0.90313080  0.84522183  1
  B  B32  1  0.89695963  0.51663154  0.39292679  1
  B  B33  1  0.38032809  0.48336846  0.60707321  1
  B  B34  1  0.64441298  0.32126073  0.42111359  1
  B  B35  1  0.32315225  0.67873927  0.57888641  1
  B  B36  1  0.69055670  0.57787060  0.40673056  1
  B  B37  1  0.11268610  0.42212940  0.59326944  1
  B  B38  1  0.64181488  0.26625989  0.08020184  1
  B  B39  1  0.37555499  0.73374011  0.91979816  1
  B  B40  1  0.38930778  0.07007234  0.10886408  1
  B  B41  1  0.31923444  0.92992766  0.89113592  1
  B  B42  1  0.43264439  0.32466495  0.09368237  1
  B  B43  1  0.10797944  0.67533505  0.90631763  1
  H  H44  1  0.10380188  0.52024808  0.27099604  1
  H  H45  1  0.58355480  0.47975192  0.72900396  1
  H  H46  1  0.37875029  0.96346755  0.35133721  1
  H  H47  1  0.41528274  0.03653245  0.64866279  1
  H  H48  1  0.50965658  0.69713815  0.30915645  1
  H  H49  1  0.81251743  0.30286185  0.69084355  1
  H  H50  1  0.00887632  0.43444926  0.15044626  1
  H  H51  1  0.57442706  0.56555074  0.84955374  1
  H  H52  1  0.28660635  0.86783041  0.23160941  1
  H  H53  1  0.41877693  0.13216959  0.76839059  1
  H  H54  1  0.40951743  0.59874077  0.18914564  1
  H  H55  1  0.81077666  0.40125923  0.81085436  1
  H  H56  1  0.27272927  0.31101749  0.39745519  1
  H  H57  1  0.96171278  0.68898251  0.60254481  1
  H  H58  1  0.98426352  0.85801203  0.31979407  1
  H  H59  1  0.12625149  0.14198797  0.68020593  1
  H  H60  1  0.85538441  0.13567437  0.36048934  1
  H  H61  1  0.71971004  0.86432563  0.63951066  1
  H  H62  1  0.09404263  0.12800328  0.18091645  1
  H  H63  1  0.96603935  0.87199672  0.81908355  1
  H  H64  1  0.80597190  0.68336949  0.10213737  1
  H  H65  1  0.12260241  0.31663051  0.89786263  1
  H  H66  1  0.68245270  0.96503537  0.14341621  1
  H  H67  1  0.71741732  0.03496463  0.85658379  1
  H  H68  1  0.05621466  0.59153363  0.43447298  1
  H  H69  1  0.46468102  0.40846637  0.56552702  1
  H  H70  1  0.61462650  0.24876439  0.48411999  1
  H  H71  1  0.36586212  0.75123561  0.51588001  1
  H  H72  1  0.69256239  0.69916111  0.45913920  1
  H  H73  1  0.99340128  0.30083889  0.54086080  1
  H  H74  1  0.71462479  0.25902206  0.01710885  1
  H  H75  1  0.45560373  0.74097794  0.98289115  1
  H  H76  1  0.27012270  0.91249859  0.06855899  1
  H  H77  1  0.35762411  0.08750141  0.93144101  1
  H  H78  1  0.34925477  0.36236500  0.04070058  1
  H  H79  1  0.98689077  0.63763500  0.95929942  1
