# generated using pymatgen
data_NiTe6O13
_symmetry_space_group_name_H-M   'P 1'
_cell_length_a   8.61048163
_cell_length_b   8.61048185
_cell_length_c   8.61048245
_cell_angle_alpha   72.09429670
_cell_angle_beta   72.09429597
_cell_angle_gamma   72.09429379
_symmetry_Int_Tables_number   1
_chemical_formula_structural   NiTe6O13
_chemical_formula_sum   'Ni2 Te12 O26'
_cell_volume   561.83119586
_cell_formula_units_Z   2
loop_
 _symmetry_equiv_pos_site_id
 _symmetry_equiv_pos_as_xyz
  1  'x, y, z'
loop_
 _atom_site_type_symbol
 _atom_site_label
 _atom_site_symmetry_multiplicity
 _atom_site_fract_x
 _atom_site_fract_y
 _atom_site_fract_z
 _atom_site_occupancy
  Ni  Ni0  1  0.75697375  0.75697375  0.75697375  1
  Ni  Ni1  1  0.24302625  0.24302625  0.24302625  1
  Te  Te2  1  0.83326262  0.51343241  0.43821468  1
  Te  Te3  1  0.43821468  0.83326262  0.51343241  1
  Te  Te4  1  0.51343241  0.43821468  0.83326262  1
  Te  Te5  1  0.16673738  0.48656759  0.56178532  1
  Te  Te6  1  0.56178532  0.16673738  0.48656759  1
  Te  Te7  1  0.48656759  0.56178532  0.16673738  1
  Te  Te8  1  0.97377017  0.07948836  0.67454812  1
  Te  Te9  1  0.67454812  0.97377017  0.07948836  1
  Te  Te10  1  0.07948836  0.67454812  0.97377017  1
  Te  Te11  1  0.02622983  0.92051164  0.32545188  1
  Te  Te12  1  0.32545188  0.02622983  0.92051164  1
  Te  Te13  1  0.92051164  0.32545188  0.02622983  1
  O  O14  1  0.89647469  0.58234560  0.60115756  1
  O  O15  1  0.60115756  0.89647469  0.58234560  1
  O  O16  1  0.58234560  0.60115756  0.89647469  1
  O  O17  1  0.10352531  0.41765440  0.39884244  1
  O  O18  1  0.39884244  0.10352531  0.41765440  1
  O  O19  1  0.41765440  0.39884244  0.10352531  1
  O  O20  1  0.86796383  0.95107019  0.61825580  1
  O  O21  1  0.61825580  0.86796383  0.95107019  1
  O  O22  1  0.95107019  0.61825580  0.86796383  1
  O  O23  1  0.13203617  0.04892981  0.38174420  1
  O  O24  1  0.38174420  0.13203617  0.04892981  1
  O  O25  1  0.04892981  0.38174420  0.13203617  1
  O  O26  1  0.58650915  0.58650915  0.58650915  1
  O  O27  1  0.41349085  0.41349085  0.41349085  1
  O  O28  1  0.80276548  0.29895416  0.55305900  1
  O  O29  1  0.55305900  0.80276548  0.29895416  1
  O  O30  1  0.29895416  0.55305900  0.80276548  1
  O  O31  1  0.19723452  0.70104584  0.44694100  1
  O  O32  1  0.44694100  0.19723452  0.70104584  1
  O  O33  1  0.70104584  0.44694100  0.19723452  1
  O  O34  1  0.11364178  0.87405543  0.80176822  1
  O  O35  1  0.80176822  0.11364178  0.87405543  1
  O  O36  1  0.87405543  0.80176822  0.11364178  1
  O  O37  1  0.88635822  0.12594457  0.19823178  1
  O  O38  1  0.19823178  0.88635822  0.12594457  1
  O  O39  1  0.12594457  0.19823178  0.88635822  1
