# generated using pymatgen
data_FeH12C8S2(N3O)2
_symmetry_space_group_name_H-M   'P 1'
_cell_length_a   8.00432897
_cell_length_b   9.25852637
_cell_length_c   10.15714747
_cell_angle_alpha   90.00000000
_cell_angle_beta   90.00000000
_cell_angle_gamma   95.55368414
_symmetry_Int_Tables_number   1
_chemical_formula_structural   FeH12C8S2(N3O)2
_chemical_formula_sum   'Fe2 H24 C16 S4 N12 O4'
_cell_volume   749.19549824
_cell_formula_units_Z   2
loop_
 _symmetry_equiv_pos_site_id
 _symmetry_equiv_pos_as_xyz
  1  'x, y, z'
loop_
 _atom_site_type_symbol
 _atom_site_label
 _atom_site_symmetry_multiplicity
 _atom_site_fract_x
 _atom_site_fract_y
 _atom_site_fract_z
 _atom_site_occupancy
  Fe  Fe0  1  0.50000000  -0.00000000  -0.00000000  1
  Fe  Fe1  1  0.00000000  0.50000000  0.50000000  1
  H  H2  1  0.76238697  0.05511190  0.70615592  1
  H  H3  1  0.26238697  0.55511190  0.79384408  1
  H  H4  1  0.23761303  0.94488810  0.29384408  1
  H  H5  1  0.73761303  0.44488810  0.20615592  1
  H  H6  1  0.90841235  0.93868405  0.64313993  1
  H  H7  1  0.40841235  0.43868405  0.85686007  1
  H  H8  1  0.09158765  0.06131595  0.35686007  1
  H  H9  1  0.59158765  0.56131595  0.14313993  1
  H  H10  1  0.97031092  0.06303663  0.77485049  1
  H  H11  1  0.47031092  0.56303663  0.72514951  1
  H  H12  1  0.02968908  0.93696337  0.22514951  1
  H  H13  1  0.52968908  0.43696337  0.27485049  1
  H  H14  1  0.95645064  0.70870466  0.96460515  1
  H  H15  1  0.45645064  0.20870466  0.53539485  1
  H  H16  1  0.04354936  0.29129534  0.03539485  1
  H  H17  1  0.54354936  0.79129534  0.46460515  1
  H  H18  1  0.07118959  0.88046709  0.92562160  1
  H  H19  1  0.57118959  0.38046709  0.57437840  1
  H  H20  1  0.92881041  0.11953291  0.07437840  1
  H  H21  1  0.42881041  0.61953291  0.42562160  1
  H  H22  1  0.03115674  0.74131136  0.80128355  1
  H  H23  1  0.53115674  0.24131136  0.69871645  1
  H  H24  1  0.96884326  0.25868864  0.19871645  1
  H  H25  1  0.46884326  0.75868864  0.30128355  1
  C  C26  1  0.63444436  0.05236117  0.29784450  1
  C  C27  1  0.13444436  0.55236117  0.20215550  1
  C  C28  1  0.36555564  0.94763883  0.70215550  1
  C  C29  1  0.86555564  0.44763883  0.79784450  1
  C  C30  1  0.81360827  0.18193235  0.43612715  1
  C  C31  1  0.31360827  0.68193235  0.06387285  1
  C  C32  1  0.18639173  0.81806765  0.56387285  1
  C  C33  1  0.68639173  0.31806765  0.93612715  1
  C  C34  1  0.86730458  0.99350202  0.73085543  1
  C  C35  1  0.36730458  0.49350202  0.76914457  1
  C  C36  1  0.13269542  0.00649798  0.26914457  1
  C  C37  1  0.63269542  0.50649798  0.23085543  1
  C  C38  1  0.98382134  0.79146802  0.88924747  1
  C  C39  1  0.48382134  0.29146802  0.61075253  1
  C  C40  1  0.01617866  0.20853198  0.11075253  1
  C  C41  1  0.51617866  0.70853198  0.38924747  1
  S  S42  1  0.78929521  0.85795141  0.84683539  1
  S  S43  1  0.28929521  0.35795141  0.65316461  1
  S  S44  1  0.21070479  0.14204859  0.15316461  1
  S  S45  1  0.71070479  0.64204859  0.34683539  1
  N  N46  1  0.55642231  0.02576955  0.20162363  1
  N  N47  1  0.05642231  0.52576955  0.29837637  1
  N  N48  1  0.44357769  0.97423045  0.79837637  1
  N  N49  1  0.94357769  0.47423045  0.70162363  1
  N  N50  1  0.90965122  0.27881074  0.46925339  1
  N  N51  1  0.40965122  0.77881074  0.03074661  1
  N  N52  1  0.09034878  0.72118926  0.53074661  1
  N  N53  1  0.59034878  0.22118926  0.96925339  1
  N  N54  1  0.71188186  0.06824648  0.40946147  1
  N  N55  1  0.21188186  0.56824648  0.09053853  1
  N  N56  1  0.28811814  0.93175352  0.59053853  1
  N  N57  1  0.78811814  0.43175352  0.90946147  1
  O  O58  1  0.74370759  0.94142791  0.96899022  1
  O  O59  1  0.24370759  0.44142791  0.53100978  1
  O  O60  1  0.25629241  0.05857209  0.03100978  1
  O  O61  1  0.75629241  0.55857209  0.46899022  1
