# generated using pymatgen
data_MgV4(PO5)4
_symmetry_space_group_name_H-M   'P 1'
_cell_length_a   5.28056187
_cell_length_b   10.20374013
_cell_length_c   7.33979722
_cell_angle_alpha   70.12736070
_cell_angle_beta   69.37574749
_cell_angle_gamma   75.45140479
_symmetry_Int_Tables_number   1
_chemical_formula_structural   MgV4(PO5)4
_chemical_formula_sum   'Mg1 V4 P4 O20'
_cell_volume   344.18720851
_cell_formula_units_Z   1
loop_
 _symmetry_equiv_pos_site_id
 _symmetry_equiv_pos_as_xyz
  1  'x, y, z'
loop_
 _atom_site_type_symbol
 _atom_site_label
 _atom_site_symmetry_multiplicity
 _atom_site_fract_x
 _atom_site_fract_y
 _atom_site_fract_z
 _atom_site_occupancy
  Mg  Mg0  1  0.50000000  0.75000000  0.25000000  1
  V  V1  1  0.02216500  0.49169400  0.99808200  1
  V  V2  1  0.00000000  0.75000000  0.25000000  1
  V  V3  1  0.50000000  0.24999900  0.75000000  1
  V  V4  1  0.97783600  0.00830600  0.50191800  1
  P  P5  1  0.60586900  0.06470800  0.19341300  1
  P  P6  1  0.39413200  0.43529300  0.30658700  1
  P  P7  1  0.37698300  0.93735200  0.79937600  1
  P  P8  1  0.62301800  0.56264900  0.70062400  1
  O  O9  1  0.29642900  0.07969100  0.31351500  1
  O  O10  1  0.22271100  0.40557700  0.19889800  1
  O  O11  1  0.09565400  0.84053900  0.38569100  1
  O  O12  1  0.32563600  0.82849600  0.01071200  1
  O  O13  1  0.29868500  0.59000300  0.32176700  1
  O  O14  1  0.32479600  0.08922800  0.82073300  1
  O  O15  1  0.35516800  0.33236500  0.51718200  1
  O  O16  1  0.17187200  0.35097000  0.90122600  1
  O  O17  1  0.77729000  0.09442300  0.30110200  1
  O  O18  1  0.18798400  0.92013700  0.69263800  1
  O  O19  1  0.70357200  0.42030900  0.18648600  1
  O  O20  1  0.31806300  0.59482200  0.82003600  1
  O  O21  1  0.82812700  0.14903000  0.59877500  1
  O  O22  1  0.64483100  0.16763500  0.98281900  1
  O  O23  1  0.81201600  0.57986400  0.80736200  1
  O  O24  1  0.70131600  0.90999600  0.17823300  1
  O  O25  1  0.67436400  0.67150500  0.48928800  1
  O  O26  1  0.90434700  0.65946000  0.11430900  1
  O  O27  1  0.68193800  0.90517700  0.67996300  1
  O  O28  1  0.67520500  0.41077200  0.67926700  1
