# generated using pymatgen
data_Zn3WN4
_symmetry_space_group_name_H-M   'P 1'
_cell_length_a   6.52296927
_cell_length_b   5.64332032
_cell_length_c   5.32210519
_cell_angle_alpha   90.00000000
_cell_angle_beta   90.00000000
_cell_angle_gamma   90.00000000
_symmetry_Int_Tables_number   1
_chemical_formula_structural   Zn3WN4
_chemical_formula_sum   'Zn6 W2 N8'
_cell_volume   195.91310533
_cell_formula_units_Z   2
loop_
 _symmetry_equiv_pos_site_id
 _symmetry_equiv_pos_as_xyz
  1  'x, y, z'
loop_
 _atom_site_type_symbol
 _atom_site_label
 _atom_site_symmetry_multiplicity
 _atom_site_fract_x
 _atom_site_fract_y
 _atom_site_fract_z
 _atom_site_occupancy
  Zn  Zn0  1  0.25140535  0.83246480  0.73070163  1
  Zn  Zn1  1  0.24859465  0.16753520  0.23070163  1
  Zn  Zn2  1  0.74859465  0.83246480  0.73070163  1
  Zn  Zn3  1  0.75140535  0.16753520  0.23070163  1
  Zn  Zn4  1  0.00000000  0.33322920  0.72970907  1
  Zn  Zn5  1  0.50000000  0.66677080  0.22970907  1
  W  W6  1  0.00000000  0.67020420  0.22928573  1
  W  W7  1  0.50000000  0.32979580  0.72928573  1
  N  N8  1  0.76290229  0.82682105  0.11319528  1
  N  N9  1  0.73709771  0.17317895  0.61319528  1
  N  N10  1  0.23709771  0.82682105  0.11319528  1
  N  N11  1  0.26290229  0.17317895  0.61319528  1
  N  N12  1  0.00000000  0.35649686  0.11271362  1
  N  N13  1  0.50000000  0.64350314  0.61271362  1
  N  N14  1  0.00000000  0.67108122  0.57975875  1
  N  N15  1  0.50000000  0.32891878  0.07975875  1
