# generated using pymatgen
data_Sb2H18C3(IN)9
_symmetry_space_group_name_H-M   'P 1'
_cell_length_a   8.74147416
_cell_length_b   8.74147416
_cell_length_c   20.71509583
_cell_angle_alpha   90.00000000
_cell_angle_beta   90.00000000
_cell_angle_gamma   100.26312914
_symmetry_Int_Tables_number   1
_chemical_formula_structural   Sb2H18C3(IN)9
_chemical_formula_sum   'Sb4 H36 C6 I18 N18'
_cell_volume   1557.58356406
_cell_formula_units_Z   2
loop_
 _symmetry_equiv_pos_site_id
 _symmetry_equiv_pos_as_xyz
  1  'x, y, z'
loop_
 _atom_site_type_symbol
 _atom_site_label
 _atom_site_symmetry_multiplicity
 _atom_site_fract_x
 _atom_site_fract_y
 _atom_site_fract_z
 _atom_site_occupancy
  Sb  Sb0  1  0.73378604  0.26621396  0.64918437  1
  Sb  Sb1  1  0.26621396  0.73378604  0.35081563  1
  Sb  Sb2  1  0.73378604  0.26621396  0.85081563  1
  Sb  Sb3  1  0.26621396  0.73378604  0.14918437  1
  H  H4  1  0.35978613  0.79592255  0.75000000  1
  H  H5  1  0.79592255  0.35978613  0.25000000  1
  H  H6  1  0.64021387  0.20407745  0.25000000  1
  H  H7  1  0.20407745  0.64021387  0.75000000  1
  H  H8  1  0.54960283  0.66101745  0.62189195  1
  H  H9  1  0.66101745  0.54960283  0.37810805  1
  H  H10  1  0.54960283  0.66101745  0.87810805  1
  H  H11  1  0.66101745  0.54960283  0.12189195  1
  H  H12  1  0.45039717  0.33898255  0.37810805  1
  H  H13  1  0.33898255  0.45039717  0.62189195  1
  H  H14  1  0.45039717  0.33898255  0.12189195  1
  H  H15  1  0.33898255  0.45039717  0.87810805  1
  H  H16  1  0.52055003  0.84005617  0.59430445  1
  H  H17  1  0.84005617  0.52055003  0.40569555  1
  H  H18  1  0.52055003  0.84005617  0.90569555  1
  H  H19  1  0.84005617  0.52055003  0.09430445  1
  H  H20  1  0.47944997  0.15994383  0.40569555  1
  H  H21  1  0.15994383  0.47944997  0.59430445  1
  H  H22  1  0.47944997  0.15994383  0.09430445  1
  H  H23  1  0.15994383  0.47944997  0.90569555  1
  H  H24  1  0.12503416  0.72013333  0.55828477  1
  H  H25  1  0.72013333  0.12503416  0.44171523  1
  H  H26  1  0.12503416  0.72013333  0.94171523  1
  H  H27  1  0.72013333  0.12503416  0.05828477  1
  H  H28  1  0.87496584  0.27986667  0.44171523  1
  H  H29  1  0.27986667  0.87496584  0.55828477  1
  H  H30  1  0.87496584  0.27986667  0.05828477  1
  H  H31  1  0.27986667  0.87496584  0.94171523  1
  H  H32  1  0.91449236  0.87412945  0.75000000  1
  H  H33  1  0.87412945  0.91449236  0.25000000  1
  H  H34  1  0.08550764  0.12587055  0.25000000  1
  H  H35  1  0.12587055  0.08550764  0.75000000  1
  H  H36  1  0.95203863  0.68609627  0.75000000  1
  H  H37  1  0.68609627  0.95203863  0.25000000  1
  H  H38  1  0.04796137  0.31390373  0.25000000  1
  H  H39  1  0.31390373  0.04796137  0.75000000  1
  C  C40  1  0.32723522  0.67276478  0.59498397  1
  C  C41  1  0.67276478  0.32723522  0.40501603  1
  C  C42  1  0.32723522  0.67276478  0.90501603  1
  C  C43  1  0.67276478  0.32723522  0.09498397  1
  C  C44  1  0.14466783  0.85533217  0.75000000  1
  C  C45  1  0.85533217  0.14466783  0.25000000  1
  I  I46  1  0.01367730  0.36060245  0.75000000  1
  I  I47  1  0.36060245  0.01367730  0.25000000  1
  I  I48  1  0.98632270  0.63939755  0.25000000  1
  I  I49  1  0.63939755  0.98632270  0.75000000  1
  I  I50  1  0.54550668  0.45449332  0.75000000  1
  I  I51  1  0.45449332  0.54550668  0.25000000  1
  I  I52  1  0.45048099  0.17295024  0.57398043  1
  I  I53  1  0.17295024  0.45048099  0.42601957  1
  I  I54  1  0.45048099  0.17295024  0.92601957  1
  I  I55  1  0.17295024  0.45048099  0.07398043  1
  I  I56  1  0.54951901  0.82704976  0.42601957  1
  I  I57  1  0.82704976  0.54951901  0.57398043  1
  I  I58  1  0.54951901  0.82704976  0.07398043  1
  I  I59  1  0.82704976  0.54951901  0.92601957  1
  I  I60  1  0.91726558  0.08273442  0.57774816  1
  I  I61  1  0.08273442  0.91726558  0.42225184  1
  I  I62  1  0.91726558  0.08273442  0.92225184  1
  I  I63  1  0.08273442  0.91726558  0.07774816  1
  N  N64  1  0.24381218  0.75618782  0.75000000  1
  N  N65  1  0.75618782  0.24381218  0.25000000  1
  N  N66  1  0.47494423  0.73080087  0.60821722  1
  N  N67  1  0.73080087  0.47494423  0.39178278  1
  N  N68  1  0.47494423  0.73080087  0.89178278  1
  N  N69  1  0.73080087  0.47494423  0.10821722  1
  N  N70  1  0.52505577  0.26919913  0.39178278  1
  N  N71  1  0.26919913  0.52505577  0.60821722  1
  N  N72  1  0.52505577  0.26919913  0.10821722  1
  N  N73  1  0.26919913  0.52505577  0.89178278  1
  N  N74  1  0.23575572  0.76424428  0.57081815  1
  N  N75  1  0.76424428  0.23575572  0.42918185  1
  N  N76  1  0.23575572  0.76424428  0.92918185  1
  N  N77  1  0.76424428  0.23575572  0.07081815  1
  N  N78  1  0.99273463  0.80168350  0.75000000  1
  N  N79  1  0.80168350  0.99273463  0.25000000  1
  N  N80  1  0.00726537  0.19831650  0.25000000  1
  N  N81  1  0.19831650  0.00726537  0.75000000  1
