# generated using pymatgen
data_Ca(BH)12
_symmetry_space_group_name_H-M   'P 1'
_cell_length_a   7.14164492
_cell_length_b   7.14164492
_cell_length_c   10.77114143
_cell_angle_alpha   89.82472765
_cell_angle_beta   89.82472765
_cell_angle_gamma   122.02929170
_symmetry_Int_Tables_number   1
_chemical_formula_structural   Ca(BH)12
_chemical_formula_sum   'Ca2 B24 H24'
_cell_volume   465.72681922
_cell_formula_units_Z   2
loop_
 _symmetry_equiv_pos_site_id
 _symmetry_equiv_pos_as_xyz
  1  'x, y, z'
loop_
 _atom_site_type_symbol
 _atom_site_label
 _atom_site_symmetry_multiplicity
 _atom_site_fract_x
 _atom_site_fract_y
 _atom_site_fract_z
 _atom_site_occupancy
  Ca  Ca0  1  0.83025731  0.16974269  0.75000000  1
  Ca  Ca1  1  0.16974269  0.83025731  0.25000000  1
  B  B2  1  0.39016973  0.92195561  0.83597924  1
  B  B3  1  0.07804439  0.60983027  0.66402076  1
  B  B4  1  0.60983027  0.07804439  0.16402076  1
  B  B5  1  0.92195561  0.39016973  0.33597924  1
  B  B6  1  0.25099141  0.06659723  0.83755918  1
  B  B7  1  0.93340277  0.74900859  0.66244082  1
  B  B8  1  0.74900859  0.93340277  0.16244082  1
  B  B9  1  0.06659723  0.25099141  0.33755918  1
  B  B10  1  0.19497213  0.63760460  0.81296399  1
  B  B11  1  0.36239540  0.80502787  0.68703601  1
  B  B12  1  0.80502787  0.36239540  0.18703601  1
  B  B13  1  0.63760460  0.19497213  0.31296399  1
  B  B14  1  0.96614031  0.86792768  0.81265995  1
  B  B15  1  0.13207232  0.03385969  0.68734005  1
  B  B16  1  0.03385969  0.13207232  0.18734005  1
  B  B17  1  0.86792768  0.96614031  0.31265995  1
  B  B18  1  0.12648562  0.79953327  0.90550243  1
  B  B19  1  0.20046673  0.87351438  0.59449757  1
  B  B20  1  0.87351438  0.20046673  0.09449757  1
  B  B21  1  0.79953327  0.12648562  0.40550243  1
  B  B22  1  0.93283856  0.60598639  0.79865026  1
  B  B23  1  0.39401361  0.06716144  0.70134974  1
  B  B24  1  0.06716144  0.39401361  0.20134974  1
  B  B25  1  0.60598639  0.93283856  0.29865026  1
  H  H26  1  0.55087067  0.98083868  0.89839872  1
  H  H27  1  0.01916132  0.44912933  0.60160128  1
  H  H28  1  0.44912933  0.01916132  0.10160128  1
  H  H29  1  0.98083868  0.55087067  0.39839872  1
  H  H30  1  0.31390992  0.22797527  0.89796891  1
  H  H31  1  0.77202473  0.68609008  0.60203109  1
  H  H32  1  0.68609008  0.77202473  0.10203109  1
  H  H33  1  0.22797527  0.31390992  0.39796891  1
  H  H34  1  0.21569039  0.49489032  0.85583775  1
  H  H35  1  0.50510968  0.78430961  0.64416225  1
  H  H36  1  0.78430961  0.50510968  0.14416225  1
  H  H37  1  0.49489032  0.21569039  0.35583775  1
  H  H38  1  0.82121631  0.88198115  0.85990700  1
  H  H39  1  0.11801885  0.17878369  0.64009300  1
  H  H40  1  0.17878369  0.11801885  0.14009300  1
  H  H41  1  0.88198115  0.82121631  0.35990700  1
  H  H42  1  0.09518608  0.76863671  0.01479184  1
  H  H43  1  0.23136329  0.90481392  0.48520816  1
  H  H44  1  0.90481392  0.23136329  0.98520816  1
  H  H45  1  0.76863671  0.09518608  0.51479184  1
  H  H46  1  0.76792043  0.44313772  0.83597080  1
  H  H47  1  0.55686228  0.23207957  0.66402920  1
  H  H48  1  0.23207957  0.55686228  0.16402920  1
  H  H49  1  0.44313772  0.76792043  0.33597080  1
