# generated using pymatgen
data_KLiMg14O15
_symmetry_space_group_name_H-M   'P 1'
_cell_length_a   8.66032367
_cell_length_b   8.48243444
_cell_length_c   4.31621264
_cell_angle_alpha   90.00000000
_cell_angle_beta   90.00000000
_cell_angle_gamma   90.00000000
_symmetry_Int_Tables_number   1
_chemical_formula_structural   KLiMg14O15
_chemical_formula_sum   'K1 Li1 Mg14 O15'
_cell_volume   317.07169008
_cell_formula_units_Z   1
loop_
 _symmetry_equiv_pos_site_id
 _symmetry_equiv_pos_as_xyz
  1  'x, y, z'
loop_
 _atom_site_type_symbol
 _atom_site_label
 _atom_site_symmetry_multiplicity
 _atom_site_fract_x
 _atom_site_fract_y
 _atom_site_fract_z
 _atom_site_occupancy
  K  K0  1  0.98137878  0.00000000  0.00000000  1
  Li  Li1  1  0.52430150  0.50000000  0.00000000  1
  Mg  Mg2  1  0.97459770  0.50000000  0.00000000  1
  Mg  Mg3  1  0.49422669  0.00000000  0.00000000  1
  Mg  Mg4  1  0.01004248  0.25206368  0.50000000  1
  Mg  Mg5  1  0.01004248  0.74793632  0.50000000  1
  Mg  Mg6  1  0.49510647  0.25727426  0.50000000  1
  Mg  Mg7  1  0.49510647  0.74272574  0.50000000  1
  Mg  Mg8  1  0.25359113  0.00000000  0.50000000  1
  Mg  Mg9  1  0.25307832  0.50000000  0.50000000  1
  Mg  Mg10  1  0.73597534  0.00000000  0.50000000  1
  Mg  Mg11  1  0.74191109  0.50000000  0.50000000  1
  Mg  Mg12  1  0.25589853  0.22880870  -0.00000000  1
  Mg  Mg13  1  0.25589853  0.77119130  0.00000000  1
  Mg  Mg14  1  0.72939429  0.25089839  0.00000000  1
  Mg  Mg15  1  0.72939429  0.74910161  -0.00000000  1
  O  O16  1  0.27029460  0.00000000  0.00000000  1
  O  O17  1  0.71516437  0.00000000  0.00000000  1
  O  O18  1  0.74744588  0.50000000  0.00000000  1
  O  O19  1  0.25589477  0.26147814  0.50000000  1
  O  O20  1  0.25589477  0.73852186  0.50000000  1
  O  O21  1  0.75087562  0.24972593  0.50000000  1
  O  O22  1  0.75087562  0.75027407  0.50000000  1
  O  O23  1  0.02499704  0.00000000  0.50000000  1
  O  O24  1  0.00660503  0.50000000  0.50000000  1
  O  O25  1  0.49440681  0.00000000  0.50000000  1
  O  O26  1  0.49129929  0.50000000  0.50000000  1
  O  O27  1  0.03187086  0.28323459  0.00000000  1
  O  O28  1  0.03187086  0.71676541  0.00000000  1
  O  O29  1  0.49128020  0.25559389  0.00000000  1
  O  O30  1  0.49128020  0.74440611  0.00000000  1
