# generated using pymatgen
data_TbBO3
_symmetry_space_group_name_H-M   'P 1'
_cell_length_a   3.88995076
_cell_length_b   4.32350172
_cell_length_c   8.52708142
_cell_angle_alpha   90.00000000
_cell_angle_beta   90.00000000
_cell_angle_gamma   56.29794858
_symmetry_Int_Tables_number   1
_chemical_formula_structural   TbBO3
_chemical_formula_sum   'Tb2 B2 O6'
_cell_volume   119.30788763
_cell_formula_units_Z   2
loop_
 _symmetry_equiv_pos_site_id
 _symmetry_equiv_pos_as_xyz
  1  'x, y, z'
loop_
 _atom_site_type_symbol
 _atom_site_label
 _atom_site_symmetry_multiplicity
 _atom_site_fract_x
 _atom_site_fract_y
 _atom_site_fract_z
 _atom_site_occupancy
  Tb  Tb0  1  0.94915422  0.98393632  0.50001634  1
  Tb  Tb1  1  0.94915422  0.98393632  -0.00001634  1
  B  B2  1  0.67521354  0.55746074  0.75000000  1
  B  B3  1  0.22365208  0.28284348  0.25000000  1
  O  O4  1  0.60859088  0.72339969  0.60435695  1
  O  O5  1  0.28969796  0.38261548  0.10431962  1
  O  O6  1  0.28969796  0.38261548  0.39568038  1
  O  O7  1  0.60859088  0.72339969  0.89564305  1
  O  O8  1  0.80608894  0.19137528  0.75000000  1
  O  O9  1  0.09416231  0.04642051  0.25000000  1
