# generated using pymatgen
data_Mn3(BO3)2
_symmetry_space_group_name_H-M   'P 1'
_cell_length_a   4.64391980
_cell_length_b   5.66921001
_cell_length_c   8.70301238
_cell_angle_alpha   89.99997752
_cell_angle_beta   90.00000135
_cell_angle_gamma   89.99986411
_symmetry_Int_Tables_number   1
_chemical_formula_structural   Mn3(BO3)2
_chemical_formula_sum   'Mn6 B4 O12'
_cell_volume   229.12731056
_cell_formula_units_Z   2
loop_
 _symmetry_equiv_pos_site_id
 _symmetry_equiv_pos_as_xyz
  1  'x, y, z'
loop_
 _atom_site_type_symbol
 _atom_site_label
 _atom_site_symmetry_multiplicity
 _atom_site_fract_x
 _atom_site_fract_y
 _atom_site_fract_z
 _atom_site_occupancy
  Mn  Mn0  1  -0.00000045  -0.00000013  -0.00095956  1
  Mn  Mn1  1  0.49999993  0.00000070  0.68904451  1
  Mn  Mn2  1  0.00000000  0.49999985  0.18892956  1
  Mn  Mn3  1  0.50000016  0.50000008  0.50096080  1
  Mn  Mn4  1  -0.00000000  0.50000016  0.81095483  1
  Mn  Mn5  1  0.49999947  -0.00000059  0.31106511  1
  B  B6  1  0.03871047  0.24208327  0.49991226  1
  B  B7  1  0.46128890  0.74208488  0.00008780  1
  B  B8  1  0.96128981  0.75791635  0.49991228  1
  B  B9  1  0.53871095  0.25791490  0.00008795  1
  O  O10  1  0.25202142  0.31865107  0.00002945  1
  O  O11  1  0.75202049  0.18134713  0.49997124  1
  O  O12  1  0.24797975  0.81865236  0.49997121  1
  O  O13  1  0.74797830  0.68134870  0.00002953  1
  O  O14  1  0.31037406  0.78728350  0.13518958  1
  O  O15  1  0.81037626  0.71271662  0.36481036  1
  O  O16  1  0.31071113  0.78693198  0.86467260  1
  O  O17  1  0.68928909  0.21306811  0.86467251  1
  O  O18  1  0.81071317  0.71306955  0.63532843  1
  O  O19  1  0.18928702  0.28693039  0.63532845  1
  O  O20  1  0.68962607  0.21271606  0.13518974  1
  O  O21  1  0.18962401  0.28728307  0.36481037  1
