# generated using pymatgen
data_Rb2SmBr5
_symmetry_space_group_name_H-M   'P 1'
_cell_length_a   8.65156605
_cell_length_b   9.29780484
_cell_length_c   13.75373483
_cell_angle_alpha   90.00000000
_cell_angle_beta   90.00000000
_cell_angle_gamma   90.00000000
_symmetry_Int_Tables_number   1
_chemical_formula_structural   Rb2SmBr5
_chemical_formula_sum   'Rb8 Sm4 Br20'
_cell_volume   1106.35830640
_cell_formula_units_Z   4
loop_
 _symmetry_equiv_pos_site_id
 _symmetry_equiv_pos_as_xyz
  1  'x, y, z'
loop_
 _atom_site_type_symbol
 _atom_site_label
 _atom_site_symmetry_multiplicity
 _atom_site_fract_x
 _atom_site_fract_y
 _atom_site_fract_z
 _atom_site_occupancy
  Rb  Rb0  1  0.93425816  0.00676330  0.82912354  1
  Rb  Rb1  1  0.06574184  0.99323670  0.17087646  1
  Rb  Rb2  1  0.43425816  0.99323670  0.67087646  1
  Rb  Rb3  1  0.06574184  0.50676330  0.17087646  1
  Rb  Rb4  1  0.56574184  0.00676330  0.32912354  1
  Rb  Rb5  1  0.93425816  0.49323670  0.82912354  1
  Rb  Rb6  1  0.56574184  0.49323670  0.32912354  1
  Rb  Rb7  1  0.43425816  0.50676330  0.67087646  1
  Sm  Sm8  1  0.92541219  0.75000000  0.50500295  1
  Sm  Sm9  1  0.07458781  0.25000000  0.49499705  1
  Sm  Sm10  1  0.42541219  0.25000000  0.99499705  1
  Sm  Sm11  1  0.57458781  0.75000000  0.00500295  1
  Br  Br12  1  0.11166391  0.75000000  0.67979160  1
  Br  Br13  1  0.88833609  0.25000000  0.32020840  1
  Br  Br14  1  0.61166391  0.25000000  0.82020840  1
  Br  Br15  1  0.38833609  0.75000000  0.17979160  1
  Br  Br16  1  0.83277306  0.04476262  0.56858040  1
  Br  Br17  1  0.16722694  0.95523738  0.43141960  1
  Br  Br18  1  0.33277306  0.95523738  0.93141960  1
  Br  Br19  1  0.16722694  0.54476262  0.43141960  1
  Br  Br20  1  0.66722694  0.04476262  0.06858040  1
  Br  Br21  1  0.83277306  0.45523738  0.56858040  1
  Br  Br22  1  0.66722694  0.45523738  0.06858040  1
  Br  Br23  1  0.33277306  0.54476262  0.93141960  1
  Br  Br24  1  0.58685525  0.75000000  0.51046564  1
  Br  Br25  1  0.41314475  0.25000000  0.48953436  1
  Br  Br26  1  0.08685525  0.25000000  0.98953436  1
  Br  Br27  1  0.91314475  0.75000000  0.01046564  1
  Br  Br28  1  0.65065186  0.75000000  0.80044684  1
  Br  Br29  1  0.34934814  0.25000000  0.19955316  1
  Br  Br30  1  0.15065186  0.25000000  0.69955316  1
  Br  Br31  1  0.84934814  0.75000000  0.30044684  1
