# generated using pymatgen
data_Th(BO2)4
_symmetry_space_group_name_H-M   'P 1'
_cell_length_a   8.33308904
_cell_length_b   8.33308904
_cell_length_c   7.31176536
_cell_angle_alpha   66.21720023
_cell_angle_beta   66.21720023
_cell_angle_gamma   29.21102423
_symmetry_Int_Tables_number   1
_chemical_formula_structural   Th(BO2)4
_chemical_formula_sum   'Th2 B8 O16'
_cell_volume   225.24512521
_cell_formula_units_Z   2
loop_
 _symmetry_equiv_pos_site_id
 _symmetry_equiv_pos_as_xyz
  1  'x, y, z'
loop_
 _atom_site_type_symbol
 _atom_site_label
 _atom_site_symmetry_multiplicity
 _atom_site_fract_x
 _atom_site_fract_y
 _atom_site_fract_z
 _atom_site_occupancy
  Th  Th0  1  0.19098433  0.80901567  0.75000000  1
  Th  Th1  1  0.80901567  0.19098433  0.25000000  1
  B  B2  1  -0.00055181  0.39248188  0.79590203  1
  B  B3  1  0.60751812  0.00055181  0.70409797  1
  B  B4  1  0.00055181  0.60751812  0.20409797  1
  B  B5  1  0.39248188  -0.00055181  0.29590203  1
  B  B6  1  0.83028539  0.45219608  0.50801060  1
  B  B7  1  0.54780392  0.16971461  0.99198940  1
  B  B8  1  0.16971461  0.54780392  0.49198940  1
  B  B9  1  0.45219608  0.83028539  0.00801060  1
  O  O10  1  0.92912847  0.63866170  0.66745145  1
  O  O11  1  0.36133830  0.07087153  0.83254855  1
  O  O12  1  0.07087153  0.36133830  0.33254855  1
  O  O13  1  0.63866170  0.92912847  0.16745145  1
  O  O14  1  0.80754213  0.50685158  0.98979841  1
  O  O15  1  0.49314842  0.19245787  0.51020159  1
  O  O16  1  0.19245787  0.49314842  0.01020159  1
  O  O17  1  0.50685158  0.80754213  0.48979841  1
  O  O18  1  0.93593815  0.32974638  0.70252874  1
  O  O19  1  0.67025362  0.06406185  0.79747126  1
  O  O20  1  0.06406185  0.67025362  0.29747126  1
  O  O21  1  0.32974638  0.93593815  0.20252874  1
  O  O22  1  0.81428117  0.28991063  0.51287780  1
  O  O23  1  0.71008937  0.18571883  0.98712220  1
  O  O24  1  0.18571883  0.71008937  0.48712220  1
  O  O25  1  0.28991063  0.81428117  0.01287780  1
