# generated using pymatgen
data_ZnCd3S4
_symmetry_space_group_name_H-M   'P 1'
_cell_length_a   5.75954623
_cell_length_b   5.75954623
_cell_length_c   5.75954623
_cell_angle_alpha   90.00000000
_cell_angle_beta   90.00000000
_cell_angle_gamma   90.00000000
_symmetry_Int_Tables_number   1
_chemical_formula_structural   ZnCd3S4
_chemical_formula_sum   'Zn1 Cd3 S4'
_cell_volume   191.05781456
_cell_formula_units_Z   1
loop_
 _symmetry_equiv_pos_site_id
 _symmetry_equiv_pos_as_xyz
  1  'x, y, z'
loop_
 _atom_site_type_symbol
 _atom_site_label
 _atom_site_symmetry_multiplicity
 _atom_site_fract_x
 _atom_site_fract_y
 _atom_site_fract_z
 _atom_site_occupancy
  Zn  Zn0  1  0.00000000  -0.00000000  -0.00000000  1
  Cd  Cd1  1  0.00000000  0.50000000  0.50000000  1
  Cd  Cd2  1  0.50000000  0.50000000  -0.00000000  1
  Cd  Cd3  1  0.50000000  0.00000000  0.50000000  1
  S  S4  1  0.76360863  0.76360863  0.23639137  1
  S  S5  1  0.76360863  0.23639137  0.76360863  1
  S  S6  1  0.23639137  0.76360863  0.76360863  1
  S  S7  1  0.23639137  0.23639137  0.23639137  1
