# generated using pymatgen
data_Nd8Sb2S15
_symmetry_space_group_name_H-M   'P 1'
_cell_length_a   14.90220364
_cell_length_b   14.90220364
_cell_length_c   14.90220364
_cell_angle_alpha   116.43801800
_cell_angle_beta   116.43801800
_cell_angle_gamma   96.28886601
_symmetry_Int_Tables_number   1
_chemical_formula_structural   Nd8Sb2S15
_chemical_formula_sum   'Nd32 Sb8 S60'
_cell_volume   2450.11701262
_cell_formula_units_Z   4
loop_
 _symmetry_equiv_pos_site_id
 _symmetry_equiv_pos_as_xyz
  1  'x, y, z'
loop_
 _atom_site_type_symbol
 _atom_site_label
 _atom_site_symmetry_multiplicity
 _atom_site_fract_x
 _atom_site_fract_y
 _atom_site_fract_z
 _atom_site_occupancy
  Nd  Nd0  1  0.41759530  0.04765628  0.32897171  1
  Nd  Nd1  1  0.21868457  0.54765628  0.63006099  1
  Nd  Nd2  1  0.83862359  0.66759530  0.86993901  1
  Nd  Nd3  1  0.33862359  0.46868457  0.17102829  1
  Nd  Nd4  1  0.71868457  0.08862359  0.67102829  1
  Nd  Nd5  1  0.91759530  0.58862359  0.36993901  1
  Nd  Nd6  1  0.79765628  0.96868457  0.13006099  1
  Nd  Nd7  1  0.29765628  0.16759530  0.82897171  1
  Nd  Nd8  1  0.33774640  0.16477003  0.13318967  1
  Nd  Nd9  1  0.53158036  0.66477003  0.82702363  1
  Nd  Nd10  1  0.95455673  0.58774640  0.67297637  1
  Nd  Nd11  1  0.45455673  0.78158036  0.36681033  1
  Nd  Nd12  1  0.03158036  0.20455673  0.86681033  1
  Nd  Nd13  1  0.83774640  0.70455673  0.17297637  1
  Nd  Nd14  1  0.91477003  0.28158036  0.32702363  1
  Nd  Nd15  1  0.41477003  0.08774640  0.63318967  1
  Nd  Nd16  1  0.43165286  0.77603708  0.06991245  1
  Nd  Nd17  1  0.20612562  0.27603708  0.34438422  1
  Nd  Nd18  1  0.11174041  0.68165286  0.15561578  1
  Nd  Nd19  1  0.61174041  0.45612562  0.43008755  1
  Nd  Nd20  1  0.70612562  0.36174041  0.93008755  1
  Nd  Nd21  1  0.93165286  0.86174041  0.65561578  1
  Nd  Nd22  1  0.52603708  0.95612562  0.84438422  1
  Nd  Nd23  1  0.02603708  0.18165286  0.56991245  1
  Nd  Nd24  1  0.14979159  0.85614479  0.00688781  1
  Nd  Nd25  1  0.34925698  0.35614479  0.70635220  1
  Nd  Nd26  1  0.89290378  0.39979159  0.79364780  1
  Nd  Nd27  1  0.39290378  0.59925698  0.49311219  1
  Nd  Nd28  1  0.84925698  0.14290378  0.99311219  1
  Nd  Nd29  1  0.64979159  0.64290378  0.29364780  1
  Nd  Nd30  1  0.60614479  0.09925698  0.20635220  1
  Nd  Nd31  1  0.10614479  0.89979159  0.50688781  1
  Sb  Sb32  1  0.25386600  0.86723456  0.81912713  1
  Sb  Sb33  1  0.54810743  0.36723456  0.61336856  1
  Sb  Sb34  1  0.18473887  0.50386600  0.88663144  1
  Sb  Sb35  1  0.68473887  0.79810743  0.68087287  1
  Sb  Sb36  1  0.04810743  0.43473887  0.18087287  1
  Sb  Sb37  1  0.75386600  0.93473887  0.38663144  1
  Sb  Sb38  1  0.61723456  0.29810743  0.11336856  1
  Sb  Sb39  1  0.11723456  0.00386600  0.31912713  1
  S  S40  1  0.25005622  0.25005622  -0.00000000  1
  S  S41  1  0.75005622  0.75005622  -0.00000000  1
  S  S42  1  0.00005622  0.50005622  0.50000000  1
  S  S43  1  0.50005622  0.00005622  0.50000000  1
  S  S44  1  0.15668976  0.97289521  0.89069426  1
  S  S45  1  0.58220095  0.47289521  0.81620445  1
  S  S46  1  0.01599550  0.40668976  0.68379555  1
  S  S47  1  0.51599550  0.83220095  0.60930574  1
  S  S48  1  0.08220095  0.26599550  0.10930574  1
  S  S49  1  0.65668976  0.76599550  0.18379555  1
  S  S50  1  0.72289521  0.33220095  0.31620445  1
  S  S51  1  0.22289521  0.90668976  0.39069426  1
  S  S52  1  0.37721860  0.57684837  0.85335250  1
  S  S53  1  0.22349587  0.07684837  0.19963077  1
  S  S54  1  0.27386510  0.62721860  0.30036923  1
  S  S55  1  0.77386510  0.47349587  0.64664750  1
  S  S56  1  0.72349587  0.52386510  0.14664750  1
  S  S57  1  0.87721860  0.02386510  0.80036923  1
  S  S58  1  0.32684837  0.97349587  0.69963077  1
  S  S59  1  0.82684837  0.12721860  0.35335250  1
  S  S60  1  0.37826404  0.96515568  0.09227544  1
  S  S61  1  0.37288024  0.46515568  0.58689164  1
  S  S62  1  0.03598960  0.62826404  0.91310836  1
  S  S63  1  0.53598960  0.62288024  0.40772456  1
  S  S64  1  0.87288024  0.28598960  0.90772456  1
  S  S65  1  0.87826404  0.78598960  0.41310836  1
  S  S66  1  0.71515568  0.12288024  0.08689164  1
  S  S67  1  0.21515568  0.12826404  0.59227544  1
  S  S68  1  0.03005222  0.83802791  0.11284535  1
  S  S69  1  0.22518256  0.33802791  0.80797569  1
  S  S70  1  0.66720686  0.28005222  0.69202431  1
  S  S71  1  0.16720686  0.47518256  0.38715465  1
  S  S72  1  0.72518256  0.91720686  0.88715465  1
  S  S73  1  0.53005222  0.41720686  0.19202431  1
  S  S74  1  0.58802791  0.97518256  0.30797569  1
  S  S75  1  0.08802791  0.78005222  0.61284535  1
  S  S76  1  0.37863195  0.72779490  0.69538582  1
  S  S77  1  0.53240908  0.22779490  0.34916395  1
  S  S78  1  0.43324513  0.62863195  0.15083605  1
  S  S79  1  0.93324513  0.78240908  0.80461418  1
  S  S80  1  0.03240908  0.68324513  0.30461418  1
  S  S81  1  0.87863195  0.18324513  0.65083605  1
  S  S82  1  0.47779490  0.28240908  0.84916395  1
  S  S83  1  0.97779490  0.12863195  0.19538582  1
  S  S84  1  0.29998302  0.80971090  0.17738795  1
  S  S85  1  0.13232295  0.30971090  0.50972888  1
  S  S86  1  0.87259506  0.54998302  0.99027112  1
  S  S87  1  0.37259506  0.38232295  0.32261205  1
  S  S88  1  0.63232295  0.12259506  0.82261205  1
  S  S89  1  0.79998302  0.62259506  0.49027112  1
  S  S90  1  0.55971090  0.88232295  0.00972888  1
  S  S91  1  0.05971090  0.04998302  0.67738795  1
  S  S92  1  0.19718609  0.70995296  0.83073261  1
  S  S93  1  0.37922035  0.20995296  0.51276687  1
  S  S94  1  0.11645348  0.44718609  0.98723313  1
  S  S95  1  0.61645348  0.62922035  0.66926739  1
  S  S96  1  0.87922035  0.36645348  0.16926739  1
  S  S97  1  0.69718609  0.86645348  0.48723313  1
  S  S98  1  0.45995296  0.12922035  0.01276687  1
  S  S99  1  0.95995296  0.94718609  0.33073261  1
