# generated using pymatgen
data_Ba2VO4
_symmetry_space_group_name_H-M   'P 1'
_cell_length_a   7.73872344
_cell_length_b   6.16559558
_cell_length_c   11.66001237
_cell_angle_alpha   62.04827735
_cell_angle_beta   90.00000000
_cell_angle_gamma   90.00000000
_symmetry_Int_Tables_number   1
_chemical_formula_structural   Ba2VO4
_chemical_formula_sum   'Ba8 V4 O16'
_cell_volume   491.44245632
_cell_formula_units_Z   4
loop_
 _symmetry_equiv_pos_site_id
 _symmetry_equiv_pos_as_xyz
  1  'x, y, z'
loop_
 _atom_site_type_symbol
 _atom_site_label
 _atom_site_symmetry_multiplicity
 _atom_site_fract_x
 _atom_site_fract_y
 _atom_site_fract_z
 _atom_site_occupancy
  Ba  Ba0  1  0.50494210  0.02670512  0.19616865  1
  Ba  Ba1  1  0.00494210  0.97329488  0.30383135  1
  Ba  Ba2  1  0.49505790  0.97329488  0.80383135  1
  Ba  Ba3  1  0.99505790  0.02670512  0.69616865  1
  Ba  Ba4  1  0.15544435  0.31636180  0.92374228  1
  Ba  Ba5  1  0.65544435  0.68363820  0.57625772  1
  Ba  Ba6  1  0.84455565  0.68363820  0.07625772  1
  Ba  Ba7  1  0.34455565  0.31636180  0.42374228  1
  V  V8  1  0.71978359  0.34060587  0.91809649  1
  V  V9  1  0.21978359  0.65939413  0.58190351  1
  V  V10  1  0.28021641  0.65939413  0.08190351  1
  V  V11  1  0.78021641  0.34060587  0.41809649  1
  O  O12  1  0.75824213  0.66449017  0.83021555  1
  O  O13  1  0.25824213  0.33550983  0.66978445  1
  O  O14  1  0.24175787  0.33550983  0.16978445  1
  O  O15  1  0.74175787  0.66449017  0.33021555  1
  O  O16  1  0.82183330  0.14322419  0.86418522  1
  O  O17  1  0.32183330  0.85677581  0.63581478  1
  O  O18  1  0.17816670  0.85677581  0.13581478  1
  O  O19  1  0.67816670  0.14322419  0.36418522  1
  O  O20  1  0.82850183  0.24827205  0.07226389  1
  O  O21  1  0.32850183  0.75172795  0.42773611  1
  O  O22  1  0.17149817  0.75172795  0.92773611  1
  O  O23  1  0.67149817  0.24827205  0.57226389  1
  O  O24  1  0.00624699  0.29017532  0.41750919  1
  O  O25  1  0.50624699  0.70982468  0.08249081  1
  O  O26  1  0.99375301  0.70982468  0.58249081  1
  O  O27  1  0.49375301  0.29017532  0.91750919  1
