# generated using pymatgen
data_ZnSb2Cl2O3
_symmetry_space_group_name_H-M   'P 1'
_cell_length_a   5.59039530
_cell_length_b   6.42809538
_cell_length_c   17.31536140
_cell_angle_alpha   90.00000000
_cell_angle_beta   90.00000000
_cell_angle_gamma   90.00000000
_symmetry_Int_Tables_number   1
_chemical_formula_structural   ZnSb2Cl2O3
_chemical_formula_sum   'Zn4 Sb8 Cl8 O12'
_cell_volume   622.23780070
_cell_formula_units_Z   4
loop_
 _symmetry_equiv_pos_site_id
 _symmetry_equiv_pos_as_xyz
  1  'x, y, z'
loop_
 _atom_site_type_symbol
 _atom_site_label
 _atom_site_symmetry_multiplicity
 _atom_site_fract_x
 _atom_site_fract_y
 _atom_site_fract_z
 _atom_site_occupancy
  Zn  Zn0  1  0.25000000  0.97934724  0.91095489  1
  Zn  Zn1  1  0.25000000  0.52065276  0.41095489  1
  Zn  Zn2  1  0.75000000  0.02065276  0.08904511  1
  Zn  Zn3  1  0.75000000  0.47934724  0.58904511  1
  Sb  Sb4  1  0.25000000  0.81939871  0.61664784  1
  Sb  Sb5  1  0.25000000  0.68060129  0.11664784  1
  Sb  Sb6  1  0.75000000  0.18060129  0.38335216  1
  Sb  Sb7  1  0.75000000  0.31939871  0.88335216  1
  Sb  Sb8  1  0.25000000  0.24339619  0.75948621  1
  Sb  Sb9  1  0.25000000  0.25660381  0.25948621  1
  Sb  Sb10  1  0.75000000  0.75660381  0.24051379  1
  Sb  Sb11  1  0.75000000  0.74339619  0.74051379  1
  Cl  Cl12  1  0.25000000  0.12957970  0.02776346  1
  Cl  Cl13  1  0.25000000  0.37042030  0.52776346  1
  Cl  Cl14  1  0.75000000  0.87042030  0.97223654  1
  Cl  Cl15  1  0.75000000  0.62957970  0.47223654  1
  Cl  Cl16  1  0.25000000  0.64128029  0.87904286  1
  Cl  Cl17  1  0.25000000  0.85871971  0.37904286  1
  Cl  Cl18  1  0.75000000  0.35871971  0.12095714  1
  Cl  Cl19  1  0.75000000  0.14128029  0.62095714  1
  O  O20  1  0.25000000  0.96090836  0.71731102  1
  O  O21  1  0.25000000  0.53909164  0.21731102  1
  O  O22  1  0.75000000  0.03909164  0.28268898  1
  O  O23  1  0.75000000  0.46090836  0.78268898  1
  O  O24  1  0.98263662  0.64433500  0.65861274  1
  O  O25  1  0.51736338  0.85566500  0.15861274  1
  O  O26  1  0.48263662  0.35566500  0.34138726  1
  O  O27  1  0.01736338  0.14433500  0.84138726  1
  O  O28  1  0.01736338  0.35566500  0.34138726  1
  O  O29  1  0.48263662  0.14433500  0.84138726  1
  O  O30  1  0.51736338  0.64433500  0.65861274  1
  O  O31  1  0.98263662  0.85566500  0.15861274  1
