# generated using pymatgen
data_Sr4CaMn2Ga2O11
_symmetry_space_group_name_H-M   'P 1'
_cell_length_a   6.06065544
_cell_length_b   6.06095726
_cell_length_c   8.74401653
_cell_angle_alpha   67.85909769
_cell_angle_beta   67.21293550
_cell_angle_gamma   84.11476534
_symmetry_Int_Tables_number   1
_chemical_formula_structural   Sr4CaMn2Ga2O11
_chemical_formula_sum   'Sr4 Ca1 Mn2 Ga2 O11'
_cell_volume   273.93643102
_cell_formula_units_Z   1
loop_
 _symmetry_equiv_pos_site_id
 _symmetry_equiv_pos_as_xyz
  1  'x, y, z'
loop_
 _atom_site_type_symbol
 _atom_site_label
 _atom_site_symmetry_multiplicity
 _atom_site_fract_x
 _atom_site_fract_y
 _atom_site_fract_z
 _atom_site_occupancy
  Sr  Sr0  1  0.12572500  0.63678600  0.73647200  1
  Sr  Sr1  1  0.65177400  0.15966400  0.69477100  1
  Sr  Sr2  1  0.35453800  0.84654300  0.30522200  1
  Sr  Sr3  1  0.87322900  0.36228600  0.26353000  1
  Ca  Ca4  1  0.31770800  0.81765400  0.00000000  1
  Mn  Mn5  1  0.24935700  0.24934800  0.50001600  1
  Mn  Mn6  1  0.75065400  0.75061500  0.49999900  1
  Ga  Ga7  1  0.52387700  0.40103000  0.99697400  1
  Ga  Ga8  1  0.89811500  0.02103000  0.00299800  1
  O  O9  1  0.15912700  0.02860900  0.79149700  1
  O  O10  1  0.55133100  0.66151000  0.77367200  1
  O  O11  1  0.32015200  0.45062000  0.20849700  1
  O  O12  1  0.93519900  0.82492500  0.22634000  1
  O  O13  1  0.54255200  0.01533800  0.45454700  1
  O  O14  1  0.96988400  0.49700200  0.54548800  1
  O  O15  1  0.02839400  0.02835700  0.49996800  1
  O  O16  1  0.46991300  0.46989000  0.50001100  1
  O  O17  1  0.82927500  0.32933600  0.00001400  1
  O  O18  1  0.67917200  0.83870800  0.00297600  1
  O  O19  1  0.34145200  0.18218000  0.99701100  1
