# generated using pymatgen
data_MgTe4Pb6(BrO3)4
_symmetry_space_group_name_H-M   'P 1'
_cell_length_a   5.79671196
_cell_length_b   9.59753769
_cell_length_c   12.13973639
_cell_angle_alpha   105.08155509
_cell_angle_beta   89.24555074
_cell_angle_gamma   108.53847579
_symmetry_Int_Tables_number   1
_chemical_formula_structural   MgTe4Pb6(BrO3)4
_chemical_formula_sum   'Mg1 Te4 Pb6 Br4 O12'
_cell_volume   616.49568674
_cell_formula_units_Z   1
loop_
 _symmetry_equiv_pos_site_id
 _symmetry_equiv_pos_as_xyz
  1  'x, y, z'
loop_
 _atom_site_type_symbol
 _atom_site_label
 _atom_site_symmetry_multiplicity
 _atom_site_fract_x
 _atom_site_fract_y
 _atom_site_fract_z
 _atom_site_occupancy
  Mg  Mg0  1  0.28677026  0.69127312  0.05490141  1
  Te  Te1  1  0.60187115  0.19471477  0.09092543  1
  Te  Te2  1  0.43076922  0.86198383  0.89590205  1
  Te  Te3  1  0.86120046  0.70703280  0.40978463  1
  Te  Te4  1  0.12044163  0.27404795  0.59708389  1
  Pb  Pb5  1  0.24655637  0.46330902  0.23363295  1
  Pb  Pb6  1  0.74917256  0.52551699  0.78390983  1
  Pb  Pb7  1  0.01503857  0.03567305  0.19357893  1
  Pb  Pb8  1  0.97180094  0.93211976  0.74812435  1
  Pb  Pb9  1  0.68040986  0.31295863  0.40489591  1
  Pb  Pb10  1  0.33474021  0.65393214  0.60183891  1
  Br  Br11  1  0.82694907  0.64970588  0.08701873  1
  Br  Br12  1  0.20865732  0.41547733  0.93181636  1
  Br  Br13  1  0.42518174  0.84752531  0.26366701  1
  Br  Br14  1  0.49836840  0.04096483  0.62290858  1
  O  O15  1  0.86373906  0.25946143  0.22288748  1
  O  O16  1  0.40670514  0.25635624  0.22275778  1
  O  O17  1  0.11654631  0.74893291  0.78514166  1
  O  O18  1  0.62182538  0.74165521  0.78179021  1
  O  O19  1  0.73872666  0.02562896  0.04562115  1
  O  O20  1  0.28601424  0.02626359  0.04064727  1
  O  O21  1  0.87044392  0.75883058  0.57061915  1
  O  O22  1  0.07034623  0.22101493  0.43759912  1
  O  O23  1  0.01823573  0.55641446  0.39462843  1
  O  O24  1  0.54669997  0.55846647  0.39191901  1
  O  O25  1  0.97099807  0.43123202  0.62364214  1
  O  O26  1  0.44012451  0.42379378  0.61632865  1
