# generated using pymatgen
data_Sr6Mg(W2O9)2
_symmetry_space_group_name_H-M   'P 1'
_cell_length_a   7.49518781
_cell_length_b   8.89628656
_cell_length_c   7.25231392
_cell_angle_alpha   79.97304023
_cell_angle_beta   81.27440328
_cell_angle_gamma   77.87574419
_symmetry_Int_Tables_number   1
_chemical_formula_structural   Sr6Mg(W2O9)2
_chemical_formula_sum   'Sr6 Mg1 W4 O18'
_cell_volume   462.23045103
_cell_formula_units_Z   1
loop_
 _symmetry_equiv_pos_site_id
 _symmetry_equiv_pos_as_xyz
  1  'x, y, z'
loop_
 _atom_site_type_symbol
 _atom_site_label
 _atom_site_symmetry_multiplicity
 _atom_site_fract_x
 _atom_site_fract_y
 _atom_site_fract_z
 _atom_site_occupancy
  Sr  Sr0  1  0.22038400  0.00890900  0.73314900  1
  Sr  Sr1  1  0.15654800  0.48011700  0.78702000  1
  Sr  Sr2  1  0.47033700  0.71036300  0.13233300  1
  Sr  Sr3  1  0.72116200  0.28373600  0.93742900  1
  Sr  Sr4  1  0.98868700  0.65020100  0.25829400  1
  Sr  Sr5  1  0.65386800  0.99786400  0.35993200  1
  Mg  Mg6  1  0.73609600  0.32677800  0.39190000  1
  W  W7  1  0.82991700  0.83647800  0.82303500  1
  W  W8  1  0.34831700  0.33862500  0.32993300  1
  W  W9  1  0.14774600  0.15360100  0.15962600  1
  W  W10  1  0.63922500  0.64206600  0.64959200  1
  O  O11  1  0.21099400  0.94283800  0.13495200  1
  O  O12  1  0.07564700  0.76097700  0.86120300  1
  O  O13  1  0.55560400  0.83767300  0.78611000  1
  O  O14  1  0.23697100  0.52186400  0.43317500  1
  O  O15  1  0.18530700  0.17298700  0.42947200  1
  O  O16  1  0.13841200  0.40248400  0.14769700  1
  O  O17  1  0.47652300  0.52727300  0.78819300  1
  O  O18  1  0.51289100  0.75680400  0.45395000  1
  O  O19  1  0.74509600  0.83767900  0.08299200  1
  O  O20  1  0.08777500  0.22311600  0.89348100  1
  O  O21  1  0.52184600  0.22668500  0.51240500  1
  O  O22  1  0.85193500  0.78278000  0.55671600  1
  O  O23  1  0.56658000  0.43362600  0.20155600  1
  O  O24  1  0.80089000  0.59331600  0.86092100  1
  O  O25  1  0.79305600  0.48873700  0.51532700  1
  O  O26  1  0.43319100  0.17878700  0.13871900  1
  O  O27  1  0.87557500  0.17347700  0.23355000  1
  O  O28  1  0.84085000  0.04051700  0.74662700  1
