# generated using pymatgen
data_Tb2SeOF2
_symmetry_space_group_name_H-M   'P 1'
_cell_length_a   13.36354229
_cell_length_b   13.36354230
_cell_length_c   3.73976389
_cell_angle_alpha   90.00000000
_cell_angle_beta   90.00000000
_cell_angle_gamma   120.00000072
_symmetry_Int_Tables_number   1
_chemical_formula_structural   Tb2SeOF2
_chemical_formula_sum   'Tb12 Se6 O6 F12'
_cell_volume   578.38630008
_cell_formula_units_Z   6
loop_
 _symmetry_equiv_pos_site_id
 _symmetry_equiv_pos_as_xyz
  1  'x, y, z'
loop_
 _atom_site_type_symbol
 _atom_site_label
 _atom_site_symmetry_multiplicity
 _atom_site_fract_x
 _atom_site_fract_y
 _atom_site_fract_z
 _atom_site_occupancy
  Tb  Tb0  1  0.39727155  0.88295335  0.25000000  1
  Tb  Tb1  1  0.48568179  0.60272845  0.25000000  1
  Tb  Tb2  1  0.11704665  0.51431821  0.25000000  1
  Tb  Tb3  1  0.60272845  0.11704665  0.75000000  1
  Tb  Tb4  1  0.51431821  0.39727155  0.75000000  1
  Tb  Tb5  1  0.88295335  0.48568179  0.75000000  1
  Tb  Tb6  1  0.05508360  0.76637030  0.25000000  1
  Tb  Tb7  1  0.71128671  0.94491640  0.25000000  1
  Tb  Tb8  1  0.23362970  0.28871329  0.25000000  1
  Tb  Tb9  1  0.94491640  0.23362970  0.75000000  1
  Tb  Tb10  1  0.28871329  0.05508360  0.75000000  1
  Tb  Tb11  1  0.76637030  0.71128671  0.75000000  1
  Se  Se12  1  0.71884512  0.51274301  0.25000000  1
  Se  Se13  1  0.79389688  0.28115488  0.25000000  1
  Se  Se14  1  0.48725699  0.20610312  0.25000000  1
  Se  Se15  1  0.28115488  0.48725699  0.75000000  1
  Se  Se16  1  0.20610312  0.71884512  0.75000000  1
  Se  Se17  1  0.51274301  0.79389688  0.75000000  1
  O  O18  1  0.98559623  0.57332967  0.25000000  1
  O  O19  1  0.58773344  0.01440377  0.25000000  1
  O  O20  1  0.42667033  0.41226656  0.25000000  1
  O  O21  1  0.01440377  0.42667033  0.75000000  1
  O  O22  1  0.41226656  0.98559623  0.75000000  1
  O  O23  1  0.57332967  0.58773344  0.75000000  1
  F  F24  1  0.89369171  0.79259096  0.25000000  1
  F  F25  1  0.89889925  0.10630829  0.25000000  1
  F  F26  1  0.20740904  0.10110075  0.25000000  1
  F  F27  1  0.10630829  0.20740904  0.75000000  1
  F  F28  1  0.10110075  0.89369171  0.75000000  1
  F  F29  1  0.79259096  0.89889925  0.75000000  1
  F  F30  1  0.24773806  0.93319335  0.25000000  1
  F  F31  1  0.68545529  0.75226194  0.25000000  1
  F  F32  1  0.06680665  0.31454471  0.25000000  1
  F  F33  1  0.75226194  0.06680665  0.75000000  1
  F  F34  1  0.31454471  0.24773806  0.75000000  1
  F  F35  1  0.93319335  0.68545529  0.75000000  1
