# generated using pymatgen
data_HoAgSe2
_symmetry_space_group_name_H-M   'P 1'
_cell_length_a   7.27071362
_cell_length_b   7.27071362
_cell_length_c   5.70784466
_cell_angle_alpha   66.91269674
_cell_angle_beta   66.91269674
_cell_angle_gamma   46.19380054
_symmetry_Int_Tables_number   1
_chemical_formula_structural   HoAgSe2
_chemical_formula_sum   'Ho2 Ag2 Se4'
_cell_volume   196.97944279
_cell_formula_units_Z   2
loop_
 _symmetry_equiv_pos_site_id
 _symmetry_equiv_pos_as_xyz
  1  'x, y, z'
loop_
 _atom_site_type_symbol
 _atom_site_label
 _atom_site_symmetry_multiplicity
 _atom_site_fract_x
 _atom_site_fract_y
 _atom_site_fract_z
 _atom_site_occupancy
  Ho  Ho0  1  0.00058200  0.00058200  0.00660800  1
  Ho  Ho1  1  0.25030300  0.25030300  0.25704600  1
  Ag  Ag2  1  0.75084500  0.75084500  0.75334200  1
  Ag  Ag3  1  0.50252500  0.50252500  0.49192000  1
  Se  Se4  1  0.01408200  0.01408200  0.49176100  1
  Se  Se5  1  0.48701400  0.48701400  0.01210400  1
  Se  Se6  1  0.76443600  0.76443600  0.24117200  1
  Se  Se7  1  0.23690400  0.23690400  0.76991300  1
