# generated using pymatgen
data_CsHgBr3
_symmetry_space_group_name_H-M   'P 1'
_cell_length_a   12.63100851
_cell_length_b   12.63100851
_cell_length_c   14.50936956
_cell_angle_alpha   56.78275534
_cell_angle_beta   56.78275534
_cell_angle_gamma   37.30797283
_symmetry_Int_Tables_number   1
_chemical_formula_structural   CsHgBr3
_chemical_formula_sum   'Cs6 Hg6 Br18'
_cell_volume   1144.73976539
_cell_formula_units_Z   6
loop_
 _symmetry_equiv_pos_site_id
 _symmetry_equiv_pos_as_xyz
  1  'x, y, z'
loop_
 _atom_site_type_symbol
 _atom_site_label
 _atom_site_symmetry_multiplicity
 _atom_site_fract_x
 _atom_site_fract_y
 _atom_site_fract_z
 _atom_site_occupancy
  Cs  Cs0  1  0.50000000  -0.00000000  0.00000000  1
  Cs  Cs1  1  -0.00000000  0.50000000  0.50000000  1
  Cs  Cs2  1  0.18410188  0.63813249  0.68055326  1
  Cs  Cs3  1  0.36186751  0.81589812  0.81944674  1
  Cs  Cs4  1  0.81589812  0.36186751  0.31944674  1
  Cs  Cs5  1  0.63813249  0.18410188  0.18055326  1
  Hg  Hg6  1  0.24946765  0.75053235  0.25000000  1
  Hg  Hg7  1  0.75053235  0.24946765  0.75000000  1
  Hg  Hg8  1  0.09487492  0.57728166  0.07761738  1
  Hg  Hg9  1  0.42271834  0.90512508  0.42238262  1
  Hg  Hg10  1  0.90512508  0.42271834  0.92238262  1
  Hg  Hg11  1  0.57728166  0.09487492  0.57761738  1
  Br  Br12  1  0.10975447  0.70980471  0.21445262  1
  Br  Br13  1  0.29019529  0.89024553  0.28554738  1
  Br  Br14  1  0.89024553  0.29019529  0.78554738  1
  Br  Br15  1  0.70980471  0.10975447  0.71445262  1
  Br  Br16  1  0.93756209  0.89295213  0.95932287  1
  Br  Br17  1  0.10704787  0.06243791  0.54067713  1
  Br  Br18  1  0.06243791  0.10704787  0.04067713  1
  Br  Br19  1  0.89295213  0.93756209  0.45932287  1
  Br  Br20  1  0.18846406  0.32255966  0.25218838  1
  Br  Br21  1  0.67744034  0.81153594  0.24781162  1
  Br  Br22  1  0.81153594  0.67744034  0.74781162  1
  Br  Br23  1  0.32255966  0.18846406  0.75218838  1
  Br  Br24  1  -0.00000000  0.50000000  0.00000000  1
  Br  Br25  1  0.50000000  -0.00000000  0.50000000  1
  Br  Br26  1  0.40685456  0.44046726  0.43266094  1
  Br  Br27  1  0.55953274  0.59314544  0.06733906  1
  Br  Br28  1  0.59314544  0.55953274  0.56733906  1
  Br  Br29  1  0.44046726  0.40685456  0.93266094  1
