# generated using pymatgen
data_KNaMg14O15
_symmetry_space_group_name_H-M   'P 1'
_cell_length_a   8.64272590
_cell_length_b   8.77859061
_cell_length_c   4.41136530
_cell_angle_alpha   90.00000000
_cell_angle_beta   90.00000000
_cell_angle_gamma   90.00000000
_symmetry_Int_Tables_number   1
_chemical_formula_structural   KNaMg14O15
_chemical_formula_sum   'K1 Na1 Mg14 O15'
_cell_volume   334.69448683
_cell_formula_units_Z   1
loop_
 _symmetry_equiv_pos_site_id
 _symmetry_equiv_pos_as_xyz
  1  'x, y, z'
loop_
 _atom_site_type_symbol
 _atom_site_label
 _atom_site_symmetry_multiplicity
 _atom_site_fract_x
 _atom_site_fract_y
 _atom_site_fract_z
 _atom_site_occupancy
  K  K0  1  0.98695080  0.00000000  0.00000000  1
  Na  Na1  1  0.99213498  0.50000000  0.00000000  1
  Mg  Mg2  1  0.49797697  0.00000000  0.00000000  1
  Mg  Mg3  1  0.51619434  0.50000000  0.00000000  1
  Mg  Mg4  1  0.00644301  0.25274403  0.50000000  1
  Mg  Mg5  1  0.00644301  0.74725597  0.50000000  1
  Mg  Mg6  1  0.49748156  0.25312701  0.50000000  1
  Mg  Mg7  1  0.49748156  0.74687299  0.50000000  1
  Mg  Mg8  1  0.24947165  0.00000000  0.50000000  1
  Mg  Mg9  1  0.24187439  0.50000000  0.50000000  1
  Mg  Mg10  1  0.74652030  0.00000000  0.50000000  1
  Mg  Mg11  1  0.76557923  0.50000000  0.50000000  1
  Mg  Mg12  1  0.24536455  0.22397027  0.00000000  1
  Mg  Mg13  1  0.24536455  0.77602973  0.00000000  1
  Mg  Mg14  1  0.75638112  0.25397596  -0.00000000  1
  Mg  Mg15  1  0.75638112  0.74602404  -0.00000000  1
  O  O16  1  0.27371858  0.00000000  0.00000000  1
  O  O17  1  0.71856585  0.00000000  0.00000000  1
  O  O18  1  0.73882390  0.50000000  0.00000000  1
  O  O19  1  0.25300686  0.25823874  0.50000000  1
  O  O20  1  0.25300686  0.74176126  0.50000000  1
  O  O21  1  0.74967854  0.25329666  0.50000000  1
  O  O22  1  0.74967854  0.74670334  0.50000000  1
  O  O23  1  0.01302493  0.00000000  0.50000000  1
  O  O24  1  0.01128206  0.50000000  0.50000000  1
  O  O25  1  0.49600053  0.00000000  0.50000000  1
  O  O26  1  0.48195866  0.50000000  0.50000000  1
  O  O27  1  0.01538358  0.26543326  0.00000000  1
  O  O28  1  0.01538358  0.73456674  0.00000000  1
  O  O29  1  0.48622220  0.26610268  0.00000000  1
  O  O30  1  0.48622220  0.73389732  0.00000000  1
