# generated using pymatgen
data_Cs2AuBr
_symmetry_space_group_name_H-M   'P 1'
_cell_length_a   13.31163733
_cell_length_b   13.31163733
_cell_length_c   13.31163733
_cell_angle_alpha   120.17355839
_cell_angle_beta   119.51422881
_cell_angle_gamma   90.27154148
_symmetry_Int_Tables_number   1
_chemical_formula_structural   Cs2AuBr
_chemical_formula_sum   'Cs2 Au1 Br1'
_cell_volume   1671.78265015
_cell_formula_units_Z   1
loop_
 _symmetry_equiv_pos_site_id
 _symmetry_equiv_pos_as_xyz
  1  'x, y, z'
loop_
 _atom_site_type_symbol
 _atom_site_label
 _atom_site_symmetry_multiplicity
 _atom_site_fract_x
 _atom_site_fract_y
 _atom_site_fract_z
 _atom_site_occupancy
  Cs  Cs0  1  0.25002625  -0.00000000  0.25002625  1
  Cs  Cs1  1  0.74997375  0.00000000  0.74997375  1
  Au  Au2  1  0.50000000  0.00000000  0.50000000  1
  Br  Br3  1  -0.00000000  -0.00000000  -0.00000000  1
