# generated using pymatgen
data_Li3GdO3
_symmetry_space_group_name_H-M   'P 1'
_cell_length_a   10.19806825
_cell_length_b   10.19895256
_cell_length_c   10.79156944
_cell_angle_alpha   89.99614926
_cell_angle_beta   90.00998839
_cell_angle_gamma   120.00401586
_symmetry_Int_Tables_number   1
_chemical_formula_structural   Li3GdO3
_chemical_formula_sum   'Li36 Gd12 O36'
_cell_volume   972.01092100
_cell_formula_units_Z   12
loop_
 _symmetry_equiv_pos_site_id
 _symmetry_equiv_pos_as_xyz
  1  'x, y, z'
loop_
 _atom_site_type_symbol
 _atom_site_label
 _atom_site_symmetry_multiplicity
 _atom_site_fract_x
 _atom_site_fract_y
 _atom_site_fract_z
 _atom_site_occupancy
  Li  Li0  1  0.08390432  0.85746930  0.43741915  1
  Li  Li1  1  0.14253153  0.91605856  0.93751241  1
  Li  Li2  1  0.10785252  0.52627804  0.93798322  1
  Li  Li3  1  0.19163169  0.75178804  0.06220284  1
  Li  Li4  1  0.10787601  0.58158102  0.43787584  1
  Li  Li5  1  0.24820131  0.80837221  0.56212292  1
  Li  Li6  1  0.19162767  0.43982860  0.56210543  1
  Li  Li7  1  0.47372137  0.89211136  0.43788841  1
  Li  Li8  1  0.08390985  0.22647678  0.93752397  1
  Li  Li9  1  0.14252833  0.22647121  0.43742590  1
  Li  Li10  1  0.24819691  0.43983679  0.06223327  1
  Li  Li11  1  0.41843053  0.89212782  0.93794966  1
  Li  Li12  1  0.56019080  0.80836246  0.06219553  1
  Li  Li13  1  0.22639431  0.14250218  0.06259556  1
  Li  Li14  1  0.47372833  0.58160304  0.93798222  1
  Li  Li15  1  0.56017444  0.75181940  0.56211779  1
  Li  Li16  1  0.22641711  0.08389903  0.56249673  1
  Li  Li17  1  0.41841140  0.52629051  0.43787032  1
  Li  Li18  1  0.58161069  0.47373318  0.56201190  1
  Li  Li19  1  0.77351388  0.91606133  0.43743131  1
  Li  Li20  1  0.43981147  0.24818349  0.43778332  1
  Li  Li21  1  0.52628163  0.41844409  0.06210231  1
  Li  Li22  1  0.77352992  0.85746659  0.93750397  1
  Li  Li23  1  0.43981535  0.19161441  0.93784930  1
  Li  Li24  1  0.58157362  0.10782864  0.06211375  1
  Li  Li25  1  0.75181322  0.56018591  0.93787336  1
  Li  Li26  1  0.85747794  0.77358357  0.56250209  1
  Li  Li27  1  0.91607213  0.77357504  0.06258135  1
  Li  Li28  1  0.52628661  0.10783905  0.56204859  1
  Li  Li29  1  0.80837654  0.56019878  0.43779363  1
  Li  Li30  1  0.75183420  0.19162062  0.43779330  1
  Li  Li31  1  0.89214156  0.41839960  0.56203335  1
  Li  Li32  1  0.80837176  0.24817516  0.93785561  1
  Li  Li33  1  0.89215048  0.47372137  0.06211540  1
  Li  Li34  1  0.85747041  0.08390213  0.06257234  1
  Li  Li35  1  0.91608053  0.14250758  0.56251432  1
  Gd  Gd36  1  -0.00001675  0.66651557  0.74998860  1
  Gd  Gd37  1  0.00013526  0.33357975  0.24998503  1
  Gd  Gd38  1  0.33337160  0.66664358  0.24946985  1
  Gd  Gd39  1  0.99990014  -0.00002128  0.25000644  1
  Gd  Gd40  1  0.99996078  -0.00006190  0.75003629  1
  Gd  Gd41  1  0.33331428  0.66668188  0.74948711  1
  Gd  Gd42  1  0.33349473  0.33351523  0.74999675  1
  Gd  Gd43  1  0.33339996  0.99986092  0.25001063  1
  Gd  Gd44  1  0.66643968  0.66658223  0.25000147  1
  Gd  Gd45  1  0.66668735  0.33338911  0.25053700  1
  Gd  Gd46  1  0.66671777  0.33333284  0.75049553  1
  Gd  Gd47  1  0.66653234  0.99999385  0.75000127  1
  O  O48  1  0.08475364  0.87456421  0.61955069  1
  O  O49  1  0.12563910  0.91525646  0.11944464  1
  O  O50  1  0.20863884  0.75198068  0.88019912  1
  O  O51  1  0.24796654  0.79180680  0.38048252  1
  O  O52  1  0.12322034  0.58143389  0.61949473  1
  O  O53  1  0.12279784  0.54154575  0.11916204  1
  O  O54  1  0.08479007  0.21027615  0.11935426  1
  O  O55  1  0.20834807  0.45624995  0.38052539  1
  O  O56  1  0.41866554  0.87730301  0.11920188  1
  O  O57  1  0.45832246  0.87688414  0.61954699  1
  O  O58  1  0.24805686  0.45670920  0.88018363  1
  O  O59  1  0.12547719  0.21022934  0.61956330  1
  O  O60  1  0.21021605  0.12544762  0.88050163  1
  O  O61  1  0.41857638  0.54182549  0.61949659  1
  O  O62  1  0.45845146  0.58128224  0.11912166  1
  O  O63  1  0.54344582  0.79151468  0.88013861  1
  O  O64  1  0.21042063  0.08477209  0.38056774  1
  O  O65  1  0.54371751  0.75213832  0.38056415  1
  O  O66  1  0.45664494  0.24799619  0.61974362  1
  O  O67  1  0.78971034  0.91529848  0.61961665  1
  O  O68  1  0.45643944  0.20838746  0.11963800  1
  O  O69  1  0.54174585  0.41856192  0.88053105  1
  O  O70  1  0.58135935  0.45821304  0.38071271  1
  O  O71  1  0.78970103  0.87454738  0.11932116  1
  O  O72  1  0.87453851  0.78972814  0.38067484  1
  O  O73  1  0.75204448  0.54344446  0.11955905  1
  O  O74  1  0.54158203  0.12297440  0.38063925  1
  O  O75  1  0.58143563  0.12306889  0.88051029  1
  O  O76  1  0.79142019  0.54336125  0.61976214  1
  O  O77  1  0.91523027  0.78979586  0.88046926  1
  O  O78  1  0.87682179  0.45821621  0.88054059  1
  O  O79  1  0.87688050  0.41862304  0.38072870  1
  O  O80  1  0.75197289  0.20847480  0.61981084  1
  O  O81  1  0.79141310  0.24793153  0.11956771  1
  O  O82  1  0.87442994  0.08473914  0.88040410  1
  O  O83  1  0.91514793  0.12549116  0.38067411  1
