# generated using pymatgen
data_Ta2CdO6
_symmetry_space_group_name_H-M   'P 1'
_cell_length_a   5.14965866
_cell_length_b   5.90052683
_cell_length_c   14.84287573
_cell_angle_alpha   90.00000000
_cell_angle_beta   90.00000000
_cell_angle_gamma   90.00000000
_symmetry_Int_Tables_number   1
_chemical_formula_structural   Ta2CdO6
_chemical_formula_sum   'Ta8 Cd4 O24'
_cell_volume   451.01115554
_cell_formula_units_Z   4
loop_
 _symmetry_equiv_pos_site_id
 _symmetry_equiv_pos_as_xyz
  1  'x, y, z'
loop_
 _atom_site_type_symbol
 _atom_site_label
 _atom_site_symmetry_multiplicity
 _atom_site_fract_x
 _atom_site_fract_y
 _atom_site_fract_z
 _atom_site_occupancy
  Ta  Ta0  1  0.23350079  0.82399412  0.83458064  1
  Ta  Ta1  1  0.76649921  0.17600588  0.16541936  1
  Ta  Ta2  1  0.73350079  0.67600588  0.66541936  1
  Ta  Ta3  1  0.26649921  0.82399412  0.16541936  1
  Ta  Ta4  1  0.26649921  0.32399412  0.33458064  1
  Ta  Ta5  1  0.73350079  0.17600588  0.83458064  1
  Ta  Ta6  1  0.76649921  0.67600588  0.33458064  1
  Ta  Ta7  1  0.23350079  0.32399412  0.66541936  1
  Cd  Cd8  1  0.25000000  0.81250848  0.50000000  1
  Cd  Cd9  1  0.75000000  0.18749152  0.50000000  1
  Cd  Cd10  1  0.75000000  0.68749152  0.00000000  1
  Cd  Cd11  1  0.25000000  0.31250848  0.00000000  1
  O  O12  1  0.10778482  0.61889171  0.91374787  1
  O  O13  1  0.89221518  0.38110829  0.08625213  1
  O  O14  1  0.60778482  0.88110829  0.58625213  1
  O  O15  1  0.39221518  0.61889171  0.08625213  1
  O  O16  1  0.39221518  0.11889171  0.41374787  1
  O  O17  1  0.60778482  0.38110829  0.91374787  1
  O  O18  1  0.89221518  0.88110829  0.41374787  1
  O  O19  1  0.10778482  0.11889171  0.58625213  1
  O  O20  1  0.05118961  0.58993177  0.60415684  1
  O  O21  1  0.94881039  0.41006823  0.39584316  1
  O  O22  1  0.55118961  0.91006823  0.89584316  1
  O  O23  1  0.44881039  0.58993177  0.39584316  1
  O  O24  1  0.44881039  0.08993177  0.10415684  1
  O  O25  1  0.55118961  0.41006823  0.60415684  1
  O  O26  1  0.94881039  0.91006823  0.10415684  1
  O  O27  1  0.05118961  0.08993177  0.89584316  1
  O  O28  1  0.40967963  0.63227466  0.74453237  1
  O  O29  1  0.59032037  0.36772534  0.25546763  1
  O  O30  1  0.90967963  0.86772534  0.75546763  1
  O  O31  1  0.09032037  0.63227466  0.25546763  1
  O  O32  1  0.09032037  0.13227466  0.24453237  1
  O  O33  1  0.90967963  0.36772534  0.74453237  1
  O  O34  1  0.59032037  0.86772534  0.24453237  1
  O  O35  1  0.40967963  0.13227466  0.75546763  1
