# generated using pymatgen
data_Sm2Hf2(MoO4)7
_symmetry_space_group_name_H-M   'P 1'
_cell_length_a   10.00809405
_cell_length_b   11.72935550
_cell_length_c   14.10602219
_cell_angle_alpha   110.68804833
_cell_angle_beta   90.00000000
_cell_angle_gamma   115.25362459
_symmetry_Int_Tables_number   1
_chemical_formula_structural   Sm2Hf2(MoO4)7
_chemical_formula_sum   'Sm4 Hf4 Mo14 O56'
_cell_volume   1378.65079109
_cell_formula_units_Z   2
loop_
 _symmetry_equiv_pos_site_id
 _symmetry_equiv_pos_as_xyz
  1  'x, y, z'
loop_
 _atom_site_type_symbol
 _atom_site_label
 _atom_site_symmetry_multiplicity
 _atom_site_fract_x
 _atom_site_fract_y
 _atom_site_fract_z
 _atom_site_occupancy
  Sm  Sm0  1  0.14971625  0.27426482  0.93749951  1
  Sm  Sm1  1  0.85028375  0.72573518  0.06250049  1
  Sm  Sm2  1  0.87545143  0.72573518  0.56250049  1
  Sm  Sm3  1  0.12454857  0.27426482  0.43749951  1
  Hf  Hf4  1  0.41967264  0.76784495  0.81204680  1
  Hf  Hf5  1  0.58032736  0.23215505  0.18795320  1
  Hf  Hf6  1  0.65182768  0.23215505  0.68795320  1
  Hf  Hf7  1  0.34817232  0.76784495  0.31204680  1
  Mo  Mo8  1  0.49934775  0.48674962  0.82511219  1
  Mo  Mo9  1  0.50065225  0.51325038  0.17488781  1
  Mo  Mo10  1  0.01259814  0.51325038  0.67488781  1
  Mo  Mo11  1  0.98740186  0.48674962  0.32511219  1
  Mo  Mo12  1  0.45519345  0.68469313  0.52337497  1
  Mo  Mo13  1  0.54480655  0.31530687  0.47662503  1
  Mo  Mo14  1  0.77050031  0.31530687  0.97662503  1
  Mo  Mo15  1  0.22949969  0.68469313  0.02337497  1
  Mo  Mo16  1  0.81065333  0.87891107  0.85329594  1
  Mo  Mo17  1  0.18934667  0.12108893  0.14670406  1
  Mo  Mo18  1  0.93174226  0.12108893  0.64670406  1
  Mo  Mo19  1  0.06825774  0.87891107  0.35329594  1
  Mo  Mo20  1  0.29884149  0.00000000  0.75000000  1
  Mo  Mo21  1  0.70115851  1.00000000  0.25000000  1
  O  O22  1  0.48673826  0.61354244  0.78282973  1
  O  O23  1  0.51326174  0.38645756  0.21717027  1
  O  O24  1  0.87319582  0.38645756  0.71717027  1
  O  O25  1  0.12680418  0.61354244  0.28282973  1
  O  O26  1  0.63960424  0.71317507  0.50417328  1
  O  O27  1  0.36039576  0.28682493  0.49582672  1
  O  O28  1  0.92642917  0.28682493  0.99582672  1
  O  O29  1  0.07357083  0.71317507  0.00417328  1
  O  O30  1  0.31782478  0.37763616  0.83324945  1
  O  O31  1  0.68217522  0.62236384  0.16675055  1
  O  O32  1  0.94018862  0.62236384  0.66675055  1
  O  O33  1  0.05981138  0.37763616  0.33324945  1
  O  O34  1  0.93436924  0.96163542  0.60210848  1
  O  O35  1  0.06563076  0.03836458  0.39789152  1
  O  O36  1  0.97273382  0.03836458  0.89789152  1
  O  O37  1  0.02726618  0.96163542  0.10210848  1
  O  O38  1  0.79629805  0.79514134  0.71883793  1
  O  O39  1  0.20370195  0.20485866  0.28116207  1
  O  O40  1  0.00115671  0.20485866  0.78116207  1
  O  O41  1  0.99884329  0.79514134  0.21883793  1
  O  O42  1  0.57728617  0.38235095  0.73958081  1
  O  O43  1  0.42271383  0.61764905  0.26041919  1
  O  O44  1  0.19493522  0.61764905  0.76041919  1
  O  O45  1  0.80506478  0.38235095  0.23958081  1
  O  O46  1  0.66396633  0.49263853  0.52816513  1
  O  O47  1  0.33603367  0.50736147  0.47183487  1
  O  O48  1  0.17132780  0.50736147  0.97183487  1
  O  O49  1  0.82867220  0.49263853  0.02816513  1
  O  O50  1  0.82888427  0.77662781  0.91540906  1
  O  O51  1  0.17111573  0.22337219  0.08459094  1
  O  O52  1  0.05225646  0.22337219  0.58459094  1
  O  O53  1  0.94774354  0.77662781  0.41540906  1
  O  O54  1  0.60854336  0.56929537  0.94932966  1
  O  O55  1  0.39145664  0.43070463  0.05067034  1
  O  O56  1  0.03924799  0.43070463  0.55067034  1
  O  O57  1  0.96075201  0.56929537  0.44932966  1
  O  O58  1  0.37483529  0.76478171  0.95556292  1
  O  O59  1  0.62516471  0.23521829  0.04443708  1
  O  O60  1  0.61005358  0.23521829  0.54443708  1
  O  O61  1  0.38994642  0.76478171  0.45556292  1
  O  O62  1  0.26058131  0.12535795  0.84120069  1
  O  O63  1  0.73941869  0.87464205  0.15879931  1
  O  O64  1  0.13522336  0.87464205  0.65879931  1
  O  O65  1  0.86477664  0.12535795  0.34120069  1
  O  O66  1  0.44179515  0.08019935  0.68166356  1
  O  O67  1  0.55820485  0.91980065  0.31833644  1
  O  O68  1  0.36159581  0.91980065  0.81833644  1
  O  O69  1  0.63840419  0.08019935  0.18166356  1
  O  O70  1  0.64037888  0.90432213  0.87433055  1
  O  O71  1  0.35962112  0.09567787  0.12566945  1
  O  O72  1  0.73605675  0.09567787  0.62566945  1
  O  O73  1  0.26394325  0.90432213  0.37433055  1
  O  O74  1  0.44735539  0.75088064  0.66027861  1
  O  O75  1  0.55264461  0.24911936  0.33972139  1
  O  O76  1  0.69647475  0.24911936  0.83972139  1
  O  O77  1  0.30352525  0.75088064  0.16027861  1
