# generated using pymatgen
data_K5SnAs3
_symmetry_space_group_name_H-M   'P 1'
_cell_length_a   8.34435146
_cell_length_b   9.24477510
_cell_length_c   17.79481193
_cell_angle_alpha   58.90878351
_cell_angle_beta   90.00000000
_cell_angle_gamma   90.00000000
_symmetry_Int_Tables_number   1
_chemical_formula_structural   K5SnAs3
_chemical_formula_sum   'K20 Sn4 As12'
_cell_volume   1175.52466568
_cell_formula_units_Z   4
loop_
 _symmetry_equiv_pos_site_id
 _symmetry_equiv_pos_as_xyz
  1  'x, y, z'
loop_
 _atom_site_type_symbol
 _atom_site_label
 _atom_site_symmetry_multiplicity
 _atom_site_fract_x
 _atom_site_fract_y
 _atom_site_fract_z
 _atom_site_occupancy
  K  K0  1  0.16378625  0.83755668  0.74118687  1
  K  K1  1  0.66378625  0.16244332  0.75881313  1
  K  K2  1  0.83621375  0.16244332  0.25881313  1
  K  K3  1  0.33621375  0.83755668  0.24118687  1
  K  K4  1  0.17067412  0.15923990  0.41980484  1
  K  K5  1  0.67067412  0.84076010  0.08019516  1
  K  K6  1  0.82932588  0.84076010  0.58019516  1
  K  K7  1  0.32932588  0.15923990  0.91980484  1
  K  K8  1  0.00558859  0.10319957  0.08830126  1
  K  K9  1  0.50558859  0.89680043  0.41169874  1
  K  K10  1  0.99441141  0.89680043  0.91169874  1
  K  K11  1  0.49441141  0.10319957  0.58830126  1
  K  K12  1  0.51785001  0.26551978  0.07611099  1
  K  K13  1  0.01785001  0.73448022  0.42388901  1
  K  K14  1  0.48214999  0.73448022  0.92388901  1
  K  K15  1  0.98214999  0.26551978  0.57611099  1
  K  K16  1  0.98740991  0.54982993  0.25583708  1
  K  K17  1  0.48740991  0.45017007  0.24416292  1
  K  K18  1  0.01259009  0.45017007  0.74416292  1
  K  K19  1  0.51259009  0.54982993  0.75583708  1
  Sn  Sn20  1  0.35911880  0.48878320  0.58558322  1
  Sn  Sn21  1  0.85911880  0.51121680  0.91441678  1
  Sn  Sn22  1  0.64088120  0.51121680  0.41441678  1
  Sn  Sn23  1  0.14088120  0.48878320  0.08558322  1
  As  As24  1  0.31545309  0.48482645  0.43485625  1
  As  As25  1  0.81545309  0.51517355  0.06514375  1
  As  As26  1  0.68454691  0.51517355  0.56514375  1
  As  As27  1  0.18454691  0.48482645  0.93485625  1
  As  As28  1  0.22742858  0.19954685  0.22421872  1
  As  As29  1  0.72742858  0.80045315  0.27578128  1
  As  As30  1  0.77257142  0.80045315  0.77578128  1
  As  As31  1  0.27257142  0.19954685  0.72421872  1
  As  As32  1  0.25902946  0.75999224  0.08004285  1
  As  As33  1  0.75902946  0.24000776  0.41995715  1
  As  As34  1  0.74097054  0.24000776  0.91995715  1
  As  As35  1  0.24097054  0.75999224  0.58004285  1
