# generated using pymatgen
data_Tl4GeS4
_symmetry_space_group_name_H-M   'P 1'
_cell_length_a   8.58827844
_cell_length_b   8.58827844
_cell_length_c   7.68665254
_cell_angle_alpha   73.07962147
_cell_angle_beta   73.07962147
_cell_angle_gamma   83.42582878
_symmetry_Int_Tables_number   1
_chemical_formula_structural   Tl4GeS4
_chemical_formula_sum   'Tl8 Ge2 S8'
_cell_volume   518.65692261
_cell_formula_units_Z   2
loop_
 _symmetry_equiv_pos_site_id
 _symmetry_equiv_pos_as_xyz
  1  'x, y, z'
loop_
 _atom_site_type_symbol
 _atom_site_label
 _atom_site_symmetry_multiplicity
 _atom_site_fract_x
 _atom_site_fract_y
 _atom_site_fract_z
 _atom_site_occupancy
  Tl  Tl0  1  0.20688065  0.20909560  0.91501805  1
  Tl  Tl1  1  0.20909560  0.20688065  0.41501805  1
  Tl  Tl2  1  0.02697428  0.59087597  0.94008263  1
  Tl  Tl3  1  0.59087597  0.02697428  0.44008263  1
  Tl  Tl4  1  0.74169321  0.00750591  0.91273334  1
  Tl  Tl5  1  0.00750591  0.74169321  0.41273334  1
  Tl  Tl6  1  0.63381306  0.40976527  0.99519200  1
  Tl  Tl7  1  0.40976527  0.63381306  0.49519200  1
  Ge  Ge8  1  0.79795154  0.37743932  0.46192529  1
  Ge  Ge9  1  0.37743932  0.79795154  0.96192529  1
  S  S10  1  0.20658176  0.91437034  0.79000317  1
  S  S11  1  0.91437034  0.20658176  0.29000317  1
  S  S12  1  0.62363783  0.75566163  0.77839691  1
  S  S13  1  0.75566163  0.62363783  0.27839691  1
  S  S14  1  0.56100525  0.27922796  0.65156771  1
  S  S15  1  0.27922796  0.56100525  0.15156771  1
  S  S16  1  0.95243789  0.39347954  0.64178090  1
  S  S17  1  0.39347954  0.95243789  0.14178090  1
