# generated using pymatgen
data_RbNaMg14O15
_symmetry_space_group_name_H-M   'P 1'
_cell_length_a   8.49398956
_cell_length_b   8.81616217
_cell_length_c   4.41922251
_cell_angle_alpha   90.00000000
_cell_angle_beta   90.00000000
_cell_angle_gamma   90.00000000
_symmetry_Int_Tables_number   1
_chemical_formula_structural   RbNaMg14O15
_chemical_formula_sum   'Rb1 Na1 Mg14 O15'
_cell_volume   330.93077942
_cell_formula_units_Z   1
loop_
 _symmetry_equiv_pos_site_id
 _symmetry_equiv_pos_as_xyz
  1  'x, y, z'
loop_
 _atom_site_type_symbol
 _atom_site_label
 _atom_site_symmetry_multiplicity
 _atom_site_fract_x
 _atom_site_fract_y
 _atom_site_fract_z
 _atom_site_occupancy
  Rb  Rb0  1  0.40941096  0.50000000  0.00000000  1
  Na  Na1  1  0.99832820  0.00000000  0.00000000  1
  Mg  Mg2  1  0.97668999  0.50000000  0.00000000  1
  Mg  Mg3  1  0.50889253  0.00000000  0.00000000  1
  Mg  Mg4  1  0.00353245  0.24912442  0.50000000  1
  Mg  Mg5  1  0.00353245  0.75087558  0.50000000  1
  Mg  Mg6  1  0.50722410  0.24461473  0.50000000  1
  Mg  Mg7  1  0.50722410  0.75538527  0.50000000  1
  Mg  Mg8  1  0.25254133  0.00000000  0.50000000  1
  Mg  Mg9  1  0.24323401  0.50000000  0.50000000  1
  Mg  Mg10  1  0.75904058  0.00000000  0.50000000  1
  Mg  Mg11  1  0.73951259  0.50000000  0.50000000  1
  Mg  Mg12  1  0.25235194  0.21682004  0.00000000  1
  Mg  Mg13  1  0.25235194  0.78317996  0.00000000  1
  Mg  Mg14  1  0.74370883  0.25125811  -0.00000000  1
  Mg  Mg15  1  0.74370883  0.74874189  -0.00000000  1
  O  O16  1  0.26303340  0.00000000  0.00000000  1
  O  O17  1  0.74450289  0.00000000  0.00000000  1
  O  O18  1  0.75007842  0.50000000  0.00000000  1
  O  O19  1  0.25650609  0.26261063  0.50000000  1
  O  O20  1  0.25650609  0.73738937  0.50000000  1
  O  O21  1  0.75606599  0.25050251  0.50000000  1
  O  O22  1  0.75606599  0.74949749  0.50000000  1
  O  O23  1  0.01101200  0.00000000  0.50000000  1
  O  O24  1  0.00959845  0.50000000  0.50000000  1
  O  O25  1  0.49972261  0.00000000  0.50000000  1
  O  O26  1  0.50324631  0.50000000  0.50000000  1
  O  O27  1  0.02244533  0.27655663  0.00000000  1
  O  O28  1  0.02244533  0.72344337  0.00000000  1
  O  O29  1  0.49874314  0.22938330  0.00000000  1
  O  O30  1  0.49874314  0.77061670  0.00000000  1
