# generated using pymatgen
data_Tl2SiSe3
_symmetry_space_group_name_H-M   'P 1'
_cell_length_a   6.97528012
_cell_length_b   6.98935888
_cell_length_c   8.79717409
_cell_angle_alpha   111.85036478
_cell_angle_beta   90.29043081
_cell_angle_gamma   113.26571355
_symmetry_Int_Tables_number   1
_chemical_formula_structural   Tl2SiSe3
_chemical_formula_sum   'Tl4 Si2 Se6'
_cell_volume   359.84082406
_cell_formula_units_Z   2
loop_
 _symmetry_equiv_pos_site_id
 _symmetry_equiv_pos_as_xyz
  1  'x, y, z'
loop_
 _atom_site_type_symbol
 _atom_site_label
 _atom_site_symmetry_multiplicity
 _atom_site_fract_x
 _atom_site_fract_y
 _atom_site_fract_z
 _atom_site_occupancy
  Tl  Tl0  1  0.67631855  0.26385255  0.89652779  1
  Tl  Tl1  1  0.32368145  0.73614745  0.10347221  1
  Tl  Tl2  1  0.94459997  0.12017324  0.33045648  1
  Tl  Tl3  1  0.05540003  0.87982676  0.66954352  1
  Si  Si4  1  0.45354559  0.56853735  0.67961967  1
  Si  Si5  1  0.54645441  0.43146265  0.32038033  1
  Se  Se6  1  0.29208860  0.24353087  0.09471986  1
  Se  Se7  1  0.70791140  0.75646913  0.90528014  1
  Se  Se8  1  0.12231092  0.48660431  0.73038359  1
  Se  Se9  1  0.87768908  0.51339569  0.26961641  1
  Se  Se10  1  0.52901288  0.76164698  0.50587809  1
  Se  Se11  1  0.47098712  0.23835302  0.49412191  1
