# generated using pymatgen
data_Pr4Ga2O9
_symmetry_space_group_name_H-M   'P 1'
_cell_length_a   11.10585283
_cell_length_b   7.86874421
_cell_length_c   11.59306830
_cell_angle_alpha   70.79062053
_cell_angle_beta   90.00000000
_cell_angle_gamma   90.00000000
_symmetry_Int_Tables_number   1
_chemical_formula_structural   Pr4Ga2O9
_chemical_formula_sum   'Pr16 Ga8 O36'
_cell_volume   956.70068223
_cell_formula_units_Z   4
loop_
 _symmetry_equiv_pos_site_id
 _symmetry_equiv_pos_as_xyz
  1  'x, y, z'
loop_
 _atom_site_type_symbol
 _atom_site_label
 _atom_site_symmetry_multiplicity
 _atom_site_fract_x
 _atom_site_fract_y
 _atom_site_fract_z
 _atom_site_occupancy
  Pr  Pr0  1  0.62131833  0.16555286  0.91122632  1
  Pr  Pr1  1  0.12131833  0.83444714  0.58877368  1
  Pr  Pr2  1  0.37868167  0.83444714  0.08877368  1
  Pr  Pr3  1  0.87868167  0.16555286  0.41122632  1
  Pr  Pr4  1  0.62261534  0.66619196  0.92765811  1
  Pr  Pr5  1  0.12261534  0.33380804  0.57234189  1
  Pr  Pr6  1  0.37738466  0.33380804  0.07234189  1
  Pr  Pr7  1  0.87738466  0.66619196  0.42765811  1
  Pr  Pr8  1  0.58720519  0.97545092  0.30778887  1
  Pr  Pr9  1  0.08720519  0.02454908  0.19221113  1
  Pr  Pr10  1  0.41279481  0.02454908  0.69221113  1
  Pr  Pr11  1  0.91279481  0.97545092  0.80778887  1
  Pr  Pr12  1  0.60326479  0.47825454  0.28358467  1
  Pr  Pr13  1  0.10326479  0.52174546  0.21641533  1
  Pr  Pr14  1  0.39673521  0.52174546  0.71641533  1
  Pr  Pr15  1  0.89673521  0.47825454  0.78358467  1
  Ga  Ga16  1  0.68652000  0.34528831  0.61567681  1
  Ga  Ga17  1  0.18652000  0.65471169  0.88432319  1
  Ga  Ga18  1  0.31348000  0.65471169  0.38432319  1
  Ga  Ga19  1  0.81348000  0.34528831  0.11567681  1
  Ga  Ga20  1  0.68958219  0.78191880  0.62750693  1
  Ga  Ga21  1  0.18958219  0.21808120  0.87249307  1
  Ga  Ga22  1  0.31041781  0.21808120  0.37249307  1
  Ga  Ga23  1  0.81041781  0.78191880  0.12750693  1
  O  O24  1  0.50975927  0.43103545  0.89828228  1
  O  O25  1  0.00975927  0.56896455  0.60171772  1
  O  O26  1  0.49024073  0.56896455  0.10171772  1
  O  O27  1  0.99024073  0.43103545  0.39828228  1
  O  O28  1  0.49541308  0.92333217  0.89488940  1
  O  O29  1  0.99541308  0.07666783  0.60511060  1
  O  O30  1  0.50458692  0.07666783  0.10511060  1
  O  O31  1  0.00458692  0.92333217  0.39488940  1
  O  O32  1  0.53300953  0.29609370  0.67802670  1
  O  O33  1  0.03300953  0.70390630  0.82197330  1
  O  O34  1  0.46699047  0.70390630  0.32197330  1
  O  O35  1  0.96699047  0.29609370  0.17802670  1
  O  O36  1  0.72880941  0.36125044  0.46065750  1
  O  O37  1  0.22880941  0.63874956  0.03934250  1
  O  O38  1  0.53160167  0.77844725  0.67223025  1
  O  O39  1  0.27119059  0.63874956  0.53934250  1
  O  O40  1  0.74879900  0.56762419  0.61334626  1
  O  O41  1  0.24879900  0.43237581  0.88665374  1
  O  O42  1  0.25120100  0.43237581  0.38665374  1
  O  O43  1  0.75120100  0.56762419  0.11334626  1
  O  O44  1  0.73329835  0.92642656  0.47576439  1
  O  O45  1  0.23329835  0.07357344  0.02423561  1
  O  O46  1  0.26670165  0.07357344  0.52423561  1
  O  O47  1  0.76670165  0.92642656  0.97576439  1
  O  O48  1  0.77796130  0.21578789  0.74852166  1
  O  O49  1  0.27796130  0.78421211  0.75147834  1
  O  O50  1  0.22203870  0.78421211  0.25147834  1
  O  O51  1  0.72203870  0.21578789  0.24852166  1
  O  O52  1  0.77694968  0.76589866  0.76720331  1
  O  O53  1  0.27694968  0.23410134  0.73279669  1
  O  O54  1  0.22305032  0.23410134  0.23279669  1
  O  O55  1  0.72305032  0.76589866  0.26720331  1
  O  O56  1  0.96839833  0.77844725  0.17223025  1
  O  O57  1  0.46839833  0.22155275  0.32776975  1
  O  O58  1  0.03160167  0.22155275  0.82776975  1
  O  O59  1  0.77119059  0.36125044  0.96065750  1
