# generated using pymatgen
data_Zn(FeO2)2
_symmetry_space_group_name_H-M   'P 1'
_cell_length_a   5.96046522
_cell_length_b   5.96013761
_cell_length_c   5.96896117
_cell_angle_alpha   90.00284736
_cell_angle_beta   119.94865288
_cell_angle_gamma   119.99607062
_symmetry_Int_Tables_number   1
_chemical_formula_structural   Zn(FeO2)2
_chemical_formula_sum   'Zn2 Fe4 O8'
_cell_volume   150.06237696
_cell_formula_units_Z   2
loop_
 _symmetry_equiv_pos_site_id
 _symmetry_equiv_pos_as_xyz
  1  'x, y, z'
loop_
 _atom_site_type_symbol
 _atom_site_label
 _atom_site_symmetry_multiplicity
 _atom_site_fract_x
 _atom_site_fract_y
 _atom_site_fract_z
 _atom_site_occupancy
  Zn  Zn0  1  0.25008989  0.12504967  0.87510966  1
  Zn  Zn1  1  0.74991469  0.87495123  0.12489163  1
  Fe  Fe2  1  0.49999150  -0.00000623  0.49999138  1
  Fe  Fe3  1  0.49999131  0.49999617  0.49999200  1
  Fe  Fe4  1  -0.00000213  0.49999828  -0.00000161  1
  Fe  Fe5  1  -0.00001116  0.49999437  0.49999513  1
  O  O6  1  0.01930386  0.74030619  0.25962810  1
  O  O7  1  0.48064765  0.74033143  0.72098266  1
  O  O8  1  0.48062396  0.74030263  0.25960779  1
  O  O9  1  0.98070277  0.72101268  0.74038502  1
  O  O10  1  0.51937988  0.25969878  0.74039525  1
  O  O11  1  0.51936092  0.25967416  0.27902174  1
  O  O12  1  0.01930890  0.27899246  0.25962521  1
  O  O13  1  0.98070196  0.25969718  0.74037704  1
