# generated using pymatgen
data_CuP4S3Br
_symmetry_space_group_name_H-M   'P 1'
_cell_length_a   11.77053900
_cell_length_b   11.77053900
_cell_length_c   10.34862992
_cell_angle_alpha   90.00000000
_cell_angle_beta   90.00000000
_cell_angle_gamma   141.78360556
_symmetry_Int_Tables_number   1
_chemical_formula_structural   CuP4S3Br
_chemical_formula_sum   'Cu4 P16 S12 Br4'
_cell_volume   886.96974115
_cell_formula_units_Z   4
loop_
 _symmetry_equiv_pos_site_id
 _symmetry_equiv_pos_as_xyz
  1  'x, y, z'
loop_
 _atom_site_type_symbol
 _atom_site_label
 _atom_site_symmetry_multiplicity
 _atom_site_fract_x
 _atom_site_fract_y
 _atom_site_fract_z
 _atom_site_occupancy
  Cu  Cu0  1  0.80425309  0.80425309  0.50000000  1
  Cu  Cu1  1  0.30425309  0.30425309  -0.00000000  1
  Cu  Cu2  1  0.19574691  0.19574691  0.50000000  1
  Cu  Cu3  1  0.69574691  0.69574691  -0.00000000  1
  P  P4  1  0.71451116  0.28548884  0.47095318  1
  P  P5  1  0.28548884  0.71451116  0.52904682  1
  P  P6  1  0.78548884  0.21451116  0.97095318  1
  P  P7  1  0.21451116  0.78548884  0.02904682  1
  P  P8  1  0.61813753  0.38186247  0.71414955  1
  P  P9  1  0.38186247  0.61813753  0.28585045  1
  P  P10  1  0.88186247  0.11813753  0.21414955  1
  P  P11  1  0.11813753  0.88186247  0.78585045  1
  P  P12  1  0.72506620  0.56261808  0.54094692  1
  P  P13  1  0.56261808  0.72506620  0.45905308  1
  P  P14  1  0.06261808  0.22506620  0.04094692  1
  P  P15  1  0.22506620  0.06261808  0.95905308  1
  P  P16  1  0.27493380  0.43738192  0.45905308  1
  P  P17  1  0.43738192  0.27493380  0.54094692  1
  P  P18  1  0.93738192  0.77493380  0.95905308  1
  P  P19  1  0.77493380  0.93738192  0.04094692  1
  S  S20  1  0.86597521  0.55297400  0.43167523  1
  S  S21  1  0.55297400  0.86597521  0.56832477  1
  S  S22  1  0.05297400  0.36597521  0.93167523  1
  S  S23  1  0.36597521  0.05297400  0.06832477  1
  S  S24  1  0.13402479  0.44702600  0.56832477  1
  S  S25  1  0.44702600  0.13402479  0.43167523  1
  S  S26  1  0.94702600  0.63402479  0.06832477  1
  S  S27  1  0.63402479  0.94702600  0.93167523  1
  S  S28  1  0.71035480  0.28964520  0.67468889  1
  S  S29  1  0.28964520  0.71035480  0.32531111  1
  S  S30  1  0.78964520  0.21035480  0.17468889  1
  S  S31  1  0.21035480  0.78964520  0.82531111  1
  Br  Br32  1  0.97091646  0.02908354  0.67738820  1
  Br  Br33  1  0.02908354  0.97091646  0.32261180  1
  Br  Br34  1  0.52908354  0.47091646  0.17738820  1
  Br  Br35  1  0.47091646  0.52908354  0.82261180  1
