# generated using pymatgen
data_BaS4O13
_symmetry_space_group_name_H-M   'P 1'
_cell_length_a   7.52102603
_cell_length_b   7.52102603
_cell_length_c   9.57065527
_cell_angle_alpha   84.98774949
_cell_angle_beta   84.98774949
_cell_angle_gamma   103.76231196
_symmetry_Int_Tables_number   1
_chemical_formula_structural   BaS4O13
_chemical_formula_sum   'Ba2 S8 O26'
_cell_volume   520.53642865
_cell_formula_units_Z   2
loop_
 _symmetry_equiv_pos_site_id
 _symmetry_equiv_pos_as_xyz
  1  'x, y, z'
loop_
 _atom_site_type_symbol
 _atom_site_label
 _atom_site_symmetry_multiplicity
 _atom_site_fract_x
 _atom_site_fract_y
 _atom_site_fract_z
 _atom_site_occupancy
  Ba  Ba0  1  0.80305233  0.19694767  0.25000000  1
  Ba  Ba1  1  0.19694767  0.80305233  0.75000000  1
  S  S2  1  0.23149608  0.57590939  0.38277235  1
  S  S3  1  0.42409061  0.76850392  0.11722765  1
  S  S4  1  0.76850392  0.42409061  0.61722765  1
  S  S5  1  0.57590939  0.23149608  0.88277235  1
  S  S6  1  0.28867186  0.19780424  0.42350616  1
  S  S7  1  0.80219576  0.71132814  0.07649384  1
  S  S8  1  0.71132814  0.80219576  0.57649384  1
  S  S9  1  0.19780424  0.28867186  0.92350616  1
  O  O10  1  0.05958810  0.51067410  0.33076228  1
  O  O11  1  0.48932590  0.94041190  0.16923772  1
  O  O12  1  0.94041190  0.48932590  0.66923772  1
  O  O13  1  0.51067410  0.05958810  0.83076228  1
  O  O14  1  0.25901854  0.73654485  0.45383685  1
  O  O15  1  0.26345515  0.74098146  0.04616315  1
  O  O16  1  0.74098146  0.26345515  0.54616315  1
  O  O17  1  0.73654485  0.25901854  0.95383685  1
  O  O18  1  0.39067483  0.60932517  0.25000000  1
  O  O19  1  0.60932517  0.39067483  0.75000000  1
  O  O20  1  0.29166710  0.42816201  0.47138358  1
  O  O21  1  0.57183799  0.70833290  0.02861642  1
  O  O22  1  0.70833290  0.57183799  0.52861642  1
  O  O23  1  0.42816201  0.29166710  0.97138358  1
  O  O24  1  0.44874384  0.23778851  0.32362567  1
  O  O25  1  0.76221149  0.55125616  0.17637433  1
  O  O26  1  0.55125616  0.76221149  0.67637433  1
  O  O27  1  0.23778851  0.44874384  0.82362567  1
  O  O28  1  0.30463507  0.11802929  0.56109947  1
  O  O29  1  0.88197071  0.69536493  0.93890053  1
  O  O30  1  0.69536493  0.88197071  0.43890053  1
  O  O31  1  0.11802929  0.30463507  0.06109947  1
  O  O32  1  0.11471052  0.14309288  0.37053578  1
  O  O33  1  0.85690712  0.88528948  0.12946422  1
  O  O34  1  0.88528948  0.85690712  0.62946422  1
  O  O35  1  0.14309288  0.11471052  0.87053578  1
