# generated using pymatgen
data_Ta4Ag2O11
_symmetry_space_group_name_H-M   'P 1'
_cell_length_a   12.85197980
_cell_length_b   12.85197980
_cell_length_c   12.85198042
_cell_angle_alpha   27.99307477
_cell_angle_beta   27.99307477
_cell_angle_gamma   27.99307868
_symmetry_Int_Tables_number   1
_chemical_formula_structural   Ta4Ag2O11
_chemical_formula_sum   'Ta8 Ag4 O22'
_cell_volume   413.05388992
_cell_formula_units_Z   2
loop_
 _symmetry_equiv_pos_site_id
 _symmetry_equiv_pos_as_xyz
  1  'x, y, z'
loop_
 _atom_site_type_symbol
 _atom_site_label
 _atom_site_symmetry_multiplicity
 _atom_site_fract_x
 _atom_site_fract_y
 _atom_site_fract_z
 _atom_site_occupancy
  Ta  Ta0  1  0.88623330  0.61376670  0.25000000  1
  Ta  Ta1  1  0.25000000  0.88623330  0.61376670  1
  Ta  Ta2  1  0.61376670  0.25000000  0.88623330  1
  Ta  Ta3  1  0.75000000  0.11376670  0.38623330  1
  Ta  Ta4  1  0.38623330  0.75000000  0.11376670  1
  Ta  Ta5  1  0.11376670  0.38623330  0.75000000  1
  Ta  Ta6  1  0.50000000  0.50000000  0.50000000  1
  Ta  Ta7  1  0.00000000  -0.00000000  -0.00000000  1
  Ag  Ag8  1  0.17104347  0.17104347  0.17104347  1
  Ag  Ag9  1  0.67104347  0.67104347  0.67104347  1
  Ag  Ag10  1  0.82895653  0.82895653  0.82895653  1
  Ag  Ag11  1  0.32895653  0.32895653  0.32895653  1
  O  O12  1  0.24536724  0.93601281  0.72569772  1
  O  O13  1  0.72569772  0.24536724  0.93601281  1
  O  O14  1  0.93601281  0.72569772  0.24536724  1
  O  O15  1  0.22569772  0.43601281  0.74536724  1
  O  O16  1  0.74536724  0.22569772  0.43601281  1
  O  O17  1  0.43601281  0.74536724  0.22569772  1
  O  O18  1  0.75463276  0.06398719  0.27430228  1
  O  O19  1  0.27430228  0.75463276  0.06398719  1
  O  O20  1  0.06398719  0.27430228  0.75463276  1
  O  O21  1  0.77430228  0.56398719  0.25463276  1
  O  O22  1  0.25463276  0.77430228  0.56398719  1
  O  O23  1  0.56398719  0.25463276  0.77430228  1
  O  O24  1  0.49867119  0.00132881  0.25000000  1
  O  O25  1  0.25000000  0.49867119  0.00132881  1
  O  O26  1  0.00132881  0.25000000  0.49867119  1
  O  O27  1  0.75000000  0.50132881  -0.00132881  1
  O  O28  1  -0.00132881  0.75000000  0.50132881  1
  O  O29  1  0.50132881  -0.00132881  0.75000000  1
  O  O30  1  0.09335406  0.09335406  0.09335406  1
  O  O31  1  0.59335406  0.59335406  0.59335406  1
  O  O32  1  0.90664594  0.90664594  0.90664594  1
  O  O33  1  0.40664594  0.40664594  0.40664594  1
