# generated using pymatgen
data_Ge3Rh2S3
_symmetry_space_group_name_H-M   'P 1'
_cell_length_a   8.31636982
_cell_length_b   8.31636982
_cell_length_c   8.31636960
_cell_angle_alpha   89.80927677
_cell_angle_beta   89.80927676
_cell_angle_gamma   89.80928168
_symmetry_Int_Tables_number   1
_chemical_formula_structural   Ge3Rh2S3
_chemical_formula_sum   'Ge12 Rh8 S12'
_cell_volume   575.16727369
_cell_formula_units_Z   4
loop_
 _symmetry_equiv_pos_site_id
 _symmetry_equiv_pos_as_xyz
  1  'x, y, z'
loop_
 _atom_site_type_symbol
 _atom_site_label
 _atom_site_symmetry_multiplicity
 _atom_site_fract_x
 _atom_site_fract_y
 _atom_site_fract_z
 _atom_site_occupancy
  Ge  Ge0  1  0.85638075  0.65881826  0.00184309  1
  Ge  Ge1  1  0.00184309  0.85638075  0.65881826  1
  Ge  Ge2  1  0.65881826  0.00184309  0.85638075  1
  Ge  Ge3  1  0.14361925  0.34118174  0.99815691  1
  Ge  Ge4  1  0.99815691  0.14361925  0.34118174  1
  Ge  Ge5  1  0.34118174  0.99815691  0.14361925  1
  Ge  Ge6  1  0.64438272  0.15787242  0.50278199  1
  Ge  Ge7  1  0.50278199  0.64438272  0.15787242  1
  Ge  Ge8  1  0.15787242  0.50278199  0.64438272  1
  Ge  Ge9  1  0.35561728  0.84212758  0.49721801  1
  Ge  Ge10  1  0.49721801  0.35561728  0.84212758  1
  Ge  Ge11  1  0.84212758  0.49721801  0.35561728  1
  Rh  Rh12  1  0.74853661  0.74853661  0.74853661  1
  Rh  Rh13  1  0.25146339  0.25146339  0.25146339  1
  Rh  Rh14  1  0.24610197  0.24897576  0.74668570  1
  Rh  Rh15  1  0.74668570  0.24610197  0.24897576  1
  Rh  Rh16  1  0.24897576  0.74668570  0.24610197  1
  Rh  Rh17  1  0.75389803  0.75102424  0.25331430  1
  Rh  Rh18  1  0.25331430  0.75389803  0.75102424  1
  Rh  Rh19  1  0.75102424  0.25331430  0.75389803  1
  S  S20  1  0.00028108  0.85888680  0.35470403  1
  S  S21  1  0.35470403  0.00028108  0.85888680  1
  S  S22  1  0.85888680  0.35470403  0.00028108  1
  S  S23  1  0.64005767  0.85443977  0.50362044  1
  S  S24  1  0.50362044  0.64005767  0.85443977  1
  S  S25  1  0.85443977  0.50362044  0.64005767  1
  S  S26  1  0.35994233  0.14556023  0.49637956  1
  S  S27  1  0.49637956  0.35994233  0.14556023  1
  S  S28  1  0.14556023  0.49637956  0.35994233  1
  S  S29  1  0.64529597  0.99971892  0.14111320  1
  S  S30  1  0.14111320  0.64529597  0.99971892  1
  S  S31  1  0.99971892  0.14111320  0.64529597  1
