# generated using pymatgen
data_K2CoI4
_symmetry_space_group_name_H-M   'P 1'
_cell_length_a   8.13265001
_cell_length_b   7.79551170
_cell_length_c   9.69460889
_cell_angle_alpha   71.70667347
_cell_angle_beta   90.00000000
_cell_angle_gamma   90.00000000
_symmetry_Int_Tables_number   1
_chemical_formula_structural   K2CoI4
_chemical_formula_sum   'K4 Co2 I8'
_cell_volume   583.55878438
_cell_formula_units_Z   2
loop_
 _symmetry_equiv_pos_site_id
 _symmetry_equiv_pos_as_xyz
  1  'x, y, z'
loop_
 _atom_site_type_symbol
 _atom_site_label
 _atom_site_symmetry_multiplicity
 _atom_site_fract_x
 _atom_site_fract_y
 _atom_site_fract_z
 _atom_site_occupancy
  K  K0  1  0.75000000  0.78261459  0.55074470  1
  K  K1  1  0.25000000  0.21738541  0.44925530  1
  K  K2  1  0.75000000  0.73492415  0.06890453  1
  K  K3  1  0.25000000  0.26507585  0.93109547  1
  Co  Co4  1  0.75000000  0.21746790  0.70160967  1
  Co  Co5  1  0.25000000  0.78253210  0.29839033  1
  I  I6  1  0.75000000  0.39637521  0.42714429  1
  I  I7  1  0.25000000  0.60362479  0.57285571  1
  I  I8  1  -0.00012878  -0.00087718  0.23932365  1
  I  I9  1  0.00012878  0.00087718  0.76067635  1
  I  I10  1  0.49987122  0.00087718  0.76067635  1
  I  I11  1  0.50012878  -0.00087718  0.23932365  1
  I  I12  1  0.75000000  0.41600224  0.87157606  1
  I  I13  1  0.25000000  0.58399776  0.12842394  1
