# generated using pymatgen
data_Sr2H6Pt
_symmetry_space_group_name_H-M   'P 1'
_cell_length_a   7.44659173
_cell_length_b   7.44659173
_cell_length_c   5.61923657
_cell_angle_alpha   90.00000000
_cell_angle_beta   90.00000000
_cell_angle_gamma   135.59821844
_symmetry_Int_Tables_number   1
_chemical_formula_structural   Sr2H6Pt
_chemical_formula_sum   'Sr4 H12 Pt2'
_cell_volume   218.01948671
_cell_formula_units_Z   2
loop_
 _symmetry_equiv_pos_site_id
 _symmetry_equiv_pos_as_xyz
  1  'x, y, z'
loop_
 _atom_site_type_symbol
 _atom_site_label
 _atom_site_symmetry_multiplicity
 _atom_site_fract_x
 _atom_site_fract_y
 _atom_site_fract_z
 _atom_site_occupancy
  Sr  Sr0  1  0.64544725  0.35455275  -0.00000000  1
  Sr  Sr1  1  0.35455275  0.64544725  -0.00000000  1
  Sr  Sr2  1  0.85455275  0.14544725  0.50000000  1
  Sr  Sr3  1  0.14544725  0.85455275  0.50000000  1
  H  H4  1  0.88015820  0.11984180  0.00000000  1
  H  H5  1  0.11984180  0.88015820  -0.00000000  1
  H  H6  1  0.61984180  0.38015820  0.50000000  1
  H  H7  1  0.38015820  0.61984180  0.50000000  1
  H  H8  1  0.00072381  0.50072381  0.25000000  1
  H  H9  1  0.99927619  0.49927619  0.75000000  1
  H  H10  1  0.49927619  0.99927619  0.75000000  1
  H  H11  1  0.50072381  0.00072381  0.25000000  1
  H  H12  1  0.20930245  0.20930245  0.21523104  1
  H  H13  1  0.79069755  0.79069755  0.78476896  1
  H  H14  1  0.29069755  0.29069755  0.71523104  1
  H  H15  1  0.70930245  0.70930245  0.28476896  1
  Pt  Pt16  1  0.00000000  0.00000000  -0.00000000  1
  Pt  Pt17  1  0.50000000  0.50000000  0.50000000  1
