# generated using pymatgen
data_BaMnO4
_symmetry_space_group_name_H-M   'P 1'
_cell_length_a   5.44728410
_cell_length_b   9.19671006
_cell_length_c   7.33638805
_cell_angle_alpha   90.00000000
_cell_angle_beta   90.00000000
_cell_angle_gamma   90.00000000
_symmetry_Int_Tables_number   1
_chemical_formula_structural   BaMnO4
_chemical_formula_sum   'Ba4 Mn4 O16'
_cell_volume   367.53171063
_cell_formula_units_Z   4
loop_
 _symmetry_equiv_pos_site_id
 _symmetry_equiv_pos_as_xyz
  1  'x, y, z'
loop_
 _atom_site_type_symbol
 _atom_site_label
 _atom_site_symmetry_multiplicity
 _atom_site_fract_x
 _atom_site_fract_y
 _atom_site_fract_z
 _atom_site_occupancy
  Ba  Ba0  1  0.75000000  0.81551244  0.34758048  1
  Ba  Ba1  1  0.25000000  0.18448756  0.65241952  1
  Ba  Ba2  1  0.25000000  0.68448756  0.84758048  1
  Ba  Ba3  1  0.75000000  0.31551244  0.15241952  1
  Mn  Mn4  1  0.75000000  0.94445394  0.80485105  1
  Mn  Mn5  1  0.25000000  0.05554606  0.19514895  1
  Mn  Mn6  1  0.25000000  0.55554606  0.30485105  1
  Mn  Mn7  1  0.75000000  0.44445394  0.69514895  1
  O  O8  1  0.75000000  0.61363920  0.62721072  1
  O  O9  1  0.25000000  0.38636080  0.37278928  1
  O  O10  1  0.25000000  0.88636080  0.12721072  1
  O  O11  1  0.75000000  0.11363920  0.87278928  1
  O  O12  1  0.75000000  0.82439604  0.96943861  1
  O  O13  1  0.25000000  0.17560396  0.03056139  1
  O  O14  1  0.25000000  0.67560396  0.46943861  1
  O  O15  1  0.75000000  0.32439604  0.53056139  1
  O  O16  1  0.99444890  0.91703503  0.67620132  1
  O  O17  1  0.00555110  0.08296497  0.32379868  1
  O  O18  1  0.00555110  0.58296497  0.17620132  1
  O  O19  1  0.49444890  0.08296497  0.32379868  1
  O  O20  1  0.99444890  0.41703503  0.82379868  1
  O  O21  1  0.50555110  0.91703503  0.67620132  1
  O  O22  1  0.50555110  0.41703503  0.82379868  1
  O  O23  1  0.49444890  0.58296497  0.17620132  1
