# generated using pymatgen
data_Er6Si11N20O
_symmetry_space_group_name_H-M   'P 1'
_cell_length_a   9.73117021
_cell_length_b   9.73117021
_cell_length_c   10.61435014
_cell_angle_alpha   90.00000000
_cell_angle_beta   90.00000000
_cell_angle_gamma   119.99999805
_symmetry_Int_Tables_number   1
_chemical_formula_structural   Er6Si11N20O
_chemical_formula_sum   'Er12 Si22 N40 O2'
_cell_volume   870.47076180
_cell_formula_units_Z   2
loop_
 _symmetry_equiv_pos_site_id
 _symmetry_equiv_pos_as_xyz
  1  'x, y, z'
loop_
 _atom_site_type_symbol
 _atom_site_label
 _atom_site_symmetry_multiplicity
 _atom_site_fract_x
 _atom_site_fract_y
 _atom_site_fract_z
 _atom_site_occupancy
  Er  Er0  1  0.12719493  0.26269357  0.17492810  1
  Er  Er1  1  0.13549764  0.87280507  0.17492810  1
  Er  Er2  1  0.73730643  0.86450236  0.17492810  1
  Er  Er3  1  0.86450236  0.73730643  0.67492810  1
  Er  Er4  1  0.26269357  0.12719493  0.67492810  1
  Er  Er5  1  0.87280507  0.13549764  0.67492810  1
  Er  Er6  1  0.20303175  0.39944220  0.50057974  1
  Er  Er7  1  0.19641045  0.79696825  0.50057974  1
  Er  Er8  1  0.60055780  0.80358955  0.50057974  1
  Er  Er9  1  0.80358955  0.60055780  0.00057974  1
  Er  Er10  1  0.39944220  0.20303175  0.00057974  1
  Er  Er11  1  0.79696825  0.19641045  0.00057974  1
  Si  Si12  1  0.00000000  -0.00000000  0.43515849  1
  Si  Si13  1  0.00000000  -0.00000000  0.93515849  1
  Si  Si14  1  0.53665489  0.00967086  0.24482904  1
  Si  Si15  1  0.47301597  0.46334511  0.24482904  1
  Si  Si16  1  0.99032914  0.52698403  0.24482904  1
  Si  Si17  1  0.52698403  0.99032914  0.74482904  1
  Si  Si18  1  0.00967086  0.53665489  0.74482904  1
  Si  Si19  1  0.46334511  0.47301597  0.74482904  1
  Si  Si20  1  0.13143427  0.57408925  0.00556290  1
  Si  Si21  1  0.44265498  0.86856573  0.00556290  1
  Si  Si22  1  0.42591075  0.55734502  0.00556290  1
  Si  Si23  1  0.55734502  0.42591075  0.50556290  1
  Si  Si24  1  0.57408925  0.13143427  0.50556290  1
  Si  Si25  1  0.86856573  0.44265498  0.50556290  1
  Si  Si26  1  0.33333300  0.66666700  0.31229803  1
  Si  Si27  1  0.66666700  0.33333300  0.81229803  1
  Si  Si28  1  0.34001863  0.15612535  0.35691744  1
  Si  Si29  1  0.81610672  0.65998137  0.35691744  1
  Si  Si30  1  0.84387465  0.18389328  0.35691744  1
  Si  Si31  1  0.18389328  0.84387465  0.85691744  1
  Si  Si32  1  0.15612535  0.34001863  0.85691744  1
  Si  Si33  1  0.65998137  0.81610672  0.85691744  1
  N  N34  1  0.01633850  0.17650450  0.37801187  1
  N  N35  1  0.16016600  0.98366150  0.37801187  1
  N  N36  1  0.82349550  0.83983400  0.37801187  1
  N  N37  1  0.83983400  0.82349550  0.87801187  1
  N  N38  1  0.17650450  0.01633850  0.87801187  1
  N  N39  1  0.98366150  0.16016600  0.87801187  1
  N  N40  1  0.36418516  0.25624518  0.21548995  1
  N  N41  1  0.89206003  0.63581484  0.21548995  1
  N  N42  1  0.74375482  0.10793997  0.21548995  1
  N  N43  1  0.10793997  0.74375482  0.71548995  1
  N  N44  1  0.25624518  0.36418516  0.71548995  1
  N  N45  1  0.63581484  0.89206003  0.71548995  1
  N  N46  1  0.00000000  -0.00000000  0.09854604  1
  N  N47  1  0.00000000  -0.00000000  0.59854604  1
  N  N48  1  0.33333300  0.66666700  0.03789046  1
  N  N49  1  0.66666700  0.33333300  0.53789046  1
  N  N50  1  0.31387537  0.48586187  0.28985034  1
  N  N51  1  0.17198649  0.68612463  0.28985034  1
  N  N52  1  0.51413813  0.82801351  0.28985034  1
  N  N53  1  0.82801351  0.51413813  0.78985034  1
  N  N54  1  0.48586187  0.31387537  0.78985034  1
  N  N55  1  0.68612463  0.17198649  0.78985034  1
  N  N56  1  0.36376520  0.27556097  0.48679894  1
  N  N57  1  0.91179677  0.63623480  0.48679894  1
  N  N58  1  0.72443903  0.08820323  0.48679894  1
  N  N59  1  0.08820323  0.72443903  0.98679894  1
  N  N60  1  0.27556097  0.36376520  0.98679894  1
  N  N61  1  0.63623480  0.91179677  0.98679894  1
  N  N62  1  0.47800957  0.09251921  0.36204423  1
  N  N63  1  0.61450964  0.52199043  0.36204423  1
  N  N64  1  0.90748079  0.38549036  0.36204423  1
  N  N65  1  0.38549036  0.90748079  0.86204423  1
  N  N66  1  0.09251921  0.47800957  0.86204423  1
  N  N67  1  0.52199043  0.61450964  0.86204423  1
  N  N68  1  0.00872305  0.43137904  0.11269399  1
  N  N69  1  0.42265599  0.99127695  0.11269399  1
  N  N70  1  0.56862096  0.57734401  0.11269399  1
  N  N71  1  0.57734401  0.56862096  0.61269399  1
  N  N72  1  0.43137904  0.00872305  0.61269399  1
  N  N73  1  0.99127695  0.42265599  0.61269399  1
  O  O74  1  0.33333300  0.66666700  0.48005532  1
  O  O75  1  0.66666700  0.33333300  0.98005532  1
