# generated using pymatgen
data_Ba2CdGe2O7
_symmetry_space_group_name_H-M   'P 1'
_cell_length_a   8.69067111
_cell_length_b   8.69067111
_cell_length_c   5.55830529
_cell_angle_alpha   90.00000000
_cell_angle_beta   90.00000000
_cell_angle_gamma   90.00000000
_symmetry_Int_Tables_number   1
_chemical_formula_structural   Ba2CdGe2O7
_chemical_formula_sum   'Ba4 Cd2 Ge4 O14'
_cell_volume   419.80637209
_cell_formula_units_Z   2
loop_
 _symmetry_equiv_pos_site_id
 _symmetry_equiv_pos_as_xyz
  1  'x, y, z'
loop_
 _atom_site_type_symbol
 _atom_site_label
 _atom_site_symmetry_multiplicity
 _atom_site_fract_x
 _atom_site_fract_y
 _atom_site_fract_z
 _atom_site_occupancy
  Ba  Ba0  1  0.16510798  0.33489202  0.50706740  1
  Ba  Ba1  1  0.83489202  0.66510798  0.50706740  1
  Ba  Ba2  1  0.66510798  0.16510798  0.49293260  1
  Ba  Ba3  1  0.33489202  0.83489202  0.49293260  1
  Cd  Cd4  1  0.00000000  -0.00000000  -0.00000000  1
  Cd  Cd5  1  0.50000000  0.50000000  -0.00000000  1
  Ge  Ge6  1  0.63721996  0.86278004  0.94732728  1
  Ge  Ge7  1  0.36278004  0.13721996  0.94732728  1
  Ge  Ge8  1  0.13721996  0.63721996  0.05267272  1
  Ge  Ge9  1  0.86278004  0.36278004  0.05267272  1
  O  O10  1  0.00000000  0.50000000  0.16486859  1
  O  O11  1  0.50000000  -0.00000000  0.83513141  1
  O  O12  1  0.63973888  0.86026112  0.25807661  1
  O  O13  1  0.36026112  0.13973888  0.25807661  1
  O  O14  1  0.13973888  0.63973888  0.74192339  1
  O  O15  1  0.86026112  0.36026112  0.74192339  1
  O  O16  1  0.07689807  0.80311568  0.20915003  1
  O  O17  1  0.92310193  0.19688432  0.20915003  1
  O  O18  1  0.19688432  0.07689807  0.79084997  1
  O  O19  1  0.42310193  0.30311568  0.79084997  1
  O  O20  1  0.80311568  0.92310193  0.79084997  1
  O  O21  1  0.57689807  0.69688432  0.79084997  1
  O  O22  1  0.30311568  0.57689807  0.20915003  1
  O  O23  1  0.69688432  0.42310193  0.20915003  1
