# generated using pymatgen
data_KAlSe2
_symmetry_space_group_name_H-M   'P 1'
_cell_length_a   7.72887302
_cell_length_b   7.72887302
_cell_length_c   15.44864797
_cell_angle_alpha   82.75452462
_cell_angle_beta   82.75452462
_cell_angle_gamma   90.03082137
_symmetry_Int_Tables_number   1
_chemical_formula_structural   KAlSe2
_chemical_formula_sum   'K8 Al8 Se16'
_cell_volume   908.02662008
_cell_formula_units_Z   8
loop_
 _symmetry_equiv_pos_site_id
 _symmetry_equiv_pos_as_xyz
  1  'x, y, z'
loop_
 _atom_site_type_symbol
 _atom_site_label
 _atom_site_symmetry_multiplicity
 _atom_site_fract_x
 _atom_site_fract_y
 _atom_site_fract_z
 _atom_site_occupancy
  K  K0  1  0.65375380  0.77714834  0.88805574  1
  K  K1  1  0.34624620  0.22285166  0.11194426  1
  K  K2  1  0.22285166  0.34624620  0.61194426  1
  K  K3  1  0.77714834  0.65375380  0.38805574  1
  K  K4  1  0.22421461  0.84846739  0.61038263  1
  K  K5  1  0.77578539  0.15153261  0.38961737  1
  K  K6  1  0.15153261  0.77578539  0.88961737  1
  K  K7  1  0.84846739  0.22421461  0.11038263  1
  Al  Al8  1  0.70985132  0.08763133  0.66248069  1
  Al  Al9  1  0.29014868  0.91236867  0.33751931  1
  Al  Al10  1  0.91236867  0.29014868  0.83751931  1
  Al  Al11  1  0.08763133  0.70985132  0.16248069  1
  Al  Al12  1  0.41967434  0.28977542  0.83774595  1
  Al  Al13  1  0.58032566  0.71022458  0.16225405  1
  Al  Al14  1  0.71022458  0.58032566  0.66225405  1
  Al  Al15  1  0.28977542  0.41967434  0.33774595  1
  Se  Se16  1  0.43306070  0.05573209  0.75054662  1
  Se  Se17  1  0.56693930  0.94426791  0.24945338  1
  Se  Se18  1  0.94426791  0.56693930  0.74945338  1
  Se  Se19  1  0.05573209  0.43306070  0.25054662  1
  Se  Se20  1  0.64205411  0.26622734  0.93379272  1
  Se  Se21  1  0.35794589  0.73377266  0.06620728  1
  Se  Se22  1  0.73377266  0.35794589  0.56620728  1
  Se  Se23  1  0.26622734  0.64205411  0.43379272  1
  Se  Se24  1  0.43305580  0.56694420  0.75000000  1
  Se  Se25  1  0.56694420  0.43305580  0.25000000  1
  Se  Se26  1  0.73263524  0.85748494  0.57015201  1
  Se  Se27  1  0.26736476  0.14251506  0.42984799  1
  Se  Se28  1  0.14251506  0.26736476  0.92984799  1
  Se  Se29  1  0.85748494  0.73263524  0.07015201  1
  Se  Se30  1  0.94324578  0.05675422  0.75000000  1
  Se  Se31  1  0.05675422  0.94324578  0.25000000  1
