# generated using pymatgen
data_Sm2SiO5
_symmetry_space_group_name_H-M   'P 1'
_cell_length_a   7.12477742
_cell_length_b   6.80218648
_cell_length_c   9.19238191
_cell_angle_alpha   72.21197689
_cell_angle_beta   90.00000000
_cell_angle_gamma   90.00000000
_symmetry_Int_Tables_number   1
_chemical_formula_structural   Sm2SiO5
_chemical_formula_sum   'Sm8 Si4 O20'
_cell_volume   424.20228493
_cell_formula_units_Z   4
loop_
 _symmetry_equiv_pos_site_id
 _symmetry_equiv_pos_as_xyz
  1  'x, y, z'
loop_
 _atom_site_type_symbol
 _atom_site_label
 _atom_site_symmetry_multiplicity
 _atom_site_fract_x
 _atom_site_fract_y
 _atom_site_fract_z
 _atom_site_occupancy
  Sm  Sm0  1  0.35165806  0.41231540  0.38806094  1
  Sm  Sm1  1  0.64834194  0.58768460  0.61193906  1
  Sm  Sm2  1  0.85165806  0.08768460  0.61193906  1
  Sm  Sm3  1  0.14834194  0.91231540  0.38806094  1
  Sm  Sm4  1  0.37620807  0.26554559  0.02528453  1
  Sm  Sm5  1  0.62379193  0.73445441  0.97471547  1
  Sm  Sm6  1  0.87620807  0.23445441  0.97471547  1
  Sm  Sm7  1  0.12379193  0.76554559  0.02528453  1
  Si  Si8  1  0.91404863  0.45825549  0.29788822  1
  Si  Si9  1  0.08595137  0.54174451  0.70211178  1
  Si  Si10  1  0.41404863  0.04174451  0.70211178  1
  Si  Si11  1  0.58595137  0.95825549  0.29788822  1
  O  O12  1  0.43129226  0.13942052  0.29599643  1
  O  O13  1  0.56870774  0.86057948  0.70400357  1
  O  O14  1  0.93129226  0.36057948  0.70400357  1
  O  O15  1  0.06870774  0.63942052  0.29599643  1
  O  O16  1  0.23453267  0.05586782  0.59468998  1
  O  O17  1  0.76546733  0.94413218  0.40531002  1
  O  O18  1  0.73453267  0.44413218  0.40531002  1
  O  O19  1  0.26546733  0.55586782  0.59468998  1
  O  O20  1  0.12120322  0.04886447  0.11744737  1
  O  O21  1  0.87879678  0.95113553  0.88255263  1
  O  O22  1  0.62120322  0.45113553  0.88255263  1
  O  O23  1  0.37879678  0.54886447  0.11744737  1
  O  O24  1  0.13673230  0.49257161  0.88402531  1
  O  O25  1  0.86326770  0.50742839  0.11597469  1
  O  O26  1  0.63673230  0.00742839  0.11597469  1
  O  O27  1  0.36326770  0.99257161  0.88402531  1
  O  O28  1  0.04101433  0.25143865  0.36545030  1
  O  O29  1  0.95898567  0.74856135  0.63454970  1
  O  O30  1  0.54101433  0.24856135  0.63454970  1
  O  O31  1  0.45898567  0.75143865  0.36545030  1
