# generated using pymatgen
data_Mg14CrNiO16
_symmetry_space_group_name_H-M   'P 1'
_cell_length_a   8.49561912
_cell_length_b   8.51267816
_cell_length_c   4.29892171
_cell_angle_alpha   90.00000000
_cell_angle_beta   90.00000000
_cell_angle_gamma   90.00000000
_symmetry_Int_Tables_number   1
_chemical_formula_structural   Mg14CrNiO16
_chemical_formula_sum   'Mg14 Cr1 Ni1 O16'
_cell_volume   310.90004431
_cell_formula_units_Z   1
loop_
 _symmetry_equiv_pos_site_id
 _symmetry_equiv_pos_as_xyz
  1  'x, y, z'
loop_
 _atom_site_type_symbol
 _atom_site_label
 _atom_site_symmetry_multiplicity
 _atom_site_fract_x
 _atom_site_fract_y
 _atom_site_fract_z
 _atom_site_occupancy
  Mg  Mg0  1  0.50000000  0.00000000  0.00000000  1
  Mg  Mg1  1  0.50000000  0.50000000  0.00000000  1
  Mg  Mg2  1  0.00000000  0.24672287  0.50000000  1
  Mg  Mg3  1  0.00000000  0.75327713  0.50000000  1
  Mg  Mg4  1  0.50000000  0.24914490  0.50000000  1
  Mg  Mg5  1  0.50000000  0.75085510  0.50000000  1
  Mg  Mg6  1  0.24760222  0.00000000  0.50000000  1
  Mg  Mg7  1  0.25005358  0.50000000  0.50000000  1
  Mg  Mg8  1  0.75239778  0.00000000  0.50000000  1
  Mg  Mg9  1  0.74994642  0.50000000  0.50000000  1
  Mg  Mg10  1  0.24986868  0.24741402  0.00000000  1
  Mg  Mg11  1  0.24986868  0.75258598  0.00000000  1
  Mg  Mg12  1  0.75013132  0.24741402  0.00000000  1
  Mg  Mg13  1  0.75013132  0.75258598  0.00000000  1
  Cr  Cr14  1  0.00000000  0.50000000  0.00000000  1
  Ni  Ni15  1  0.00000000  0.00000000  0.00000000  1
  O  O16  1  0.25370114  0.00000000  0.00000000  1
  O  O17  1  0.25073486  0.50000000  0.00000000  1
  O  O18  1  0.74629886  0.00000000  0.00000000  1
  O  O19  1  0.74926514  0.50000000  0.00000000  1
  O  O20  1  0.24939569  0.25027554  0.50000000  1
  O  O21  1  0.24939569  0.74972446  0.50000000  1
  O  O22  1  0.75060431  0.25027554  0.50000000  1
  O  O23  1  0.75060431  0.74972446  0.50000000  1
  O  O24  1  0.00000000  0.00000000  0.50000000  1
  O  O25  1  0.00000000  0.50000000  0.50000000  1
  O  O26  1  0.50000000  0.00000000  0.50000000  1
  O  O27  1  0.50000000  0.50000000  0.50000000  1
  O  O28  1  0.00000000  0.25523593  0.00000000  1
  O  O29  1  0.00000000  0.74476407  0.00000000  1
  O  O30  1  0.50000000  0.25094259  0.00000000  1
  O  O31  1  0.50000000  0.74905741  0.00000000  1
