# generated using pymatgen
data_Na5SnP3
_symmetry_space_group_name_H-M   'P 1'
_cell_length_a   7.41632201
_cell_length_b   8.26664041
_cell_length_c   15.58082347
_cell_angle_alpha   58.36015192
_cell_angle_beta   90.00000000
_cell_angle_gamma   90.00000000
_symmetry_Int_Tables_number   1
_chemical_formula_structural   Na5SnP3
_chemical_formula_sum   'Na20 Sn4 P12'
_cell_volume   813.24696286
_cell_formula_units_Z   4
loop_
 _symmetry_equiv_pos_site_id
 _symmetry_equiv_pos_as_xyz
  1  'x, y, z'
loop_
 _atom_site_type_symbol
 _atom_site_label
 _atom_site_symmetry_multiplicity
 _atom_site_fract_x
 _atom_site_fract_y
 _atom_site_fract_z
 _atom_site_occupancy
  Na  Na0  1  0.49674428  0.09165209  0.23994782  1
  Na  Na1  1  0.99674428  0.90834791  0.26005218  1
  Na  Na2  1  0.50325572  0.90834791  0.76005218  1
  Na  Na3  1  0.00325572  0.09165209  0.73994782  1
  Na  Na4  1  0.03958590  0.41138989  0.41128671  1
  Na  Na5  1  0.53958590  0.58861011  0.08871329  1
  Na  Na6  1  0.96041410  0.58861011  0.58871329  1
  Na  Na7  1  0.46041410  0.41138989  0.91128671  1
  Na  Na8  1  0.52175812  0.25325740  0.41188002  1
  Na  Na9  1  0.02175812  0.74674260  0.08811998  1
  Na  Na10  1  0.47824188  0.74674260  0.58811998  1
  Na  Na11  1  0.97824188  0.25325740  0.91188002  1
  Na  Na12  1  0.66059280  0.99525391  0.08200311  1
  Na  Na13  1  0.16059280  0.00474609  0.41799689  1
  Na  Na14  1  0.33940720  0.00474609  0.91799689  1
  Na  Na15  1  0.83940720  0.99525391  0.58200311  1
  Na  Na16  1  0.85718323  0.31439409  0.25751498  1
  Na  Na17  1  0.35718323  0.68560591  0.24248502  1
  Na  Na18  1  0.14281677  0.68560591  0.74248502  1
  Na  Na19  1  0.64281677  0.31439409  0.75751498  1
  Sn  Sn20  1  0.64753254  0.66203565  0.41041702  1
  Sn  Sn21  1  0.14753254  0.33796435  0.08958298  1
  Sn  Sn22  1  0.35246746  0.33796435  0.58958298  1
  Sn  Sn23  1  0.85246746  0.66203565  0.91041702  1
  P  P24  1  0.70221807  0.33542986  0.57090953  1
  P  P25  1  0.20221807  0.66457014  0.92909047  1
  P  P26  1  0.29778193  0.66457014  0.42909047  1
  P  P27  1  0.79778193  0.33542986  0.07090953  1
  P  P28  1  0.76727442  0.93856602  0.41773235  1
  P  P29  1  0.26727442  0.06143398  0.08226765  1
  P  P30  1  0.23272558  0.06143398  0.58226765  1
  P  P31  1  0.73272558  0.93856602  0.91773235  1
  P  P32  1  0.74486713  0.63884769  0.26329810  1
  P  P33  1  0.24486713  0.36115231  0.23670190  1
  P  P34  1  0.25513287  0.36115231  0.73670190  1
  P  P35  1  0.75513287  0.63884769  0.76329810  1
