# generated using pymatgen
data_Mg(SiO2)6
_symmetry_space_group_name_H-M   'P 1'
_cell_length_a   5.30514201
_cell_length_b   7.47067243
_cell_length_c   7.88472520
_cell_angle_alpha   73.82562906
_cell_angle_beta   70.34115266
_cell_angle_gamma   69.20260010
_symmetry_Int_Tables_number   1
_chemical_formula_structural   Mg(SiO2)6
_chemical_formula_sum   'Mg1 Si6 O12'
_cell_volume   270.57523647
_cell_formula_units_Z   1
loop_
 _symmetry_equiv_pos_site_id
 _symmetry_equiv_pos_as_xyz
  1  'x, y, z'
loop_
 _atom_site_type_symbol
 _atom_site_label
 _atom_site_symmetry_multiplicity
 _atom_site_fract_x
 _atom_site_fract_y
 _atom_site_fract_z
 _atom_site_occupancy
  Mg  Mg0  1  0.43991200  0.25000000  0.75000000  1
  Si  Si1  1  0.38993700  0.32307800  0.31690500  1
  Si  Si2  1  0.02992000  0.17692200  0.18309500  1
  Si  Si3  1  0.62465800  0.67589400  0.65746700  1
  Si  Si4  1  0.95801800  0.82410600  0.84253300  1
  Si  Si5  1  0.95772400  0.25000000  0.75000000  1
  Si  Si6  1  0.99403300  0.75000000  0.25000000  1
  O  O7  1  0.66795100  0.43567600  0.71463300  1
  O  O8  1  0.81826100  0.06432400  0.78536700  1
  O  O9  1  0.26073000  0.56111000  0.26232300  1
  O  O10  1  0.08416200  0.93889000  0.23767700  1
  O  O11  1  0.46361400  0.25428900  0.50824000  1
  O  O12  1  0.22614300  0.24571100  0.99176000  1
  O  O13  1  0.29151200  0.77742900  0.73626200  1
  O  O14  1  0.80520200  0.72257100  0.76373800  1
  O  O15  1  0.69983900  0.26596700  0.16588600  1
  O  O16  1  0.13169300  0.23403300  0.33411400  1
  O  O17  1  0.90051300  0.76701600  0.06364800  1
  O  O18  1  0.73117700  0.73298400  0.43635200  1
