# generated using pymatgen
data_ZnSiN2
_symmetry_space_group_name_H-M   'P 1'
_cell_length_a   5.23920914
_cell_length_b   6.25248179
_cell_length_c   5.02544447
_cell_angle_alpha   90.00000000
_cell_angle_beta   90.00000000
_cell_angle_gamma   90.00000000
_symmetry_Int_Tables_number   1
_chemical_formula_structural   ZnSiN2
_chemical_formula_sum   'Zn4 Si4 N8'
_cell_volume   164.62381018
_cell_formula_units_Z   4
loop_
 _symmetry_equiv_pos_site_id
 _symmetry_equiv_pos_as_xyz
  1  'x, y, z'
loop_
 _atom_site_type_symbol
 _atom_site_label
 _atom_site_symmetry_multiplicity
 _atom_site_fract_x
 _atom_site_fract_y
 _atom_site_fract_z
 _atom_site_occupancy
  Zn  Zn0  1  0.91648478  0.37558000  0.99457688  1
  Zn  Zn1  1  0.08351522  0.62441900  0.49457688  1
  Zn  Zn2  1  0.58351522  0.87558100  0.49457688  1
  Zn  Zn3  1  0.41648478  0.12442000  0.99457688  1
  Si  Si4  1  0.57267386  0.37492307  0.49394310  1
  Si  Si5  1  0.42732614  0.62507793  0.99394310  1
  Si  Si6  1  0.92732614  0.87492207  0.99394310  1
  Si  Si7  1  0.07267386  0.12507693  0.49394310  1
  N  N8  1  0.55572058  0.40149576  0.14833818  1
  N  N9  1  0.44427942  0.59850424  0.64833818  1
  N  N10  1  0.94427942  0.90149576  0.64833818  1
  N  N11  1  0.05572058  0.09850424  0.14833818  1
  N  N12  1  0.60802720  0.84783257  0.08914084  1
  N  N13  1  0.39197280  0.15216743  0.58914084  1
  N  N14  1  0.89197280  0.34783257  0.58914084  1
  N  N15  1  0.10802720  0.65216743  0.08914084  1
