# generated using pymatgen
data_Al2NiO4
_symmetry_space_group_name_H-M   'P 1'
_cell_length_a   5.66227248
_cell_length_b   10.02267128
_cell_length_c   5.66314903
_cell_angle_alpha   90.03331639
_cell_angle_beta   59.98025042
_cell_angle_gamma   73.74565781
_symmetry_Int_Tables_number   1
_chemical_formula_structural   Al2NiO4
_chemical_formula_sum   'Al8 Ni4 O16'
_cell_volume   263.30313238
_cell_formula_units_Z   4
loop_
 _symmetry_equiv_pos_site_id
 _symmetry_equiv_pos_as_xyz
  1  'x, y, z'
loop_
 _atom_site_type_symbol
 _atom_site_label
 _atom_site_symmetry_multiplicity
 _atom_site_fract_x
 _atom_site_fract_y
 _atom_site_fract_z
 _atom_site_occupancy
  Al  Al0  1  0.49890155  0.24997219  0.24962923  1
  Al  Al1  1  0.50109555  0.75002734  0.75036534  1
  Al  Al2  1  0.49992739  0.50000508  0.00006102  1
  Al  Al3  1  0.50006405  -0.00000626  0.49994615  1
  Al  Al4  1  0.49875956  0.25018794  0.74989225  1
  Al  Al5  1  0.50125365  0.74980986  0.25011130  1
  Al  Al6  1  0.99913882  0.24983109  0.74957246  1
  Al  Al7  1  0.00085902  0.75017123  0.25044139  1
  Ni  Ni8  1  0.87269584  0.94365903  0.81432092  1
  Ni  Ni9  1  0.12744673  0.05632205  0.18550858  1
  Ni  Ni10  1  0.87015625  0.44382973  0.31456279  1
  Ni  Ni11  1  0.12970396  0.55617745  0.68561519  1
  O  O12  1  0.73097328  0.15045136  0.88337895  1
  O  O13  1  0.73379340  0.65045956  0.38389409  1
  O  O14  1  0.26619068  0.34954338  0.61598167  1
  O  O15  1  0.26905432  0.84954517  0.11672568  1
  O  O16  1  0.73664686  0.36772176  0.65777949  1
  O  O17  1  0.73877201  0.86766875  0.15792481  1
  O  O18  1  0.26131783  0.13236635  0.84199706  1
  O  O19  1  0.26327858  0.63223262  0.34229811  1
  O  O20  1  0.73680878  0.36754574  0.10445946  1
  O  O21  1  0.73811120  0.86816940  0.60486571  1
  O  O22  1  0.28931148  0.36773042  0.10477698  1
  O  O23  1  0.29158176  0.86706432  0.60504665  1
  O  O24  1  0.70851865  0.13295293  0.39493699  1
  O  O25  1  0.71058577  0.63225800  0.89522205  1
  O  O26  1  0.26194493  0.13178323  0.39510415  1
  O  O27  1  0.26311011  0.63251929  0.89558352  1
