# generated using pymatgen
data_GdBN2
_symmetry_space_group_name_H-M   'P 1'
_cell_length_a   6.74029272
_cell_length_b   7.23267973
_cell_length_c   7.23267971
_cell_angle_alpha   110.80882805
_cell_angle_beta   108.09792939
_cell_angle_gamma   108.09791937
_symmetry_Int_Tables_number   1
_chemical_formula_structural   GdBN2
_chemical_formula_sum   'Gd6 B6 N12'
_cell_volume   275.89077938
_cell_formula_units_Z   6
loop_
 _symmetry_equiv_pos_site_id
 _symmetry_equiv_pos_as_xyz
  1  'x, y, z'
loop_
 _atom_site_type_symbol
 _atom_site_label
 _atom_site_symmetry_multiplicity
 _atom_site_fract_x
 _atom_site_fract_y
 _atom_site_fract_z
 _atom_site_occupancy
  Gd  Gd0  1  0.24826098  0.54554553  0.45308219  1
  Gd  Gd1  1  0.79513519  0.54689950  0.09245536  1
  Gd  Gd2  1  0.70272028  0.90756120  0.45447149  1
  Gd  Gd3  1  0.74826099  0.45308251  0.54554622  1
  Gd  Gd4  1  0.20272088  0.45447175  0.90756124  1
  Gd  Gd5  1  0.29513498  0.09245531  0.54689943  1
  B  B6  1  0.86832302  0.12116130  0.24232951  1
  B  B7  1  0.62599869  0.75767036  0.87883517  1
  B  B8  1  0.74716838  0.12116021  0.87883628  1
  B  B9  1  0.36832296  0.24232955  0.12116122  1
  B  B10  1  0.24716841  0.87883633  0.12116008  1
  B  B11  1  0.12599875  0.87883544  0.75767033  1
  N  N12  1  0.87129066  0.24914777  0.12462617  1
  N  N13  1  0.74665197  0.87536143  0.12453326  1
  N  N14  1  0.62214768  0.87546511  0.75083051  1
  N  N15  1  0.37129055  0.12462607  0.24914768  1
  N  N16  1  0.12214827  0.75083093  0.87546513  1
  N  N17  1  0.24665148  0.12453326  0.87536135  1
  N  N18  1  0.50391843  0.51160460  0.75589378  1
  N  N19  1  0.74805433  0.24411823  0.75572126  1
  N  N20  1  0.99233222  0.24429511  0.48839233  1
  N  N21  1  0.00391831  0.75589379  0.51160464  1
  N  N22  1  0.49233229  0.48839243  0.24429532  1
  N  N23  1  0.24805428  0.75572130  0.24411805  1
