# generated using pymatgen
data_Sr3SbI3
_symmetry_space_group_name_H-M   'P 1'
_cell_length_a   11.63923581
_cell_length_b   11.63830812
_cell_length_c   11.63800644
_cell_angle_alpha   109.46819957
_cell_angle_beta   109.47511937
_cell_angle_gamma   109.47226883
_symmetry_Int_Tables_number   1
_chemical_formula_structural   Sr3SbI3
_chemical_formula_sum   'Sr12 Sb4 I12'
_cell_volume   1213.55844429
_cell_formula_units_Z   4
loop_
 _symmetry_equiv_pos_site_id
 _symmetry_equiv_pos_as_xyz
  1  'x, y, z'
loop_
 _atom_site_type_symbol
 _atom_site_label
 _atom_site_symmetry_multiplicity
 _atom_site_fract_x
 _atom_site_fract_y
 _atom_site_fract_z
 _atom_site_occupancy
  Sr  Sr0  1  0.48499450  0.49250963  0.24248067  1
  Sr  Sr1  1  0.75000180  0.24249773  0.25749625  1
  Sr  Sr2  1  0.75000588  0.00749234  0.49251103  1
  Sr  Sr3  1  0.24249720  0.48500631  0.49249717  1
  Sr  Sr4  1  0.25749636  0.75000147  0.24249839  1
  Sr  Sr5  1  0.01500071  0.25751685  0.00748157  1
  Sr  Sr6  1  0.00750869  0.01499725  0.25749236  1
  Sr  Sr7  1  0.49251278  0.75001599  0.00749776  1
  Sr  Sr8  1  0.49249289  0.24250055  0.48499594  1
  Sr  Sr9  1  0.00748902  0.49250451  0.74998319  1
  Sr  Sr10  1  0.25750899  0.00750428  0.01500684  1
  Sr  Sr11  1  0.24251432  0.25750682  0.75000651  1
  Sb  Sb12  1  0.24998564  0.24995558  0.25001730  1
  Sb  Sb13  1  0.50001169  0.00002348  0.25001056  1
  Sb  Sb14  1  0.00001608  0.24996924  0.50001268  1
  Sb  Sb15  1  0.25001098  0.50003424  0.00004283  1
  I  I16  1  0.24999935  0.75185535  0.74818984  1
  I  I17  1  0.50363642  0.50180640  0.75178848  1
  I  I18  1  0.99633878  0.74815611  0.99816676  1
  I  I19  1  0.74820098  0.25001332  0.75184915  1
  I  I20  1  0.99816447  0.99634362  0.74816664  1
  I  I21  1  0.25000714  0.99818427  0.50184098  1
  I  I22  1  0.75183311  0.50365227  0.50180736  1
  I  I23  1  0.50180664  0.25000370  0.99816492  1
  I  I24  1  0.75179599  0.74815775  0.24999286  1
  I  I25  1  0.74815510  0.99815435  0.99633592  1
  I  I26  1  0.99820043  0.50182030  0.25001461  1
  I  I27  1  0.50181508  0.75181632  0.50365242  1
