# generated using pymatgen
data_GaHgCl4
_symmetry_space_group_name_H-M   'P 1'
_cell_length_a   6.54326522
_cell_length_b   6.72027546
_cell_length_c   9.56273881
_cell_angle_alpha   82.25640500
_cell_angle_beta   73.75667442
_cell_angle_gamma   61.33347137
_symmetry_Int_Tables_number   1
_chemical_formula_structural   GaHgCl4
_chemical_formula_sum   'Ga2 Hg2 Cl8'
_cell_volume   354.22817398
_cell_formula_units_Z   2
loop_
 _symmetry_equiv_pos_site_id
 _symmetry_equiv_pos_as_xyz
  1  'x, y, z'
loop_
 _atom_site_type_symbol
 _atom_site_label
 _atom_site_symmetry_multiplicity
 _atom_site_fract_x
 _atom_site_fract_y
 _atom_site_fract_z
 _atom_site_occupancy
  Ga  Ga0  1  0.37993604  0.85046764  0.76153639  1
  Ga  Ga1  1  0.62006396  0.14953236  0.23846361  1
  Hg  Hg2  1  0.93818400  0.51404624  0.88110634  1
  Hg  Hg3  1  0.06181600  0.48595376  0.11889366  1
  Cl  Cl4  1  0.74825822  0.55824946  0.67513822  1
  Cl  Cl5  1  0.25174178  0.44175054  0.32486178  1
  Cl  Cl6  1  0.32464681  0.82465909  0.99709470  1
  Cl  Cl7  1  0.67535319  0.17534091  0.00290530  1
  Cl  Cl8  1  0.13002248  0.80789671  0.67642304  1
  Cl  Cl9  1  0.86997752  0.19210329  0.32357696  1
  Cl  Cl10  1  0.39179404  0.16483517  0.68465941  1
  Cl  Cl11  1  0.60820596  0.83516483  0.31534059  1
