# generated using pymatgen
data_TeAsHXeNF11
_symmetry_space_group_name_H-M   'P 1'
_cell_length_a   5.45835020
_cell_length_b   7.08848645
_cell_length_c   12.53894322
_cell_angle_alpha   86.65769610
_cell_angle_beta   84.18205991
_cell_angle_gamma   85.40403035
_symmetry_Int_Tables_number   1
_chemical_formula_structural   TeAsHXeNF11
_chemical_formula_sum   'Te2 As2 H2 Xe2 N2 F22'
_cell_volume   480.48251734
_cell_formula_units_Z   2
loop_
 _symmetry_equiv_pos_site_id
 _symmetry_equiv_pos_as_xyz
  1  'x, y, z'
loop_
 _atom_site_type_symbol
 _atom_site_label
 _atom_site_symmetry_multiplicity
 _atom_site_fract_x
 _atom_site_fract_y
 _atom_site_fract_z
 _atom_site_occupancy
  Te  Te0  1  0.27462622  0.25387475  0.39998621  1
  Te  Te1  1  0.72537378  0.74612525  0.60001379  1
  As  As2  1  0.11217384  0.24143890  0.85084808  1
  As  As3  1  0.88782616  0.75856110  0.14915192  1
  H  H4  1  0.47291280  0.48894436  0.26214468  1
  H  H5  1  0.52708720  0.51105564  0.73785532  1
  Xe  Xe6  1  0.38990267  0.26217578  0.12275119  1
  Xe  Xe7  1  0.61009733  0.73782422  0.87724881  1
  N  N8  1  0.49546337  0.34237598  0.26968940  1
  N  N9  1  0.50453663  0.65762402  0.73031060  1
  F  F10  1  0.09629854  0.17324314  0.52351101  1
  F  F11  1  0.90370146  0.82675686  0.47648899  1
  F  F12  1  0.98096775  0.31553780  0.33943033  1
  F  F13  1  0.01903225  0.68446220  0.66056967  1
  F  F14  1  0.26623192  0.49437710  0.45132993  1
  F  F15  1  0.73376808  0.50562290  0.54867007  1
  F  F16  1  0.28840550  0.01605908  0.34619945  1
  F  F17  1  0.71159450  0.98394092  0.65380055  1
  F  F18  1  0.55817920  0.18747702  0.46595846  1
  F  F19  1  0.44182080  0.81252298  0.53404154  1
  F  F20  1  0.34655253  0.27727465  0.74827153  1
  F  F21  1  0.65344747  0.72272535  0.25172847  1
  F  F22  1  0.09739667  0.01249835  0.81246016  1
  F  F23  1  0.90260333  0.98750165  0.18753984  1
  F  F24  1  0.89143520  0.20560866  0.95839659  1
  F  F25  1  0.10856480  0.79439134  0.04160341  1
  F  F26  1  0.88551916  0.33131853  0.77049045  1
  F  F27  1  0.11448084  0.66868147  0.22950955  1
  F  F28  1  0.14790601  0.46720664  0.89373631  1
  F  F29  1  0.85209399  0.53279336  0.10626369  1
  F  F30  1  0.34553711  0.15321758  0.93676110  1
  F  F31  1  0.65446289  0.84678242  0.06323890  1
