# generated using pymatgen
data_Sm4InSbS9
_symmetry_space_group_name_H-M   'P 1'
_cell_length_a   10.12114079
_cell_length_b   10.12114079
_cell_length_c   27.87139646
_cell_angle_alpha   90.00000000
_cell_angle_beta   90.00000000
_cell_angle_gamma   90.00000000
_symmetry_Int_Tables_number   1
_chemical_formula_structural   Sm4InSbS9
_chemical_formula_sum   'Sm32 In8 Sb8 S72'
_cell_volume   2855.07592099
_cell_formula_units_Z   8
loop_
 _symmetry_equiv_pos_site_id
 _symmetry_equiv_pos_as_xyz
  1  'x, y, z'
loop_
 _atom_site_type_symbol
 _atom_site_label
 _atom_site_symmetry_multiplicity
 _atom_site_fract_x
 _atom_site_fract_y
 _atom_site_fract_z
 _atom_site_occupancy
  Sm  Sm0  1  0.06035117  0.72453221  0.16163883  1
  Sm  Sm1  1  0.93964883  0.27546779  0.66163883  1
  Sm  Sm2  1  0.22453221  0.43964883  0.41163883  1
  Sm  Sm3  1  0.77546779  0.56035117  0.91163883  1
  Sm  Sm4  1  0.27546779  0.93964883  0.33836117  1
  Sm  Sm5  1  0.72453221  0.06035117  0.83836117  1
  Sm  Sm6  1  0.43964883  0.22453221  0.58836117  1
  Sm  Sm7  1  0.56035117  0.77546779  0.08836117  1
  Sm  Sm8  1  0.34770514  0.98912620  0.19707152  1
  Sm  Sm9  1  0.65229486  0.01087380  0.69707152  1
  Sm  Sm10  1  0.48912620  0.15229486  0.44707152  1
  Sm  Sm11  1  0.51087380  0.84770514  0.94707152  1
  Sm  Sm12  1  0.01087380  0.65229486  0.30292848  1
  Sm  Sm13  1  0.98912620  0.34770514  0.80292848  1
  Sm  Sm14  1  0.15229486  0.48912620  0.55292848  1
  Sm  Sm15  1  0.84770514  0.51087380  0.05292848  1
  Sm  Sm16  1  0.73369689  0.50010568  0.19942524  1
  Sm  Sm17  1  0.26630311  0.49989432  0.69942524  1
  Sm  Sm18  1  0.00010568  0.76630311  0.44942524  1
  Sm  Sm19  1  0.99989432  0.23369689  0.94942524  1
  Sm  Sm20  1  0.49989432  0.26630311  0.30057476  1
  Sm  Sm21  1  0.50010568  0.73369689  0.80057476  1
  Sm  Sm22  1  0.76630311  0.00010568  0.55057476  1
  Sm  Sm23  1  0.23369689  0.99989432  0.05057476  1
  Sm  Sm24  1  0.05695010  0.27274021  0.15670004  1
  Sm  Sm25  1  0.94304990  0.72725979  0.65670004  1
  Sm  Sm26  1  0.77274021  0.44304990  0.40670004  1
  Sm  Sm27  1  0.22725979  0.55695010  0.90670004  1
  Sm  Sm28  1  0.72725979  0.94304990  0.34329996  1
  Sm  Sm29  1  0.27274021  0.05695010  0.84329996  1
  Sm  Sm30  1  0.44304990  0.77274021  0.59329996  1
  Sm  Sm31  1  0.55695010  0.22725979  0.09329996  1
  In  In32  1  0.79554467  0.98636320  0.20346909  1
  In  In33  1  0.20445533  0.01363680  0.70346909  1
  In  In34  1  0.48636320  0.70445533  0.45346909  1
  In  In35  1  0.51363680  0.29554467  0.95346909  1
  In  In36  1  0.01363680  0.20445533  0.29653091  1
  In  In37  1  0.98636320  0.79554467  0.79653091  1
  In  In38  1  0.70445533  0.48636320  0.54653091  1
  In  In39  1  0.29554467  0.51363680  0.04653091  1
  Sb  Sb40  1  0.85798468  0.01001010  0.05573126  1
  Sb  Sb41  1  0.14201532  0.98998990  0.55573126  1
  Sb  Sb42  1  0.51001010  0.64201532  0.30573126  1
  Sb  Sb43  1  0.48998990  0.35798468  0.80573126  1
  Sb  Sb44  1  0.98998990  0.14201532  0.44426874  1
  Sb  Sb45  1  0.01001010  0.85798468  0.94426874  1
  Sb  Sb46  1  0.64201532  0.51001010  0.69426874  1
  Sb  Sb47  1  0.35798468  0.48998990  0.19426874  1
  S  S48  1  0.20635232  0.19964124  0.24170867  1
  S  S49  1  0.79364768  0.80035876  0.74170867  1
  S  S50  1  0.69964124  0.29364768  0.49170867  1
  S  S51  1  0.30035876  0.70635232  0.99170867  1
  S  S52  1  0.80035876  0.79364768  0.25829133  1
  S  S53  1  0.19964124  0.20635232  0.75829133  1
  S  S54  1  0.29364768  0.69964124  0.50829133  1
  S  S55  1  0.70635232  0.30035876  0.00829133  1
  S  S56  1  0.79841180  0.68928597  0.12801980  1
  S  S57  1  0.20158820  0.31071403  0.62801980  1
  S  S58  1  0.18928597  0.70158820  0.37801980  1
  S  S59  1  0.81071403  0.29841180  0.87801980  1
  S  S60  1  0.31071403  0.20158820  0.37198020  1
  S  S61  1  0.68928597  0.79841180  0.87198020  1
  S  S62  1  0.70158820  0.18928597  0.62198020  1
  S  S63  1  0.29841180  0.81071403  0.12198020  1
  S  S64  1  0.29856742  0.17474063  0.12342141  1
  S  S65  1  0.70143258  0.82525937  0.62342141  1
  S  S66  1  0.67474063  0.20143258  0.37342141  1
  S  S67  1  0.32525937  0.79856742  0.87342141  1
  S  S68  1  0.82525937  0.70143258  0.37657859  1
  S  S69  1  0.17474063  0.29856742  0.87657859  1
  S  S70  1  0.20143258  0.67474063  0.62657859  1
  S  S71  1  0.79856742  0.32525937  0.12657859  1
  S  S72  1  0.80275778  0.19724222  0.25000000  1
  S  S73  1  0.19724222  0.80275778  0.75000000  1
  S  S74  1  0.69724222  0.69724222  0.50000000  1
  S  S75  1  0.30275778  0.30275778  -0.00000000  1
  S  S76  1  0.59917458  0.99530091  0.15035275  1
  S  S77  1  0.40082542  0.00469909  0.65035275  1
  S  S78  1  0.49530091  0.90082542  0.40035275  1
  S  S79  1  0.50469909  0.09917458  0.90035275  1
  S  S80  1  0.00469909  0.40082542  0.34964725  1
  S  S81  1  0.99530091  0.59917458  0.84964725  1
  S  S82  1  0.90082542  0.49530091  0.59964725  1
  S  S83  1  0.09917458  0.50469909  0.09964725  1
  S  S84  1  0.02348566  0.18810218  0.04977048  1
  S  S85  1  0.97651434  0.81189782  0.54977048  1
  S  S86  1  0.68810218  0.47651434  0.29977048  1
  S  S87  1  0.31189782  0.52348566  0.79977048  1
  S  S88  1  0.81189782  0.97651434  0.45022952  1
  S  S89  1  0.18810218  0.02348566  0.95022952  1
  S  S90  1  0.47651434  0.68810218  0.70022952  1
  S  S91  1  0.52348566  0.31189782  0.20022952  1
  S  S92  1  0.00298592  0.50172178  0.21834684  1
  S  S93  1  0.99701408  0.49827822  0.71834684  1
  S  S94  1  0.00172178  0.49701408  0.46834684  1
  S  S95  1  0.99827822  0.50298592  0.96834684  1
  S  S96  1  0.49827822  0.99701408  0.28165316  1
  S  S97  1  0.50172178  0.00298592  0.78165316  1
  S  S98  1  0.49701408  0.00172178  0.53165316  1
  S  S99  1  0.50298592  0.99827822  0.03165316  1
  S  S100  1  0.82442625  0.01358995  0.96167824  1
  S  S101  1  0.17557375  0.98641005  0.46167824  1
  S  S102  1  0.51358995  0.67557375  0.21167824  1
  S  S103  1  0.48641005  0.32442625  0.71167824  1
  S  S104  1  0.98641005  0.17557375  0.53832176  1
  S  S105  1  0.01358995  0.82442625  0.03832176  1
  S  S106  1  0.67557375  0.51358995  0.78832176  1
  S  S107  1  0.32442625  0.48641005  0.28832176  1
  S  S108  1  0.99147081  0.99495016  0.14844737  1
  S  S109  1  0.00852919  0.00504984  0.64844737  1
  S  S110  1  0.49495016  0.50852919  0.39844737  1
  S  S111  1  0.50504984  0.49147081  0.89844737  1
  S  S112  1  0.00504984  0.00852919  0.35155263  1
  S  S113  1  0.99495016  0.99147081  0.85155263  1
  S  S114  1  0.50852919  0.49495016  0.60155263  1
  S  S115  1  0.49147081  0.50504984  0.10155263  1
  S  S116  1  0.18328370  0.81671630  0.25000000  1
  S  S117  1  0.81671630  0.18328370  0.75000000  1
  S  S118  1  0.31671630  0.31671630  0.50000000  1
  S  S119  1  0.68328370  0.68328370  -0.00000000  1
