# generated using pymatgen
data_NaTiPO5
_symmetry_space_group_name_H-M   'P 1'
_cell_length_a   6.32698008
_cell_length_b   10.68973363
_cell_length_c   12.72727491
_cell_angle_alpha   90.00000000
_cell_angle_beta   90.00000000
_cell_angle_gamma   90.00000000
_symmetry_Int_Tables_number   1
_chemical_formula_structural   NaTiPO5
_chemical_formula_sum   'Na8 Ti8 P8 O40'
_cell_volume   860.79309701
_cell_formula_units_Z   8
loop_
 _symmetry_equiv_pos_site_id
 _symmetry_equiv_pos_as_xyz
  1  'x, y, z'
loop_
 _atom_site_type_symbol
 _atom_site_label
 _atom_site_symmetry_multiplicity
 _atom_site_fract_x
 _atom_site_fract_y
 _atom_site_fract_z
 _atom_site_occupancy
  Na  Na0  1  0.70155072  0.27637984  0.84293641  1
  Na  Na1  1  0.29844928  0.77637984  0.15706359  1
  Na  Na2  1  0.20155072  0.77637984  0.65706359  1
  Na  Na3  1  0.79844928  0.27637984  0.34293641  1
  Na  Na4  1  0.74354671  0.07564675  0.59984355  1
  Na  Na5  1  0.25645329  0.57564675  0.40015645  1
  Na  Na6  1  0.24354671  0.57564675  0.90015645  1
  Na  Na7  1  0.75645329  0.07564675  0.09984355  1
  Ti  Ti8  1  0.21339184  0.23888993  0.72842724  1
  Ti  Ti9  1  0.78660816  0.73888993  0.27157276  1
  Ti  Ti10  1  0.71339184  0.73888993  0.77157276  1
  Ti  Ti11  1  0.28660816  0.23888993  0.22842724  1
  Ti  Ti12  1  0.98020518  0.00126845  0.87087358  1
  Ti  Ti13  1  0.01979482  0.50126845  0.12912642  1
  Ti  Ti14  1  0.48020518  0.50126845  0.62912642  1
  Ti  Ti15  1  0.51979482  0.00126845  0.37087358  1
  P  P16  1  0.15775853  0.26921055  0.98152134  1
  P  P17  1  0.84224147  0.76921055  0.01847866  1
  P  P18  1  0.65775853  0.76921055  0.51847866  1
  P  P19  1  0.34224147  0.26921055  0.48152134  1
  P  P20  1  0.97589702  0.50648540  0.68382032  1
  P  P21  1  0.02410298  0.00648540  0.31617968  1
  P  P22  1  0.47589702  0.00648540  0.81617968  1
  P  P23  1  0.52410298  0.50648540  0.18382032  1
  O  O24  1  0.29740932  0.27094996  0.88130739  1
  O  O25  1  0.70259068  0.77094996  0.11869261  1
  O  O26  1  0.79740932  0.77094996  0.61869261  1
  O  O27  1  0.20259068  0.27094996  0.38130739  1
  O  O28  1  0.00697330  0.38005504  0.74129174  1
  O  O29  1  0.99302670  0.88005504  0.25870826  1
  O  O30  1  0.50697330  0.88005504  0.75870826  1
  O  O31  1  0.49302670  0.38005504  0.24129174  1
  O  O32  1  0.00755389  0.12686886  0.75749660  1
  O  O33  1  0.99244611  0.62686886  0.24250340  1
  O  O34  1  0.50755389  0.62686886  0.74250340  1
  O  O35  1  0.49244611  0.12686886  0.25749660  1
  O  O36  1  0.30548075  0.23539061  0.07600434  1
  O  O37  1  0.69451925  0.73539061  0.92399566  1
  O  O38  1  0.80548075  0.73539061  0.42399566  1
  O  O39  1  0.19451925  0.23539061  0.57600434  1
  O  O40  1  0.95091669  0.87034751  0.79004596  1
  O  O41  1  0.04908331  0.37034751  0.20995404  1
  O  O42  1  0.45091669  0.37034751  0.70995404  1
  O  O43  1  0.54908331  0.87034751  0.29004596  1
  O  O44  1  0.94523475  0.60890788  0.76999053  1
  O  O45  1  0.05476525  0.10890788  0.23000947  1
  O  O46  1  0.44523475  0.10890788  0.73000947  1
  O  O47  1  0.55476525  0.60890788  0.26999053  1
  O  O48  1  0.06847236  0.40454235  0.99468118  1
  O  O49  1  0.93152764  0.90454235  0.00531882  1
  O  O50  1  0.56847236  0.90454235  0.50531882  1
  O  O51  1  0.43152764  0.40454235  0.49468118  1
  O  O52  1  0.78532847  0.49646195  0.60945365  1
  O  O53  1  0.21467153  0.99646195  0.39054635  1
  O  O54  1  0.28532847  0.99646195  0.89054635  1
  O  O55  1  0.71467153  0.49646195  0.10945365  1
  O  O56  1  0.16962118  0.54490235  0.61793441  1
  O  O57  1  0.83037882  0.04490235  0.38206559  1
  O  O58  1  0.66962118  0.04490235  0.88206559  1
  O  O59  1  0.33037882  0.54490235  0.11793441  1
  O  O60  1  0.97393267  0.17539256  0.97330545  1
  O  O61  1  0.02606733  0.67539256  0.02669455  1
  O  O62  1  0.47393267  0.67539256  0.52669455  1
  O  O63  1  0.52606733  0.17539256  0.47330545  1
