# generated using pymatgen
data_Cs6Br4O
_symmetry_space_group_name_H-M   'P 1'
_cell_length_a   9.85796995
_cell_length_b   9.85796995
_cell_length_c   9.85797002
_cell_angle_alpha   88.57630249
_cell_angle_beta   88.57630249
_cell_angle_gamma   88.57630512
_symmetry_Int_Tables_number   1
_chemical_formula_structural   Cs6Br4O
_chemical_formula_sum   'Cs12 Br8 O2'
_cell_volume   957.12053594
_cell_formula_units_Z   2
loop_
 _symmetry_equiv_pos_site_id
 _symmetry_equiv_pos_as_xyz
  1  'x, y, z'
loop_
 _atom_site_type_symbol
 _atom_site_label
 _atom_site_symmetry_multiplicity
 _atom_site_fract_x
 _atom_site_fract_y
 _atom_site_fract_z
 _atom_site_occupancy
  Cs  Cs0  1  0.93260645  0.05854419  0.72021628  1
  Cs  Cs1  1  0.94145581  0.27978372  0.06739355  1
  Cs  Cs2  1  0.77978372  0.44145581  0.56739355  1
  Cs  Cs3  1  0.43260645  0.22021628  0.55854419  1
  Cs  Cs4  1  0.27978372  0.06739355  0.94145581  1
  Cs  Cs5  1  0.55854419  0.43260645  0.22021628  1
  Cs  Cs6  1  0.44145581  0.56739355  0.77978372  1
  Cs  Cs7  1  0.56739355  0.77978372  0.44145581  1
  Cs  Cs8  1  0.72021628  0.93260645  0.05854419  1
  Cs  Cs9  1  0.22021628  0.55854419  0.43260645  1
  Cs  Cs10  1  0.05854419  0.72021628  0.93260645  1
  Cs  Cs11  1  0.06739355  0.94145581  0.27978372  1
  Br  Br12  1  0.75000000  0.12757600  0.37242400  1
  Br  Br13  1  0.62757600  0.25000000  0.87242400  1
  Br  Br14  1  0.87242400  0.62757600  0.25000000  1
  Br  Br15  1  0.75000000  0.75000000  0.75000000  1
  Br  Br16  1  0.25000000  0.25000000  0.25000000  1
  Br  Br17  1  0.12757600  0.37242400  0.75000000  1
  Br  Br18  1  0.37242400  0.75000000  0.12757600  1
  Br  Br19  1  0.25000000  0.87242400  0.62757600  1
  O  O20  1  0.00000000  0.00000000  -0.00000000  1
  O  O21  1  0.50000000  0.50000000  0.50000000  1
