# generated using pymatgen
data_ZnMoO4
_symmetry_space_group_name_H-M   'P 1'
_cell_length_a   5.73665626
_cell_length_b   4.67421479
_cell_length_c   4.87721707
_cell_angle_alpha   89.89391950
_cell_angle_beta   90.00000000
_cell_angle_gamma   90.00000000
_symmetry_Int_Tables_number   1
_chemical_formula_structural   ZnMoO4
_chemical_formula_sum   'Zn2 Mo2 O8'
_cell_volume   130.77924739
_cell_formula_units_Z   2
loop_
 _symmetry_equiv_pos_site_id
 _symmetry_equiv_pos_as_xyz
  1  'x, y, z'
loop_
 _atom_site_type_symbol
 _atom_site_label
 _atom_site_symmetry_multiplicity
 _atom_site_fract_x
 _atom_site_fract_y
 _atom_site_fract_z
 _atom_site_occupancy
  Zn  Zn0  1  0.68589427  0.50000000  0.75000000  1
  Zn  Zn1  1  0.31410573  0.50000000  0.25000000  1
  Mo  Mo2  1  0.81099188  -0.00000000  0.25000000  1
  Mo  Mo3  1  0.18900812  -0.00000000  0.75000000  1
  O  O4  1  0.62326022  0.74464693  0.40416102  1
  O  O5  1  0.62326022  0.25535307  0.09583898  1
  O  O6  1  0.37673978  0.25535307  0.59583898  1
  O  O7  1  0.37673978  0.74464693  0.90416102  1
  O  O8  1  0.89444303  0.21741800  0.56061112  1
  O  O9  1  0.89444303  0.78258200  0.93938888  1
  O  O10  1  0.10555697  0.78258200  0.43938888  1
  O  O11  1  0.10555697  0.21741800  0.06061112  1
