# generated using pymatgen
data_Sr2P7Br
_symmetry_space_group_name_H-M   'P 1'
_cell_length_a   9.88982955
_cell_length_b   9.88982955
_cell_length_c   9.88982955
_cell_angle_alpha   90.00000000
_cell_angle_beta   90.00000000
_cell_angle_gamma   90.00000000
_symmetry_Int_Tables_number   1
_chemical_formula_structural   Sr2P7Br
_chemical_formula_sum   'Sr8 P28 Br4'
_cell_volume   967.31165364
_cell_formula_units_Z   4
loop_
 _symmetry_equiv_pos_site_id
 _symmetry_equiv_pos_as_xyz
  1  'x, y, z'
loop_
 _atom_site_type_symbol
 _atom_site_label
 _atom_site_symmetry_multiplicity
 _atom_site_fract_x
 _atom_site_fract_y
 _atom_site_fract_z
 _atom_site_occupancy
  Sr  Sr0  1  0.64754370  0.14754370  0.35245630  1
  Sr  Sr1  1  0.14754370  0.35245630  0.64754370  1
  Sr  Sr2  1  0.35245630  0.64754370  0.14754370  1
  Sr  Sr3  1  0.85245630  0.85245630  0.85245630  1
  Sr  Sr4  1  0.91337941  0.41337941  0.08662059  1
  Sr  Sr5  1  0.41337941  0.08662059  0.91337941  1
  Sr  Sr6  1  0.08662059  0.91337941  0.41337941  1
  Sr  Sr7  1  0.58662059  0.58662059  0.58662059  1
  P  P8  1  0.46323817  0.96323817  0.53676183  1
  P  P9  1  0.96323817  0.53676183  0.46323817  1
  P  P10  1  0.53676183  0.46323817  0.96323817  1
  P  P11  1  0.03676183  0.03676183  0.03676183  1
  P  P12  1  0.21802227  0.94411719  0.11940878  1
  P  P13  1  0.88059122  0.71802227  0.55588281  1
  P  P14  1  0.44411719  0.38059122  0.78197773  1
  P  P15  1  0.71802227  0.55588281  0.88059122  1
  P  P16  1  0.38059122  0.78197773  0.44411719  1
  P  P17  1  0.94411719  0.11940878  0.21802227  1
  P  P18  1  0.78197773  0.44411719  0.38059122  1
  P  P19  1  0.11940878  0.21802227  0.94411719  1
  P  P20  1  0.55588281  0.88059122  0.71802227  1
  P  P21  1  0.28197773  0.05588281  0.61940878  1
  P  P22  1  0.61940878  0.28197773  0.05588281  1
  P  P23  1  0.05588281  0.61940878  0.28197773  1
  P  P24  1  0.20172897  0.88717030  0.73075448  1
  P  P25  1  0.26924552  0.70172897  0.61282970  1
  P  P26  1  0.38717030  0.76924552  0.79827103  1
  P  P27  1  0.70172897  0.61282970  0.26924552  1
  P  P28  1  0.76924552  0.79827103  0.38717030  1
  P  P29  1  0.88717030  0.73075448  0.20172897  1
  P  P30  1  0.79827103  0.38717030  0.76924552  1
  P  P31  1  0.73075448  0.20172897  0.88717030  1
  P  P32  1  0.61282970  0.26924552  0.70172897  1
  P  P33  1  0.29827103  0.11282970  0.23075448  1
  P  P34  1  0.23075448  0.29827103  0.11282970  1
  P  P35  1  0.11282970  0.23075448  0.29827103  1
  Br  Br36  1  0.09671173  0.59671173  0.90328827  1
  Br  Br37  1  0.59671173  0.90328827  0.09671173  1
  Br  Br38  1  0.90328827  0.09671173  0.59671173  1
  Br  Br39  1  0.40328827  0.40328827  0.40328827  1
