# generated using pymatgen
data_Er2Mn2O7
_symmetry_space_group_name_H-M   'P 1'
_cell_length_a   6.95167234
_cell_length_b   6.95166923
_cell_length_c   6.95166949
_cell_angle_alpha   59.99996604
_cell_angle_beta   59.99998258
_cell_angle_gamma   60.00001646
_symmetry_Int_Tables_number   1
_chemical_formula_structural   Er2Mn2O7
_chemical_formula_sum   'Er4 Mn4 O14'
_cell_volume   237.54855736
_cell_formula_units_Z   2
loop_
 _symmetry_equiv_pos_site_id
 _symmetry_equiv_pos_as_xyz
  1  'x, y, z'
loop_
 _atom_site_type_symbol
 _atom_site_label
 _atom_site_symmetry_multiplicity
 _atom_site_fract_x
 _atom_site_fract_y
 _atom_site_fract_z
 _atom_site_occupancy
  Er  Er0  1  0.49999916  1.00000094  0.49999970  1
  Er  Er1  1  0.99999945  0.50000126  0.49999993  1
  Er  Er2  1  0.49999882  0.49999856  1.00000125  1
  Er  Er3  1  0.49999909  0.49999992  0.49999959  1
  Mn  Mn4  1  0.99999981  0.50000098  -0.00000117  1
  Mn  Mn5  1  0.50000005  0.00000018  1.00000078  1
  Mn  Mn6  1  0.99999872  0.00000122  0.49999944  1
  Mn  Mn7  1  0.00000015  0.00000018  0.99999995  1
  O  O8  1  0.32933099  0.92066841  0.92066874  1
  O  O9  1  0.07933183  0.67066643  0.67066801  1
  O  O10  1  0.92066746  0.32933039  0.92066829  1
  O  O11  1  0.92066800  0.92066937  0.32932950  1
  O  O12  1  0.32933319  0.32933279  0.92066669  1
  O  O13  1  0.32933412  0.92066738  0.32933193  1
  O  O14  1  0.07933166  0.67067064  0.07933129  1
  O  O15  1  0.67066589  0.07933270  0.67066786  1
  O  O16  1  0.37499971  0.37499898  0.37500024  1
  O  O17  1  0.62499967  0.62499891  0.62500170  1
  O  O18  1  0.92066713  0.32933287  0.32933404  1
  O  O19  1  0.67066988  0.07933313  0.07932989  1
  O  O20  1  0.07933256  0.07933193  0.67067010  1
  O  O21  1  0.67066565  0.67066885  0.07933226  1
