# generated using pymatgen
data_Se
_symmetry_space_group_name_H-M   'P 1'
_cell_length_a   4.50481872
_cell_length_b   4.50482269
_cell_length_c   4.97879632
_cell_angle_alpha   89.99111843
_cell_angle_beta   90.00451692
_cell_angle_gamma   120.00440378
_symmetry_Int_Tables_number   1
_chemical_formula_structural   Se
_chemical_formula_sum   Se3
_cell_volume   87.49651054
_cell_formula_units_Z   3
loop_
 _symmetry_equiv_pos_site_id
 _symmetry_equiv_pos_as_xyz
  1  'x, y, z'
loop_
 _atom_site_type_symbol
 _atom_site_label
 _atom_site_symmetry_multiplicity
 _atom_site_fract_x
 _atom_site_fract_y
 _atom_site_fract_z
 _atom_site_occupancy
  Se  Se0  1  0.21785037  0.00000005  0.33333758  1
  Se  Se1  1  -0.00001676  0.21781547  0.66666817  1
  Se  Se2  1  0.78216640  0.78218348  -0.00000575  1
