# generated using pymatgen
data_Dy2MgMn4O8
_symmetry_space_group_name_H-M   'P 1'
_cell_length_a   7.16742468
_cell_length_b   7.12669039
_cell_length_c   6.25584039
_cell_angle_alpha   63.65253909
_cell_angle_beta   63.73589218
_cell_angle_gamma   51.88789605
_symmetry_Int_Tables_number   1
_chemical_formula_structural   Dy2MgMn4O8
_chemical_formula_sum   'Dy2 Mg1 Mn4 O8'
_cell_volume   218.76892340
_cell_formula_units_Z   1
loop_
 _symmetry_equiv_pos_site_id
 _symmetry_equiv_pos_as_xyz
  1  'x, y, z'
loop_
 _atom_site_type_symbol
 _atom_site_label
 _atom_site_symmetry_multiplicity
 _atom_site_fract_x
 _atom_site_fract_y
 _atom_site_fract_z
 _atom_site_occupancy
  Dy  Dy0  1  0.11524200  0.13445100  0.13452900  1
  Dy  Dy1  1  0.88958600  0.85984700  0.86160000  1
  Mg  Mg2  1  0.65079900  0.59888500  0.60100600  1
  Mn  Mn3  1  0.51498000  0.05266300  0.46020000  1
  Mn  Mn4  1  0.05043300  0.57480600  0.43004700  1
  Mn  Mn5  1  0.47166100  0.45819900  0.05338900  1
  Mn  Mn6  1  0.44584900  0.42973200  0.57367400  1
  O  O7  1  0.74700200  0.74989200  0.71165600  1
  O  O8  1  0.23992700  0.26837400  0.73655400  1
  O  O9  1  0.25562700  0.73631800  0.26770200  1
  O  O10  1  0.72145200  0.24265500  0.28270100  1
  O  O11  1  0.72858700  0.25575800  0.76057600  1
  O  O12  1  0.29229900  0.71061600  0.75015100  1
  O  O13  1  0.25201200  0.28266200  0.24360400  1
  O  O14  1  0.75453900  0.75973500  0.25760700  1
