# generated using pymatgen
data_Na5AlO4
_symmetry_space_group_name_H-M   'P 1'
_cell_length_a   5.86085451
_cell_length_b   10.05327947
_cell_length_c   17.75811229
_cell_angle_alpha   90.00000000
_cell_angle_beta   90.00000000
_cell_angle_gamma   90.00000000
_symmetry_Int_Tables_number   1
_chemical_formula_structural   Na5AlO4
_chemical_formula_sum   'Na40 Al8 O32'
_cell_volume   1046.32233040
_cell_formula_units_Z   8
loop_
 _symmetry_equiv_pos_site_id
 _symmetry_equiv_pos_as_xyz
  1  'x, y, z'
loop_
 _atom_site_type_symbol
 _atom_site_label
 _atom_site_symmetry_multiplicity
 _atom_site_fract_x
 _atom_site_fract_y
 _atom_site_fract_z
 _atom_site_occupancy
  Na  Na0  1  0.10685812  0.32749785  0.17280485  1
  Na  Na1  1  0.60685812  0.67250215  0.32719515  1
  Na  Na2  1  0.39314188  0.82749785  0.82719515  1
  Na  Na3  1  0.89314188  0.17250215  0.67280485  1
  Na  Na4  1  0.89314188  0.67250215  0.82719515  1
  Na  Na5  1  0.39314188  0.32749785  0.67280485  1
  Na  Na6  1  0.60685812  0.17250215  0.17280485  1
  Na  Na7  1  0.10685812  0.82749785  0.32719515  1
  Na  Na8  1  0.10527686  0.58418139  0.25000813  1
  Na  Na9  1  0.60527686  0.41581861  0.24999187  1
  Na  Na10  1  0.39472314  0.08418139  0.74999187  1
  Na  Na11  1  0.89472314  0.91581861  0.75000813  1
  Na  Na12  1  0.89472314  0.41581861  0.74999187  1
  Na  Na13  1  0.39472314  0.58418139  0.75000813  1
  Na  Na14  1  0.60527686  0.91581861  0.25000813  1
  Na  Na15  1  0.10527686  0.08418139  0.24999187  1
  Na  Na16  1  0.08450122  0.16200559  0.49863152  1
  Na  Na17  1  0.58450122  0.83799441  0.00136848  1
  Na  Na18  1  0.41549878  0.66200559  0.50136848  1
  Na  Na19  1  0.91549878  0.33799441  0.99863152  1
  Na  Na20  1  0.91549878  0.83799441  0.50136848  1
  Na  Na21  1  0.41549878  0.16200559  0.99863152  1
  Na  Na22  1  0.58450122  0.33799441  0.49863152  1
  Na  Na23  1  0.08450122  0.66200559  0.00136848  1
  Na  Na24  1  0.91732040  0.30105307  0.36181687  1
  Na  Na25  1  0.41320375  0.44055185  0.06459954  1
  Na  Na26  1  0.58679625  0.05944815  0.56459954  1
  Na  Na27  1  0.08679625  0.94055185  0.93540046  1
  Na  Na28  1  0.08679625  0.44055185  0.56459954  1
  Na  Na29  1  0.58679625  0.55944815  0.93540046  1
  Na  Na30  1  0.41320375  0.94055185  0.43540046  1
  Na  Na31  1  0.91320375  0.05944815  0.06459954  1
  Na  Na32  1  0.91732040  0.80105307  0.13818313  1
  Na  Na33  1  0.41732040  0.19894693  0.36181687  1
  Na  Na34  1  0.58267960  0.30105307  0.86181687  1
  Na  Na35  1  0.08267960  0.69894693  0.63818313  1
  Na  Na36  1  0.08267960  0.19894693  0.86181687  1
  Na  Na37  1  0.58267960  0.80105307  0.63818313  1
  Na  Na38  1  0.41732040  0.69894693  0.13818313  1
  Na  Na39  1  0.91320375  0.55944815  0.43540046  1
  Al  Al40  1  0.32225788  0.46057108  0.37570672  1
  Al  Al41  1  0.82225788  0.53942892  0.12429328  1
  Al  Al42  1  0.17774212  0.96057108  0.62429328  1
  Al  Al43  1  0.67774212  0.03942892  0.87570672  1
  Al  Al44  1  0.67774212  0.53942892  0.62429328  1
  Al  Al45  1  0.17774212  0.46057108  0.87570672  1
  Al  Al46  1  0.82225788  0.03942892  0.37570672  1
  Al  Al47  1  0.32225788  0.96057108  0.12429328  1
  O  O48  1  0.62310016  0.45262817  0.38027578  1
  O  O49  1  0.12310016  0.54737183  0.11972422  1
  O  O50  1  0.87689984  0.95262817  0.61972422  1
  O  O51  1  0.37689984  0.04737183  0.88027578  1
  O  O52  1  0.37689984  0.54737183  0.61972422  1
  O  O53  1  0.87689984  0.45262817  0.88027578  1
  O  O54  1  0.12310016  0.04737183  0.38027578  1
  O  O55  1  0.62310016  0.95262817  0.11972422  1
  O  O56  1  0.23385729  0.37738115  0.29123213  1
  O  O57  1  0.73385729  0.62261885  0.20876787  1
  O  O58  1  0.26614271  0.87738115  0.70876787  1
  O  O59  1  0.23686638  0.13089863  0.12625558  1
  O  O60  1  0.76614271  0.62261885  0.70876787  1
  O  O61  1  0.26614271  0.37738115  0.79123213  1
  O  O62  1  0.73385729  0.12261885  0.29123213  1
  O  O63  1  0.23385729  0.87738115  0.20876787  1
  O  O64  1  0.19669436  0.37304800  0.45160884  1
  O  O65  1  0.69669436  0.62695200  0.04839116  1
  O  O66  1  0.30330564  0.87304800  0.54839116  1
  O  O67  1  0.80330564  0.12695200  0.95160884  1
  O  O68  1  0.80330564  0.62695200  0.54839116  1
  O  O69  1  0.30330564  0.37304800  0.95160884  1
  O  O70  1  0.69669436  0.12695200  0.45160884  1
  O  O71  1  0.19669436  0.87304800  0.04839116  1
  O  O72  1  0.23686638  0.63089863  0.37374442  1
  O  O73  1  0.73686638  0.36910137  0.12625558  1
  O  O74  1  0.26313362  0.13089863  0.62625558  1
  O  O75  1  0.76313362  0.86910137  0.87374442  1
  O  O76  1  0.76313362  0.36910137  0.62625558  1
  O  O77  1  0.26313362  0.63089863  0.87374442  1
  O  O78  1  0.73686638  0.86910137  0.37374442  1
  O  O79  1  0.76614271  0.12261885  0.79123213  1
