# generated using pymatgen
data_SrZrO3
_symmetry_space_group_name_H-M   'P 1'
_cell_length_a   5.81235817
_cell_length_b   5.81235817
_cell_length_c   5.81235817
_cell_angle_alpha   90.50057896
_cell_angle_beta   119.61211846
_cell_angle_gamma   119.81080515
_symmetry_Int_Tables_number   1
_chemical_formula_structural   SrZrO3
_chemical_formula_sum   'Sr2 Zr2 O6'
_cell_volume   139.44806584
_cell_formula_units_Z   2
loop_
 _symmetry_equiv_pos_site_id
 _symmetry_equiv_pos_as_xyz
  1  'x, y, z'
loop_
 _atom_site_type_symbol
 _atom_site_label
 _atom_site_symmetry_multiplicity
 _atom_site_fract_x
 _atom_site_fract_y
 _atom_site_fract_z
 _atom_site_occupancy
  Sr  Sr0  1  0.48945910  0.75000000  0.23945910  1
  Sr  Sr1  1  0.51054090  0.25000000  0.76054090  1
  Zr  Zr2  1  -0.00000000  0.50000000  0.50000000  1
  Zr  Zr3  1  -0.00000000  0.00000000  -0.00000000  1
  O  O4  1  0.91802168  0.75000000  0.66802168  1
  O  O5  1  0.08197832  0.25000000  0.33197832  1
  O  O6  1  0.50000000  0.20501903  0.20501903  1
  O  O7  1  0.00000000  0.29498097  0.79498097  1
  O  O8  1  -0.00000000  0.70501903  0.20501903  1
  O  O9  1  0.50000000  0.79498097  0.79498097  1
