# generated using pymatgen
data_SrFeNi2(PO4)3
_symmetry_space_group_name_H-M   'P 1'
_cell_length_a   8.97325293
_cell_length_b   8.97325293
_cell_length_c   8.97325293
_cell_angle_alpha   137.52073899
_cell_angle_beta   109.38117869
_cell_angle_gamma   86.02201911
_symmetry_Int_Tables_number   1
_chemical_formula_structural   SrFeNi2(PO4)3
_chemical_formula_sum   'Sr2 Fe2 Ni4 P6 O24'
_cell_volume   442.49923466
_cell_formula_units_Z   2
loop_
 _symmetry_equiv_pos_site_id
 _symmetry_equiv_pos_as_xyz
  1  'x, y, z'
loop_
 _atom_site_type_symbol
 _atom_site_label
 _atom_site_symmetry_multiplicity
 _atom_site_fract_x
 _atom_site_fract_y
 _atom_site_fract_z
 _atom_site_occupancy
  Sr  Sr0  1  0.25000000  0.33963269  0.08963269  1
  Sr  Sr1  1  0.75000000  0.66036731  0.91036731  1
  Fe  Fe2  1  0.00000000  0.50000000  0.50000000  1
  Fe  Fe3  1  0.50000000  0.00000000  0.50000000  1
  Ni  Ni4  1  0.11642886  0.11642886  0.50000000  1
  Ni  Ni5  1  0.38357114  0.88357114  -0.00000000  1
  Ni  Ni6  1  0.61642886  0.11642886  0.00000000  1
  Ni  Ni7  1  0.88357114  0.88357114  0.50000000  1
  P  P8  1  0.25000000  0.83522116  0.58522116  1
  P  P9  1  0.75000000  0.16477884  0.41477884  1
  P  P10  1  0.32180407  0.32180407  0.50000000  1
  P  P11  1  0.17819593  0.67819593  0.00000000  1
  P  P12  1  0.82180407  0.32180407  0.00000000  1
  P  P13  1  0.67819593  0.67819593  0.50000000  1
  O  O14  1  0.34446139  0.79300019  0.44853981  1
  O  O15  1  0.65553861  0.20699981  0.55146019  1
  O  O16  1  0.84446139  0.39592158  0.55146019  1
  O  O17  1  0.15553861  0.60407842  0.44853981  1
  O  O18  1  0.13172078  0.98032020  0.61203997  1
  O  O19  1  0.63172078  0.01967980  0.15140058  1
  O  O20  1  0.86827922  0.01967980  0.38796003  1
  O  O21  1  0.36827922  0.98032020  0.84859942  1
  O  O22  1  0.34750057  0.20163794  0.27714825  1
  O  O23  1  0.07551030  0.79836206  0.14586263  1
  O  O24  1  0.84750057  0.57035232  0.14586263  1
  O  O25  1  0.57551030  0.42964768  0.27714825  1
  O  O26  1  0.65249943  0.79836206  0.72285175  1
  O  O27  1  0.92448970  0.20163794  0.85413737  1
  O  O28  1  0.15249943  0.42964768  0.85413737  1
  O  O29  1  0.42448970  0.57035232  0.72285175  1
  O  O30  1  0.13201130  0.28675918  0.43105971  1
  O  O31  1  0.14430153  0.71324082  0.84525312  1
  O  O32  1  0.63201130  0.20095159  0.84525312  1
  O  O33  1  0.64430153  0.79904841  0.43105971  1
  O  O34  1  0.86798870  0.71324082  0.56894029  1
  O  O35  1  0.85569847  0.28675918  0.15474688  1
  O  O36  1  0.36798870  0.79904841  0.15474688  1
  O  O37  1  0.35569847  0.20095159  0.56894029  1
