# generated using pymatgen
data_MgTiMn5(PO4)6
_symmetry_space_group_name_H-M   'P 1'
_cell_length_a   9.08294239
_cell_length_b   8.68848767
_cell_length_c   8.78787002
_cell_angle_alpha   60.19868610
_cell_angle_beta   57.85198776
_cell_angle_gamma   60.68886513
_symmetry_Int_Tables_number   1
_chemical_formula_structural   MgTiMn5(PO4)6
_chemical_formula_sum   'Mg1 Ti1 Mn5 P6 O24'
_cell_volume   485.02533672
_cell_formula_units_Z   1
loop_
 _symmetry_equiv_pos_site_id
 _symmetry_equiv_pos_as_xyz
  1  'x, y, z'
loop_
 _atom_site_type_symbol
 _atom_site_label
 _atom_site_symmetry_multiplicity
 _atom_site_fract_x
 _atom_site_fract_y
 _atom_site_fract_z
 _atom_site_occupancy
  Mg  Mg0  1  0.23982500  0.25184900  0.26151800  1
  Ti  Ti1  1  0.60759900  0.13549600  0.12602400  1
  Mn  Mn2  1  0.02824500  0.99080600  0.01803500  1
  Mn  Mn3  1  0.05477900  0.64862800  0.63752700  1
  Mn  Mn4  1  0.48790000  0.50449000  0.49879600  1
  Mn  Mn5  1  0.44237200  0.84867700  0.85723000  1
  Mn  Mn6  1  0.88727000  0.37820700  0.36234200  1
  P  P7  1  0.23732400  0.25329000  0.55688200  1
  P  P8  1  0.25511100  0.94752700  0.25493500  1
  P  P9  1  0.27463500  0.53933200  0.94793100  1
  P  P10  1  0.75273700  0.46124700  0.03275600  1
  P  P11  1  0.73804000  0.03727300  0.74787900  1
  P  P12  1  0.73928700  0.75926200  0.45769300  1
  O  O13  1  0.08706200  0.11365500  0.30441200  1
  O  O14  1  0.10125900  0.49178300  0.11568300  1
  O  O15  1  0.07669100  0.30157700  0.50820500  1
  O  O16  1  0.22287900  0.09970100  0.74963100  1
  O  O17  1  0.41344600  0.19685100  0.38114200  1
  O  O18  1  0.25190900  0.42579400  0.55650700  1
  O  O19  1  0.25195800  0.92179900  0.09366500  1
  O  O20  1  0.25948600  0.76142700  0.42117500  1
  O  O21  1  0.59737100  0.59470700  0.96898900  1
  O  O22  1  0.29941200  0.54575900  0.76031500  1
  O  O23  1  0.77786600  0.25370500  0.05575300  1
  O  O24  1  0.56747200  0.98025900  0.84007200  1
  O  O25  1  0.42109600  0.00404600  0.20074400  1
  O  O26  1  0.26033400  0.73114000  0.93643000  1
  O  O27  1  0.70989300  0.45331400  0.23145700  1
  O  O28  1  0.43404800  0.37039600  0.01451400  1
  O  O29  1  0.71092800  0.22768100  0.59451400  1
  O  O30  1  0.74747300  0.06727800  0.90754400  1
  O  O31  1  0.69952600  0.60907400  0.45152300  1
  O  O32  1  0.56824500  0.85227800  0.59993100  1
  O  O33  1  0.76402700  0.91724500  0.25041800  1
  O  O34  1  0.91654300  0.69646400  0.48011100  1
  O  O35  1  0.94047100  0.49107900  0.88980500  1
  O  O36  1  0.91833000  0.88690100  0.68572000  1
