# generated using pymatgen
data_Sr6Mg(Te4O11)2
_symmetry_space_group_name_H-M   'P 1'
_cell_length_a   7.68061738
_cell_length_b   9.47876748
_cell_length_c   9.96885924
_cell_angle_alpha   98.09268534
_cell_angle_beta   110.04491170
_cell_angle_gamma   101.34394830
_symmetry_Int_Tables_number   1
_chemical_formula_structural   Sr6Mg(Te4O11)2
_chemical_formula_sum   'Sr6 Mg1 Te8 O22'
_cell_volume   651.17692197
_cell_formula_units_Z   1
loop_
 _symmetry_equiv_pos_site_id
 _symmetry_equiv_pos_as_xyz
  1  'x, y, z'
loop_
 _atom_site_type_symbol
 _atom_site_label
 _atom_site_symmetry_multiplicity
 _atom_site_fract_x
 _atom_site_fract_y
 _atom_site_fract_z
 _atom_site_occupancy
  Sr  Sr0  1  0.27569976  0.02569920  0.09401619  1
  Sr  Sr1  1  0.69832870  0.96628891  0.86697283  1
  Sr  Sr2  1  0.87589746  0.04585042  0.30060256  1
  Sr  Sr3  1  0.12932669  0.95321514  0.66615936  1
  Sr  Sr4  1  0.33015417  0.57812698  0.61214082  1
  Sr  Sr5  1  0.67284822  0.48637578  0.37277859  1
  Mg  Mg6  1  0.95850068  0.30616063  0.55811243  1
  Te  Te7  1  0.06880506  0.34990843  0.21511430  1
  Te  Te8  1  0.91706499  0.63505666  0.77914098  1
  Te  Te9  1  0.04227431  0.29100485  0.85583789  1
  Te  Te10  1  0.97394291  0.72792023  0.20944939  1
  Te  Te11  1  0.45371654  0.68500997  0.02905854  1
  Te  Te12  1  0.54857113  0.29083607  0.97552032  1
  Te  Te13  1  0.49157666  0.83321559  0.43993499  1
  Te  Te14  1  0.50770198  0.21907477  0.55904748  1
  O  O15  1  0.98770456  0.53337320  0.63217233  1
  O  O16  1  0.00456045  0.39973318  0.38607836  1
  O  O17  1  0.41974468  0.62492683  0.38291144  1
  O  O18  1  0.54700225  0.42661089  0.59062943  1
  O  O19  1  0.82826523  0.20446055  0.10258506  1
  O  O20  1  0.16078058  0.77396821  0.88322661  1
  O  O21  1  0.67917376  0.20468611  0.74562248  1
  O  O22  1  0.27323857  0.87034105  0.29853910  1
  O  O23  1  0.41242009  0.84966754  0.60133559  1
  O  O24  1  0.67385082  0.22020066  0.45142379  1
  O  O25  1  0.07315297  0.14498031  0.55010556  1
  O  O26  1  0.95034302  0.80492020  0.38491976  1
  O  O27  1  0.49178141  0.29322391  0.14532906  1
  O  O28  1  0.52181591  0.70795917  0.86839901  1
  O  O29  1  0.54334947  0.88176207  0.13947455  1
  O  O30  1  0.43509614  0.08482719  0.89738700  1
  O  O31  1  0.93417972  0.87617458  0.10235748  1
  O  O32  1  0.02691256  0.08703069  0.86610858  1
  O  O33  1  0.19783017  0.20689304  0.27383235  1
  O  O34  1  0.80126804  0.76335706  0.67243704  1
  O  O35  1  0.68171254  0.61536747  0.13735961  1
  O  O36  1  0.31974080  0.36036348  0.86776914  1
