# generated using pymatgen
data_SrCr(Si2O5)2
_symmetry_space_group_name_H-M   'P 1'
_cell_length_a   7.46077479
_cell_length_b   7.46077608
_cell_length_c   15.62882320
_cell_angle_alpha   90.00000000
_cell_angle_beta   90.00000000
_cell_angle_gamma   90.00000576
_symmetry_Int_Tables_number   1
_chemical_formula_structural   SrCr(Si2O5)2
_chemical_formula_sum   'Sr4 Cr4 Si16 O40'
_cell_volume   869.94984411
_cell_formula_units_Z   4
loop_
 _symmetry_equiv_pos_site_id
 _symmetry_equiv_pos_as_xyz
  1  'x, y, z'
loop_
 _atom_site_type_symbol
 _atom_site_label
 _atom_site_symmetry_multiplicity
 _atom_site_fract_x
 _atom_site_fract_y
 _atom_site_fract_z
 _atom_site_occupancy
  Sr  Sr0  1  0.50000000  0.50000000  0.49999997  1
  Sr  Sr1  1  -0.00000000  0.00000000  0.50000003  1
  Sr  Sr2  1  -0.00000000  0.00000000  0.99999999  1
  Sr  Sr3  1  0.50000000  0.50000000  0.00000001  1
  Cr  Cr4  1  0.50000000  0.00000000  0.58584637  1
  Cr  Cr5  1  -0.00000000  0.50000000  0.91421716  1
  Cr  Cr6  1  -0.00000000  0.50000000  0.41415363  1
  Cr  Cr7  1  0.50000000  0.00000000  0.08578284  1
  Si  Si8  1  0.17694096  0.25858064  0.65077633  1
  Si  Si9  1  0.82305904  0.74141936  0.65077633  1
  Si  Si10  1  0.25858054  0.17694257  0.84924045  1
  Si  Si11  1  0.75858062  0.32305904  0.65077637  1
  Si  Si12  1  0.24141938  0.67694096  0.65077637  1
  Si  Si13  1  0.32305727  0.75858041  0.84924050  1
  Si  Si14  1  0.67694273  0.24141959  0.84924050  1
  Si  Si15  1  0.74141946  0.82305743  0.84924045  1
  Si  Si16  1  0.32305904  0.24141936  0.34922367  1
  Si  Si17  1  0.67694096  0.75858064  0.34922367  1
  Si  Si18  1  0.24141946  0.32305743  0.15075955  1
  Si  Si19  1  0.74141938  0.17694096  0.34922363  1
  Si  Si20  1  0.25858062  0.82305904  0.34922363  1
  Si  Si21  1  0.17694273  0.74141959  0.15075950  1
  Si  Si22  1  0.82305727  0.25858041  0.15075950  1
  Si  Si23  1  0.75858054  0.67694257  0.15075955  1
  O  O24  1  0.26081606  0.11770478  0.58585962  1
  O  O25  1  0.73918394  0.88229522  0.58585962  1
  O  O26  1  0.11770494  0.26082737  0.91415992  1
  O  O27  1  0.61770461  0.23918395  0.58585956  1
  O  O28  1  0.38229539  0.76081605  0.58585956  1
  O  O29  1  0.23917258  0.61770510  0.91415986  1
  O  O30  1  0.76082742  0.38229490  0.91415986  1
  O  O31  1  0.88229506  0.73917263  0.91415992  1
  O  O32  1  0.23918394  0.38229522  0.41414038  1
  O  O33  1  0.76081606  0.61770478  0.41414038  1
  O  O34  1  0.38229506  0.23917263  0.08584008  1
  O  O35  1  0.88229539  0.26081605  0.41414044  1
  O  O36  1  0.11770461  0.73918395  0.41414044  1
  O  O37  1  0.26082742  0.88229490  0.08584014  1
  O  O38  1  0.73917258  0.11770510  0.08584014  1
  O  O39  1  0.25143958  0.03880662  0.36826720  1
  O  O40  1  0.61770494  0.76082737  0.08584008  1
  O  O41  1  0.75143958  0.53880662  0.63173280  1
  O  O42  1  0.46119414  0.24855581  0.86828848  1
  O  O43  1  0.96119353  0.25143941  0.63173283  1
  O  O44  1  0.03880647  0.74856059  0.63173283  1
  O  O45  1  0.25144394  0.96119436  0.86828845  1
  O  O46  1  0.74855606  0.03880564  0.86828845  1
  O  O47  1  0.53880586  0.75144419  0.86828848  1
  O  O48  1  0.71291862  0.71290916  0.24998735  1
  O  O49  1  0.78709110  0.21291830  0.24998739  1
  O  O50  1  0.21290890  0.78708170  0.24998739  1
  O  O51  1  0.28708138  0.28709084  0.24998735  1
  O  O52  1  0.78708138  0.78709084  0.75001265  1
  O  O53  1  0.71290890  0.28708170  0.75001261  1
  O  O54  1  0.28709110  0.71291830  0.75001261  1
  O  O55  1  0.21291862  0.21290916  0.75001265  1
  O  O56  1  0.96119414  0.74855581  0.13171152  1
  O  O57  1  0.75144394  0.46119436  0.13171155  1
  O  O58  1  0.24855606  0.53880564  0.13171155  1
  O  O59  1  0.46119353  0.75143941  0.36826717  1
  O  O60  1  0.53880647  0.24856059  0.36826717  1
  O  O61  1  0.03880586  0.25144419  0.13171152  1
  O  O62  1  0.74856042  0.96119338  0.36826720  1
  O  O63  1  0.24856042  0.46119338  0.63173280  1
