# generated using pymatgen
data_Tl3PS4
_symmetry_space_group_name_H-M   'P 1'
_cell_length_a   8.92149012
_cell_length_b   9.11273035
_cell_length_c   10.92168557
_cell_angle_alpha   90.00000000
_cell_angle_beta   90.00000000
_cell_angle_gamma   90.00000000
_symmetry_Int_Tables_number   1
_chemical_formula_structural   Tl3PS4
_chemical_formula_sum   'Tl12 P4 S16'
_cell_volume   887.92357630
_cell_formula_units_Z   4
loop_
 _symmetry_equiv_pos_site_id
 _symmetry_equiv_pos_as_xyz
  1  'x, y, z'
loop_
 _atom_site_type_symbol
 _atom_site_label
 _atom_site_symmetry_multiplicity
 _atom_site_fract_x
 _atom_site_fract_y
 _atom_site_fract_z
 _atom_site_occupancy
  Tl  Tl0  1  0.39222216  0.61009658  0.75000000  1
  Tl  Tl1  1  0.89222216  0.88990342  0.75000000  1
  Tl  Tl2  1  0.10777784  0.11009658  0.25000000  1
  Tl  Tl3  1  0.60777784  0.38990342  0.25000000  1
  Tl  Tl4  1  0.43788058  0.80229956  0.44905666  1
  Tl  Tl5  1  0.93788058  0.69770044  0.05094334  1
  Tl  Tl6  1  0.06211942  0.30229956  0.55094334  1
  Tl  Tl7  1  0.56211942  0.19770044  0.94905666  1
  Tl  Tl8  1  0.56211942  0.19770044  0.55094334  1
  Tl  Tl9  1  0.06211942  0.30229956  0.94905666  1
  Tl  Tl10  1  0.93788058  0.69770044  0.44905666  1
  Tl  Tl11  1  0.43788058  0.80229956  0.05094334  1
  P  P12  1  0.27923714  0.02832982  0.75000000  1
  P  P13  1  0.77923714  0.47167018  0.75000000  1
  P  P14  1  0.22076286  0.52832982  0.25000000  1
  P  P15  1  0.72076286  0.97167018  0.25000000  1
  S  S16  1  0.30213298  0.25402154  0.75000000  1
  S  S17  1  0.80213298  0.24597846  0.75000000  1
  S  S18  1  0.19786702  0.75402154  0.25000000  1
  S  S19  1  0.69786702  0.74597846  0.25000000  1
  S  S20  1  0.48977657  0.94054408  0.75000000  1
  S  S21  1  0.98977657  0.55945592  0.75000000  1
  S  S22  1  0.01022343  0.44054408  0.25000000  1
  S  S23  1  0.51022343  0.05945592  0.25000000  1
  S  S24  1  0.83585590  0.03296579  0.09677110  1
  S  S25  1  0.33585590  0.46703421  0.40322890  1
  S  S26  1  0.66414410  0.53296579  0.90322890  1
  S  S27  1  0.16414410  0.96703421  0.59677110  1
  S  S28  1  0.16414410  0.96703421  0.90322890  1
  S  S29  1  0.66414410  0.53296579  0.59677110  1
  S  S30  1  0.33585590  0.46703421  0.09677110  1
  S  S31  1  0.83585590  0.03296579  0.40322890  1
