# generated using pymatgen
data_BaHfN2
_symmetry_space_group_name_H-M   'P 1'
_cell_length_a   4.13241419
_cell_length_b   4.13241419
_cell_length_c   8.42759229
_cell_angle_alpha   90.00000000
_cell_angle_beta   90.00000000
_cell_angle_gamma   90.00000000
_symmetry_Int_Tables_number   1
_chemical_formula_structural   BaHfN2
_chemical_formula_sum   'Ba2 Hf2 N4'
_cell_volume   143.91670443
_cell_formula_units_Z   2
loop_
 _symmetry_equiv_pos_site_id
 _symmetry_equiv_pos_as_xyz
  1  'x, y, z'
loop_
 _atom_site_type_symbol
 _atom_site_label
 _atom_site_symmetry_multiplicity
 _atom_site_fract_x
 _atom_site_fract_y
 _atom_site_fract_z
 _atom_site_occupancy
  Ba  Ba0  1  0.75000000  0.75000000  0.15228486  1
  Ba  Ba1  1  0.25000000  0.25000000  0.84771514  1
  Hf  Hf2  1  0.25000000  0.25000000  0.41538643  1
  Hf  Hf3  1  0.75000000  0.75000000  0.58461357  1
  N  N4  1  0.75000000  0.75000000  0.81902593  1
  N  N5  1  0.25000000  0.25000000  0.18097407  1
  N  N6  1  0.75000000  0.25000000  0.50000000  1
  N  N7  1  0.25000000  0.75000000  0.50000000  1
