# generated using pymatgen
data_TmCuS2
_symmetry_space_group_name_H-M   'P 1'
_cell_length_a   3.89645470
_cell_length_b   6.19682420
_cell_length_c   13.20055955
_cell_angle_alpha   90.00000000
_cell_angle_beta   90.00000000
_cell_angle_gamma   90.00000000
_symmetry_Int_Tables_number   1
_chemical_formula_structural   TmCuS2
_chemical_formula_sum   'Tm4 Cu4 S8'
_cell_volume   318.73602178
_cell_formula_units_Z   4
loop_
 _symmetry_equiv_pos_site_id
 _symmetry_equiv_pos_as_xyz
  1  'x, y, z'
loop_
 _atom_site_type_symbol
 _atom_site_label
 _atom_site_symmetry_multiplicity
 _atom_site_fract_x
 _atom_site_fract_y
 _atom_site_fract_z
 _atom_site_occupancy
  Tm  Tm0  1  0.25036285  0.74892551  0.63425784  1
  Tm  Tm1  1  0.75036285  0.75107449  0.36574216  1
  Tm  Tm2  1  0.74963715  0.24892551  0.86574216  1
  Tm  Tm3  1  0.24963715  0.25107449  0.13425784  1
  Cu  Cu4  1  0.74494696  0.37144025  0.54392986  1
  Cu  Cu5  1  0.24494696  0.12855975  0.45607014  1
  Cu  Cu6  1  0.25505304  0.87144025  0.95607014  1
  Cu  Cu7  1  0.75505304  0.62855975  0.04392986  1
  S  S8  1  0.75042365  0.50966341  0.70475778  1
  S  S9  1  0.25042365  0.99033659  0.29524222  1
  S  S10  1  0.24957635  0.00966341  0.79524222  1
  S  S11  1  0.74957635  0.49033659  0.20475778  1
  S  S12  1  0.74880901  0.99294591  0.54022169  1
  S  S13  1  0.24880901  0.50705409  0.45977831  1
  S  S14  1  0.25119099  0.49294591  0.95977831  1
  S  S15  1  0.75119099  0.00705409  0.04022169  1
