# generated using pymatgen
data_CeSe2
_symmetry_space_group_name_H-M   'P 1'
_cell_length_a   15.06584635
_cell_length_b   15.55404213
_cell_length_c   15.55404260
_cell_angle_alpha   111.33640268
_cell_angle_beta   98.67401812
_cell_angle_gamma   98.67401837
_symmetry_Int_Tables_number   1
_chemical_formula_structural   CeSe2
_chemical_formula_sum   'Ce12 Se24'
_cell_volume   3271.40288348
_cell_formula_units_Z   12
loop_
 _symmetry_equiv_pos_site_id
 _symmetry_equiv_pos_as_xyz
  1  'x, y, z'
loop_
 _atom_site_type_symbol
 _atom_site_label
 _atom_site_symmetry_multiplicity
 _atom_site_fract_x
 _atom_site_fract_y
 _atom_site_fract_z
 _atom_site_occupancy
  Ce  Ce0  1  0.10703236  0.40407852  0.89154799  1
  Ce  Ce1  1  0.10703236  0.89154799  0.40407852  1
  Ce  Ce2  1  0.89296764  0.59592148  0.10845201  1
  Ce  Ce3  1  0.89296764  0.10845201  0.59592148  1
  Ce  Ce4  1  0.66796609  0.29433180  0.09404879  1
  Ce  Ce5  1  0.66796609  0.09404879  0.29433180  1
  Ce  Ce6  1  0.33203391  0.70566820  0.90595121  1
  Ce  Ce7  1  0.33203391  0.90595121  0.70566820  1
  Ce  Ce8  1  0.30941753  0.20026101  0.99837291  1
  Ce  Ce9  1  0.30941753  0.99837291  0.20026101  1
  Ce  Ce10  1  0.69058247  0.79973899  0.00162709  1
  Ce  Ce11  1  0.69058247  0.00162709  0.79973899  1
  Se  Se12  1  1.00000000  0.27823806  0.72176194  1
  Se  Se13  1  0.00000000  0.72176194  0.27823806  1
  Se  Se14  1  0.77580714  0.46946301  0.14487622  1
  Se  Se15  1  0.77580714  0.14487622  0.46946301  1
  Se  Se16  1  0.22419286  0.53053699  0.85512378  1
  Se  Se17  1  0.22419286  0.85512378  0.53053699  1
  Se  Se18  1  0.26806505  0.12020088  0.12020088  1
  Se  Se19  1  0.73193495  0.87979912  0.87979912  1
  Se  Se20  1  0.19650760  0.32025054  0.99280943  1
  Se  Se21  1  0.19650760  0.99280943  0.32025054  1
  Se  Se22  1  0.80349240  0.67974946  0.00719057  1
  Se  Se23  1  0.80349240  0.00719057  0.67974946  1
  Se  Se24  1  0.28212111  0.06096095  0.82209042  1
  Se  Se25  1  0.28212111  0.82209042  0.06096095  1
  Se  Se26  1  0.71787889  0.93903905  0.17790958  1
  Se  Se27  1  0.71787889  0.17790958  0.93903905  1
  Se  Se28  1  0.48703383  0.30157567  0.05637855  1
  Se  Se29  1  0.48703383  0.05637855  0.30157567  1
  Se  Se30  1  0.51296617  0.69842433  0.94362145  1
  Se  Se31  1  0.51296617  0.94362145  0.69842433  1
  Se  Se32  1  -0.00000000  0.50000000  -0.00000000  1
  Se  Se33  1  -0.00000000  -0.00000000  0.50000000  1
  Se  Se34  1  0.71192680  0.23828273  0.23828273  1
  Se  Se35  1  0.28807320  0.76171727  0.76171727  1
