# generated using pymatgen
data_Sm3Sc2(FeO4)3
_symmetry_space_group_name_H-M   'P 1'
_cell_length_a   11.08289926
_cell_length_b   11.08289926
_cell_length_c   11.08289926
_cell_angle_alpha   109.47122063
_cell_angle_beta   109.47122063
_cell_angle_gamma   109.47122063
_symmetry_Int_Tables_number   1
_chemical_formula_structural   Sm3Sc2(FeO4)3
_chemical_formula_sum   'Sm12 Sc8 Fe12 O48'
_cell_volume   1047.94445973
_cell_formula_units_Z   4
loop_
 _symmetry_equiv_pos_site_id
 _symmetry_equiv_pos_as_xyz
  1  'x, y, z'
loop_
 _atom_site_type_symbol
 _atom_site_label
 _atom_site_symmetry_multiplicity
 _atom_site_fract_x
 _atom_site_fract_y
 _atom_site_fract_z
 _atom_site_occupancy
  Sm  Sm0  1  0.87500000  0.62500000  0.75000000  1
  Sm  Sm1  1  0.12500000  0.37500000  0.25000000  1
  Sm  Sm2  1  0.62500000  0.87500000  0.25000000  1
  Sm  Sm3  1  0.62500000  0.75000000  0.87500000  1
  Sm  Sm4  1  0.87500000  0.25000000  0.62500000  1
  Sm  Sm5  1  0.37500000  0.12500000  0.75000000  1
  Sm  Sm6  1  0.37500000  0.25000000  0.12500000  1
  Sm  Sm7  1  0.12500000  0.75000000  0.37500000  1
  Sm  Sm8  1  0.75000000  0.87500000  0.62500000  1
  Sm  Sm9  1  0.25000000  0.12500000  0.37500000  1
  Sm  Sm10  1  0.25000000  0.62500000  0.87500000  1
  Sm  Sm11  1  0.75000000  0.37500000  0.12500000  1
  Sc  Sc12  1  -0.00000000  -0.00000000  -0.00000000  1
  Sc  Sc13  1  0.50000000  -0.00000000  0.50000000  1
  Sc  Sc14  1  0.50000000  0.50000000  -0.00000000  1
  Sc  Sc15  1  -0.00000000  -0.00000000  0.50000000  1
  Sc  Sc16  1  -0.00000000  0.50000000  0.50000000  1
  Sc  Sc17  1  0.50000000  0.50000000  0.50000000  1
  Sc  Sc18  1  0.50000000  -0.00000000  -0.00000000  1
  Sc  Sc19  1  -0.00000000  0.50000000  -0.00000000  1
  Fe  Fe20  1  0.62500000  0.37500000  0.75000000  1
  Fe  Fe21  1  0.37500000  0.62500000  0.25000000  1
  Fe  Fe22  1  0.87500000  0.12500000  0.25000000  1
  Fe  Fe23  1  0.37500000  0.75000000  0.62500000  1
  Fe  Fe24  1  0.62500000  0.25000000  0.37500000  1
  Fe  Fe25  1  0.12500000  0.87500000  0.75000000  1
  Fe  Fe26  1  0.12500000  0.25000000  0.87500000  1
  Fe  Fe27  1  0.87500000  0.75000000  0.12500000  1
  Fe  Fe28  1  0.75000000  0.62500000  0.37500000  1
  Fe  Fe29  1  0.25000000  0.37500000  0.62500000  1
  Fe  Fe30  1  0.25000000  0.87500000  0.12500000  1
  Fe  Fe31  1  0.75000000  0.12500000  0.87500000  1
  O  O32  1  0.71003277  0.62533496  0.52924401  1
  O  O33  1  0.28996723  0.37466504  0.47075599  1
  O  O34  1  0.78996723  0.81921124  0.41530219  1
  O  O35  1  0.40390906  0.87466504  0.08469781  1
  O  O36  1  0.62533496  0.52924401  0.71003277  1
  O  O37  1  0.71003277  0.08469781  0.68078876  1
  O  O38  1  0.21003277  0.18078876  0.58469781  1
  O  O39  1  0.59609094  0.12533496  0.91530219  1
  O  O40  1  0.37466504  0.47075599  0.28996723  1
  O  O41  1  0.28996723  0.91530219  0.31921124  1
  O  O42  1  0.09609094  0.68078876  0.97075599  1
  O  O43  1  0.81921124  0.41530219  0.78996723  1
  O  O44  1  0.78996723  0.97075599  0.87466504  1
  O  O45  1  0.90390906  0.31921124  0.02924401  1
  O  O46  1  0.18078876  0.58469781  0.21003277  1
  O  O47  1  0.21003277  0.02924401  0.12533496  1
  O  O48  1  0.87466504  0.08469781  0.40390906  1
  O  O49  1  0.40390906  0.52924401  0.81921124  1
  O  O50  1  0.12533496  0.91530219  0.59609094  1
  O  O51  1  0.59609094  0.47075599  0.18078876  1
  O  O52  1  0.68078876  0.97075599  0.09609094  1
  O  O53  1  0.09609094  0.41530219  0.62533496  1
  O  O54  1  0.31921124  0.02924401  0.90390906  1
  O  O55  1  0.90390906  0.58469781  0.37466504  1
  O  O56  1  0.52924401  0.71003277  0.62533496  1
  O  O57  1  0.62533496  0.09609094  0.41530219  1
  O  O58  1  0.47075599  0.28996723  0.37466504  1
  O  O59  1  0.37466504  0.90390906  0.58469781  1
  O  O60  1  0.08469781  0.40390906  0.87466504  1
  O  O61  1  0.87466504  0.78996723  0.97075599  1
  O  O62  1  0.91530219  0.59609094  0.12533496  1
  O  O63  1  0.12533496  0.21003277  0.02924401  1
  O  O64  1  0.97075599  0.09609094  0.68078876  1
  O  O65  1  0.68078876  0.71003277  0.08469781  1
  O  O66  1  0.02924401  0.90390906  0.31921124  1
  O  O67  1  0.31921124  0.28996723  0.91530219  1
  O  O68  1  0.41530219  0.78996723  0.81921124  1
  O  O69  1  0.81921124  0.40390906  0.52924401  1
  O  O70  1  0.58469781  0.21003277  0.18078876  1
  O  O71  1  0.18078876  0.59609094  0.47075599  1
  O  O72  1  0.08469781  0.68078876  0.71003277  1
  O  O73  1  0.91530219  0.31921124  0.28996723  1
  O  O74  1  0.97075599  0.87466504  0.78996723  1
  O  O75  1  0.02924401  0.12533496  0.21003277  1
  O  O76  1  0.41530219  0.62533496  0.09609094  1
  O  O77  1  0.58469781  0.37466504  0.90390906  1
  O  O78  1  0.52924401  0.81921124  0.40390906  1
  O  O79  1  0.47075599  0.18078876  0.59609094  1
