# generated using pymatgen
data_MgTe(BrO)6
_symmetry_space_group_name_H-M   'P 1'
_cell_length_a   10.96229440
_cell_length_b   10.96229440
_cell_length_c   10.96229440
_cell_angle_alpha   90.00000000
_cell_angle_beta   90.00000000
_cell_angle_gamma   90.00000000
_symmetry_Int_Tables_number   1
_chemical_formula_structural   MgTe(BrO)6
_chemical_formula_sum   'Mg4 Te4 Br24 O24'
_cell_volume   1317.35973010
_cell_formula_units_Z   4
loop_
 _symmetry_equiv_pos_site_id
 _symmetry_equiv_pos_as_xyz
  1  'x, y, z'
loop_
 _atom_site_type_symbol
 _atom_site_label
 _atom_site_symmetry_multiplicity
 _atom_site_fract_x
 _atom_site_fract_y
 _atom_site_fract_z
 _atom_site_occupancy
  Mg  Mg0  1  0.00000000  0.00000000  0.50000000  1
  Mg  Mg1  1  0.00000000  0.50000000  0.00000000  1
  Mg  Mg2  1  0.50000000  0.00000000  0.00000000  1
  Mg  Mg3  1  0.50000000  0.50000000  0.50000000  1
  Te  Te4  1  0.50000000  0.50000000  0.00000000  1
  Te  Te5  1  0.50000000  0.00000000  0.50000000  1
  Te  Te6  1  0.00000000  0.50000000  0.50000000  1
  Te  Te7  1  0.00000000  0.00000000  0.00000000  1
  Br  Br8  1  0.53048245  0.72494316  0.15206684  1
  Br  Br9  1  0.46951755  0.22494316  0.34793316  1
  Br  Br10  1  0.96951755  0.27505684  0.65206684  1
  Br  Br11  1  0.03048245  0.77505684  0.84793316  1
  Br  Br12  1  0.15206684  0.53048245  0.72494316  1
  Br  Br13  1  0.34793316  0.46951755  0.22494316  1
  Br  Br14  1  0.65206684  0.96951755  0.27505684  1
  Br  Br15  1  0.84793316  0.03048245  0.77505684  1
  Br  Br16  1  0.72494316  0.15206684  0.53048245  1
  Br  Br17  1  0.22494316  0.34793316  0.46951755  1
  Br  Br18  1  0.27505684  0.65206684  0.96951755  1
  Br  Br19  1  0.77505684  0.84793316  0.03048245  1
  Br  Br20  1  0.46951755  0.27505684  0.84793316  1
  Br  Br21  1  0.53048245  0.77505684  0.65206684  1
  Br  Br22  1  0.03048245  0.72494316  0.34793316  1
  Br  Br23  1  0.96951755  0.22494316  0.15206684  1
  Br  Br24  1  0.84793316  0.46951755  0.27505684  1
  Br  Br25  1  0.65206684  0.53048245  0.77505684  1
  Br  Br26  1  0.34793316  0.03048245  0.72494316  1
  Br  Br27  1  0.15206684  0.96951755  0.22494316  1
  Br  Br28  1  0.27505684  0.84793316  0.46951755  1
  Br  Br29  1  0.77505684  0.65206684  0.53048245  1
  Br  Br30  1  0.72494316  0.34793316  0.03048245  1
  Br  Br31  1  0.22494316  0.15206684  0.96951755  1
  O  O32  1  0.43795863  0.65475755  0.60073513  1
  O  O33  1  0.56204137  0.15475755  0.89926487  1
  O  O34  1  0.06204137  0.34524245  0.10073513  1
  O  O35  1  0.93795863  0.84524245  0.39926487  1
  O  O36  1  0.60073513  0.43795863  0.65475755  1
  O  O37  1  0.89926487  0.56204137  0.15475755  1
  O  O38  1  0.10073513  0.06204137  0.34524245  1
  O  O39  1  0.39926487  0.93795863  0.84524245  1
  O  O40  1  0.65475755  0.60073513  0.43795863  1
  O  O41  1  0.15475755  0.89926487  0.56204137  1
  O  O42  1  0.34524245  0.10073513  0.06204137  1
  O  O43  1  0.84524245  0.39926487  0.93795863  1
  O  O44  1  0.56204137  0.34524245  0.39926487  1
  O  O45  1  0.43795863  0.84524245  0.10073513  1
  O  O46  1  0.93795863  0.65475755  0.89926487  1
  O  O47  1  0.06204137  0.15475755  0.60073513  1
  O  O48  1  0.39926487  0.56204137  0.34524245  1
  O  O49  1  0.10073513  0.43795863  0.84524245  1
  O  O50  1  0.89926487  0.93795863  0.65475755  1
  O  O51  1  0.60073513  0.06204137  0.15475755  1
  O  O52  1  0.34524245  0.39926487  0.56204137  1
  O  O53  1  0.84524245  0.10073513  0.43795863  1
  O  O54  1  0.65475755  0.89926487  0.93795863  1
  O  O55  1  0.15475755  0.60073513  0.06204137  1
