# generated using pymatgen
data_In2O3
_symmetry_space_group_name_H-M   'P 1'
_cell_length_a   5.52750049
_cell_length_b   5.70446195
_cell_length_c   15.97001531
_cell_angle_alpha   90.00000000
_cell_angle_beta   90.00000000
_cell_angle_gamma   90.00000000
_symmetry_Int_Tables_number   1
_chemical_formula_structural   In2O3
_chemical_formula_sum   'In16 O24'
_cell_volume   503.55719984
_cell_formula_units_Z   8
loop_
 _symmetry_equiv_pos_site_id
 _symmetry_equiv_pos_as_xyz
  1  'x, y, z'
loop_
 _atom_site_type_symbol
 _atom_site_label
 _atom_site_symmetry_multiplicity
 _atom_site_fract_x
 _atom_site_fract_y
 _atom_site_fract_z
 _atom_site_occupancy
  In  In0  1  0.49996601  0.79601542  0.57056865  1
  In  In1  1  -0.00003399  0.70398458  0.42943135  1
  In  In2  1  0.50003399  0.29601542  0.92943135  1
  In  In3  1  0.00003399  0.20398458  0.07056865  1
  In  In4  1  0.50003399  0.20398458  0.42943135  1
  In  In5  1  0.00003399  0.29601542  0.57056865  1
  In  In6  1  0.49996601  0.70398458  0.07056865  1
  In  In7  1  -0.00003399  0.79601542  0.92943135  1
  In  In8  1  0.49772964  0.74191719  0.81820684  1
  In  In9  1  0.99772964  0.75808281  0.18179316  1
  In  In10  1  0.50227036  0.24191719  0.68179316  1
  In  In11  1  0.00227036  0.25808281  0.31820684  1
  In  In12  1  0.50227036  0.25808281  0.18179316  1
  In  In13  1  0.00227036  0.24191719  0.81820684  1
  In  In14  1  0.49772964  0.75808281  0.31820684  1
  In  In15  1  0.99772964  0.74191719  0.68179316  1
  O  O16  1  0.85921642  0.87678445  0.79816420  1
  O  O17  1  0.35921642  0.62321555  0.20183580  1
  O  O18  1  0.14078358  0.37678445  0.70183580  1
  O  O19  1  0.64078358  0.12321555  0.29816420  1
  O  O20  1  0.14078358  0.12321555  0.20183580  1
  O  O21  1  0.64078358  0.37678445  0.79816420  1
  O  O22  1  0.85921642  0.62321555  0.29816420  1
  O  O23  1  0.35921642  0.87678445  0.70183580  1
  O  O24  1  0.70575600  0.52307380  0.62452194  1
  O  O25  1  0.20575600  0.97692620  0.37547806  1
  O  O26  1  0.29424400  0.02307380  0.87547806  1
  O  O27  1  0.79424400  0.47692620  0.12452194  1
  O  O28  1  0.29424400  0.47692620  0.37547806  1
  O  O29  1  0.79424400  0.02307380  0.62452194  1
  O  O30  1  0.70575600  0.97692620  0.12452194  1
  O  O31  1  0.20575600  0.52307380  0.87547806  1
  O  O32  1  0.64698836  0.65780482  0.94763175  1
  O  O33  1  0.14698836  0.84219518  0.05236825  1
  O  O34  1  0.35301164  0.15780482  0.55236825  1
  O  O35  1  0.85301164  0.34219518  0.44763175  1
  O  O36  1  0.35301164  0.34219518  0.05236825  1
  O  O37  1  0.85301164  0.15780482  0.94763175  1
  O  O38  1  0.64698836  0.84219518  0.44763175  1
  O  O39  1  0.14698836  0.65780482  0.55236825  1
