# generated using pymatgen
data_TaTlCl6
_symmetry_space_group_name_H-M   'P 1'
_cell_length_a   6.71945144
_cell_length_b   6.71945144
_cell_length_c   11.99780068
_cell_angle_alpha   79.75547407
_cell_angle_beta   79.75547407
_cell_angle_gamma   55.55806188
_symmetry_Int_Tables_number   1
_chemical_formula_structural   TaTlCl6
_chemical_formula_sum   'Ta2 Tl2 Cl12'
_cell_volume   437.63147532
_cell_formula_units_Z   2
loop_
 _symmetry_equiv_pos_site_id
 _symmetry_equiv_pos_as_xyz
  1  'x, y, z'
loop_
 _atom_site_type_symbol
 _atom_site_label
 _atom_site_symmetry_multiplicity
 _atom_site_fract_x
 _atom_site_fract_y
 _atom_site_fract_z
 _atom_site_occupancy
  Ta  Ta0  1  0.50000000  -0.00000000  0.50000000  1
  Ta  Ta1  1  0.00000000  0.50000000  0.00000000  1
  Tl  Tl2  1  0.91935841  0.08064159  0.75000000  1
  Tl  Tl3  1  0.08064159  0.91935841  0.25000000  1
  Cl  Cl4  1  0.47512545  0.68251034  0.60635544  1
  Cl  Cl5  1  0.52487455  0.31748966  0.39364456  1
  Cl  Cl6  1  0.31748966  0.52487455  0.89364456  1
  Cl  Cl7  1  0.68251034  0.47512545  0.10635544  1
  Cl  Cl8  1  0.38209857  0.19362926  0.66776919  1
  Cl  Cl9  1  0.61790143  0.80637074  0.33223081  1
  Cl  Cl10  1  0.80636974  0.61790143  0.83223081  1
  Cl  Cl11  1  0.19362926  0.38209857  0.16776919  1
  Cl  Cl12  1  0.79370713  0.91119885  0.03236213  1
  Cl  Cl13  1  0.20629287  0.08880115  0.96763787  1
  Cl  Cl14  1  0.08880115  0.20629287  0.46763787  1
  Cl  Cl15  1  0.91119885  0.79370713  0.53236213  1
