# generated using pymatgen
data_NaMg14BO15
_symmetry_space_group_name_H-M   'P 1'
_cell_length_a   8.70194813
_cell_length_b   8.26205380
_cell_length_c   4.32544319
_cell_angle_alpha   90.00000000
_cell_angle_beta   90.00000000
_cell_angle_gamma   90.00000000
_symmetry_Int_Tables_number   1
_chemical_formula_structural   NaMg14BO15
_chemical_formula_sum   'Na1 Mg14 B1 O15'
_cell_volume   310.98190621
_cell_formula_units_Z   1
loop_
 _symmetry_equiv_pos_site_id
 _symmetry_equiv_pos_as_xyz
  1  'x, y, z'
loop_
 _atom_site_type_symbol
 _atom_site_label
 _atom_site_symmetry_multiplicity
 _atom_site_fract_x
 _atom_site_fract_y
 _atom_site_fract_z
 _atom_site_occupancy
  Na  Na0  1  0.99671796  -0.00000000  -0.00000000  1
  Mg  Mg1  1  0.49815017  -0.00000000  -0.00000000  1
  Mg  Mg2  1  0.50220463  0.50000000  -0.00000000  1
  Mg  Mg3  1  0.99990134  0.25925339  0.50000000  1
  Mg  Mg4  1  0.99990134  0.74074661  0.50000000  1
  Mg  Mg5  1  0.49709247  0.24989488  0.50000000  1
  Mg  Mg6  1  0.49709247  0.75010512  0.50000000  1
  Mg  Mg7  1  0.24389568  -0.00000000  0.50000000  1
  Mg  Mg8  1  0.24317321  0.50000000  0.50000000  1
  Mg  Mg9  1  0.75229673  -0.00000000  0.50000000  1
  Mg  Mg10  1  0.75984079  0.50000000  0.50000000  1
  Mg  Mg11  1  0.25032650  0.24812910  0.00000000  1
  Mg  Mg12  1  0.25032650  0.75187090  -0.00000000  1
  Mg  Mg13  1  0.74458104  0.25808449  -0.00000000  1
  Mg  Mg14  1  0.74458104  0.74191551  -0.00000000  1
  B  B15  1  0.06066054  0.50000000  -0.00000000  1
  O  O16  1  0.25600268  -0.00000000  -0.00000000  1
  O  O17  1  0.73793616  -0.00000000  -0.00000000  1
  O  O18  1  0.72707640  0.50000000  -0.00000000  1
  O  O19  1  0.24576566  0.25086818  0.50000000  1
  O  O20  1  0.24576566  0.74913182  0.50000000  1
  O  O21  1  0.75266389  0.25154626  0.50000000  1
  O  O22  1  0.75266389  0.74845374  0.50000000  1
  O  O23  1  0.99899188  -0.00000000  0.50000000  1
  O  O24  1  0.00869627  0.50000000  0.50000000  1
  O  O25  1  0.49798660  -0.00000000  0.50000000  1
  O  O26  1  0.48589166  0.50000000  0.50000000  1
  O  O27  1  0.00828400  0.32761454  -0.00000000  1
  O  O28  1  0.00828400  0.67238546  -0.00000000  1
  O  O29  1  0.49162443  0.25282543  -0.00000000  1
  O  O30  1  0.49162443  0.74717457  -0.00000000  1
