# generated using pymatgen
data_NdCrO3
_symmetry_space_group_name_H-M   'P 1'
_cell_length_a   5.42096311
_cell_length_b   5.53422111
_cell_length_c   7.71471539
_cell_angle_alpha   90.00000000
_cell_angle_beta   90.00000000
_cell_angle_gamma   89.99997866
_symmetry_Int_Tables_number   1
_chemical_formula_structural   NdCrO3
_chemical_formula_sum   'Nd4 Cr4 O12'
_cell_volume   231.44769889
_cell_formula_units_Z   4
loop_
 _symmetry_equiv_pos_site_id
 _symmetry_equiv_pos_as_xyz
  1  'x, y, z'
loop_
 _atom_site_type_symbol
 _atom_site_label
 _atom_site_symmetry_multiplicity
 _atom_site_fract_x
 _atom_site_fract_y
 _atom_site_fract_z
 _atom_site_occupancy
  Nd  Nd0  1  0.48878495  0.45146574  0.74999900  1
  Nd  Nd1  1  0.98878395  0.04853226  0.24999900  1
  Nd  Nd2  1  0.01121505  0.95146674  0.74999900  1
  Nd  Nd3  1  0.51121705  0.54853226  0.24999900  1
  Cr  Cr4  1  0.50000000  -0.00000000  0.50000000  1
  Cr  Cr5  1  0.00000000  0.50000000  0.50000000  1
  Cr  Cr6  1  0.00000000  0.50000000  -0.00000000  1
  Cr  Cr7  1  0.50000000  -0.00000000  -0.00000000  1
  O  O8  1  0.70834180  0.29092246  0.45564430  1
  O  O9  1  0.20834180  0.20907854  0.54435570  1
  O  O10  1  0.79165720  0.79092246  0.04435570  1
  O  O11  1  0.29165820  0.70907754  0.95564430  1
  O  O12  1  0.29165820  0.70907754  0.54435570  1
  O  O13  1  0.79165720  0.79092246  0.45564430  1
  O  O14  1  0.20834180  0.20907854  0.95564430  1
  O  O15  1  0.70834180  0.29092246  0.04435570  1
  O  O16  1  0.41674309  0.97996908  0.24999900  1
  O  O17  1  0.91674209  0.52003192  0.74999900  1
  O  O18  1  0.58325891  0.02003192  0.74999900  1
  O  O19  1  0.08325791  0.47996908  0.24999900  1
