# generated using pymatgen
data_Na5Lu(SiO3)4
_symmetry_space_group_name_H-M   'P 1'
_cell_length_a   13.52766755
_cell_length_b   13.52766622
_cell_length_c   13.52766607
_cell_angle_alpha   110.66087015
_cell_angle_beta   110.66086660
_cell_angle_gamma   110.66086445
_symmetry_Int_Tables_number   1
_chemical_formula_structural   Na5Lu(SiO3)4
_chemical_formula_sum   'Na30 Lu6 Si24 O72'
_cell_volume   1816.89480997
_cell_formula_units_Z   6
loop_
 _symmetry_equiv_pos_site_id
 _symmetry_equiv_pos_as_xyz
  1  'x, y, z'
loop_
 _atom_site_type_symbol
 _atom_site_label
 _atom_site_symmetry_multiplicity
 _atom_site_fract_x
 _atom_site_fract_y
 _atom_site_fract_z
 _atom_site_occupancy
  Na  Na0  1  0.58807029  0.68974226  0.17072727  1
  Na  Na1  1  0.83124043  0.35904122  0.86578135  1
  Na  Na2  1  0.35904122  0.86578135  0.83124043  1
  Na  Na3  1  0.25529285  0.25529285  0.25529285  1
  Na  Na4  1  0.65782831  0.65437565  0.46550550  1
  Na  Na5  1  0.31025774  0.41192971  0.82927273  1
  Na  Na6  1  0.00000000  0.71727791  0.28272209  1
  Na  Na7  1  0.13421865  0.64095878  0.16875957  1
  Na  Na8  1  0.81716749  0.82548931  0.03253630  1
  Na  Na9  1  0.46550550  0.65782831  0.65437565  1
  Na  Na10  1  0.17451069  0.18283251  0.96746370  1
  Na  Na11  1  0.64095878  0.16875957  0.13421865  1
  Na  Na12  1  0.18283251  0.96746370  0.17451069  1
  Na  Na13  1  0.96746370  0.17451069  0.18283251  1
  Na  Na14  1  0.34217169  0.53449450  0.34562435  1
  Na  Na15  1  0.65437565  0.46550550  0.65782831  1
  Na  Na16  1  0.16875957  0.13421865  0.64095878  1
  Na  Na17  1  0.82548931  0.03253630  0.81716749  1
  Na  Na18  1  0.53449450  0.34562435  0.34217169  1
  Na  Na19  1  0.68974226  0.17072727  0.58807029  1
  Na  Na20  1  0.17072727  0.58807029  0.68974226  1
  Na  Na21  1  0.82927273  0.31025774  0.41192971  1
  Na  Na22  1  0.28272209  1.00000000  0.71727791  1
  Na  Na23  1  0.71727791  0.28272209  0.00000000  1
  Na  Na24  1  0.41192971  0.82927273  0.31025774  1
  Na  Na25  1  0.86578135  0.83124043  0.35904122  1
  Na  Na26  1  0.34562435  0.34217169  0.53449450  1
  Na  Na27  1  -0.00000000  -0.00000000  -0.00000000  1
  Na  Na28  1  0.74470715  0.74470715  0.74470715  1
  Na  Na29  1  0.03253630  0.81716749  0.82548931  1
  Lu  Lu30  1  0.00000000  0.25036360  0.74963640  1
  Lu  Lu31  1  0.25222814  0.74777186  0.50000000  1
  Lu  Lu32  1  0.74777186  0.50000000  0.25222814  1
  Lu  Lu33  1  0.50000000  0.25222814  0.74777186  1
  Lu  Lu34  1  0.74963640  1.00000000  0.25036360  1
  Lu  Lu35  1  0.25036360  0.74963640  0.00000000  1
  Si  Si36  1  0.81799882  0.53857703  0.54248902  1
  Si  Si37  1  0.51101496  0.05934250  0.25442657  1
  Si  Si38  1  0.74557343  0.94065750  0.48898504  1
  Si  Si39  1  0.03592452  0.31350004  0.04241158  1
  Si  Si40  1  0.54248902  0.81799882  0.53857703  1
  Si  Si41  1  0.94065750  0.48898504  0.74557343  1
  Si  Si42  1  0.53857703  0.54248902  0.81799882  1
  Si  Si43  1  0.75565777  0.55713420  0.01528430  1
  Si  Si44  1  0.25442657  0.51101496  0.05934250  1
  Si  Si45  1  0.95758842  0.68649996  0.96407548  1
  Si  Si46  1  0.31350004  0.04241158  0.03592452  1
  Si  Si47  1  0.68649996  0.96407548  0.95758842  1
  Si  Si48  1  0.05934250  0.25442657  0.51101496  1
  Si  Si49  1  0.44286580  0.24434223  0.98471570  1
  Si  Si50  1  0.55713420  0.01528430  0.75565777  1
  Si  Si51  1  0.96407548  0.95758842  0.68649996  1
  Si  Si52  1  0.04241158  0.03592452  0.31350004  1
  Si  Si53  1  0.01528430  0.75565777  0.55713420  1
  Si  Si54  1  0.24434223  0.98471570  0.44286580  1
  Si  Si55  1  0.98471570  0.44286580  0.24434223  1
  Si  Si56  1  0.18200118  0.45751098  0.46142297  1
  Si  Si57  1  0.46142297  0.18200118  0.45751098  1
  Si  Si58  1  0.45751098  0.46142297  0.18200118  1
  Si  Si59  1  0.48898504  0.74557343  0.94065750  1
  O  O60  1  0.78100914  0.93495417  0.92613943  1
  O  O61  1  0.95015788  0.25459511  0.89193398  1
  O  O62  1  0.33091356  0.04281844  0.39161635  1
  O  O63  1  0.91454424  0.69506328  0.41009865  1
  O  O64  1  0.10091181  0.95536263  0.35459841  1
  O  O65  1  0.21899086  0.07386057  0.06504583  1
  O  O66  1  0.92613943  0.78100914  0.93495417  1
  O  O67  1  0.11523634  0.17120045  0.45336651  1
  O  O68  1  0.64530333  0.09382786  0.26959499  1
  O  O69  1  0.09382786  0.26959499  0.64530333  1
  O  O70  1  0.26959499  0.64530333  0.09382786  1
  O  O71  1  0.39075294  0.75170089  0.44776143  1
  O  O72  1  0.80957380  0.08618246  0.59361547  1
  O  O73  1  0.95536263  0.35459841  0.10091181  1
  O  O74  1  0.54663349  0.82879955  0.88476366  1
  O  O75  1  0.40702410  0.21969163  0.84747987  1
  O  O76  1  0.57900916  0.72976960  0.57438133  1
  O  O77  1  0.60838365  0.95718156  0.66908644  1
  O  O78  1  0.60924706  0.55223857  0.24829911  1
  O  O79  1  0.55223857  0.24829911  0.60924706  1
  O  O80  1  0.25459511  0.89193398  0.95015788  1
  O  O81  1  0.54340270  0.14451820  0.39944003  1
  O  O82  1  0.64540159  0.04463737  0.89908819  1
  O  O83  1  0.35459841  0.10091181  0.95536263  1
  O  O84  1  0.84747987  0.40702410  0.21969163  1
  O  O85  1  0.59297590  0.15252013  0.78030837  1
  O  O86  1  0.39944003  0.54340270  0.14451820  1
  O  O87  1  0.72976960  0.57438133  0.57900916  1
  O  O88  1  0.44776143  0.39075294  0.75170089  1
  O  O89  1  0.04463737  0.89908819  0.64540159  1
  O  O90  1  0.15252013  0.78030837  0.59297590  1
  O  O91  1  0.82879955  0.88476366  0.54663349  1
  O  O92  1  0.73040501  0.90617214  0.35469667  1
  O  O93  1  0.35469667  0.73040501  0.90617214  1
  O  O94  1  0.27023040  0.42099084  0.42561867  1
  O  O95  1  0.75170089  0.44776143  0.39075294  1
  O  O96  1  0.90617214  0.35469667  0.73040501  1
  O  O97  1  0.58990135  0.30493672  0.08545576  1
  O  O98  1  0.40638453  0.91381754  0.19042620  1
  O  O99  1  0.41009865  0.91454424  0.69506328  1
  O  O100  1  0.21969163  0.84747987  0.40702410  1
  O  O101  1  0.74540489  0.04984212  0.10806602  1
  O  O102  1  0.78030837  0.59297590  0.15252013  1
  O  O103  1  0.42099084  0.42561867  0.27023040  1
  O  O104  1  0.95718156  0.66908644  0.60838365  1
  O  O105  1  0.88476366  0.54663349  0.82879955  1
  O  O106  1  0.07386057  0.06504583  0.21899086  1
  O  O107  1  0.30493672  0.08545576  0.58990135  1
  O  O108  1  0.59361547  0.80957380  0.08618246  1
  O  O109  1  0.66908644  0.60838365  0.95718156  1
  O  O110  1  0.69506328  0.41009865  0.91454424  1
  O  O111  1  0.10806602  0.74540489  0.04984212  1
  O  O112  1  0.45336651  0.11523634  0.17120045  1
  O  O113  1  0.08545576  0.58990135  0.30493672  1
  O  O114  1  0.17120045  0.45336651  0.11523634  1
  O  O115  1  0.57438133  0.57900916  0.72976960  1
  O  O116  1  0.89908819  0.64540159  0.04463737  1
  O  O117  1  0.42561867  0.27023040  0.42099084  1
  O  O118  1  0.04281844  0.39161635  0.33091356  1
  O  O119  1  0.08618246  0.59361547  0.80957380  1
  O  O120  1  0.04984212  0.10806602  0.74540489  1
  O  O121  1  0.24829911  0.60924706  0.55223857  1
  O  O122  1  0.06504583  0.21899086  0.07386057  1
  O  O123  1  0.19042620  0.40638453  0.91381754  1
  O  O124  1  0.39161635  0.33091356  0.04281844  1
  O  O125  1  0.60055997  0.85548180  0.45659730  1
  O  O126  1  0.14451820  0.39944003  0.54340270  1
  O  O127  1  0.91381754  0.19042620  0.40638453  1
  O  O128  1  0.45659730  0.60055997  0.85548180  1
  O  O129  1  0.85548180  0.45659730  0.60055997  1
  O  O130  1  0.89193398  0.95015788  0.25459511  1
  O  O131  1  0.93495417  0.92613943  0.78100914  1
