# generated using pymatgen
data_SrV4O9
_symmetry_space_group_name_H-M   'P 1'
_cell_length_a   8.34646893
_cell_length_b   8.34649032
_cell_length_c   5.32009935
_cell_angle_alpha   90.00001464
_cell_angle_beta   89.99947189
_cell_angle_gamma   90.00025207
_symmetry_Int_Tables_number   1
_chemical_formula_structural   SrV4O9
_chemical_formula_sum   'Sr2 V8 O18'
_cell_volume   370.61792282
_cell_formula_units_Z   2
loop_
 _symmetry_equiv_pos_site_id
 _symmetry_equiv_pos_as_xyz
  1  'x, y, z'
loop_
 _atom_site_type_symbol
 _atom_site_label
 _atom_site_symmetry_multiplicity
 _atom_site_fract_x
 _atom_site_fract_y
 _atom_site_fract_z
 _atom_site_occupancy
  Sr  Sr0  1  0.50000301  0.00000536  0.85416963  1
  Sr  Sr1  1  -0.00000224  0.49999388  0.14582972  1
  V  V2  1  0.78725095  0.90854341  0.37722341  1
  V  V3  1  0.40854645  0.71275337  0.37721952  1
  V  V4  1  0.59145493  0.28724493  0.37720594  1
  V  V5  1  0.21275784  0.09145382  0.37720283  1
  V  V6  1  0.71275316  0.59145646  0.62277163  1
  V  V7  1  0.09145481  0.78724785  0.62278408  1
  V  V8  1  0.90854553  0.21275524  0.62279106  1
  V  V9  1  0.28724435  0.40854687  0.62280018  1
  O  O10  1  0.00000129  -0.00000225  0.50000003  1
  O  O11  1  0.49999689  0.50000375  0.49999994  1
  O  O12  1  0.75793642  0.92308526  0.07617616  1
  O  O13  1  0.42307552  0.74207029  0.07618292  1
  O  O14  1  0.57692094  0.25793215  0.07621546  1
  O  O15  1  0.24207281  0.07693085  0.07621616  1
  O  O16  1  0.74206264  0.57691295  0.92382031  1
  O  O17  1  0.07691934  0.75793056  0.92381993  1
  O  O18  1  0.92307376  0.24206788  0.92378221  1
  O  O19  1  0.25792618  0.42306856  0.92378730  1
  O  O20  1  0.10713820  0.29119246  0.47068573  1
  O  O21  1  0.79118608  0.39286864  0.47068808  1
  O  O22  1  0.20880915  0.60714653  0.47069228  1
  O  O23  1  0.89286061  0.70881630  0.47069152  1
  O  O24  1  0.39286339  0.20880749  0.52931832  1
  O  O25  1  0.70881305  0.10713121  0.52930670  1
  O  O26  1  0.29119198  0.89285438  0.52931218  1
  O  O27  1  0.60714294  0.79118180  0.52930678  1
