# generated using pymatgen
data_SnO2
_symmetry_space_group_name_H-M   'P 1'
_cell_length_a   4.73514617
_cell_length_b   5.24711425
_cell_length_c   5.75091223
_cell_angle_alpha   90.00000000
_cell_angle_beta   90.00000000
_cell_angle_gamma   90.00000000
_symmetry_Int_Tables_number   1
_chemical_formula_structural   SnO2
_chemical_formula_sum   'Sn4 O8'
_cell_volume   142.88631956
_cell_formula_units_Z   4
loop_
 _symmetry_equiv_pos_site_id
 _symmetry_equiv_pos_as_xyz
  1  'x, y, z'
loop_
 _atom_site_type_symbol
 _atom_site_label
 _atom_site_symmetry_multiplicity
 _atom_site_fract_x
 _atom_site_fract_y
 _atom_site_fract_z
 _atom_site_occupancy
  Sn  Sn0  1  0.50000000  0.75000000  0.33455225  1
  Sn  Sn1  1  -0.00000000  0.25000000  0.16544775  1
  Sn  Sn2  1  0.50000000  0.25000000  0.66544775  1
  Sn  Sn3  1  -0.00000000  0.75000000  0.83455225  1
  O  O4  1  0.73030504  0.07860358  0.39287653  1
  O  O5  1  0.23030504  0.92139642  0.10712347  1
  O  O6  1  0.76969496  0.57860358  0.10712347  1
  O  O7  1  0.26969496  0.42139642  0.39287653  1
  O  O8  1  0.73030504  0.57860358  0.60712347  1
  O  O9  1  0.23030504  0.42139642  0.89287653  1
  O  O10  1  0.76969496  0.07860358  0.89287653  1
  O  O11  1  0.26969496  0.92139642  0.60712347  1
