# generated using pymatgen
data_K2Zn2O3
_symmetry_space_group_name_H-M   'P 1'
_cell_length_a   5.84473621
_cell_length_b   6.18106147
_cell_length_c   6.30800199
_cell_angle_alpha   90.00000000
_cell_angle_beta   114.14639523
_cell_angle_gamma   90.00000000
_symmetry_Int_Tables_number   1
_chemical_formula_structural   K2Zn2O3
_chemical_formula_sum   'K4 Zn4 O6'
_cell_volume   207.94774286
_cell_formula_units_Z   2
loop_
 _symmetry_equiv_pos_site_id
 _symmetry_equiv_pos_as_xyz
  1  'x, y, z'
loop_
 _atom_site_type_symbol
 _atom_site_label
 _atom_site_symmetry_multiplicity
 _atom_site_fract_x
 _atom_site_fract_y
 _atom_site_fract_z
 _atom_site_occupancy
  K  K0  1  0.18544134  0.63255402  0.92718460  1
  K  K1  1  0.18544134  0.86744598  0.42718460  1
  K  K2  1  0.81455866  0.13255402  0.57281540  1
  K  K3  1  0.81455866  0.36744598  0.07281540  1
  Zn  Zn4  1  0.33252213  0.38599355  0.57328761  1
  Zn  Zn5  1  0.66747787  0.88599355  0.92671239  1
  Zn  Zn6  1  0.33252213  0.11400645  0.07328761  1
  Zn  Zn7  1  0.66747787  0.61400645  0.42671239  1
  O  O8  1  -0.00000000  0.50000000  0.50000000  1
  O  O9  1  -0.00000000  -0.00000000  -0.00000000  1
  O  O10  1  0.41027339  0.13638844  0.79054026  1
  O  O11  1  0.58972661  0.63638844  0.70945974  1
  O  O12  1  0.41027339  0.36361156  0.29054026  1
  O  O13  1  0.58972661  0.86361156  0.20945974  1
