# generated using pymatgen
data_Li4VFe3O8
_symmetry_space_group_name_H-M   'P 1'
_cell_length_a   5.97765200
_cell_length_b   5.99162700
_cell_length_c   8.48257059
_cell_angle_alpha   89.97868946
_cell_angle_beta   90.00000000
_cell_angle_gamma   90.00000000
_symmetry_Int_Tables_number   1
_chemical_formula_structural   Li4VFe3O8
_chemical_formula_sum   'Li8 V2 Fe6 O16'
_cell_volume   303.81054906
_cell_formula_units_Z   2
loop_
 _symmetry_equiv_pos_site_id
 _symmetry_equiv_pos_as_xyz
  1  'x, y, z'
loop_
 _atom_site_type_symbol
 _atom_site_label
 _atom_site_symmetry_multiplicity
 _atom_site_fract_x
 _atom_site_fract_y
 _atom_site_fract_z
 _atom_site_occupancy
  Li  Li0  1  0.75323600  0.74843600  0.75044200  1
  Li  Li1  1  0.00000000  0.00000000  0.50000000  1
  Li  Li2  1  0.50000000  0.50000000  0.00000000  1
  Li  Li3  1  0.24676400  0.74843600  0.75044200  1
  Li  Li4  1  0.50000000  0.00000000  0.50000000  1
  Li  Li5  1  0.00000000  0.50000000  0.00000000  1
  Li  Li6  1  0.75323600  0.25156400  0.24955800  1
  Li  Li7  1  0.24676400  0.25156400  0.24955800  1
  V  V8  1  0.00000000  0.00000000  0.00000000  1
  V  V9  1  0.50000000  0.50000000  0.50000000  1
  Fe  Fe10  1  0.50000000  0.00000000  0.00000000  1
  Fe  Fe11  1  0.00000000  0.50000000  0.50000000  1
  Fe  Fe12  1  0.74859200  0.74959500  0.25019600  1
  Fe  Fe13  1  0.25140800  0.25040500  0.74980400  1
  Fe  Fe14  1  0.74859200  0.25040500  0.74980400  1
  Fe  Fe15  1  0.25140800  0.74959500  0.25019600  1
  O  O16  1  0.76711700  0.23939300  0.99051800  1
  O  O17  1  0.00000000  0.48457400  0.73946900  1
  O  O18  1  0.00000000  0.98886700  0.23881400  1
  O  O19  1  0.74943100  0.73405500  0.49273500  1
  O  O20  1  0.50000000  0.48451600  0.75013900  1
  O  O21  1  0.23288300  0.23939300  0.99051800  1
  O  O22  1  0.50000000  0.01896100  0.75275500  1
  O  O23  1  0.74943100  0.26594500  0.50726500  1
  O  O24  1  0.25056900  0.73405500  0.49273500  1
  O  O25  1  0.50000000  0.98103900  0.24724500  1
  O  O26  1  0.76711700  0.76060700  0.00948200  1
  O  O27  1  0.50000000  0.51548400  0.24986100  1
  O  O28  1  0.25056900  0.26594500  0.50726500  1
  O  O29  1  0.00000000  0.01113300  0.76118600  1
  O  O30  1  0.00000000  0.51542600  0.26053100  1
  O  O31  1  0.23288300  0.76060700  0.00948200  1
