# generated using pymatgen
data_K2CoP4(HO2)8
_symmetry_space_group_name_H-M   'P 1'
_cell_length_a   6.80062468
_cell_length_b   7.31247713
_cell_length_c   7.46962569
_cell_angle_alpha   80.11169487
_cell_angle_beta   72.52648377
_cell_angle_gamma   83.34489674
_symmetry_Int_Tables_number   1
_chemical_formula_structural   K2CoP4(HO2)8
_chemical_formula_sum   'K2 Co1 P4 H8 O16'
_cell_volume   348.23688298
_cell_formula_units_Z   1
loop_
 _symmetry_equiv_pos_site_id
 _symmetry_equiv_pos_as_xyz
  1  'x, y, z'
loop_
 _atom_site_type_symbol
 _atom_site_label
 _atom_site_symmetry_multiplicity
 _atom_site_fract_x
 _atom_site_fract_y
 _atom_site_fract_z
 _atom_site_occupancy
  K  K0  1  0.10733312  0.73733422  0.30674350  1
  K  K1  1  0.89266688  0.26266578  0.69325650  1
  Co  Co2  1  0.50000000  0.50000000  0.50000000  1
  P  P3  1  0.67910608  0.72605110  0.75839303  1
  P  P4  1  0.32089392  0.27394890  0.24160697  1
  P  P5  1  0.24916472  0.81218559  0.76356924  1
  P  P6  1  0.75083528  0.18781441  0.23643076  1
  H  H7  1  0.75356136  0.95547385  0.52891321  1
  H  H8  1  0.24643864  0.04452615  0.47108679  1
  H  H9  1  0.94389636  0.72741816  0.93519833  1
  H  H10  1  0.05610364  0.27258184  0.06480167  1
  H  H11  1  0.37339214  0.32289909  0.85572667  1
  H  H12  1  0.62660786  0.67710091  0.14427333  1
  H  H13  1  0.38571623  0.18332309  0.71085621  1
  H  H14  1  0.61428377  0.81667691  0.28914379  1
  O  O15  1  0.43787408  0.76921884  0.85513414  1
  O  O16  1  0.56212592  0.23078116  0.14486586  1
  O  O17  1  0.70735626  0.60432070  0.60942321  1
  O  O18  1  0.29264374  0.39567930  0.39057679  1
  O  O19  1  0.76370744  0.64829702  0.92124750  1
  O  O20  1  0.23629256  0.35170298  0.07875250  1
  O  O21  1  0.76972904  0.91782464  0.66413803  1
  O  O22  1  0.23027096  0.08217536  0.33586197  1
  O  O23  1  0.25550348  0.67341355  0.63609460  1
  O  O24  1  0.74449652  0.32658645  0.36390540  1
  O  O25  1  0.06648997  0.79021132  0.94721503  1
  O  O26  1  0.93351003  0.20978868  0.05278497  1
  O  O27  1  0.25795812  0.01199844  0.66781383  1
  O  O28  1  0.74204188  0.98800156  0.33218617  1
  O  O29  1  0.44900748  0.29094583  0.72873101  1
  O  O30  1  0.55099252  0.70905417  0.27126899  1
