# generated using pymatgen
data_RbNd2CuS4
_symmetry_space_group_name_H-M   'P 1'
_cell_length_a   7.34774261
_cell_length_b   7.34774261
_cell_length_c   14.03353693
_cell_angle_alpha   90.00000000
_cell_angle_beta   90.00000000
_cell_angle_gamma   147.70587414
_symmetry_Int_Tables_number   1
_chemical_formula_structural   RbNd2CuS4
_chemical_formula_sum   'Rb2 Nd4 Cu2 S8'
_cell_volume   404.79234854
_cell_formula_units_Z   2
loop_
 _symmetry_equiv_pos_site_id
 _symmetry_equiv_pos_as_xyz
  1  'x, y, z'
loop_
 _atom_site_type_symbol
 _atom_site_label
 _atom_site_symmetry_multiplicity
 _atom_site_fract_x
 _atom_site_fract_y
 _atom_site_fract_z
 _atom_site_occupancy
  Rb  Rb0  1  0.10562679  0.89437321  0.25000000  1
  Rb  Rb1  1  0.89437321  0.10562679  0.75000000  1
  Nd  Nd2  1  0.63461824  0.36538176  0.93863587  1
  Nd  Nd3  1  0.36538176  0.63461824  0.43863587  1
  Nd  Nd4  1  0.63461824  0.36538176  0.56136413  1
  Nd  Nd5  1  0.36538176  0.63461824  0.06136413  1
  Cu  Cu6  1  0.16486944  0.83513056  0.75000000  1
  Cu  Cu7  1  0.83513056  0.16486944  0.25000000  1
  S  S8  1  -0.00000000  0.00000000  0.50000000  1
  S  S9  1  -0.00000000  0.00000000  0.00000000  1
  S  S10  1  0.42392638  0.57607362  0.25000000  1
  S  S11  1  0.57607362  0.42392638  0.75000000  1
  S  S12  1  0.73964657  0.26035343  0.38630599  1
  S  S13  1  0.26035343  0.73964657  0.88630599  1
  S  S14  1  0.26035343  0.73964657  0.61369401  1
  S  S15  1  0.73964657  0.26035343  0.11369401  1
