# generated using pymatgen
data_TbSBr
_symmetry_space_group_name_H-M   'P 1'
_cell_length_a   6.88842459
_cell_length_b   6.81140051
_cell_length_c   6.79978315
_cell_angle_alpha   80.40441764
_cell_angle_beta   90.00000000
_cell_angle_gamma   90.00000000
_symmetry_Int_Tables_number   1
_chemical_formula_structural   TbSBr
_chemical_formula_sum   'Tb4 S4 Br4'
_cell_volume   314.58080537
_cell_formula_units_Z   4
loop_
 _symmetry_equiv_pos_site_id
 _symmetry_equiv_pos_as_xyz
  1  'x, y, z'
loop_
 _atom_site_type_symbol
 _atom_site_label
 _atom_site_symmetry_multiplicity
 _atom_site_fract_x
 _atom_site_fract_y
 _atom_site_fract_z
 _atom_site_occupancy
  Tb  Tb0  1  0.96360024  0.79153878  0.32111280  1
  Tb  Tb1  1  0.03639976  0.20846122  0.67888720  1
  Tb  Tb2  1  0.46360024  0.70846122  0.67888720  1
  Tb  Tb3  1  0.53639976  0.29153878  0.32111280  1
  S  S4  1  0.73953936  0.99205457  0.55533692  1
  S  S5  1  0.26046064  0.00794543  0.44466308  1
  S  S6  1  0.23953936  0.50794543  0.44466308  1
  S  S7  1  0.76046064  0.49205457  0.55533692  1
  Br  Br8  1  0.62384995  0.70515248  0.08011838  1
  Br  Br9  1  0.37615005  0.29484752  0.91988162  1
  Br  Br10  1  0.12384995  0.79484752  0.91988162  1
  Br  Br11  1  0.87615005  0.20515248  0.08011838  1
