# generated using pymatgen
data_KLiGdF5
_symmetry_space_group_name_H-M   'P 1'
_cell_length_a   6.52898266
_cell_length_b   6.33609699
_cell_length_c   11.73076194
_cell_angle_alpha   90.00000000
_cell_angle_beta   90.00000000
_cell_angle_gamma   113.40980152
_symmetry_Int_Tables_number   1
_chemical_formula_structural   KLiGdF5
_chemical_formula_sum   'K4 Li4 Gd4 F20'
_cell_volume   445.33617877
_cell_formula_units_Z   4
loop_
 _symmetry_equiv_pos_site_id
 _symmetry_equiv_pos_as_xyz
  1  'x, y, z'
loop_
 _atom_site_type_symbol
 _atom_site_label
 _atom_site_symmetry_multiplicity
 _atom_site_fract_x
 _atom_site_fract_y
 _atom_site_fract_z
 _atom_site_occupancy
  K  K0  1  0.94604772  0.96109419  0.34853170  1
  K  K1  1  0.05395228  0.03890581  0.65146830  1
  K  K2  1  0.05395228  0.53890581  0.84853170  1
  K  K3  1  0.94604772  0.46109419  0.15146830  1
  Li  Li4  1  0.55883568  0.96016202  0.74412780  1
  Li  Li5  1  0.44116432  0.03983798  0.25587220  1
  Li  Li6  1  0.44116432  0.53983798  0.24412780  1
  Li  Li7  1  0.55883568  0.46016202  0.75587220  1
  Gd  Gd8  1  0.68264215  0.82024576  0.99628904  1
  Gd  Gd9  1  0.31735785  0.17975424  0.00371096  1
  Gd  Gd10  1  0.31735785  0.67975424  0.49628904  1
  Gd  Gd11  1  0.68264215  0.32024576  0.50371096  1
  F  F12  1  0.72096933  0.77757857  0.79916985  1
  F  F13  1  0.27903067  0.22242143  0.20083015  1
  F  F14  1  0.27903067  0.72242143  0.29916985  1
  F  F15  1  0.72096933  0.27757857  0.70083015  1
  F  F16  1  0.66591498  0.95066109  0.53712641  1
  F  F17  1  0.33408502  0.04933891  0.46287359  1
  F  F18  1  0.33408502  0.54933891  0.03712641  1
  F  F19  1  0.66591498  0.45066109  0.96287359  1
  F  F20  1  0.95727833  0.67832245  0.50785223  1
  F  F21  1  0.04272167  0.32167755  0.49214777  1
  F  F22  1  0.04272167  0.82167755  0.00785223  1
  F  F23  1  0.95727833  0.17832245  0.99214777  1
  F  F24  1  0.45921885  0.96105079  0.89249038  1
  F  F25  1  0.54078115  0.03894921  0.10750962  1
  F  F26  1  0.54078115  0.53894921  0.39249038  1
  F  F27  1  0.45921885  0.46105079  0.60750962  1
  F  F28  1  0.28890755  0.78799645  0.67619674  1
  F  F29  1  0.71109245  0.21200355  0.32380326  1
  F  F30  1  0.71109245  0.71200355  0.17619674  1
  F  F31  1  0.28890755  0.28799645  0.82380326  1
