# generated using pymatgen
data_Na3AsH16(SO2)4
_symmetry_space_group_name_H-M   'P 1'
_cell_length_a   8.72972133
_cell_length_b   13.06966480
_cell_length_c   13.75981858
_cell_angle_alpha   90.00000000
_cell_angle_beta   103.47356802
_cell_angle_gamma   90.00000000
_symmetry_Int_Tables_number   1
_chemical_formula_structural   Na3AsH16(SO2)4
_chemical_formula_sum   'Na12 As4 H64 S16 O32'
_cell_volume   1526.71194794
_cell_formula_units_Z   4
loop_
 _symmetry_equiv_pos_site_id
 _symmetry_equiv_pos_as_xyz
  1  'x, y, z'
loop_
 _atom_site_type_symbol
 _atom_site_label
 _atom_site_symmetry_multiplicity
 _atom_site_fract_x
 _atom_site_fract_y
 _atom_site_fract_z
 _atom_site_occupancy
  Na  Na0  1  -0.00000000  0.50000000  0.50000000  1
  Na  Na1  1  -0.00000000  -0.00000000  -0.00000000  1
  Na  Na2  1  0.50000000  -0.00000000  0.50000000  1
  Na  Na3  1  0.50000000  0.50000000  -0.00000000  1
  Na  Na4  1  0.33607361  0.95018792  0.90963551  1
  Na  Na5  1  0.66392639  0.45018792  0.59036449  1
  Na  Na6  1  0.66392639  0.04981208  0.09036449  1
  Na  Na7  1  0.33607361  0.54981208  0.40963551  1
  Na  Na8  1  0.83068795  0.44124898  0.91672186  1
  Na  Na9  1  0.16931205  0.94124898  0.58327814  1
  Na  Na10  1  0.16931205  0.55875102  0.08327814  1
  Na  Na11  1  0.83068795  0.05875102  0.41672186  1
  As  As12  1  0.71473776  0.82815970  0.75144529  1
  As  As13  1  0.28526224  0.32815970  0.74855471  1
  As  As14  1  0.28526224  0.17184030  0.24855471  1
  As  As15  1  0.71473776  0.67184030  0.25144529  1
  H  H16  1  0.18541922  0.34616030  0.40604722  1
  H  H17  1  0.81458078  0.84616030  0.09395278  1
  H  H18  1  0.81458078  0.65383970  0.59395278  1
  H  H19  1  0.18541922  0.15383970  0.90604722  1
  H  H20  1  0.26979733  0.36290439  0.51660666  1
  H  H21  1  0.73020267  0.86290439  0.98339334  1
  H  H22  1  0.73020267  0.63709561  0.48339334  1
  H  H23  1  0.26979733  0.13709561  0.01660666  1
  H  H24  1  0.07135889  0.69124593  0.41634887  1
  H  H25  1  0.92864111  0.19124593  0.08365113  1
  H  H26  1  0.92864111  0.30875407  0.58365113  1
  H  H27  1  0.07135889  0.80875407  0.91634887  1
  H  H28  1  0.17139117  0.69136121  0.52904261  1
  H  H29  1  0.82860883  0.19136121  0.97095739  1
  H  H30  1  0.82860883  0.30863879  0.47095739  1
  H  H31  1  0.17139117  0.80863879  0.02904261  1
  H  H32  1  0.76946207  0.06530329  0.63389091  1
  H  H33  1  0.23053793  0.56530329  0.86610909  1
  H  H34  1  0.23053793  0.93469671  0.36610909  1
  H  H35  1  0.76946207  0.43469671  0.13389091  1
  H  H36  1  0.71262095  0.16669856  0.57587582  1
  H  H37  1  0.28737905  0.66669856  0.92412418  1
  H  H38  1  0.28737905  0.83330144  0.42412418  1
  H  H39  1  0.71262095  0.33330144  0.07587582  1
  H  H40  1  0.50181701  0.01833164  0.69726999  1
  H  H41  1  0.49818299  0.51833164  0.80273001  1
  H  H42  1  0.49818299  0.98166836  0.30273001  1
  H  H43  1  0.50181701  0.48166836  0.19726999  1
  H  H44  1  0.40949315  0.11602394  0.65233787  1
  H  H45  1  0.59050685  0.61602394  0.84766213  1
  H  H46  1  0.59050685  0.88397606  0.34766213  1
  H  H47  1  0.40949315  0.38397606  0.15233787  1
  H  H48  1  0.60931735  0.05856258  0.87120990  1
  H  H49  1  0.39068265  0.55856258  0.62879010  1
  H  H50  1  0.39068265  0.94143742  0.12879010  1
  H  H51  1  0.60931735  0.44143742  0.37120990  1
  H  H52  1  0.49748888  0.14512734  0.89856858  1
  H  H53  1  0.50251112  0.64512734  0.60143142  1
  H  H54  1  0.50251112  0.85487266  0.10143142  1
  H  H55  1  0.49748888  0.35487266  0.39856858  1
  H  H56  1  0.03714458  0.97027981  0.76169742  1
  H  H57  1  0.96285542  0.47027981  0.73830258  1
  H  H58  1  0.96285542  0.02972019  0.23830258  1
  H  H59  1  0.03714458  0.52972019  0.26169742  1
  H  H60  1  0.14751985  0.05717079  0.74370184  1
  H  H61  1  0.85248015  0.55717079  0.75629816  1
  H  H62  1  0.85248015  0.94282921  0.25629816  1
  H  H63  1  0.14751985  0.44282921  0.24370184  1
  H  H64  1  0.68710286  0.26666978  0.80102048  1
  H  H65  1  0.31289714  0.76666978  0.69897952  1
  H  H66  1  0.31289714  0.73333022  0.19897952  1
  H  H67  1  0.68710286  0.23333022  0.30102048  1
  H  H68  1  0.86968315  0.25657396  0.81248766  1
  H  H69  1  0.13031685  0.75657396  0.68751234  1
  H  H70  1  0.13031685  0.74342604  0.18751234  1
  H  H71  1  0.86968315  0.24342604  0.31248766  1
  H  H72  1  0.17416371  0.36250760  0.96905531  1
  H  H73  1  0.82583629  0.86250760  0.53094469  1
  H  H74  1  0.82583629  0.63749240  0.03094469  1
  H  H75  1  0.17416371  0.13749240  0.46905531  1
  H  H76  1  0.09611796  0.34524008  0.05986466  1
  H  H77  1  0.90388204  0.84524008  0.44013534  1
  H  H78  1  0.90388204  0.65475992  0.94013534  1
  H  H79  1  0.09611796  0.15475992  0.55986466  1
  S  S80  1  0.78560802  0.98913376  0.78457920  1
  S  S81  1  0.21439198  0.48913376  0.71542080  1
  S  S82  1  0.21439198  0.01086624  0.21542080  1
  S  S83  1  0.78560802  0.51086624  0.28457920  1
  S  S84  1  0.61178295  0.80816248  0.59338775  1
  S  S85  1  0.38821705  0.30816248  0.90661225  1
  S  S86  1  0.38821705  0.19183752  0.40661225  1
  S  S87  1  0.61178295  0.69183752  0.09338775  1
  S  S88  1  0.54759995  0.78652209  0.84146715  1
  S  S89  1  0.45240005  0.28652209  0.65853285  1
  S  S90  1  0.45240005  0.21347791  0.15853285  1
  S  S91  1  0.54759995  0.71347791  0.34146715  1
  S  S92  1  0.92348196  0.72765912  0.78852458  1
  S  S93  1  0.07651804  0.22765912  0.71147542  1
  S  S94  1  0.07651804  0.27234088  0.21147542  1
  S  S95  1  0.92348196  0.77234088  0.28852458  1
  O  O96  1  0.19744947  0.39679988  0.45998281  1
  O  O97  1  0.80255053  0.89679988  0.04001719  1
  O  O98  1  0.80255053  0.60320012  0.54001719  1
  O  O99  1  0.19744947  0.10320012  0.95998281  1
  O  O100  1  0.14872429  0.65127328  0.46641009  1
  O  O101  1  0.85127571  0.15127328  0.03358991  1
  O  O102  1  0.85127571  0.34872672  0.53358991  1
  O  O103  1  0.14872429  0.84872672  0.96641009  1
  O  O104  1  0.73944025  0.09555428  0.56609325  1
  O  O105  1  0.26055975  0.59555428  0.93390675  1
  O  O106  1  0.26055975  0.90444572  0.43390675  1
  O  O107  1  0.73944025  0.40444572  0.06609325  1
  O  O108  1  0.40999542  0.04050921  0.64545012  1
  O  O109  1  0.59000458  0.54050921  0.85454988  1
  O  O110  1  0.59000458  0.95949079  0.35454988  1
  O  O111  1  0.40999542  0.45949079  0.14545012  1
  O  O112  1  0.53211900  0.07339791  0.91158499  1
  O  O113  1  0.46788100  0.57339791  0.58841501  1
  O  O114  1  0.46788100  0.92660209  0.08841601  1
  O  O115  1  0.53211900  0.42660209  0.41158399  1
  O  O116  1  0.14427828  0.98199322  0.75145844  1
  O  O117  1  0.85572172  0.48199322  0.74854156  1
  O  O118  1  0.85572172  0.01800678  0.24854156  1
  O  O119  1  0.14427828  0.51800678  0.25145844  1
  O  O120  1  0.78861305  0.26538633  0.85097465  1
  O  O121  1  0.21138695  0.76538633  0.64902535  1
  O  O122  1  0.21138695  0.73461367  0.14902535  1
  O  O123  1  0.78861305  0.23461367  0.35097465  1
  O  O124  1  0.09250828  0.38981515  0.00127099  1
  O  O125  1  0.90749172  0.88981515  0.49872901  1
  O  O126  1  0.90749172  0.61018485  0.99872901  1
  O  O127  1  0.09250828  0.11018485  0.50127099  1
