# generated using pymatgen
data_CaMg5
_symmetry_space_group_name_H-M   'P 1'
_cell_length_a   5.25920153
_cell_length_b   3.41862604
_cell_length_c   17.28399011
_cell_angle_alpha   90.00000000
_cell_angle_beta   90.00000000
_cell_angle_gamma   90.00000000
_symmetry_Int_Tables_number   1
_chemical_formula_structural   CaMg5
_chemical_formula_sum   'Ca2 Mg10'
_cell_volume   310.75306338
_cell_formula_units_Z   2
loop_
 _symmetry_equiv_pos_site_id
 _symmetry_equiv_pos_as_xyz
  1  'x, y, z'
loop_
 _atom_site_type_symbol
 _atom_site_label
 _atom_site_symmetry_multiplicity
 _atom_site_fract_x
 _atom_site_fract_y
 _atom_site_fract_z
 _atom_site_occupancy
  Ca  Ca0  1  0.00000000  0.50000000  0.72062410  1
  Ca  Ca1  1  0.00000000  0.00000000  0.22062410  1
  Mg  Mg2  1  0.50000000  0.00000000  0.00184534  1
  Mg  Mg3  1  0.50000000  -0.00000000  0.65991115  1
  Mg  Mg4  1  0.50000000  0.50000000  0.83792487  1
  Mg  Mg5  1  0.00000000  0.00000000  0.89525135  1
  Mg  Mg6  1  0.00000000  0.00000000  0.55111019  1
  Mg  Mg7  1  0.50000000  0.50000000  0.50184534  1
  Mg  Mg8  1  0.50000000  0.50000000  0.15991115  1
  Mg  Mg9  1  0.50000000  0.00000000  0.33792487  1
  Mg  Mg10  1  0.00000000  0.50000000  0.39525135  1
  Mg  Mg11  1  0.00000000  0.50000000  0.05111019  1
