# generated using pymatgen
data_Na3La(PO4)2
_symmetry_space_group_name_H-M   'P 1'
_cell_length_a   5.32569947
_cell_length_b   13.89912766
_cell_length_c   18.74543394
_cell_angle_alpha   90.00000000
_cell_angle_beta   90.00000000
_cell_angle_gamma   90.00000000
_symmetry_Int_Tables_number   1
_chemical_formula_structural   Na3La(PO4)2
_chemical_formula_sum   'Na24 La8 P16 O64'
_cell_volume   1387.58532370
_cell_formula_units_Z   8
loop_
 _symmetry_equiv_pos_site_id
 _symmetry_equiv_pos_as_xyz
  1  'x, y, z'
loop_
 _atom_site_type_symbol
 _atom_site_label
 _atom_site_symmetry_multiplicity
 _atom_site_fract_x
 _atom_site_fract_y
 _atom_site_fract_z
 _atom_site_occupancy
  Na  Na0  1  0.01568980  0.78441903  0.50729243  1
  Na  Na1  1  0.98431020  0.21558097  0.00729243  1
  Na  Na2  1  0.98431020  0.28441903  0.50729243  1
  Na  Na3  1  0.01568980  0.71558097  0.00729243  1
  Na  Na4  1  0.00447596  0.04924263  0.84957462  1
  Na  Na5  1  0.99552404  0.95075737  0.34957462  1
  Na  Na6  1  0.99552404  0.54924263  0.84957462  1
  Na  Na7  1  0.00447596  0.45075737  0.34957462  1
  Na  Na8  1  0.00438839  0.13345913  0.67317677  1
  Na  Na9  1  0.99561161  0.86654087  0.17317677  1
  Na  Na10  1  0.99561161  0.63345913  0.67317677  1
  Na  Na11  1  0.00438839  0.36654087  0.17317677  1
  Na  Na12  1  0.51374184  0.20171118  0.77030521  1
  Na  Na13  1  0.48625816  0.79828882  0.27030521  1
  Na  Na14  1  0.48625816  0.70171118  0.77030521  1
  Na  Na15  1  0.51374184  0.29828882  0.27030521  1
  Na  Na16  1  0.46173174  0.03236058  0.61360136  1
  Na  Na17  1  0.53826826  0.96763942  0.11360136  1
  Na  Na18  1  0.53826826  0.53236058  0.61360136  1
  Na  Na19  1  0.46173174  0.46763942  0.11360136  1
  Na  Na20  1  0.49857912  0.11483368  0.95038995  1
  Na  Na21  1  0.50142088  0.88516632  0.45038995  1
  Na  Na22  1  0.50142088  0.61483368  0.95038995  1
  Na  Na23  1  0.49857912  0.38516632  0.45038995  1
  La  La24  1  0.06192419  0.38244600  0.69773298  1
  La  La25  1  0.93807581  0.61755400  0.19773298  1
  La  La26  1  0.93807581  0.88244600  0.69773298  1
  La  La27  1  0.06192419  0.11755400  0.19773298  1
  La  La28  1  0.45149482  0.36642732  0.92503561  1
  La  La29  1  0.54850518  0.63357268  0.42503561  1
  La  La30  1  0.54850518  0.86642732  0.92503561  1
  La  La31  1  0.45149482  0.13357268  0.42503561  1
  P  P32  1  0.02673619  0.52358002  0.51928489  1
  P  P33  1  0.97326381  0.47641998  0.01928489  1
  P  P34  1  0.97326381  0.02358002  0.51928489  1
  P  P35  1  0.02673619  0.97641998  0.01928489  1
  P  P36  1  0.01419653  0.76683912  0.84775057  1
  P  P37  1  0.98580347  0.23316088  0.34775057  1
  P  P38  1  0.98580347  0.26683912  0.84775057  1
  P  P39  1  0.01419653  0.73316088  0.34775057  1
  P  P40  1  0.52524195  0.48265050  0.77492442  1
  P  P41  1  0.47475805  0.51734950  0.27492442  1
  P  P42  1  0.47475805  0.98265050  0.77492442  1
  P  P43  1  0.52524195  0.01734950  0.27492442  1
  P  P44  1  0.53476396  0.27249310  0.60338764  1
  P  P45  1  0.46523604  0.72750690  0.10338764  1
  P  P46  1  0.46523604  0.77249310  0.60338764  1
  P  P47  1  0.53476396  0.22750690  0.10338764  1
  O  O48  1  0.40091594  0.19735926  0.64922961  1
  O  O49  1  0.59908406  0.80264074  0.14922961  1
  O  O50  1  0.59908406  0.69735926  0.64922961  1
  O  O51  1  0.40091594  0.30264074  0.14922961  1
  O  O52  1  0.30493289  0.53098814  0.73552305  1
  O  O53  1  0.69506711  0.46901186  0.23552305  1
  O  O54  1  0.69506711  0.03098814  0.73552305  1
  O  O55  1  0.30493289  0.96901186  0.23552305  1
  O  O56  1  0.09410333  0.12253833  0.50474677  1
  O  O57  1  0.90589667  0.87746167  0.00474677  1
  O  O58  1  0.90589667  0.62253833  0.50474677  1
  O  O59  1  0.09410333  0.37746167  0.00474677  1
  O  O60  1  0.20321669  0.21999070  0.88934329  1
  O  O61  1  0.79678331  0.78000930  0.38934329  1
  O  O62  1  0.79678331  0.71999070  0.88934329  1
  O  O63  1  0.20321669  0.28000930  0.38934329  1
  O  O64  1  0.31226645  0.52895055  0.50368386  1
  O  O65  1  0.68773355  0.47104945  0.00368386  1
  O  O66  1  0.68773355  0.02895055  0.50368386  1
  O  O67  1  0.31226645  0.97104945  0.00368386  1
  O  O68  1  0.09748548  0.55217882  0.97148108  1
  O  O69  1  0.90251452  0.44782118  0.47148108  1
  O  O70  1  0.90251452  0.05217882  0.97148108  1
  O  O71  1  0.09748548  0.94782118  0.47148108  1
  O  O72  1  0.22845126  0.01126339  0.73838971  1
  O  O73  1  0.77154874  0.98873661  0.23838971  1
  O  O74  1  0.77154874  0.51126339  0.73838971  1
  O  O75  1  0.22845126  0.48873661  0.23838971  1
  O  O76  1  0.41269131  0.37170471  0.61579267  1
  O  O77  1  0.58730869  0.62829529  0.11579267  1
  O  O78  1  0.58730869  0.87170471  0.61579267  1
  O  O79  1  0.41269131  0.12829529  0.11579267  1
  O  O80  1  0.48781144  0.37261292  0.77380517  1
  O  O81  1  0.51218856  0.62738708  0.27380517  1
  O  O82  1  0.51218856  0.87261292  0.77380517  1
  O  O83  1  0.48781144  0.12738708  0.27380517  1
  O  O84  1  0.02033825  0.37695638  0.84780718  1
  O  O85  1  0.97966175  0.62304362  0.34780718  1
  O  O86  1  0.97966175  0.87695638  0.84780718  1
  O  O87  1  0.02033825  0.12304362  0.34780718  1
  O  O88  1  0.18298642  0.77638380  0.62384694  1
  O  O89  1  0.81701358  0.22361620  0.12384694  1
  O  O90  1  0.81701358  0.27638380  0.62384694  1
  O  O91  1  0.18298642  0.72361620  0.12384694  1
  O  O92  1  0.00803105  0.73123222  0.77007896  1
  O  O93  1  0.99196895  0.26876778  0.27007896  1
  O  O94  1  0.99196895  0.23123222  0.77007896  1
  O  O95  1  0.00803105  0.76876778  0.27007896  1
  O  O96  1  0.47184100  0.01673857  0.85302206  1
  O  O97  1  0.52815900  0.98326143  0.35302206  1
  O  O98  1  0.52815900  0.51673857  0.85302206  1
  O  O99  1  0.47184100  0.48326143  0.35302206  1
  O  O100  1  0.01411513  -0.00017514  0.59883574  1
  O  O101  1  0.98588487  0.00017514  0.09883574  1
  O  O102  1  0.98588487  0.49982486  0.59883574  1
  O  O103  1  0.01411513  0.50017514  0.09883574  1
  O  O104  1  0.73663844  0.23727967  0.88236664  1
  O  O105  1  0.26336156  0.76272033  0.38236664  1
  O  O106  1  0.26336156  0.73727967  0.88236664  1
  O  O107  1  0.73663844  0.26272033  0.38236664  1
  O  O108  1  0.52217215  0.25009582  0.52299282  1
  O  O109  1  0.47782785  0.74990418  0.02299282  1
  O  O110  1  0.47782785  0.75009582  0.52299282  1
  O  O111  1  0.52217215  0.24990418  0.02299282  1
