# generated using pymatgen
data_RbMgCu2H3(SO5)2
_symmetry_space_group_name_H-M   'P 1'
_cell_length_a   6.01384266
_cell_length_b   6.09742169
_cell_length_c   8.76430162
_cell_angle_alpha   63.11279208
_cell_angle_beta   93.97199045
_cell_angle_gamma   116.45409553
_symmetry_Int_Tables_number   1
_chemical_formula_structural   RbMgCu2H3(SO5)2
_chemical_formula_sum   'Rb1 Mg1 Cu2 H3 S2 O10'
_cell_volume   253.08192905
_cell_formula_units_Z   1
loop_
 _symmetry_equiv_pos_site_id
 _symmetry_equiv_pos_as_xyz
  1  'x, y, z'
loop_
 _atom_site_type_symbol
 _atom_site_label
 _atom_site_symmetry_multiplicity
 _atom_site_fract_x
 _atom_site_fract_y
 _atom_site_fract_z
 _atom_site_occupancy
  Rb  Rb0  1  0.47409000  0.98437400  0.54016100  1
  Mg  Mg1  1  0.12012000  0.59861200  0.29138400  1
  Cu  Cu2  1  0.04179300  0.49442500  0.96584100  1
  Cu  Cu3  1  0.54699500  0.98596900  0.96331900  1
  H  H4  1  0.75977300  0.50772500  0.73145600  1
  H  H5  1  0.36658400  0.47300300  0.15534000  1
  H  H6  1  0.61413600  0.47755300  0.88614300  1
  S  S7  1  0.08935100  0.19926900  0.72086900  1
  S  S8  1  0.84954300  0.80360200  0.34323300  1
  O  O9  1  0.81186100  0.03025400  0.78162100  1
  O  O10  1  0.19969400  0.40838000  0.78509800  1
  O  O11  1  0.13524600  0.94140300  0.29474500  1
  O  O12  1  0.76312600  0.56395100  0.30114100  1
  O  O13  1  0.72296500  0.41168700  0.86293000  1
  O  O14  1  0.29030200  0.59722700  0.10911800  1
  O  O15  1  0.21191700  0.01814600  0.77697400  1
  O  O16  1  0.74638400  0.99477500  0.24086600  1
  O  O17  1  0.13655200  0.35214300  0.52376200  1
  O  O18  1  0.77821700  0.69842200  0.52999800  1
