# generated using pymatgen
data_TiTl2(GeO3)3
_symmetry_space_group_name_H-M   'P 1'
_cell_length_a   6.98492645
_cell_length_b   6.98492645
_cell_length_c   10.37760421
_cell_angle_alpha   90.00000000
_cell_angle_beta   90.00000000
_cell_angle_gamma   119.99999358
_symmetry_Int_Tables_number   1
_chemical_formula_structural   TiTl2(GeO3)3
_chemical_formula_sum   'Ti2 Tl4 Ge6 O18'
_cell_volume   438.48166491
_cell_formula_units_Z   2
loop_
 _symmetry_equiv_pos_site_id
 _symmetry_equiv_pos_as_xyz
  1  'x, y, z'
loop_
 _atom_site_type_symbol
 _atom_site_label
 _atom_site_symmetry_multiplicity
 _atom_site_fract_x
 _atom_site_fract_y
 _atom_site_fract_z
 _atom_site_occupancy
  Ti  Ti0  1  -0.00000000  -0.00000000  0.50000000  1
  Ti  Ti1  1  -0.00000000  -0.00000000  0.00000000  1
  Tl  Tl2  1  0.33333300  0.66666700  0.44579215  1
  Tl  Tl3  1  0.66666700  0.33333300  0.94579215  1
  Tl  Tl4  1  0.66666700  0.33333300  0.55420785  1
  Tl  Tl5  1  0.33333300  0.66666700  0.05420785  1
  Ge  Ge6  1  0.24575671  0.87931537  0.75000000  1
  Ge  Ge7  1  0.63355766  0.75424329  0.75000000  1
  Ge  Ge8  1  0.12068463  0.36644234  0.75000000  1
  Ge  Ge9  1  0.36644234  0.24575671  0.25000000  1
  Ge  Ge10  1  0.87931537  0.63355766  0.25000000  1
  Ge  Ge11  1  0.75424329  0.12068463  0.25000000  1
  O  O12  1  0.23036957  0.23035348  0.39217560  1
  O  O13  1  0.00001609  0.23036957  0.89217560  1
  O  O14  1  0.23035348  -0.00001609  0.89217560  1
  O  O15  1  0.76964652  0.00001609  0.39217560  1
  O  O16  1  -0.00001609  0.76963043  0.39217560  1
  O  O17  1  0.76963043  0.76964652  0.89217560  1
  O  O18  1  0.76963043  0.76964652  0.60782440  1
  O  O19  1  -0.00001609  0.76963043  0.10782440  1
  O  O20  1  0.76964652  0.00001609  0.10782440  1
  O  O21  1  0.23035348  -0.00001609  0.60782440  1
  O  O22  1  0.00001609  0.23036957  0.60782440  1
  O  O23  1  0.23036957  0.23035348  0.10782440  1
  O  O24  1  0.47494020  0.06495741  0.25000000  1
  O  O25  1  0.40998279  0.47494020  0.75000000  1
  O  O26  1  0.06495741  0.59001721  0.75000000  1
  O  O27  1  0.93504259  0.40998279  0.25000000  1
  O  O28  1  0.59001721  0.52505980  0.25000000  1
  O  O29  1  0.52505980  0.93504259  0.75000000  1
