# generated using pymatgen
data_Sr6Mg(Te4O11)2
_symmetry_space_group_name_H-M   'P 1'
_cell_length_a   7.73768260
_cell_length_b   9.91462612
_cell_length_c   9.71502442
_cell_angle_alpha   103.68713795
_cell_angle_beta   106.59575191
_cell_angle_gamma   99.39313290
_symmetry_Int_Tables_number   1
_chemical_formula_structural   Sr6Mg(Te4O11)2
_chemical_formula_sum   'Sr6 Mg1 Te8 O22'
_cell_volume   672.31554024
_cell_formula_units_Z   1
loop_
 _symmetry_equiv_pos_site_id
 _symmetry_equiv_pos_as_xyz
  1  'x, y, z'
loop_
 _atom_site_type_symbol
 _atom_site_label
 _atom_site_symmetry_multiplicity
 _atom_site_fract_x
 _atom_site_fract_y
 _atom_site_fract_z
 _atom_site_occupancy
  Sr  Sr0  1  0.30323017  0.05271545  0.15958911  1
  Sr  Sr1  1  0.71417730  0.94056342  0.89583748  1
  Sr  Sr2  1  0.86398673  0.06141434  0.33072669  1
  Sr  Sr3  1  0.13703956  0.92053204  0.69228355  1
  Sr  Sr4  1  0.25740235  0.54148805  0.55489917  1
  Sr  Sr5  1  0.68438544  0.45565383  0.39674419  1
  Mg  Mg6  1  0.57725282  0.51698518  0.84890304  1
  Te  Te7  1  0.04078848  0.33105585  0.17663109  1
  Te  Te8  1  0.92584616  0.61996501  0.80649789  1
  Te  Te9  1  0.06114041  0.26606337  0.79133856  1
  Te  Te10  1  0.96207562  0.73485924  0.20118094  1
  Te  Te11  1  0.39667193  0.74281679  0.01198731  1
  Te  Te12  1  0.55938594  0.27461686  0.98082280  1
  Te  Te13  1  0.50801417  0.80754754  0.45472342  1
  Te  Te14  1  0.52029731  0.19960272  0.57619632  1
  O  O15  1  0.96927067  0.52416495  0.62434119  1
  O  O16  1  0.97393829  0.46102864  0.31710420  1
  O  O17  1  0.45203793  0.60446397  0.38734823  1
  O  O18  1  0.51289636  0.39679371  0.62394377  1
  O  O19  1  0.81340203  0.18523530  0.10618660  1
  O  O20  1  0.25010574  0.85866131  0.93236159  1
  O  O21  1  0.74217143  0.20626721  0.73057048  1
  O  O22  1  0.34512689  0.85652218  0.29873364  1
  O  O23  1  0.37214830  0.81508836  0.58951374  1
  O  O24  1  0.61330745  0.19396281  0.41528214  1
  O  O25  1  0.05311328  0.14232902  0.60959671  1
  O  O26  1  0.91516127  0.82125702  0.37951150  1
  O  O27  1  0.47776002  0.28345700  0.14564888  1
  O  O28  1  0.45679127  0.67546763  0.83009366  1
  O  O29  1  0.59490617  0.90949783  0.11401998  1
  O  O30  1  0.45715296  0.08558082  0.85842162  1
  O  O31  1  0.97196780  0.90007103  0.13006773  1
  O  O32  1  0.06493781  0.13037264  0.89853861  1
  O  O33  1  0.16858811  0.24244733  0.31154250  1
  O  O34  1  0.86361190  0.78273958  0.74330283  1
  O  O35  1  0.71875120  0.61621123  0.07145443  1
  O  O36  1  0.35949171  0.35678673  0.86516641  1
