# generated using pymatgen
data_Ba5SrNd2Fe4O15
_symmetry_space_group_name_H-M   'P 1'
_cell_length_a   11.76836314
_cell_length_b   11.76836314
_cell_length_c   7.03338788
_cell_angle_alpha   89.83944467
_cell_angle_beta   89.83944467
_cell_angle_gamma   119.73297380
_symmetry_Int_Tables_number   1
_chemical_formula_structural   Ba5SrNd2Fe4O15
_chemical_formula_sum   'Ba10 Sr2 Nd4 Fe8 O30'
_cell_volume   845.82954258
_cell_formula_units_Z   2
loop_
 _symmetry_equiv_pos_site_id
 _symmetry_equiv_pos_as_xyz
  1  'x, y, z'
loop_
 _atom_site_type_symbol
 _atom_site_label
 _atom_site_symmetry_multiplicity
 _atom_site_fract_x
 _atom_site_fract_y
 _atom_site_fract_z
 _atom_site_occupancy
  Ba  Ba0  1  -0.00028914  0.00229533  0.49240374  1
  Ba  Ba1  1  0.00229533  -0.00028914  0.99240374  1
  Ba  Ba2  1  0.33319393  0.66874584  0.01522960  1
  Ba  Ba3  1  0.66874584  0.33319393  0.51522960  1
  Ba  Ba4  1  0.82975015  0.65465745  0.83082852  1
  Ba  Ba5  1  0.34722939  0.17220963  0.83903799  1
  Ba  Ba6  1  0.82668983  0.17354388  0.83793694  1
  Ba  Ba7  1  0.17220963  0.34722939  0.33903799  1
  Ba  Ba8  1  0.65465745  0.82975015  0.33082852  1
  Ba  Ba9  1  0.17354388  0.82668983  0.33793694  1
  Sr  Sr10  1  0.52231603  0.04675446  0.16916134  1
  Sr  Sr11  1  0.04675446  0.52231603  0.66916134  1
  Nd  Nd12  1  0.95453476  0.47771291  0.17010402  1
  Nd  Nd13  1  0.52271128  0.47712542  0.16744384  1
  Nd  Nd14  1  0.47771291  0.95453476  0.67010402  1
  Nd  Nd15  1  0.47712542  0.52271128  0.66744384  1
  Fe  Fe16  1  0.66578476  0.33239871  0.97041442  1
  Fe  Fe17  1  0.33239871  0.66578476  0.47041442  1
  Fe  Fe18  1  0.17708798  0.81855069  0.83769184  1
  Fe  Fe19  1  0.18006099  0.35910000  0.84357396  1
  Fe  Fe20  1  0.64288062  0.81888714  0.83460042  1
  Fe  Fe21  1  0.81855069  0.17708798  0.33769184  1
  Fe  Fe22  1  0.81888714  0.64288062  0.33460042  1
  Fe  Fe23  1  0.35910000  0.18006099  0.34357396  1
  O  O24  1  0.93653591  0.32916255  0.46276102  1
  O  O25  1  0.66421740  0.59946719  0.47037629  1
  O  O26  1  0.39475999  0.06801283  0.48849994  1
  O  O27  1  0.93191625  0.60059372  0.45892132  1
  O  O28  1  0.67283292  0.06605145  0.48828433  1
  O  O29  1  0.39680504  0.33387859  0.47495901  1
  O  O30  1  0.06605145  0.67283292  0.98828433  1
  O  O31  1  0.33387859  0.39680504  0.97495901  1
  O  O32  1  0.60059372  0.93191625  0.95892132  1
  O  O33  1  0.06801283  0.39475999  0.98849994  1
  O  O34  1  0.32916255  0.93653591  0.96276102  1
  O  O35  1  0.59946719  0.66421740  0.97037629  1
  O  O36  1  0.41775707  0.58161137  0.33435632  1
  O  O37  1  0.41677457  0.83190514  0.34149793  1
  O  O38  1  0.17051356  0.58457857  0.32872445  1
  O  O39  1  0.58161137  0.41775707  0.83435632  1
  O  O40  1  0.58457857  0.17051356  0.82872445  1
  O  O41  1  0.83190514  0.41677457  0.84149793  1
  O  O42  1  0.75350787  0.25598279  0.16455494  1
  O  O43  1  0.74834562  0.50386962  0.15669918  1
  O  O44  1  0.49897615  0.25690558  0.16490563  1
  O  O45  1  0.25598279  0.75350787  0.66455494  1
  O  O46  1  0.25690558  0.49897615  0.66490563  1
  O  O47  1  0.50386962  0.74834562  0.65669918  1
  O  O48  1  0.09787953  0.19700476  0.73078213  1
  O  O49  1  0.80741158  0.89662899  0.72945447  1
  O  O50  1  0.08928617  0.89273517  0.72128041  1
  O  O51  1  0.89662899  0.80741158  0.22945447  1
  O  O52  1  0.19700476  0.09787953  0.23078213  1
  O  O53  1  0.89273517  0.08928617  0.22128041  1
