# generated using pymatgen
data_CsPr(NbBr3)6
_symmetry_space_group_name_H-M   'P 1'
_cell_length_a   9.92665146
_cell_length_b   9.92665146
_cell_length_c   18.51173538
_cell_angle_alpha   90.00000000
_cell_angle_beta   90.00000000
_cell_angle_gamma   120.00000414
_symmetry_Int_Tables_number   1
_chemical_formula_structural   CsPr(NbBr3)6
_chemical_formula_sum   'Cs2 Pr2 Nb12 Br36'
_cell_volume   1579.73155801
_cell_formula_units_Z   2
loop_
 _symmetry_equiv_pos_site_id
 _symmetry_equiv_pos_as_xyz
  1  'x, y, z'
loop_
 _atom_site_type_symbol
 _atom_site_label
 _atom_site_symmetry_multiplicity
 _atom_site_fract_x
 _atom_site_fract_y
 _atom_site_fract_z
 _atom_site_occupancy
  Cs  Cs0  1  0.33333300  0.66666700  0.75000000  1
  Cs  Cs1  1  0.66666700  0.33333300  0.25000000  1
  Pr  Pr2  1  0.66666700  0.33333300  0.75000000  1
  Pr  Pr3  1  0.33333300  0.66666700  0.25000000  1
  Nb  Nb4  1  0.84816946  0.03465999  0.56492283  1
  Nb  Nb5  1  0.15183054  0.96534001  0.43507717  1
  Nb  Nb6  1  0.96534001  0.81350947  0.56492283  1
  Nb  Nb7  1  0.84816946  0.81350947  0.93507717  1
  Nb  Nb8  1  0.03465999  0.18649053  0.43507717  1
  Nb  Nb9  1  0.15183054  0.18649053  0.06492283  1
  Nb  Nb10  1  0.18649053  0.15183054  0.56492283  1
  Nb  Nb11  1  0.96534001  0.15183054  0.93507717  1
  Nb  Nb12  1  0.81350947  0.84816946  0.43507717  1
  Nb  Nb13  1  0.03465999  0.84816946  0.06492283  1
  Nb  Nb14  1  0.18649053  0.03465999  0.93507717  1
  Nb  Nb15  1  0.81350947  0.96534001  0.06492283  1
  Br  Br16  1  0.63183814  0.07424586  0.65942862  1
  Br  Br17  1  0.36816186  0.92575414  0.34057138  1
  Br  Br18  1  0.92575414  0.55759329  0.65942862  1
  Br  Br19  1  0.63183814  0.55759329  0.84057138  1
  Br  Br20  1  0.07424586  0.44240671  0.34057138  1
  Br  Br21  1  0.36816186  0.44240671  0.15942862  1
  Br  Br22  1  0.44240671  0.36816186  0.65942862  1
  Br  Br23  1  0.92575414  0.36816186  0.84057138  1
  Br  Br24  1  0.55759329  0.63183814  0.34057138  1
  Br  Br25  1  0.07424586  0.63183814  0.15942862  1
  Br  Br26  1  0.44240671  0.07424586  0.84057138  1
  Br  Br27  1  0.55759329  0.92575414  0.15942862  1
  Br  Br28  1  0.04172049  0.22925653  0.65980398  1
  Br  Br29  1  0.95827951  0.77074347  0.34019602  1
  Br  Br30  1  0.77074347  0.81246397  0.65980398  1
  Br  Br31  1  0.04172049  0.81246397  0.84019602  1
  Br  Br32  1  0.22925653  0.18753603  0.34019602  1
  Br  Br33  1  0.95827951  0.18753603  0.15980398  1
  Br  Br34  1  0.18753603  0.95827951  0.65980398  1
  Br  Br35  1  0.77074347  0.95827951  0.84019602  1
  Br  Br36  1  0.81246397  0.04172049  0.34019602  1
  Br  Br37  1  0.22925653  0.04172049  0.15980398  1
  Br  Br38  1  0.18753603  0.22925653  0.84019602  1
  Br  Br39  1  0.81246397  0.77074347  0.15980398  1
  Br  Br40  1  0.27143857  0.41620730  0.50015119  1
  Br  Br41  1  0.72856143  0.58379270  0.49984881  1
  Br  Br42  1  0.58379270  0.85523127  0.50015119  1
  Br  Br43  1  0.27143857  0.85523127  -0.00015119  1
  Br  Br44  1  0.41620730  0.14476873  0.49984881  1
  Br  Br45  1  0.72856143  0.14476873  0.00015119  1
  Br  Br46  1  0.14476873  0.72856143  0.50015119  1
  Br  Br47  1  0.58379270  0.72856143  -0.00015119  1
  Br  Br48  1  0.85523127  0.27143857  0.49984881  1
  Br  Br49  1  0.41620730  0.27143857  0.00015119  1
  Br  Br50  1  0.14476873  0.41620730  -0.00015119  1
  Br  Br51  1  0.85523127  0.58379270  0.00015119  1
