# generated using pymatgen
data_Sr2MgZn2Sn2(PO4)4
_symmetry_space_group_name_H-M   'P 1'
_cell_length_a   5.48787465
_cell_length_b   6.71921634
_cell_length_c   11.68832767
_cell_angle_alpha   104.67691211
_cell_angle_beta   93.20275534
_cell_angle_gamma   98.75680625
_symmetry_Int_Tables_number   1
_chemical_formula_structural   Sr2MgZn2Sn2(PO4)4
_chemical_formula_sum   'Sr2 Mg1 Zn2 Sn2 P4 O16'
_cell_volume   410.05909875
_cell_formula_units_Z   1
loop_
 _symmetry_equiv_pos_site_id
 _symmetry_equiv_pos_as_xyz
  1  'x, y, z'
loop_
 _atom_site_type_symbol
 _atom_site_label
 _atom_site_symmetry_multiplicity
 _atom_site_fract_x
 _atom_site_fract_y
 _atom_site_fract_z
 _atom_site_occupancy
  Sr  Sr0  1  0.21076634  0.79400715  0.04600142  1
  Sr  Sr1  1  0.76856171  0.19947400  0.95800310  1
  Mg  Mg2  1  0.81442678  0.53448766  0.25652694  1
  Zn  Zn3  1  0.08005518  0.46065208  0.73971097  1
  Zn  Zn4  1  0.07478582  0.68008026  0.48709791  1
  Sn  Sn5  1  0.67110007  0.90596547  0.63454627  1
  Sn  Sn6  1  0.23747840  0.13502541  0.35450051  1
  P  P7  1  0.32923082  0.39999850  0.18097693  1
  P  P8  1  0.66611754  0.58992195  0.80062981  1
  P  P9  1  0.71992151  0.99447883  0.22054109  1
  P  P10  1  0.22293188  0.01634828  0.77286703  1
  O  O11  1  0.86076578  0.55186267  0.89281725  1
  O  O12  1  0.54629571  0.43699228  0.10494846  1
  O  O13  1  0.70612197  0.82670191  0.80312936  1
  O  O14  1  0.02251315  0.13677605  0.72694129  1
  O  O15  1  0.39939620  0.53301007  0.83353144  1
  O  O16  1  0.17707208  0.78795906  0.69127565  1
  O  O17  1  0.81950484  0.22702413  0.28642841  1
  O  O18  1  0.20574635  0.03581758  0.90526407  1
  O  O19  1  0.23803198  0.16256068  0.16824538  1
  O  O20  1  0.68470859  0.95297798  0.08385483  1
  O  O21  1  0.09927956  0.48764267  0.14194916  1
  O  O22  1  0.43955556  0.49581188  0.31212148  1
  O  O23  1  0.72927419  0.46745092  0.67656687  1
  O  O24  1  0.47080028  0.91338105  0.26460010  1
  O  O25  1  0.91652028  0.86201793  0.25326779  1
  O  O26  1  0.48427542  0.12453555  0.75365648  1
