# generated using pymatgen
data_Rb4Mo5(PO11)2
_symmetry_space_group_name_H-M   'P 1'
_cell_length_a   10.44179809
_cell_length_b   10.44179809
_cell_length_c   17.44502190
_cell_angle_alpha   90.00000000
_cell_angle_beta   90.00000000
_cell_angle_gamma   143.51652809
_symmetry_Int_Tables_number   1
_chemical_formula_structural   Rb4Mo5(PO11)2
_chemical_formula_sum   'Rb8 Mo10 P4 O44'
_cell_volume   1130.94202037
_cell_formula_units_Z   2
loop_
 _symmetry_equiv_pos_site_id
 _symmetry_equiv_pos_as_xyz
  1  'x, y, z'
loop_
 _atom_site_type_symbol
 _atom_site_label
 _atom_site_symmetry_multiplicity
 _atom_site_fract_x
 _atom_site_fract_y
 _atom_site_fract_z
 _atom_site_occupancy
  Rb  Rb0  1  0.03767265  0.03767265  -0.00000000  1
  Rb  Rb1  1  0.96232735  0.96232735  0.50000000  1
  Rb  Rb2  1  0.70466139  0.22966693  0.59871739  1
  Rb  Rb3  1  0.22966693  0.70466139  0.40128261  1
  Rb  Rb4  1  0.29533861  0.77033307  0.09871739  1
  Rb  Rb5  1  0.77033307  0.29533861  0.90128261  1
  Rb  Rb6  1  0.08290724  0.91709276  0.75000000  1
  Rb  Rb7  1  0.91709276  0.08290724  0.25000000  1
  Mo  Mo8  1  0.29241165  0.57226887  0.59236057  1
  Mo  Mo9  1  0.57226887  0.29241165  0.40763943  1
  Mo  Mo10  1  0.70758835  0.42773113  0.09236057  1
  Mo  Mo11  1  0.42773113  0.70758835  0.90763943  1
  Mo  Mo12  1  0.26247934  0.73752066  0.75000000  1
  Mo  Mo13  1  0.73752066  0.26247934  0.25000000  1
  Mo  Mo14  1  0.52070247  0.47254036  0.85686160  1
  Mo  Mo15  1  0.47253936  0.52070247  0.14313840  1
  Mo  Mo16  1  0.47929753  0.52746064  0.35686160  1
  Mo  Mo17  1  0.52745964  0.47929753  0.64313840  1
  P  P18  1  0.68922364  0.87223952  0.73403765  1
  P  P19  1  0.87223952  0.68922364  0.26596235  1
  P  P20  1  0.31077636  0.12776048  0.23403765  1
  P  P21  1  0.12776048  0.31077636  0.76596235  1
  O  O22  1  0.77250242  0.83246698  0.68497603  1
  O  O23  1  0.83246698  0.77250242  0.31502397  1
  O  O24  1  0.22749758  0.16753302  0.18497603  1
  O  O25  1  0.16753302  0.22749758  0.81502397  1
  O  O26  1  0.61184283  0.76059791  0.81179648  1
  O  O27  1  0.76059791  0.61184283  0.18820352  1
  O  O28  1  0.38815717  0.23940209  0.31179648  1
  O  O29  1  0.23940209  0.38815717  0.68820352  1
  O  O30  1  0.87619838  0.12380162  0.75000000  1
  O  O31  1  0.12380162  0.87619838  0.25000000  1
  O  O32  1  0.52030908  0.81805937  0.69371350  1
  O  O33  1  0.81805937  0.52030908  0.30628650  1
  O  O34  1  0.47969092  0.18194063  0.19371350  1
  O  O35  1  0.18194063  0.47969092  0.80628650  1
  O  O36  1  0.48333738  0.58446349  0.57461907  1
  O  O37  1  0.58446349  0.48333738  0.42538093  1
  O  O38  1  0.51666262  0.41553651  0.07461907  1
  O  O39  1  0.41553651  0.51666262  0.92538093  1
  O  O40  1  0.07479066  0.35601591  0.53792370  1
  O  O41  1  0.35601591  0.07479066  0.46207630  1
  O  O42  1  0.92520934  0.64398409  0.03792370  1
  O  O43  1  0.64398409  0.92520934  0.96207630  1
  O  O44  1  0.42185798  0.79255538  0.54064529  1
  O  O45  1  0.79255538  0.42185798  0.45935471  1
  O  O46  1  0.57814202  0.20744462  0.04064529  1
  O  O47  1  0.20744462  0.57814202  0.95935471  1
  O  O48  1  0.44774426  0.86638630  0.83667370  1
  O  O49  1  0.86638630  0.44774426  0.16332630  1
  O  O50  1  0.55225574  0.13361370  0.33667370  1
  O  O51  1  0.13361370  0.55225574  0.66332630  1
  O  O52  1  0.38385064  0.96676195  0.71034043  1
  O  O53  1  0.96676195  0.38385064  0.28965957  1
  O  O54  1  0.61614936  0.03323805  0.21034043  1
  O  O55  1  0.03323805  0.61614936  0.78965957  1
  O  O56  1  0.41536813  0.24898666  0.89221209  1
  O  O57  1  0.24898666  0.41536813  0.10778791  1
  O  O58  1  0.58463187  0.75101334  0.39221209  1
  O  O59  1  0.75101334  0.58463187  0.60778791  1
  O  O60  1  0.54473602  0.45526398  0.75000000  1
  O  O61  1  0.45526398  0.54473602  0.25000000  1
  O  O62  1  0.78561161  0.67813969  0.88309455  1
  O  O63  1  0.67813969  0.78561161  0.11690545  1
  O  O64  1  0.21438839  0.32186031  0.38309455  1
  O  O65  1  0.32186031  0.21438839  0.61690545  1
