# generated using pymatgen
data_PrSbO4
_symmetry_space_group_name_H-M   'P 1'
_cell_length_a   5.55616821
_cell_length_b   7.71014058
_cell_length_c   7.69016243
_cell_angle_alpha   79.24628726
_cell_angle_beta   90.00000000
_cell_angle_gamma   90.00000000
_symmetry_Int_Tables_number   1
_chemical_formula_structural   PrSbO4
_chemical_formula_sum   'Pr4 Sb4 O16'
_cell_volume   323.65214055
_cell_formula_units_Z   4
loop_
 _symmetry_equiv_pos_site_id
 _symmetry_equiv_pos_as_xyz
  1  'x, y, z'
loop_
 _atom_site_type_symbol
 _atom_site_label
 _atom_site_symmetry_multiplicity
 _atom_site_fract_x
 _atom_site_fract_y
 _atom_site_fract_z
 _atom_site_occupancy
  Pr  Pr0  1  0.27337499  0.09903995  0.15245882  1
  Pr  Pr1  1  0.77337499  0.40096005  0.84754118  1
  Pr  Pr2  1  0.72662501  0.90096005  0.84754118  1
  Pr  Pr3  1  0.22662501  0.59903995  0.15245882  1
  Sb  Sb4  1  0.76783975  0.30043054  0.33624008  1
  Sb  Sb5  1  0.26783975  0.19956946  0.66375992  1
  Sb  Sb6  1  0.23216025  0.69956946  0.66375992  1
  Sb  Sb7  1  0.73216025  0.80043054  0.33624008  1
  O  O8  1  0.97570737  0.32688183  0.12116424  1
  O  O9  1  0.47570737  0.17311817  0.87883576  1
  O  O10  1  0.02429263  0.67311817  0.87883576  1
  O  O11  1  0.52429263  0.82688183  0.12116424  1
  O  O12  1  0.64590927  0.05366951  0.33331252  1
  O  O13  1  0.14590927  0.44633049  0.66668748  1
  O  O14  1  0.35409073  0.94633049  0.66668748  1
  O  O15  1  0.85409073  0.55366951  0.33331252  1
  O  O16  1  0.99503175  0.86848351  0.17159668  1
  O  O17  1  0.49503175  0.63151649  0.82840332  1
  O  O18  1  0.00496825  0.13151649  0.82840332  1
  O  O19  1  0.50496825  0.36848351  0.17159668  1
  O  O20  1  0.91293042  0.79451337  0.55912049  1
  O  O21  1  0.41293042  0.70548663  0.44087951  1
  O  O22  1  0.08706958  0.20548663  0.44087951  1
  O  O23  1  0.58706958  0.29451337  0.55912049  1
