# generated using pymatgen
data_Sc2Se3
_symmetry_space_group_name_H-M   'P 1'
_cell_length_a   6.80549372
_cell_length_b   6.80549372
_cell_length_c   6.80549372
_cell_angle_alpha   147.32649316
_cell_angle_beta   133.25499357
_cell_angle_gamma   58.19655043
_symmetry_Int_Tables_number   1
_chemical_formula_structural   Sc2Se3
_chemical_formula_sum   'Sc2 Se3'
_cell_volume   122.92980231
_cell_formula_units_Z   1
loop_
 _symmetry_equiv_pos_site_id
 _symmetry_equiv_pos_as_xyz
  1  'x, y, z'
loop_
 _atom_site_type_symbol
 _atom_site_label
 _atom_site_symmetry_multiplicity
 _atom_site_fract_x
 _atom_site_fract_y
 _atom_site_fract_z
 _atom_site_occupancy
  Sc  Sc0  1  0.66101370  0.16101370  0.50000000  1
  Sc  Sc1  1  0.33898630  0.83898630  0.50000000  1
  Se  Se2  1  0.50000000  0.50000000  0.00000000  1
  Se  Se3  1  0.18042725  0.18042725  0.00000000  1
  Se  Se4  1  0.81957275  0.81957275  -0.00000000  1
