# generated using pymatgen
data_LaYS3
_symmetry_space_group_name_H-M   'P 1'
_cell_length_a   4.02574354
_cell_length_b   11.13395924
_cell_length_c   21.76026455
_cell_angle_alpha   78.71040024
_cell_angle_beta   90.00000000
_cell_angle_gamma   90.00000000
_symmetry_Int_Tables_number   1
_chemical_formula_structural   LaYS3
_chemical_formula_sum   'La8 Y8 S24'
_cell_volume   956.47589339
_cell_formula_units_Z   8
loop_
 _symmetry_equiv_pos_site_id
 _symmetry_equiv_pos_as_xyz
  1  'x, y, z'
loop_
 _atom_site_type_symbol
 _atom_site_label
 _atom_site_symmetry_multiplicity
 _atom_site_fract_x
 _atom_site_fract_y
 _atom_site_fract_z
 _atom_site_occupancy
  La  La0  1  0.25000000  0.30196102  0.76644823  1
  La  La1  1  0.75000000  0.69803898  0.23355177  1
  La  La2  1  0.25000000  0.90845386  0.86397155  1
  La  La3  1  0.75000000  0.09154614  0.13602845  1
  La  La4  1  0.25000000  0.69079009  0.73317782  1
  La  La5  1  0.75000000  0.30920991  0.26682218  1
  La  La6  1  0.25000000  0.80006191  0.53685747  1
  La  La7  1  0.75000000  0.19993809  0.46314253  1
  Y  Y8  1  0.25000000  0.55313436  0.41651559  1
  Y  Y9  1  0.75000000  0.44686564  0.58348441  1
  Y  Y10  1  0.25000000  0.97043162  0.35036564  1
  Y  Y11  1  0.75000000  0.02956838  0.64963436  1
  Y  Y12  1  0.25000000  0.82025833  0.04639593  1
  Y  Y13  1  0.75000000  0.17974167  0.95360407  1
  Y  Y14  1  0.25000000  0.47731822  0.08755443  1
  Y  Y15  1  0.75000000  0.52268178  0.91244557  1
  S  S16  1  0.25000000  0.08622818  0.03639015  1
  S  S17  1  0.75000000  0.91377182  0.96360985  1
  S  S18  1  0.25000000  0.20536238  0.36505456  1
  S  S19  1  0.75000000  0.79463762  0.63494544  1
  S  S20  1  0.25000000  0.74538676  0.32361556  1
  S  S21  1  0.75000000  0.25461324  0.67638444  1
  S  S22  1  0.25000000  0.63627124  0.96446454  1
  S  S23  1  0.75000000  0.36372876  0.03553546  1
  S  S24  1  0.25000000  0.50659427  0.22047937  1
  S  S25  1  0.75000000  0.49340573  0.77952063  1
  S  S26  1  0.25000000  0.25193026  0.17326181  1
  S  S27  1  0.75000000  0.74806974  0.82673819  1
  S  S28  1  0.25000000  0.87537733  0.16334902  1
  S  S29  1  0.75000000  0.12462267  0.83665098  1
  S  S30  1  0.25000000  0.35612012  0.51364859  1
  S  S31  1  0.75000000  0.64387988  0.48635141  1
  S  S32  1  0.25000000  0.05773609  0.55632210  1
  S  S33  1  0.75000000  0.94226391  0.44367790  1
  S  S34  1  0.25000000  0.96231180  0.72963969  1
  S  S35  1  0.75000000  0.03768820  0.27036031  1
  S  S36  1  0.25000000  0.54664782  0.63419685  1
  S  S37  1  0.75000000  0.45335218  0.36580315  1
  S  S38  1  0.25000000  0.34236750  0.90132756  1
  S  S39  1  0.75000000  0.65763250  0.09867244  1
