# generated using pymatgen
data_Na6Ni(SO4)4
_symmetry_space_group_name_H-M   'P 1'
_cell_length_a   8.06752614
_cell_length_b   9.12247167
_cell_length_c   9.55763299
_cell_angle_alpha   90.00000000
_cell_angle_beta   113.19185000
_cell_angle_gamma   90.00000000
_symmetry_Int_Tables_number   1
_chemical_formula_structural   Na6Ni(SO4)4
_chemical_formula_sum   'Na12 Ni2 S8 O32'
_cell_volume   646.56053223
_cell_formula_units_Z   2
loop_
 _symmetry_equiv_pos_site_id
 _symmetry_equiv_pos_as_xyz
  1  'x, y, z'
loop_
 _atom_site_type_symbol
 _atom_site_label
 _atom_site_symmetry_multiplicity
 _atom_site_fract_x
 _atom_site_fract_y
 _atom_site_fract_z
 _atom_site_occupancy
  Na  Na0  1  0.90903285  0.84544204  0.56141585  1
  Na  Na1  1  0.09096715  0.15455796  0.43858415  1
  Na  Na2  1  0.59096715  0.34544204  0.43858415  1
  Na  Na3  1  0.40903285  0.65455796  0.56141585  1
  Na  Na4  1  0.53631922  0.98721423  0.68705650  1
  Na  Na5  1  0.46368078  0.01278577  0.31294350  1
  Na  Na6  1  0.96368078  0.48721423  0.31294350  1
  Na  Na7  1  0.03631922  0.51278577  0.68705650  1
  Na  Na8  1  0.81352583  0.36864753  0.88379934  1
  Na  Na9  1  0.18647417  0.63135247  0.11620066  1
  Na  Na10  1  0.68647417  0.86864753  0.11620066  1
  Na  Na11  1  0.31352583  0.13135247  0.88379934  1
  Ni  Ni12  1  0.00000000  -0.00000000  -0.00000000  1
  Ni  Ni13  1  0.50000000  0.50000000  -0.00000000  1
  S  S14  1  0.78088153  0.69767758  0.85788148  1
  S  S15  1  0.21911847  0.30232242  0.14211852  1
  S  S16  1  0.71911847  0.19767758  0.14211852  1
  S  S17  1  0.28088153  0.80232242  0.85788148  1
  S  S18  1  0.65172683  0.64826466  0.33915451  1
  S  S19  1  0.34827317  0.35173534  0.66084549  1
  S  S20  1  0.84827317  0.14826466  0.66084549  1
  S  S21  1  0.15172683  0.85173534  0.33915451  1
  O  O22  1  0.84601500  0.81606504  0.97478104  1
  O  O23  1  0.15398500  0.18393496  0.02521896  1
  O  O24  1  0.65398500  0.31606504  0.02521896  1
  O  O25  1  0.34601500  0.68393496  0.97478104  1
  O  O26  1  0.93467720  0.60594251  0.86621171  1
  O  O27  1  0.06532280  0.39405749  0.13378829  1
  O  O28  1  0.56532280  0.10594251  0.13378829  1
  O  O29  1  0.43467720  0.89405749  0.86621171  1
  O  O30  1  0.99335803  0.91573386  0.35389272  1
  O  O31  1  0.00664197  0.08426614  0.64610728  1
  O  O32  1  0.50664197  0.41573386  0.64610728  1
  O  O33  1  0.49335803  0.58426614  0.35389272  1
  O  O34  1  0.69317422  0.76341184  0.70580483  1
  O  O35  1  0.30682578  0.23658816  0.29419517  1
  O  O36  1  0.80682578  0.26341184  0.29419517  1
  O  O37  1  0.19317422  0.73658816  0.70580483  1
  O  O38  1  0.65229096  0.60603121  0.89369152  1
  O  O39  1  0.34770904  0.39396879  0.10630848  1
  O  O40  1  0.84770904  0.10603121  0.10630848  1
  O  O41  1  0.15229096  0.89396879  0.89369152  1
  O  O42  1  0.81868764  0.60241273  0.46654750  1
  O  O43  1  0.18131236  0.39758727  0.53345250  1
  O  O44  1  0.68131236  0.10241273  0.53345250  1
  O  O45  1  0.31868764  0.89758727  0.46654750  1
  O  O46  1  0.32968433  0.40392433  0.80298040  1
  O  O47  1  0.67031567  0.59607567  0.19701960  1
  O  O48  1  0.17031567  0.90392433  0.19701960  1
  O  O49  1  0.82968433  0.09607567  0.80298040  1
  O  O50  1  0.86102698  0.30920104  0.66606009  1
  O  O51  1  0.13897302  0.69079896  0.33393991  1
  O  O52  1  0.63897302  0.80920104  0.33393991  1
  O  O53  1  0.36102698  0.19079896  0.66606009  1
