# generated using pymatgen
data_MgMn2P2(H2O5)2
_symmetry_space_group_name_H-M   'P 1'
_cell_length_a   5.30757214
_cell_length_b   5.52293422
_cell_length_c   7.82258443
_cell_angle_alpha   102.56190020
_cell_angle_beta   106.89172735
_cell_angle_gamma   98.50919521
_symmetry_Int_Tables_number   1
_chemical_formula_structural   MgMn2P2(H2O5)2
_chemical_formula_sum   'Mg1 Mn2 P2 H4 O10'
_cell_volume   208.61485436
_cell_formula_units_Z   1
loop_
 _symmetry_equiv_pos_site_id
 _symmetry_equiv_pos_as_xyz
  1  'x, y, z'
loop_
 _atom_site_type_symbol
 _atom_site_label
 _atom_site_symmetry_multiplicity
 _atom_site_fract_x
 _atom_site_fract_y
 _atom_site_fract_z
 _atom_site_occupancy
  Mg  Mg0  1  0.09105700  0.35156300  0.87988400  1
  Mn  Mn1  1  0.98446500  0.44843500  0.45923000  1
  Mn  Mn2  1  0.51284800  0.01450400  0.00480000  1
  P  P3  1  0.41352900  0.58144400  0.24383200  1
  P  P4  1  0.60582900  0.46315500  0.77175800  1
  H  H5  1  0.86572400  0.90879300  0.28612600  1
  H  H6  1  0.06308700  0.09436500  0.21144600  1
  H  H7  1  0.04813500  0.93547600  0.65033800  1
  H  H8  1  0.90714100  0.86566100  0.80319300  1
  O  O9  1  0.31341800  0.69943000  0.07687700  1
  O  O10  1  0.27926500  0.65066100  0.38954100  1
  O  O11  1  0.71583000  0.33260400  0.92837100  1
  O  O12  1  0.76855400  0.38774200  0.64055200  1
  O  O13  1  0.72633100  0.66674600  0.33143900  1
  O  O14  1  0.31973800  0.28500900  0.14188900  1
  O  O15  1  0.29492600  0.37393400  0.68930300  1
  O  O16  1  0.68249500  0.75883800  0.84737600  1
  O  O17  1  0.07986100  0.96610000  0.78345500  1
  O  O18  1  0.90276700  0.07804000  0.25344500  1
