# generated using pymatgen
data_RbBi3F10
_symmetry_space_group_name_H-M   'P 1'
_cell_length_a   8.47588376
_cell_length_b   8.47588764
_cell_length_c   8.47588722
_cell_angle_alpha   59.99995027
_cell_angle_beta   59.99988721
_cell_angle_gamma   59.99988235
_symmetry_Int_Tables_number   1
_chemical_formula_structural   RbBi3F10
_chemical_formula_sum   'Rb2 Bi6 F20'
_cell_volume   430.56570544
_cell_formula_units_Z   2
loop_
 _symmetry_equiv_pos_site_id
 _symmetry_equiv_pos_as_xyz
  1  'x, y, z'
loop_
 _atom_site_type_symbol
 _atom_site_label
 _atom_site_symmetry_multiplicity
 _atom_site_fract_x
 _atom_site_fract_y
 _atom_site_fract_z
 _atom_site_occupancy
  Rb  Rb0  1  0.24999948  0.25000013  0.25000014  1
  Rb  Rb1  1  0.74999972  0.75000004  0.75000000  1
  Bi  Bi2  1  0.75968849  0.24031052  0.24031055  1
  Bi  Bi3  1  0.24031042  0.75968993  0.75968992  1
  Bi  Bi4  1  0.24030955  0.75968856  0.24031076  1
  Bi  Bi5  1  0.75968956  0.24031145  0.75968927  1
  Bi  Bi6  1  0.24030970  0.24031075  0.75968840  1
  Bi  Bi7  1  0.75968958  0.75968911  0.24031147  1
  F  F8  1  0.82983417  0.49999986  0.49999986  1
  F  F9  1  0.17016440  0.50000072  0.50000077  1
  F  F10  1  0.50000005  0.82983238  0.17016789  1
  F  F11  1  0.50000000  0.17016783  0.82983248  1
  F  F12  1  0.49999920  0.82983493  0.49999983  1
  F  F13  1  0.17016724  0.50000103  0.82983217  1
  F  F14  1  0.50000027  0.17016492  0.50000049  1
  F  F15  1  0.82983155  0.50000040  0.17016790  1
  F  F16  1  0.49999910  0.49999974  0.82983497  1
  F  F17  1  0.50000040  0.50000049  0.17016474  1
  F  F18  1  0.17016727  0.82983206  0.50000104  1
  F  F19  1  0.82983163  0.17016784  0.50000035  1
  F  F20  1  0.11329487  0.11329571  0.11329568  1
  F  F21  1  0.88670507  0.88670452  0.88670445  1
  F  F22  1  0.11330076  0.11330109  0.66010447  1
  F  F23  1  0.11330077  0.66010460  0.11330096  1
  F  F24  1  0.88670342  0.88670375  0.33988736  1
  F  F25  1  0.88670335  0.33988738  0.88670375  1
  F  F26  1  0.66011247  0.11329642  0.11329639  1
  F  F27  1  0.33988649  0.88670384  0.88670396  1
