# generated using pymatgen
data_Na15Mo7N19
_symmetry_space_group_name_H-M   'P 1'
_cell_length_a   6.24091887
_cell_length_b   11.74788663
_cell_length_c   18.81711297
_cell_angle_alpha   91.60124802
_cell_angle_beta   93.63176636
_cell_angle_gamma   102.60146876
_symmetry_Int_Tables_number   1
_chemical_formula_structural   Na15Mo7N19
_chemical_formula_sum   'Na30 Mo14 N38'
_cell_volume   1342.45237088
_cell_formula_units_Z   2
loop_
 _symmetry_equiv_pos_site_id
 _symmetry_equiv_pos_as_xyz
  1  'x, y, z'
loop_
 _atom_site_type_symbol
 _atom_site_label
 _atom_site_symmetry_multiplicity
 _atom_site_fract_x
 _atom_site_fract_y
 _atom_site_fract_z
 _atom_site_occupancy
  Na  Na0  1  0.54210300  0.62286100  0.44923800  1
  Na  Na1  1  0.45789700  0.37713900  0.55076200  1
  Na  Na2  1  0.54884600  0.14893600  0.63754600  1
  Na  Na3  1  0.45115400  0.85106400  0.36245400  1
  Na  Na4  1  0.73968700  0.99837400  0.19424900  1
  Na  Na5  1  0.26031300  0.00162600  0.80575100  1
  Na  Na6  1  0.91376100  0.01912000  0.36646600  1
  Na  Na7  1  0.08623900  0.98088000  0.63353400  1
  Na  Na8  1  0.86456800  0.76667900  0.29604600  1
  Na  Na9  1  0.13543200  0.23332100  0.70395400  1
  Na  Na10  1  0.82269900  0.16124100  0.83420400  1
  Na  Na11  1  0.17730100  0.83875900  0.16579600  1
  Na  Na12  1  0.89561400  0.91039000  0.91531200  1
  Na  Na13  1  0.10438600  0.08961000  0.08468800  1
  Na  Na14  1  0.69460200  0.11033000  0.99509600  1
  Na  Na15  1  0.30539800  0.88967000  0.00490400  1
  Na  Na16  1  0.67121800  0.92145700  0.52029200  1
  Na  Na17  1  0.32878200  0.07854300  0.47970800  1
  Na  Na18  1  0.65899900  0.47548600  0.29653900  1
  Na  Na19  1  0.34100100  0.52451400  0.70346100  1
  Na  Na20  1  0.96028100  0.35637700  0.00564000  1
  Na  Na21  1  0.03971900  0.64362300  0.99436000  1
  Na  Na22  1  0.89365700  0.69015300  0.80299800  1
  Na  Na23  1  0.10634300  0.30984700  0.19700200  1
  Na  Na24  1  0.69451400  0.23001900  0.39401200  1
  Na  Na25  1  0.30548600  0.76998100  0.60598800  1
  Na  Na26  1  0.56879200  0.37007600  0.83712700  1
  Na  Na27  1  0.43120800  0.62992400  0.16287300  1
  Na  Na28  1  0.00000000  0.50000000  0.50000000  1
  Na  Na29  1  0.50000000  0.50000000  0.00000000  1
  Mo  Mo30  1  0.58744300  0.24838900  0.13150000  1
  Mo  Mo31  1  0.41255700  0.75161100  0.86850000  1
  Mo  Mo32  1  0.79314300  0.41135700  0.69329600  1
  Mo  Mo33  1  0.20685700  0.58864300  0.30670400  1
  Mo  Mo34  1  0.73905300  0.66735600  0.61416500  1
  Mo  Mo35  1  0.26094700  0.33264400  0.38583500  1
  Mo  Mo36  1  0.03922700  0.76713100  0.45881300  1
  Mo  Mo37  1  0.96077300  0.23286900  0.54118700  1
  Mo  Mo38  1  0.90296800  0.54179300  0.14342100  1
  Mo  Mo39  1  0.09703200  0.45820700  0.85657900  1
  Mo  Mo40  1  0.67244300  0.91993000  0.72308300  1
  Mo  Mo41  1  0.32755700  0.08007000  0.27691700  1
  Mo  Mo42  1  0.70065700  0.78257600  0.05592900  1
  Mo  Mo43  1  0.29934300  0.21742400  0.94407100  1
  N  N44  1  0.81019600  0.17713700  0.12233500  1
  N  N45  1  0.18980400  0.82286300  0.87766500  1
  N  N46  1  0.87640000  0.33913200  0.61202400  1
  N  N47  1  0.12360000  0.66086800  0.38797600  1
  N  N48  1  0.57548400  0.03640000  0.30757200  1
  N  N49  1  0.42451600  0.96360000  0.69242800  1
  N  N50  1  0.62499500  0.83466200  0.81105700  1
  N  N51  1  0.37500500  0.16533800  0.18894300  1
  N  N52  1  0.70289200  0.40510300  0.17061300  1
  N  N53  1  0.29710800  0.59489700  0.82938700  1
  N  N54  1  0.53642400  0.40499000  0.41752200  1
  N  N55  1  0.46357600  0.59501000  0.58247800  1
  N  N56  1  0.71937400  0.12476800  0.50934800  1
  N  N57  1  0.28062600  0.87523200  0.49065200  1
  N  N58  1  0.92593000  0.67561100  0.53823700  1
  N  N59  1  0.07407000  0.32438900  0.46176300  1
  N  N60  1  0.96648600  0.88234300  0.05423200  1
  N  N61  1  0.03351400  0.11765700  0.94576800  1
  N  N62  1  0.82403100  0.83271200  0.42049900  1
  N  N63  1  0.17596900  0.16728800  0.57950100  1
  N  N64  1  0.74651200  0.82082400  0.64617900  1
  N  N65  1  0.25348800  0.17917600  0.35382100  1
  N  N66  1  0.88624900  0.49423900  0.90733600  1
  N  N67  1  0.11375100  0.50576100  0.09266400  1
  N  N68  1  0.55434900  0.75554100  0.96118800  1
  N  N69  1  0.44565100  0.24445900  0.03881200  1
  N  N70  1  0.74346800  0.63043700  0.08688500  1
  N  N71  1  0.25653200  0.36956300  0.91311500  1
  N  N72  1  0.89943400  0.04547000  0.73756200  1
  N  N73  1  0.10056600  0.95453000  0.26243800  1
  N  N74  1  0.03763900  0.63198000  0.22650700  1
  N  N75  1  0.96236100  0.36802000  0.77349300  1
  N  N76  1  0.83649900  0.57713500  0.68916300  1
  N  N77  1  0.16350100  0.42286500  0.31083700  1
  N  N78  1  0.50986800  0.35161100  0.70461100  1
  N  N79  1  0.49013200  0.64838900  0.29538900  1
  N  N80  1  0.52206700  0.83819100  0.11377900  1
  N  N81  1  0.47793300  0.16180900  0.88622100  1
