# generated using pymatgen
data_Gd6MgIn2O12
_symmetry_space_group_name_H-M   'P 1'
_cell_length_a   6.99250114
_cell_length_b   6.95933463
_cell_length_c   6.83801893
_cell_angle_alpha   94.14595942
_cell_angle_beta   91.72693156
_cell_angle_gamma   91.75106101
_symmetry_Int_Tables_number   1
_chemical_formula_structural   Gd6MgIn2O12
_chemical_formula_sum   'Gd6 Mg1 In2 O12'
_cell_volume   331.55914499
_cell_formula_units_Z   1
loop_
 _symmetry_equiv_pos_site_id
 _symmetry_equiv_pos_as_xyz
  1  'x, y, z'
loop_
 _atom_site_type_symbol
 _atom_site_label
 _atom_site_symmetry_multiplicity
 _atom_site_fract_x
 _atom_site_fract_y
 _atom_site_fract_z
 _atom_site_occupancy
  Gd  Gd0  1  0.07216700  0.54898200  0.25719100  1
  Gd  Gd1  1  0.24652400  0.06101500  0.53733200  1
  Gd  Gd2  1  0.42655900  0.79190400  0.93530600  1
  Gd  Gd3  1  0.59310800  0.25713100  0.11301500  1
  Gd  Gd4  1  0.74659700  0.92532800  0.44923000  1
  Gd  Gd5  1  0.89456100  0.43874200  0.73978000  1
  Mg  Mg6  1  0.30115000  0.38858400  0.85451500  1
  In  In7  1  0.96801900  0.97385000  0.97484200  1
  In  In8  1  0.49294900  0.51244500  0.50015100  1
  O  O9  1  0.13538300  0.60315700  0.92676500  1
  O  O10  1  0.06453900  0.87253500  0.32183400  1
  O  O11  1  0.20182400  0.40379200  0.56108800  1
  O  O12  1  0.35590300  0.11747900  0.88893000  1
  O  O13  1  0.39597300  0.51490500  0.19449800  1
  O  O14  1  0.46165300  0.81734900  0.60192500  1
  O  O15  1  0.53134400  0.19448500  0.42557300  1
  O  O16  1  0.56934100  0.49320100  0.82272300  1
  O  O17  1  0.65600800  0.93615600  0.12656200  1
  O  O18  1  0.79734300  0.58695700  0.46160200  1
  O  O19  1  0.93003600  0.13464300  0.63425900  1
  O  O20  1  0.89901800  0.31735900  0.06287900  1
