# generated using pymatgen
data_MgBi2(IO)8
_symmetry_space_group_name_H-M   'P 1'
_cell_length_a   7.47707387
_cell_length_b   13.21977724
_cell_length_c   14.29909283
_cell_angle_alpha   90.00000000
_cell_angle_beta   102.47649451
_cell_angle_gamma   90.00000000
_symmetry_Int_Tables_number   1
_chemical_formula_structural   MgBi2(IO)8
_chemical_formula_sum   'Mg2 Bi4 I16 O16'
_cell_volume   1380.01964227
_cell_formula_units_Z   2
loop_
 _symmetry_equiv_pos_site_id
 _symmetry_equiv_pos_as_xyz
  1  'x, y, z'
loop_
 _atom_site_type_symbol
 _atom_site_label
 _atom_site_symmetry_multiplicity
 _atom_site_fract_x
 _atom_site_fract_y
 _atom_site_fract_z
 _atom_site_occupancy
  Mg  Mg0  1  0.50000000  0.50000000  0.00000000  1
  Mg  Mg1  1  0.50000000  0.00000000  0.50000000  1
  Bi  Bi2  1  0.77890271  0.03827508  0.07310688  1
  Bi  Bi3  1  0.22109729  0.53827508  0.42689312  1
  Bi  Bi4  1  0.22109729  0.96172492  0.92689312  1
  Bi  Bi5  1  0.77890271  0.46172492  0.57310688  1
  I  I6  1  0.71905132  0.14923264  0.23803608  1
  I  I7  1  0.28094868  0.64923264  0.26196392  1
  I  I8  1  0.28094868  0.85076736  0.76196392  1
  I  I9  1  0.71905132  0.35076736  0.73803608  1
  I  I10  1  0.53934435  0.13279355  0.90846453  1
  I  I11  1  0.46065565  0.63279355  0.59153547  1
  I  I12  1  0.46065565  0.86720645  0.09153547  1
  I  I13  1  0.53934435  0.36720645  0.40846453  1
  I  I14  1  0.88736595  0.84603788  0.94081658  1
  I  I15  1  0.11263405  0.34603788  0.55918342  1
  I  I16  1  0.11263405  0.15396212  0.05918342  1
  I  I17  1  0.88736595  0.65396212  0.44081658  1
  I  I18  1  0.14649716  0.93257597  0.38455506  1
  I  I19  1  0.85350284  0.43257597  0.11544494  1
  I  I20  1  0.85350284  0.06742403  0.61544494  1
  I  I21  1  0.14649716  0.56742403  0.88455506  1
  O  O22  1  0.65816325  0.47669878  0.16213516  1
  O  O23  1  0.34183675  0.97669878  0.33786484  1
  O  O24  1  0.34183675  0.52330122  0.83786484  1
  O  O25  1  0.65816325  0.02330122  0.66213516  1
  O  O26  1  0.72263622  0.58376830  0.98006605  1
  O  O27  1  0.27736378  0.08376830  0.51993395  1
  O  O28  1  0.27736378  0.41623170  0.01993395  1
  O  O29  1  0.72263622  0.91623170  0.48006605  1
  O  O30  1  0.28837444  0.61576992  0.99491635  1
  O  O31  1  0.71162556  0.11576992  0.50508365  1
  O  O32  1  0.71162556  0.38423008  0.00508365  1
  O  O33  1  0.28837444  0.88423008  0.49491635  1
  O  O34  1  0.12390525  0.07599436  0.44588542  1
  O  O35  1  0.87609475  0.57599436  0.05411458  1
  O  O36  1  0.87609475  0.92400564  0.55411458  1
  O  O37  1  0.12390525  0.42400564  0.94588542  1
