# generated using pymatgen
data_Sr2MgZn2Sn2(PO4)4
_symmetry_space_group_name_H-M   'P 1'
_cell_length_a   5.45151893
_cell_length_b   8.17895165
_cell_length_c   9.87160368
_cell_angle_alpha   110.08914111
_cell_angle_beta   99.84810040
_cell_angle_gamma   85.52819418
_symmetry_Int_Tables_number   1
_chemical_formula_structural   Sr2MgZn2Sn2(PO4)4
_chemical_formula_sum   'Sr2 Mg1 Zn2 Sn2 P4 O16'
_cell_volume   407.19399420
_cell_formula_units_Z   1
loop_
 _symmetry_equiv_pos_site_id
 _symmetry_equiv_pos_as_xyz
  1  'x, y, z'
loop_
 _atom_site_type_symbol
 _atom_site_label
 _atom_site_symmetry_multiplicity
 _atom_site_fract_x
 _atom_site_fract_y
 _atom_site_fract_z
 _atom_site_occupancy
  Sr  Sr0  1  0.14574296  0.73638334  0.03172864  1
  Sr  Sr1  1  0.85654653  0.24355626  0.99810928  1
  Mg  Mg2  1  0.08929858  0.72390024  0.70086353  1
  Zn  Zn3  1  0.98519442  0.26979618  0.58268557  1
  Zn  Zn4  1  0.91407839  0.65992909  0.36353684  1
  Sn  Sn5  1  0.52486341  0.85505961  0.48195100  1
  Sn  Sn6  1  0.38704505  0.20822538  0.46474974  1
  P  P7  1  0.39015432  0.45148075  0.24638703  1
  P  P8  1  0.63693520  0.54885392  0.77541982  1
  P  P9  1  0.75948694  0.96375367  0.24116285  1
  P  P10  1  0.25155626  0.04405303  0.77187642  1
  O  O11  1  0.76746315  0.51180451  0.91136382  1
  O  O12  1  0.67178685  0.46460732  0.24242756  1
  O  O13  1  0.77647886  0.69418718  0.75469739  1
  O  O14  1  0.03993678  0.17218413  0.74283928  1
  O  O15  1  0.35573019  0.59184024  0.78024941  1
  O  O16  1  0.24812657  0.87656270  0.62478158  1
  O  O17  1  0.76272062  0.12579535  0.38875119  1
  O  O18  1  0.16196034  0.96300177  0.87611965  1
  O  O19  1  0.33268028  0.28411306  0.27527122  1
  O  O20  1  0.82182027  0.01365388  0.11622002  1
  O  O21  1  0.22822200  0.45558947  0.10488193  1
  O  O22  1  0.30310394  0.61215024  0.37809258  1
  O  O23  1  0.65594681  0.38406980  0.62934236  1
  O  O24  1  0.50434591  0.87853137  0.21540225  1
  O  O25  1  0.96989857  0.83080211  0.26893581  1
  O  O26  1  0.50649582  0.12129939  0.81340322  1
