# generated using pymatgen
data_Rb2Mo4O13
_symmetry_space_group_name_H-M   'P 1'
_cell_length_a   8.29421917
_cell_length_b   8.40964386
_cell_length_c   10.27777033
_cell_angle_alpha   104.25189754
_cell_angle_beta   106.51215941
_cell_angle_gamma   109.86761221
_symmetry_Int_Tables_number   1
_chemical_formula_structural   Rb2Mo4O13
_chemical_formula_sum   'Rb4 Mo8 O26'
_cell_volume   597.88603588
_cell_formula_units_Z   2
loop_
 _symmetry_equiv_pos_site_id
 _symmetry_equiv_pos_as_xyz
  1  'x, y, z'
loop_
 _atom_site_type_symbol
 _atom_site_label
 _atom_site_symmetry_multiplicity
 _atom_site_fract_x
 _atom_site_fract_y
 _atom_site_fract_z
 _atom_site_occupancy
  Rb  Rb0  1  0.30995215  0.34808542  0.57163444  1
  Rb  Rb1  1  0.69004785  0.65191458  0.42836556  1
  Rb  Rb2  1  0.62158519  0.07217089  0.30596815  1
  Rb  Rb3  1  0.37841481  0.92782911  0.69403185  1
  Mo  Mo4  1  0.22875561  0.54230207  0.04270702  1
  Mo  Mo5  1  0.77124439  0.45769793  0.95729298  1
  Mo  Mo6  1  0.77412945  0.84716388  0.94212656  1
  Mo  Mo7  1  0.22587055  0.15283612  0.05787344  1
  Mo  Mo8  1  0.05376601  0.87678197  0.27079560  1
  Mo  Mo9  1  0.94623399  0.12321803  0.72920440  1
  Mo  Mo10  1  0.07406473  0.49442719  0.29128416  1
  Mo  Mo11  1  0.92593527  0.50557281  0.70871584  1
  O  O12  1  0.58152624  0.71750536  0.78015062  1
  O  O13  1  0.41847376  0.28249464  0.21984938  1
  O  O14  1  0.98984960  0.68322598  0.33696411  1
  O  O15  1  0.01015040  0.31677402  0.66303589  1
  O  O16  1  0.77982650  0.69369915  0.06153779  1
  O  O17  1  0.22017350  0.30630085  0.93846221  1
  O  O18  1  0.70269349  0.97987355  0.04059637  1
  O  O19  1  0.29730651  0.02012645  0.95940363  1
  O  O20  1  0.10155033  0.64994800  0.13225114  1
  O  O21  1  0.89844967  0.35005200  0.86774886  1
  O  O22  1  0.96903412  0.34347091  0.35931274  1
  O  O23  1  0.03096588  0.65652909  0.64068726  1
  O  O24  1  0.06876882  0.98167851  0.11721303  1
  O  O25  1  0.93123118  0.01832149  0.88278697  1
  O  O26  1  0.30035415  0.61729200  0.42286588  1
  O  O27  1  0.69964585  0.38270800  0.57713412  1
  O  O28  1  0.12016030  0.35964538  0.14280537  1
  O  O29  1  0.87983970  0.64035462  0.85719463  1
  O  O30  1  0.78529534  0.37990214  0.10009904  1
  O  O31  1  0.21470466  0.62009786  0.89990096  1
  O  O32  1  0.94337571  0.98577845  0.34514088  1
  O  O33  1  0.05662429  0.01422155  0.65485912  1
  O  O34  1  0.45479106  0.66455671  0.16724300  1
  O  O35  1  0.54520894  0.33544329  0.83275700  1
  O  O36  1  0.28645006  0.00476669  0.38395082  1
  O  O37  1  0.71354994  0.99523331  0.61604918  1
