# generated using pymatgen
data_CaTi3V5O16
_symmetry_space_group_name_H-M   'P 1'
_cell_length_a   6.01385258
_cell_length_b   6.12012560
_cell_length_c   10.57226246
_cell_angle_alpha   89.26185716
_cell_angle_beta   91.18468122
_cell_angle_gamma   121.54723332
_symmetry_Int_Tables_number   1
_chemical_formula_structural   CaTi3V5O16
_chemical_formula_sum   'Ca1 Ti3 V5 O16'
_cell_volume   331.53785134
_cell_formula_units_Z   1
loop_
 _symmetry_equiv_pos_site_id
 _symmetry_equiv_pos_as_xyz
  1  'x, y, z'
loop_
 _atom_site_type_symbol
 _atom_site_label
 _atom_site_symmetry_multiplicity
 _atom_site_fract_x
 _atom_site_fract_y
 _atom_site_fract_z
 _atom_site_occupancy
  Ca  Ca0  1  0.31575200  0.65694600  0.44429600  1
  Ti  Ti1  1  0.05640200  0.75113800  0.15589500  1
  Ti  Ti2  1  0.33715700  0.36371800  0.16803600  1
  Ti  Ti3  1  0.33415100  0.16730900  0.69224400  1
  V  V4  1  0.32774500  0.66368600  0.74977800  1
  V  V5  1  0.65944800  0.99525300  0.17290800  1
  V  V6  1  0.65945900  0.30084200  0.95961100  1
  V  V7  1  0.82289600  0.15948800  0.70704700  1
  V  V8  1  0.83132200  0.67626500  0.72394900  1
  O  O9  1  0.16700600  0.82687200  0.62602300  1
  O  O10  1  0.01124900  0.60192600  0.29846500  1
  O  O11  1  0.35230100  0.67596600  0.11592300  1
  O  O12  1  0.00276600  0.02740200  0.19753500  1
  O  O13  1  0.99569400  0.98340600  0.80292200  1
  O  O14  1  0.17570200  0.34889800  0.62738600  1
  O  O15  1  0.59230400  0.01360800  0.32355700  1
  O  O16  1  0.43031200  0.43077200  0.32106400  1
  O  O17  1  0.40065200  0.09939100  0.08690500  1
  O  O18  1  0.63190100  0.80854100  0.63209200  1
  O  O19  1  0.50905500  0.46166700  0.82504000  1
  O  O20  1  0.50348100  0.02234400  0.82047700  1
  O  O21  1  0.65863600  0.34452400  0.61770300  1
  O  O22  1  0.72225600  0.57173500  0.07188200  1
  O  O23  1  0.96739800  0.48785600  0.81949600  1
  O  O24  1  0.87870600  0.23772800  0.03405900  1
