# generated using pymatgen
data_SmLuSe3
_symmetry_space_group_name_H-M   'P 1'
_cell_length_a   4.07736948
_cell_length_b   11.48893361
_cell_length_c   11.77183871
_cell_angle_alpha   71.12824409
_cell_angle_beta   90.00000000
_cell_angle_gamma   90.00000000
_symmetry_Int_Tables_number   1
_chemical_formula_structural   SmLuSe3
_chemical_formula_sum   'Sm4 Lu4 Se12'
_cell_volume   521.80429750
_cell_formula_units_Z   4
loop_
 _symmetry_equiv_pos_site_id
 _symmetry_equiv_pos_as_xyz
  1  'x, y, z'
loop_
 _atom_site_type_symbol
 _atom_site_label
 _atom_site_symmetry_multiplicity
 _atom_site_fract_x
 _atom_site_fract_y
 _atom_site_fract_z
 _atom_site_occupancy
  Sm  Sm0  1  0.25000000  0.31949423  0.50328618  1
  Sm  Sm1  1  0.75000000  0.68050577  0.49671382  1
  Sm  Sm2  1  0.25000000  0.95067877  0.69735437  1
  Sm  Sm3  1  0.75000000  0.04932123  0.30264563  1
  Lu  Lu4  1  0.25000000  0.84150390  0.08231788  1
  Lu  Lu5  1  0.75000000  0.15849610  0.91768212  1
  Lu  Lu6  1  0.25000000  0.56173635  0.83738355  1
  Lu  Lu7  1  0.75000000  0.43826365  0.16261645  1
  Se  Se8  1  0.25000000  0.60615703  0.06025906  1
  Se  Se9  1  0.75000000  0.39384297  0.93974094  1
  Se  Se10  1  0.25000000  0.26416223  0.26752800  1
  Se  Se11  1  0.75000000  0.73583777  0.73247200  1
  Se  Se12  1  0.25000000  0.19036749  0.75762118  1
  Se  Se13  1  0.75000000  0.80963251  0.24237882  1
  Se  Se14  1  0.25000000  0.08124013  0.09344764  1
  Se  Se15  1  0.75000000  0.91875987  0.90655236  1
  Se  Se16  1  0.25000000  0.88775440  0.46331557  1
  Se  Se17  1  0.75000000  0.11224560  0.53668443  1
  Se  Se18  1  0.25000000  0.51422788  0.62412762  1
  Se  Se19  1  0.75000000  0.48577212  0.37587238  1
