# generated using pymatgen
data_K2AgF4
_symmetry_space_group_name_H-M   'P 1'
_cell_length_a   3.73815599
_cell_length_b   6.37864583
_cell_length_c   10.14621485
_cell_angle_alpha   90.00000000
_cell_angle_beta   90.00000000
_cell_angle_gamma   91.36867661
_symmetry_Int_Tables_number   1
_chemical_formula_structural   K2AgF4
_chemical_formula_sum   'K4 Ag2 F8'
_cell_volume   241.86110925
_cell_formula_units_Z   2
loop_
 _symmetry_equiv_pos_site_id
 _symmetry_equiv_pos_as_xyz
  1  'x, y, z'
loop_
 _atom_site_type_symbol
 _atom_site_label
 _atom_site_symmetry_multiplicity
 _atom_site_fract_x
 _atom_site_fract_y
 _atom_site_fract_z
 _atom_site_occupancy
  K  K0  1  0.47948008  0.08446185  0.68202023  1
  K  K1  1  0.52051992  0.41553815  0.18202023  1
  K  K2  1  0.52051992  0.91553815  0.31797977  1
  K  K3  1  0.47948008  0.58446185  0.81797977  1
  Ag  Ag4  1  0.00000000  0.50000000  0.50000000  1
  Ag  Ag5  1  0.00000000  0.00000000  0.00000000  1
  F  F6  1  0.59503116  0.27805803  0.44689718  1
  F  F7  1  0.40496884  0.22194197  0.94689718  1
  F  F8  1  0.40496884  0.72194197  0.55310282  1
  F  F9  1  0.59503116  0.77805803  0.05310282  1
  F  F10  1  0.98279517  0.37541651  0.69036798  1
  F  F11  1  0.01720483  0.12458349  0.19036798  1
  F  F12  1  0.01720483  0.62458349  0.30963202  1
  F  F13  1  0.98279517  0.87541651  0.80963202  1
