# generated using pymatgen
data_SrV4O10
_symmetry_space_group_name_H-M   'P 1'
_cell_length_a   6.10835265
_cell_length_b   6.10836919
_cell_length_c   8.93019151
_cell_angle_alpha   88.18898117
_cell_angle_beta   88.18906879
_cell_angle_gamma   35.29801004
_symmetry_Int_Tables_number   1
_chemical_formula_structural   SrV4O10
_chemical_formula_sum   'Sr1 V4 O10'
_cell_volume   192.42909958
_cell_formula_units_Z   1
loop_
 _symmetry_equiv_pos_site_id
 _symmetry_equiv_pos_as_xyz
  1  'x, y, z'
loop_
 _atom_site_type_symbol
 _atom_site_label
 _atom_site_symmetry_multiplicity
 _atom_site_fract_x
 _atom_site_fract_y
 _atom_site_fract_z
 _atom_site_occupancy
  Sr  Sr0  1  0.59235157  0.59282513  0.02493956  1
  V  V1  1  0.23292203  0.23339335  0.33933371  1
  V  V2  1  0.76592166  0.76636707  0.66281522  1
  V  V3  1  0.93665122  0.93706442  0.33930138  1
  V  V4  1  0.06367557  0.06408913  0.65725223  1
  O  O5  1  0.08043666  0.08085514  0.40455757  1
  O  O6  1  0.91623230  0.91664100  0.59995488  1
  O  O7  1  0.96566480  0.96607835  0.15634650  1
  O  O8  1  0.05305443  0.05353659  0.84420515  1
  O  O9  1  0.21082630  0.21135188  0.15701545  1
  O  O10  1  0.76868956  0.76910217  0.84461658  1
  O  O11  1  0.40013679  0.40056528  0.36086558  1
  O  O12  1  0.59929928  0.59971415  0.63103697  1
  O  O13  1  0.76503519  0.76548036  0.37833982  1
  O  O14  1  0.23562364  0.23605799  0.61063040  1
