# generated using pymatgen
data_TaVO5
_symmetry_space_group_name_H-M   'P 1'
_cell_length_a   5.56260230
_cell_length_b   6.99029015
_cell_length_c   11.91395344
_cell_angle_alpha   90.00000000
_cell_angle_beta   90.00000000
_cell_angle_gamma   90.00000000
_symmetry_Int_Tables_number   1
_chemical_formula_structural   TaVO5
_chemical_formula_sum   'Ta4 V4 O20'
_cell_volume   463.26459679
_cell_formula_units_Z   4
loop_
 _symmetry_equiv_pos_site_id
 _symmetry_equiv_pos_as_xyz
  1  'x, y, z'
loop_
 _atom_site_type_symbol
 _atom_site_label
 _atom_site_symmetry_multiplicity
 _atom_site_fract_x
 _atom_site_fract_y
 _atom_site_fract_z
 _atom_site_occupancy
  Ta  Ta0  1  0.25000000  0.15728603  0.55860484  1
  Ta  Ta1  1  0.75000000  0.84271397  0.44139516  1
  Ta  Ta2  1  0.75000000  0.65728603  0.94139516  1
  Ta  Ta3  1  0.25000000  0.34271397  0.05860484  1
  V  V4  1  0.25000000  0.96991035  0.84559203  1
  V  V5  1  0.75000000  0.03008965  0.15440797  1
  V  V6  1  0.75000000  0.46991035  0.65440797  1
  V  V7  1  0.25000000  0.53008965  0.34559203  1
  O  O8  1  0.25000000  0.17775793  0.92282322  1
  O  O9  1  0.75000000  0.82224207  0.07717678  1
  O  O10  1  0.75000000  0.67775793  0.57717678  1
  O  O11  1  0.25000000  0.32224207  0.42282322  1
  O  O12  1  0.25000000  0.02652309  0.70429787  1
  O  O13  1  0.75000000  0.97347691  0.29570213  1
  O  O14  1  0.75000000  0.52652309  0.79570213  1
  O  O15  1  0.25000000  0.47347691  0.20429787  1
  O  O16  1  0.00000000  0.50000000  0.00000000  1
  O  O17  1  0.50000000  0.50000000  0.00000000  1
  O  O18  1  0.00000000  0.00000000  0.50000000  1
  O  O19  1  0.50000000  0.00000000  0.50000000  1
  O  O20  1  0.00064867  0.15872943  0.12384314  1
  O  O21  1  0.50064867  0.84127057  0.87615686  1
  O  O22  1  -0.00064867  0.65872943  0.37615686  1
  O  O23  1  0.49935133  0.34127057  0.62384314  1
  O  O24  1  -0.00064867  0.84127057  0.87615686  1
  O  O25  1  0.49935133  0.15872943  0.12384314  1
  O  O26  1  0.00064867  0.34127057  0.62384314  1
  O  O27  1  0.50064867  0.65872943  0.37615686  1
