# generated using pymatgen
data_Ba2MgAl2(Fe4O7)2
_symmetry_space_group_name_H-M   'P 1'
_cell_length_a   6.09568720
_cell_length_b   6.21055919
_cell_length_c   10.29841133
_cell_angle_alpha   96.08678764
_cell_angle_beta   86.62305600
_cell_angle_gamma   119.52224365
_symmetry_Int_Tables_number   1
_chemical_formula_structural   Ba2MgAl2(Fe4O7)2
_chemical_formula_sum   'Ba2 Mg1 Al2 Fe8 O14'
_cell_volume   337.33143357
_cell_formula_units_Z   1
loop_
 _symmetry_equiv_pos_site_id
 _symmetry_equiv_pos_as_xyz
  1  'x, y, z'
loop_
 _atom_site_type_symbol
 _atom_site_label
 _atom_site_symmetry_multiplicity
 _atom_site_fract_x
 _atom_site_fract_y
 _atom_site_fract_z
 _atom_site_occupancy
  Ba  Ba0  1  0.62829160  0.27352093  0.55017026  1
  Ba  Ba1  1  0.28564755  0.67196937  0.96361203  1
  Mg  Mg2  1  0.89865671  0.69906863  0.36574397  1
  Al  Al3  1  0.65214142  0.33802037  0.88097835  1
  Al  Al4  1  0.38142027  0.68973125  0.39107690  1
  Fe  Fe5  1  0.84884580  0.18872368  0.18146685  1
  Fe  Fe6  1  0.61071716  0.78805127  0.67779023  1
  Fe  Fe7  1  0.14369005  0.29095233  0.70786713  1
  Fe  Fe8  1  0.65572897  0.64520453  0.14680303  1
  Fe  Fe9  1  0.36753526  0.11792609  0.19264953  1
  Fe  Fe10  1  0.14529188  0.76556439  0.66373653  1
  Fe  Fe11  1  0.07721951  0.18139594  0.42121433  1
  Fe  Fe12  1  0.01379954  0.01980694  0.94300873  1
  O  O13  1  0.82046852  0.21488144  0.99764737  1
  O  O14  1  0.71170628  0.88335314  0.47922624  1
  O  O15  1  0.27686430  0.48982784  0.54209380  1
  O  O16  1  0.82609746  0.65878927  0.98383952  1
  O  O17  1  0.37115148  0.24269464  0.01670094  1
  O  O18  1  0.21713828  0.87539248  0.47693683  1
  O  O19  1  0.96816098  0.95218990  0.74752024  1
  O  O20  1  0.99382307  0.96312766  0.24398515  1
  O  O21  1  0.51847421  0.46771990  0.31098514  1
  O  O22  1  0.94026784  0.45664423  0.75956605  1
  O  O23  1  0.48288957  0.00481568  0.77404671  1
  O  O24  1  0.48096757  0.86775153  0.23114447  1
  O  O25  1  0.49386810  0.45975886  0.77367463  1
  O  O26  1  0.02247363  0.44937171  0.32576407  1
