# generated using pymatgen
data_Tm2(CN2)3
_symmetry_space_group_name_H-M   'P 1'
_cell_length_a   7.27070694
_cell_length_b   7.27070694
_cell_length_c   5.17151266
_cell_angle_alpha   84.46051857
_cell_angle_beta   84.46051857
_cell_angle_gamma   29.41335205
_symmetry_Int_Tables_number   1
_chemical_formula_structural   Tm2(CN2)3
_chemical_formula_sum   'Tm2 C3 N6'
_cell_volume   133.58973681
_cell_formula_units_Z   1
loop_
 _symmetry_equiv_pos_site_id
 _symmetry_equiv_pos_as_xyz
  1  'x, y, z'
loop_
 _atom_site_type_symbol
 _atom_site_label
 _atom_site_symmetry_multiplicity
 _atom_site_fract_x
 _atom_site_fract_y
 _atom_site_fract_z
 _atom_site_occupancy
  Tm  Tm0  1  0.86614989  0.86614989  0.56967323  1
  Tm  Tm1  1  0.13385011  0.13385011  0.43032677  1
  C  C2  1  0.32850587  0.32850587  0.09453569  1
  C  C3  1  0.67149413  0.67149413  0.90546431  1
  C  C4  1  0.00000000  0.00000000  -0.00000000  1
  N  N5  1  0.98760174  0.98760174  0.23779523  1
  N  N6  1  0.01239826  0.01239826  0.76220477  1
  N  N7  1  0.69029028  0.69029028  0.66566063  1
  N  N8  1  0.30970972  0.30970972  0.33433937  1
  N  N9  1  0.65619460  0.65619460  0.13970272  1
  N  N10  1  0.34380540  0.34380540  0.86029728  1
