# generated using pymatgen
data_SnF4
_symmetry_space_group_name_H-M   'P 1'
_cell_length_a   6.34255808
_cell_length_b   6.34255808
_cell_length_c   5.04577617
_cell_angle_alpha   69.20260043
_cell_angle_beta   69.20260043
_cell_angle_gamma   46.86832846
_symmetry_Int_Tables_number   1
_chemical_formula_structural   SnF4
_chemical_formula_sum   'Sn2 F8'
_cell_volume   136.59133833
_cell_formula_units_Z   2
loop_
 _symmetry_equiv_pos_site_id
 _symmetry_equiv_pos_as_xyz
  1  'x, y, z'
loop_
 _atom_site_type_symbol
 _atom_site_label
 _atom_site_symmetry_multiplicity
 _atom_site_fract_x
 _atom_site_fract_y
 _atom_site_fract_z
 _atom_site_occupancy
  Sn  Sn0  1  0.00000000  0.50000000  0.00000000  1
  Sn  Sn1  1  0.50000000  0.00000000  0.50000000  1
  F  F2  1  0.66019800  0.62440100  0.35966900  1
  F  F3  1  0.86210500  0.86310400  0.11917100  1
  F  F4  1  0.33980200  0.37559900  0.64033100  1
  F  F5  1  0.37559900  0.33980200  0.14033100  1
  F  F6  1  0.13789500  0.13689600  0.88082900  1
  F  F7  1  0.13689600  0.13789500  0.38082900  1
  F  F8  1  0.62440100  0.66019800  0.85966900  1
  F  F9  1  0.86310400  0.86210500  0.61917100  1
