# generated using pymatgen
data_Tb2MoO6
_symmetry_space_group_name_H-M   'P 1'
_cell_length_a   5.36693496
_cell_length_b   9.89345551
_cell_length_c   9.89346451
_cell_angle_alpha   68.03281483
_cell_angle_beta   74.90699333
_cell_angle_gamma   74.90701552
_symmetry_Int_Tables_number   1
_chemical_formula_structural   Tb2MoO6
_chemical_formula_sum   'Tb8 Mo4 O24'
_cell_volume   462.51628634
_cell_formula_units_Z   4
loop_
 _symmetry_equiv_pos_site_id
 _symmetry_equiv_pos_as_xyz
  1  'x, y, z'
loop_
 _atom_site_type_symbol
 _atom_site_label
 _atom_site_symmetry_multiplicity
 _atom_site_fract_x
 _atom_site_fract_y
 _atom_site_fract_z
 _atom_site_occupancy
  Tb  Tb0  1  0.62035934  0.78482401  0.55165210  1
  Tb  Tb1  1  0.12036040  0.55165071  0.78482413  1
  Tb  Tb2  1  0.37963819  0.21517646  0.44834797  1
  Tb  Tb3  1  0.87964060  0.44834712  0.21517593  1
  Tb  Tb4  1  0.75000097  0.86447520  0.13552426  1
  Tb  Tb5  1  0.24999971  0.13552530  0.86447452  1
  Tb  Tb6  1  0.74999976  0.39179361  0.60820650  1
  Tb  Tb7  1  0.25000143  0.60820656  0.39179321  1
  Mo  Mo8  1  0.06156751  0.01340943  0.29549969  1
  Mo  Mo9  1  0.43843207  0.70450072  0.98659048  1
  Mo  Mo10  1  0.93843136  0.98658994  0.70450100  1
  Mo  Mo11  1  0.56156865  0.29549976  0.01340996  1
  O  O12  1  0.92050572  0.57359142  0.60994610  1
  O  O13  1  0.57949486  0.39005452  0.42640769  1
  O  O14  1  0.07949520  0.42640741  0.39005345  1
  O  O15  1  0.42050472  0.60994693  0.57359175  1
  O  O16  1  0.91600397  0.80853296  0.33676855  1
  O  O17  1  0.58399271  0.66323103  0.19146737  1
  O  O18  1  0.08399444  0.19146771  0.66323133  1
  O  O19  1  0.41600350  0.33676961  0.80853293  1
  O  O20  1  0.36671669  0.88540591  0.32632380  1
  O  O21  1  0.13328118  0.67367799  0.11459324  1
  O  O22  1  0.63328182  0.11459395  0.67367813  1
  O  O23  1  0.86671876  0.32632359  0.88540607  1
  O  O24  1  0.63874707  0.28765700  0.18223486  1
  O  O25  1  0.86125464  0.81776526  0.71234419  1
  O  O26  1  0.36125485  0.71234302  0.81776612  1
  O  O27  1  0.13874633  0.18223391  0.28765698  1
  O  O28  1  0.51593661  0.11236765  0.04818198  1
  O  O29  1  0.98406492  0.95181816  0.88763249  1
  O  O30  1  0.76057720  0.02507186  0.43105294  1
  O  O31  1  0.01593600  0.04818198  0.11236741  1
  O  O32  1  0.26057657  0.43105194  0.02507270  1
  O  O33  1  0.23942296  0.97492787  0.56894865  1
  O  O34  1  0.73942325  0.56894752  0.97492803  1
  O  O35  1  0.48406507  0.88763298  0.95181747  1
