# generated using pymatgen
data_USO6
_symmetry_space_group_name_H-M   'P 1'
_cell_length_a   5.75195988
_cell_length_b   6.75009081
_cell_length_c   12.85243629
_cell_angle_alpha   76.87164090
_cell_angle_beta   90.00000000
_cell_angle_gamma   90.00000000
_symmetry_Int_Tables_number   1
_chemical_formula_structural   USO6
_chemical_formula_sum   'U4 S4 O24'
_cell_volume   485.96958113
_cell_formula_units_Z   4
loop_
 _symmetry_equiv_pos_site_id
 _symmetry_equiv_pos_as_xyz
  1  'x, y, z'
loop_
 _atom_site_type_symbol
 _atom_site_label
 _atom_site_symmetry_multiplicity
 _atom_site_fract_x
 _atom_site_fract_y
 _atom_site_fract_z
 _atom_site_occupancy
  U  U0  1  0.24672092  0.31859173  0.83913460  1
  U  U1  1  0.74672092  0.68140827  0.66086540  1
  U  U2  1  0.75327908  0.68140827  0.16086540  1
  U  U3  1  0.25327908  0.31859173  0.33913460  1
  S  S4  1  0.95333675  0.21699591  0.60344100  1
  S  S5  1  0.45333675  0.78300409  0.89655900  1
  S  S6  1  0.04666325  0.78300409  0.39655900  1
  S  S7  1  0.54666325  0.21699591  0.10344100  1
  O  O8  1  0.97610351  0.24479211  0.90246413  1
  O  O9  1  0.47610351  0.75520789  0.59753587  1
  O  O10  1  0.02389649  0.75520789  0.09753587  1
  O  O11  1  0.52389649  0.24479211  0.40246413  1
  O  O12  1  0.02078481  0.59523634  0.72879782  1
  O  O13  1  0.52078481  0.40476366  0.77120218  1
  O  O14  1  0.97921519  0.40476366  0.27120218  1
  O  O15  1  0.47921519  0.59523634  0.22879782  1
  O  O16  1  0.21080914  0.61189135  0.40742890  1
  O  O17  1  0.71080914  0.38810865  0.09257110  1
  O  O18  1  0.78919086  0.38810865  0.59257110  1
  O  O19  1  0.28919086  0.61189135  0.90742890  1
  O  O20  1  0.05367170  0.21499396  0.49902482  1
  O  O21  1  0.55367170  0.78500604  0.00097518  1
  O  O22  1  0.94632830  0.78500604  0.50097518  1
  O  O23  1  0.44632830  0.21499396  -0.00097518  1
  O  O24  1  0.17067533  0.97374875  0.35534582  1
  O  O25  1  0.67067533  0.02625125  0.14465418  1
  O  O26  1  0.82932467  0.02625125  0.64465418  1
  O  O27  1  0.32932467  0.97374875  0.85534582  1
  O  O28  1  0.35836351  0.23920978  0.17733327  1
  O  O29  1  0.85836351  0.76079022  0.32266673  1
  O  O30  1  0.64163649  0.76079022  0.82266673  1
  O  O31  1  0.14163649  0.23920978  0.67733327  1
