# generated using pymatgen
data_CsErCdTe3
_symmetry_space_group_name_H-M   'P 1'
_cell_length_a   8.85692682
_cell_length_b   8.85692682
_cell_length_c   11.80220115
_cell_angle_alpha   90.00000000
_cell_angle_beta   90.00000000
_cell_angle_gamma   150.51948044
_symmetry_Int_Tables_number   1
_chemical_formula_structural   CsErCdTe3
_chemical_formula_sum   'Cs2 Er2 Cd2 Te6'
_cell_volume   455.62427848
_cell_formula_units_Z   2
loop_
 _symmetry_equiv_pos_site_id
 _symmetry_equiv_pos_as_xyz
  1  'x, y, z'
loop_
 _atom_site_type_symbol
 _atom_site_label
 _atom_site_symmetry_multiplicity
 _atom_site_fract_x
 _atom_site_fract_y
 _atom_site_fract_z
 _atom_site_occupancy
  Cs  Cs0  1  0.75035469  0.24964531  0.75000000  1
  Cs  Cs1  1  0.24964531  0.75035469  0.25000000  1
  Er  Er2  1  -0.00000000  0.00000000  0.50000000  1
  Er  Er3  1  -0.00000000  0.00000000  -0.00000000  1
  Cd  Cd4  1  0.53855745  0.46144255  0.25000000  1
  Cd  Cd5  1  0.46144255  0.53855745  0.75000000  1
  Te  Te6  1  0.37989147  0.62010853  0.54525095  1
  Te  Te7  1  0.62010853  0.37989147  0.45474905  1
  Te  Te8  1  0.62010853  0.37989147  0.04525095  1
  Te  Te9  1  0.37989147  0.62010853  0.95474905  1
  Te  Te10  1  0.93578040  0.06421960  0.25000000  1
  Te  Te11  1  0.06421960  0.93578040  0.75000000  1
