# generated using pymatgen
data_K2TcH9
_symmetry_space_group_name_H-M   'P 1'
_cell_length_a   9.50321784
_cell_length_b   9.50323576
_cell_length_c   5.53006414
_cell_angle_alpha   90.00002606
_cell_angle_beta   89.99996880
_cell_angle_gamma   119.99980305
_symmetry_Int_Tables_number   1
_chemical_formula_structural   K2TcH9
_chemical_formula_sum   'K6 Tc3 H27'
_cell_volume   432.51766547
_cell_formula_units_Z   3
loop_
 _symmetry_equiv_pos_site_id
 _symmetry_equiv_pos_as_xyz
  1  'x, y, z'
loop_
 _atom_site_type_symbol
 _atom_site_label
 _atom_site_symmetry_multiplicity
 _atom_site_fract_x
 _atom_site_fract_y
 _atom_site_fract_z
 _atom_site_occupancy
  K  K0  1  0.26233370  0.00000547  0.50000260  1
  K  K1  1  0.00000389  0.26233460  0.50000251  1
  K  K2  1  0.73766106  0.73766255  0.50000297  1
  K  K3  1  0.59131116  -0.00000382  0.00000158  1
  K  K4  1  -0.00000276  0.59131230  0.00000183  1
  K  K5  1  0.40870125  0.40869984  -0.00000568  1
  Tc  Tc6  1  -0.00000025  0.00000160  0.00002339  1
  Tc  Tc7  1  0.33332518  0.66668800  0.50002246  1
  Tc  Tc8  1  0.66668752  0.33332669  0.49998303  1
  H  H9  1  0.87355525  0.00000032  0.21158642  1
  H  H10  1  0.00000064  0.87355253  0.21158639  1
  H  H11  1  0.87355184  0.00000026  0.78840590  1
  H  H12  1  0.00000088  0.87354971  0.78840590  1
  H  H13  1  0.12644814  0.12644760  0.21158488  1
  H  H14  1  0.12645014  0.12644969  0.78840781  1
  H  H15  1  0.17414786  -0.00000032  -0.00000112  1
  H  H16  1  -0.00000020  0.17414501  -0.00000127  1
  H  H17  1  0.82585589  0.82585559  -0.00000092  1
  H  H18  1  0.22462957  0.53238494  0.28158862  1
  H  H19  1  0.46761212  0.69224596  0.28159145  1
  H  H20  1  0.22463193  0.53238741  0.71840556  1
  H  H21  1  0.53238468  0.22462971  0.71841033  1
  H  H22  1  0.30775004  0.77536914  0.28158998  1
  H  H23  1  0.46761042  0.69224597  0.71840391  1
  H  H24  1  0.69224542  0.46761176  0.71840765  1
  H  H25  1  0.53238529  0.22463063  0.28159245  1
  H  H26  1  0.30775028  0.77536638  0.71840357  1
  H  H27  1  0.69224484  0.46761130  0.28159466  1
  H  H28  1  0.77536798  0.30775001  0.71840921  1
  H  H29  1  0.77536672  0.30775060  0.28159400  1
  H  H30  1  0.36835171  0.51283889  0.49999934  1
  H  H31  1  0.48715672  0.85551196  0.49999932  1
  H  H32  1  0.51283751  0.36835170  0.50000050  1
  H  H33  1  0.14448406  0.63164750  0.49999902  1
  H  H34  1  0.85551170  0.48715689  0.50000100  1
  H  H35  1  0.63164681  0.14448263  0.50000078  1
