# generated using pymatgen
data_K3AsSe3
_symmetry_space_group_name_H-M   'P 1'
_cell_length_a   9.76369225
_cell_length_b   9.76365498
_cell_length_c   9.76359329
_cell_angle_alpha   90.00081593
_cell_angle_beta   89.99955336
_cell_angle_gamma   90.00021807
_symmetry_Int_Tables_number   1
_chemical_formula_structural   K3AsSe3
_chemical_formula_sum   'K12 As4 Se12'
_cell_volume   930.75673305
_cell_formula_units_Z   4
loop_
 _symmetry_equiv_pos_site_id
 _symmetry_equiv_pos_as_xyz
  1  'x, y, z'
loop_
 _atom_site_type_symbol
 _atom_site_label
 _atom_site_symmetry_multiplicity
 _atom_site_fract_x
 _atom_site_fract_y
 _atom_site_fract_z
 _atom_site_occupancy
  K  K0  1  0.81686877  0.18313437  0.68314680  1
  K  K1  1  0.68313778  0.81686690  0.18313074  1
  K  K2  1  0.18314407  0.68312601  0.81685464  1
  K  K3  1  0.31686045  0.31685757  0.31687089  1
  K  K4  1  0.18686642  0.31313447  0.68686877  1
  K  K5  1  0.31313452  0.68686212  0.18685633  1
  K  K6  1  0.68685971  0.18686669  0.31314077  1
  K  K7  1  0.81313619  0.81313930  0.81312602  1
  K  K8  1  0.42092531  0.07907688  0.92091894  1
  K  K9  1  0.07907796  0.92093265  0.42093245  1
  K  K10  1  0.92092459  0.42092460  0.07906261  1
  K  K11  1  0.57907445  0.57907169  0.57908938  1
  As  As12  1  0.02275490  0.02275781  0.02273221  1
  As  As13  1  0.47723540  0.97725535  0.52276927  1
  As  As14  1  0.97724907  0.52275219  0.47725395  1
  As  As15  1  0.52274864  0.47724170  0.97722785  1
  Se  Se16  1  0.28842918  0.40108237  0.99503934  1
  Se  Se17  1  0.78841568  0.09891424  0.00493379  1
  Se  Se18  1  0.71156512  0.90109356  0.50496596  1
  Se  Se19  1  0.09892819  0.00494594  0.78841500  1
  Se  Se20  1  0.50494592  0.71157940  0.90108351  1
  Se  Se21  1  0.00495573  0.78843553  0.09889327  1
  Se  Se22  1  0.40108415  0.99505039  0.28842918  1
  Se  Se23  1  0.99505978  0.28841342  0.40110629  1
  Se  Se24  1  0.90109120  0.50494174  0.71158809  1
  Se  Se25  1  0.59889531  0.49504442  0.21156578  1
  Se  Se26  1  0.49504802  0.21158537  0.59892015  1
  Se  Se27  1  0.21158349  0.59891132  0.49507502  1
