# generated using pymatgen
data_Sr2SnS5
_symmetry_space_group_name_H-M   'P 1'
_cell_length_a   4.10389085
_cell_length_b   11.77873020
_cell_length_c   15.81194080
_cell_angle_alpha   90.00000000
_cell_angle_beta   90.00000000
_cell_angle_gamma   90.00000000
_symmetry_Int_Tables_number   1
_chemical_formula_structural   Sr2SnS5
_chemical_formula_sum   'Sr8 Sn4 S20'
_cell_volume   764.32744669
_cell_formula_units_Z   4
loop_
 _symmetry_equiv_pos_site_id
 _symmetry_equiv_pos_as_xyz
  1  'x, y, z'
loop_
 _atom_site_type_symbol
 _atom_site_label
 _atom_site_symmetry_multiplicity
 _atom_site_fract_x
 _atom_site_fract_y
 _atom_site_fract_z
 _atom_site_occupancy
  Sr  Sr0  1  0.97470542  0.74778370  0.42869186  1
  Sr  Sr1  1  0.97470542  0.25221630  0.57130814  1
  Sr  Sr2  1  0.02529458  0.24778370  0.07130814  1
  Sr  Sr3  1  0.02529458  0.75221630  0.92869186  1
  Sr  Sr4  1  0.01041750  0.87708451  0.17836177  1
  Sr  Sr5  1  0.01041750  0.12291549  0.82163823  1
  Sr  Sr6  1  0.98958250  0.37708451  0.32163823  1
  Sr  Sr7  1  0.98958250  0.62291549  0.67836177  1
  Sn  Sn8  1  0.55127831  0.06325121  0.36910777  1
  Sn  Sn9  1  0.55127831  0.93674879  0.63089223  1
  Sn  Sn10  1  0.44872169  0.56325121  0.13089223  1
  Sn  Sn11  1  0.44872169  0.43674879  0.86910777  1
  S  S12  1  0.48682528  0.55079562  0.39682939  1
  S  S13  1  0.48682528  0.44920438  0.60317061  1
  S  S14  1  0.51317472  0.05079562  0.10317061  1
  S  S15  1  0.51317472  0.94920438  0.89682939  1
  S  S16  1  0.10571010  0.50000000  0.00000000  1
  S  S17  1  0.89428990  0.00000000  0.50000000  1
  S  S18  1  0.48259603  0.86587543  0.32180325  1
  S  S19  1  0.48259603  0.13412457  0.67819675  1
  S  S20  1  0.51740397  0.36587543  0.17819675  1
  S  S21  1  0.51740397  0.63412457  0.82180325  1
  S  S22  1  -0.00424085  0.61358919  0.22668406  1
  S  S23  1  -0.00424085  0.38641081  0.77331594  1
  S  S24  1  0.00424085  0.11358919  0.27331594  1
  S  S25  1  0.00424085  0.88641081  0.72668406  1
  S  S26  1  0.46816995  0.25004909  0.43132553  1
  S  S27  1  0.46816995  0.74995091  0.56867447  1
  S  S28  1  0.53183005  0.75004909  0.06867447  1
  S  S29  1  0.53183005  0.24995091  0.93132553  1
  S  S30  1  0.76294056  0.50000000  0.50000000  1
  S  S31  1  0.23705944  0.00000000  0.00000000  1
