# generated using pymatgen
data_NaNb4Bi5O18
_symmetry_space_group_name_H-M   'P 1'
_cell_length_a   12.81667798
_cell_length_b   12.81667798
_cell_length_c   5.55053016
_cell_angle_alpha   89.86316300
_cell_angle_beta   89.86316300
_cell_angle_gamma   155.23686927
_symmetry_Int_Tables_number   1
_chemical_formula_structural   NaNb4Bi5O18
_chemical_formula_sum   'Na1 Nb4 Bi5 O18'
_cell_volume   381.88754929
_cell_formula_units_Z   1
loop_
 _symmetry_equiv_pos_site_id
 _symmetry_equiv_pos_as_xyz
  1  'x, y, z'
loop_
 _atom_site_type_symbol
 _atom_site_label
 _atom_site_symmetry_multiplicity
 _atom_site_fract_x
 _atom_site_fract_y
 _atom_site_fract_z
 _atom_site_occupancy
  Na  Na0  1  0.73543289  0.73543289  0.51261911  1
  Nb  Nb1  1  0.82737543  0.66093177  0.04283083  1
  Nb  Nb2  1  0.66093177  0.82737543  0.04283083  1
  Nb  Nb3  1  0.15527111  0.32382773  0.53900086  1
  Nb  Nb4  1  0.32382773  0.15527111  0.53900086  1
  Bi  Bi5  1  0.08144658  0.48025234  0.97350373  1
  Bi  Bi6  1  0.48025234  0.08144658  0.97350373  1
  Bi  Bi7  1  0.92504859  0.52493792  0.47462831  1
  Bi  Bi8  1  0.52493792  0.92504859  0.47462831  1
  Bi  Bi9  1  0.23300856  0.23300856  0.99415784  1
  O  O10  1  0.47770306  0.60409989  0.78321504  1
  O  O11  1  0.60409989  0.47770306  0.78321504  1
  O  O12  1  0.52617524  0.39590803  0.27968850  1
  O  O13  1  0.39590803  0.52617524  0.27968850  1
  O  O14  1  0.83489036  0.52051247  0.05786956  1
  O  O15  1  0.52051247  0.83489036  0.05786956  1
  O  O16  1  0.16995593  0.48377633  0.57638569  1
  O  O17  1  0.48377633  0.16995593  0.57638569  1
  O  O18  1  0.97722335  0.14818559  0.87553090  1
  O  O19  1  0.14818559  0.97722335  0.87553090  1
  O  O20  1  0.04173445  0.85921490  0.36486387  1
  O  O21  1  0.85921490  0.04173445  0.36486387  1
  O  O22  1  0.83436214  0.83436214  0.09121940  1
  O  O23  1  0.17310383  0.17310383  0.59669577  1
  O  O24  1  0.76572677  0.26339476  0.75168976  1
  O  O25  1  0.26339476  0.76572677  0.75168976  1
  O  O26  1  0.23813741  0.73836259  0.25324739  1
  O  O27  1  0.73836259  0.23813741  0.25324739  1
