# generated using pymatgen
data_Hg2IBr3
_symmetry_space_group_name_H-M   'P 1'
_cell_length_a   4.26477343
_cell_length_b   4.26477343
_cell_length_c   13.11614209
_cell_angle_alpha   90.16188246
_cell_angle_beta   90.16188246
_cell_angle_gamma   67.83798977
_symmetry_Int_Tables_number   1
_chemical_formula_structural   Hg2IBr3
_chemical_formula_sum   'Hg2 I1 Br3'
_cell_volume   220.93433348
_cell_formula_units_Z   1
loop_
 _symmetry_equiv_pos_site_id
 _symmetry_equiv_pos_as_xyz
  1  'x, y, z'
loop_
 _atom_site_type_symbol
 _atom_site_label
 _atom_site_symmetry_multiplicity
 _atom_site_fract_x
 _atom_site_fract_y
 _atom_site_fract_z
 _atom_site_occupancy
  Hg  Hg0  1  0.83864903  0.83864903  0.43955617  1
  Hg  Hg1  1  0.16285239  0.16285239  0.93108930  1
  I  I2  1  0.56576136  0.56576136  0.30082089  1
  Br  Br3  1  0.43154964  0.43154964  0.81017769  1
  Br  Br4  1  0.10256531  0.10256531  0.56626900  1
  Br  Br5  1  0.89862127  0.89862127  0.05512795  1
