# generated using pymatgen
data_Sr2MgWO6
_symmetry_space_group_name_H-M   'P 1'
_cell_length_a   5.60954906
_cell_length_b   5.60954906
_cell_length_c   5.60954906
_cell_angle_alpha   120.38451769
_cell_angle_beta   120.38451769
_cell_angle_gamma   89.33527617
_symmetry_Int_Tables_number   1
_chemical_formula_structural   Sr2MgWO6
_chemical_formula_sum   'Sr2 Mg1 W1 O6'
_cell_volume   124.08111756
_cell_formula_units_Z   1
loop_
 _symmetry_equiv_pos_site_id
 _symmetry_equiv_pos_as_xyz
  1  'x, y, z'
loop_
 _atom_site_type_symbol
 _atom_site_label
 _atom_site_symmetry_multiplicity
 _atom_site_fract_x
 _atom_site_fract_y
 _atom_site_fract_z
 _atom_site_occupancy
  Sr  Sr0  1  0.75000000  0.25000000  0.50000000  1
  Sr  Sr1  1  0.25000000  0.75000000  0.50000000  1
  Mg  Mg2  1  0.00000000  -0.00000000  0.00000000  1
  W  W3  1  0.50000000  0.50000000  0.00000000  1
  O  O4  1  0.74152682  0.74152682  0.00000000  1
  O  O5  1  0.25847318  0.25847318  0.00000000  1
  O  O6  1  0.70593706  0.77656699  0.48250304  1
  O  O7  1  0.77656699  0.29406294  0.07062993  1
  O  O8  1  0.29406294  0.22343301  0.51749696  1
  O  O9  1  0.22343301  0.70593706  0.92937007  1
