# generated using pymatgen
data_Er2WO6
_symmetry_space_group_name_H-M   'P 1'
_cell_length_a   5.16899321
_cell_length_b   8.98292463
_cell_length_c   9.80930968
_cell_angle_alpha   90.00000000
_cell_angle_beta   90.00000000
_cell_angle_gamma   90.00000000
_symmetry_Int_Tables_number   1
_chemical_formula_structural   Er2WO6
_chemical_formula_sum   'Er8 W4 O24'
_cell_volume   455.47250226
_cell_formula_units_Z   4
loop_
 _symmetry_equiv_pos_site_id
 _symmetry_equiv_pos_as_xyz
  1  'x, y, z'
loop_
 _atom_site_type_symbol
 _atom_site_label
 _atom_site_symmetry_multiplicity
 _atom_site_fract_x
 _atom_site_fract_y
 _atom_site_fract_z
 _atom_site_occupancy
  Er  Er0  1  0.48328549  0.60347355  0.53372514  1
  Er  Er1  1  0.98328549  0.89652645  0.46627486  1
  Er  Er2  1  0.51671451  0.10347355  0.96627486  1
  Er  Er3  1  0.01671451  0.39652645  0.03372514  1
  Er  Er4  1  0.96030880  0.78073129  0.87256393  1
  Er  Er5  1  0.46030880  0.71926871  0.12743607  1
  Er  Er6  1  0.03969120  0.28073129  0.62743607  1
  Er  Er7  1  0.53969120  0.21926871  0.37256393  1
  W  W8  1  0.46199219  0.99514809  0.65348210  1
  W  W9  1  0.96199219  0.50485191  0.34651790  1
  W  W10  1  0.53800781  0.49514809  0.84651790  1
  W  W11  1  0.03800781  0.00485191  0.15348210  1
  O  O12  1  0.25299529  0.08980130  0.50473101  1
  O  O13  1  0.75299529  0.41019870  0.49526899  1
  O  O14  1  0.74700471  0.58980130  0.99526899  1
  O  O15  1  0.24700471  0.91019870  0.00473101  1
  O  O16  1  0.73440167  0.11490537  0.56832301  1
  O  O17  1  0.23440167  0.38509463  0.43167699  1
  O  O18  1  0.26559833  0.61490537  0.93167699  1
  O  O19  1  0.76559833  0.88509463  0.06832301  1
  O  O20  1  0.58768616  0.84254730  0.53091641  1
  O  O21  1  0.08768616  0.65745270  0.46908359  1
  O  O22  1  0.41231384  0.34254730  0.96908359  1
  O  O23  1  0.91231384  0.15745270  0.03091641  1
  O  O24  1  0.19501211  0.85852988  0.26490108  1
  O  O25  1  0.69501211  0.64147012  0.73509892  1
  O  O26  1  0.80498789  0.35852988  0.23509892  1
  O  O27  1  0.30498789  0.14147012  0.76490108  1
  O  O28  1  0.82267457  0.04598358  0.30004532  1
  O  O29  1  0.32267457  0.45401642  0.69995468  1
  O  O30  1  0.17732543  0.54598358  0.19995468  1
  O  O31  1  0.67732543  0.95401642  0.80004532  1
  O  O32  1  0.32127446  0.13781440  0.18128237  1
  O  O33  1  0.82127446  0.36218560  0.81871763  1
  O  O34  1  0.67872554  0.63781440  0.31871763  1
  O  O35  1  0.17872554  0.86218560  0.68128237  1
