# generated using pymatgen
data_TlPb2Br5
_symmetry_space_group_name_H-M   'P 1'
_cell_length_a   8.45782420
_cell_length_b   9.31981653
_cell_length_c   13.14287904
_cell_angle_alpha   90.16402124
_cell_angle_beta   90.00000000
_cell_angle_gamma   90.00000000
_symmetry_Int_Tables_number   1
_chemical_formula_structural   TlPb2Br5
_chemical_formula_sum   'Tl4 Pb8 Br20'
_cell_volume   1035.98805569
_cell_formula_units_Z   4
loop_
 _symmetry_equiv_pos_site_id
 _symmetry_equiv_pos_as_xyz
  1  'x, y, z'
loop_
 _atom_site_type_symbol
 _atom_site_label
 _atom_site_symmetry_multiplicity
 _atom_site_fract_x
 _atom_site_fract_y
 _atom_site_fract_z
 _atom_site_occupancy
  Tl  Tl0  1  0.45640673  0.49073417  0.82919768  1
  Tl  Tl1  1  0.54359327  0.50926583  0.17080232  1
  Tl  Tl2  1  0.95640673  0.50926583  0.67080232  1
  Tl  Tl3  1  0.04359327  0.49073417  0.32919768  1
  Pb  Pb4  1  0.50229075  0.98575103  0.82393696  1
  Pb  Pb5  1  0.49770925  0.01424897  0.17606304  1
  Pb  Pb6  1  0.00229075  0.01424897  0.67606304  1
  Pb  Pb7  1  -0.00229075  0.98575103  0.32393696  1
  Pb  Pb8  1  0.43075206  0.74401367  0.50500691  1
  Pb  Pb9  1  0.56924794  0.25598633  0.49499309  1
  Pb  Pb10  1  0.93075206  0.25598633  0.99499309  1
  Pb  Pb11  1  0.06924794  0.74401367  0.00500691  1
  Br  Br12  1  0.32411236  0.45816217  0.58397305  1
  Br  Br13  1  0.67588764  0.54183783  0.41602695  1
  Br  Br14  1  0.82411236  0.54183783  0.91602695  1
  Br  Br15  1  0.17588764  0.45816217  0.08397305  1
  Br  Br16  1  0.65227508  0.76503524  0.68724958  1
  Br  Br17  1  0.34772492  0.23496476  0.31275042  1
  Br  Br18  1  0.15227508  0.23496476  0.81275042  1
  Br  Br19  1  0.84772492  0.76503524  0.18724958  1
  Br  Br20  1  0.18831198  0.76721732  0.78008717  1
  Br  Br21  1  0.81168802  0.23278268  0.21991283  1
  Br  Br22  1  0.68831198  0.23278268  0.71991283  1
  Br  Br23  1  0.31168802  0.76721732  0.28008717  1
  Br  Br24  1  0.03929283  0.77849282  0.50236473  1
  Br  Br25  1  0.96070717  0.22150718  0.49763527  1
  Br  Br26  1  0.53929283  0.22150718  0.99763527  1
  Br  Br27  1  0.46070717  0.77849282  0.00236473  1
  Br  Br28  1  0.83701193  0.95831452  0.90147962  1
  Br  Br29  1  0.16298807  0.04168548  0.09852038  1
  Br  Br30  1  0.33701193  0.04168548  0.59852038  1
  Br  Br31  1  0.66298807  0.95831452  0.40147962  1
