# generated using pymatgen
data_Ca7TiN6
_symmetry_space_group_name_H-M   'P 1'
_cell_length_a   6.33112400
_cell_length_b   9.17802052
_cell_length_c   9.17802052
_cell_angle_alpha   77.71688708
_cell_angle_beta   69.82389132
_cell_angle_gamma   69.82389132
_symmetry_Int_Tables_number   1
_chemical_formula_structural   Ca7TiN6
_chemical_formula_sum   'Ca14 Ti2 N12'
_cell_volume   467.19665650
_cell_formula_units_Z   2
loop_
 _symmetry_equiv_pos_site_id
 _symmetry_equiv_pos_as_xyz
  1  'x, y, z'
loop_
 _atom_site_type_symbol
 _atom_site_label
 _atom_site_symmetry_multiplicity
 _atom_site_fract_x
 _atom_site_fract_y
 _atom_site_fract_z
 _atom_site_occupancy
  Ca  Ca0  1  0.27797971  0.95490816  0.04509184  1
  Ca  Ca1  1  0.72202029  0.04509184  0.95490816  1
  Ca  Ca2  1  0.22202029  0.45490816  0.54509184  1
  Ca  Ca3  1  0.77797971  0.54509184  0.45490816  1
  Ca  Ca4  1  0.75315657  0.15236537  0.59608912  1
  Ca  Ca5  1  0.49838795  0.59608912  0.15236537  1
  Ca  Ca6  1  0.74684343  0.90391088  0.34763463  1
  Ca  Ca7  1  0.00161205  0.34763463  0.90391088  1
  Ca  Ca8  1  0.24684343  0.84763463  0.40391088  1
  Ca  Ca9  1  0.50161205  0.40391088  0.84763463  1
  Ca  Ca10  1  0.25315657  0.09608912  0.65236537  1
  Ca  Ca11  1  0.99838795  0.65236537  0.09608912  1
  Ca  Ca12  1  0.25000000  0.25000000  0.25000000  1
  Ca  Ca13  1  0.75000000  0.75000000  0.75000000  1
  Ti  Ti14  1  0.75000000  0.25000000  0.25000000  1
  Ti  Ti15  1  0.25000000  0.75000000  0.75000000  1
  N  N16  1  0.01291816  0.07095295  0.28148207  1
  N  N17  1  0.63464682  0.28148207  0.07095295  1
  N  N18  1  0.48708184  0.21851793  0.42904705  1
  N  N19  1  0.86535318  0.42904705  0.21851793  1
  N  N20  1  0.98708184  0.92904705  0.71851793  1
  N  N21  1  0.36535318  0.71851793  0.92904705  1
  N  N22  1  0.51291816  0.78148207  0.57095295  1
  N  N23  1  0.13464682  0.57095295  0.78148207  1
  N  N24  1  0.88901700  0.34307797  0.65692203  1
  N  N25  1  0.11098300  0.65692203  0.34307797  1
  N  N26  1  0.61098300  0.84307797  0.15692203  1
  N  N27  1  0.38901700  0.15692203  0.84307797  1
