# generated using pymatgen
data_TlSO4
_symmetry_space_group_name_H-M   'P 1'
_cell_length_a   9.08916879
_cell_length_b   9.08916879
_cell_length_c   9.08916947
_cell_angle_alpha   31.12699369
_cell_angle_beta   31.12699369
_cell_angle_gamma   31.12699345
_symmetry_Int_Tables_number   1
_chemical_formula_structural   TlSO4
_chemical_formula_sum   'Tl2 S2 O8'
_cell_volume   178.03786009
_cell_formula_units_Z   2
loop_
 _symmetry_equiv_pos_site_id
 _symmetry_equiv_pos_as_xyz
  1  'x, y, z'
loop_
 _atom_site_type_symbol
 _atom_site_label
 _atom_site_symmetry_multiplicity
 _atom_site_fract_x
 _atom_site_fract_y
 _atom_site_fract_z
 _atom_site_occupancy
  Tl  Tl0  1  0.00000000  0.00000000  -0.00000000  1
  Tl  Tl1  1  0.50000000  0.50000000  0.50000000  1
  S  S2  1  0.25845936  0.25845936  0.25845936  1
  S  S3  1  0.74154064  0.74154064  0.74154064  1
  O  O4  1  0.72782991  0.43202590  0.00640763  1
  O  O5  1  0.43202590  0.00640763  0.72782991  1
  O  O6  1  0.27217009  0.99359237  0.56797410  1
  O  O7  1  0.00640763  0.72782991  0.43202590  1
  O  O8  1  0.56797410  0.27217009  0.99359237  1
  O  O9  1  0.99359237  0.56797410  0.27217009  1
  O  O10  1  0.20253430  0.20253430  0.20253430  1
  O  O11  1  0.79746570  0.79746570  0.79746570  1
