# generated using pymatgen
data_MgBi8(PO4)8
_symmetry_space_group_name_H-M   'P 1'
_cell_length_a   5.66197971
_cell_length_b   9.41244282
_cell_length_c   17.07169995
_cell_angle_alpha   90.49020599
_cell_angle_beta   79.08604240
_cell_angle_gamma   74.57304823
_symmetry_Int_Tables_number   1
_chemical_formula_structural   MgBi8(PO4)8
_chemical_formula_sum   'Mg1 Bi8 P8 O32'
_cell_volume   859.49015178
_cell_formula_units_Z   1
loop_
 _symmetry_equiv_pos_site_id
 _symmetry_equiv_pos_as_xyz
  1  'x, y, z'
loop_
 _atom_site_type_symbol
 _atom_site_label
 _atom_site_symmetry_multiplicity
 _atom_site_fract_x
 _atom_site_fract_y
 _atom_site_fract_z
 _atom_site_occupancy
  Mg  Mg0  1  0.01714215  0.74303774  0.78250594  1
  Bi  Bi1  1  0.15391201  0.18350454  0.02162603  1
  Bi  Bi2  1  0.35412929  0.31628984  0.50077816  1
  Bi  Bi3  1  0.82535324  0.84213502  0.95815864  1
  Bi  Bi4  1  0.47378851  0.52585768  0.02170008  1
  Bi  Bi5  1  0.67951825  0.66159838  0.48736734  1
  Bi  Bi6  1  0.60022489  0.75610340  0.23177562  1
  Bi  Bi7  1  0.40851424  0.24588858  0.75454712  1
  Bi  Bi8  1  0.01808025  0.99335331  0.50308132  1
  P  P9  1  0.06016055  0.49421048  0.88461296  1
  P  P10  1  0.73268653  0.37032961  0.59251740  1
  P  P11  1  0.91056752  0.48617592  0.13152464  1
  P  P12  1  0.29482426  0.89891405  0.08744166  1
  P  P13  1  0.61799092  0.98254755  0.37543612  1
  P  P14  1  0.43090096  0.99613395  0.62484932  1
  P  P15  1  0.26144759  0.62743877  0.39763413  1
  P  P16  1  0.69133441  0.15989533  0.90771258  1
  O  O17  1  0.78696505  0.38492054  0.08719200  1
  O  O18  1  0.52374069  0.04876209  0.92170920  1
  O  O19  1  0.67523345  0.91305962  0.56323884  1
  O  O20  1  0.77302867  0.24815924  0.52297129  1
  O  O21  1  0.19513200  0.40807003  0.10632033  1
  O  O22  1  0.72891292  0.30536702  0.67431619  1
  O  O23  1  0.55731941  0.29301763  0.96758841  1
  O  O24  1  0.02684255  0.98110568  0.07685107  1
  O  O25  1  0.19046609  0.74929178  0.46855336  1
  O  O26  1  0.47419049  0.47771626  0.58553620  1
  O  O27  1  0.83794570  0.64537638  0.10080508  1
  O  O28  1  0.58490947  0.99890267  0.28969494  1
  O  O29  1  0.43138067  0.02088055  0.09181371  1
  O  O30  1  0.94301733  0.44900072  0.57181267  1
  O  O31  1  0.18913378  0.57759187  0.93523747  1
  O  O32  1  0.14746050  0.32430696  0.88842423  1
  O  O33  1  0.13640809  0.52613165  0.79387521  1
  O  O34  1  0.42878856  0.79475214  0.00907441  1
  O  O35  1  0.33453536  0.16439146  0.60473681  1
  O  O36  1  0.49446310  0.00398442  0.70940382  1
  O  O37  1  0.05923231  0.54033505  0.41272963  1
  O  O38  1  0.23429218  0.91282002  0.62062878  1
  O  O39  1  0.94845776  0.07685047  0.92606547  1
  O  O40  1  0.29448518  0.80046981  0.16006114  1
  O  O41  1  0.51309586  0.52048010  0.41384405  1
  O  O42  1  0.37699437  0.07599249  0.43653698  1
  O  O43  1  0.80653983  0.50504378  0.22248796  1
  O  O44  1  0.84377997  0.02972047  0.39471467  1
  O  O45  1  0.77401037  0.55778375  0.91326617  1
  O  O46  1  0.71748240  0.20145026  0.81919765  1
  O  O47  1  0.28682145  0.68855844  0.31535722  1
  O  O48  1  0.65435988  0.81173651  0.38982900  1
