# generated using pymatgen
data_RbSr2Br5
_symmetry_space_group_name_H-M   'P 1'
_cell_length_a   8.39782741
_cell_length_b   9.46687936
_cell_length_c   13.41241905
_cell_angle_alpha   89.85288735
_cell_angle_beta   90.00000000
_cell_angle_gamma   90.00000000
_symmetry_Int_Tables_number   1
_chemical_formula_structural   RbSr2Br5
_chemical_formula_sum   'Rb4 Sr8 Br20'
_cell_volume   1066.30014897
_cell_formula_units_Z   4
loop_
 _symmetry_equiv_pos_site_id
 _symmetry_equiv_pos_as_xyz
  1  'x, y, z'
loop_
 _atom_site_type_symbol
 _atom_site_label
 _atom_site_symmetry_multiplicity
 _atom_site_fract_x
 _atom_site_fract_y
 _atom_site_fract_z
 _atom_site_occupancy
  Rb  Rb0  1  0.44809972  0.49126957  0.83292687  1
  Rb  Rb1  1  0.55190028  0.50873043  0.16707313  1
  Rb  Rb2  1  0.94809972  0.50873043  0.66707313  1
  Rb  Rb3  1  0.05190028  0.49126957  0.33292687  1
  Sr  Sr4  1  0.47602735  0.99852207  0.82147861  1
  Sr  Sr5  1  0.52397265  0.00147793  0.17852139  1
  Sr  Sr6  1  0.97602735  0.00147793  0.67852139  1
  Sr  Sr7  1  0.02397265  0.99852207  0.32147861  1
  Sr  Sr8  1  0.43084075  0.75178726  0.50609090  1
  Sr  Sr9  1  0.56915925  0.24821274  0.49390910  1
  Sr  Sr10  1  0.93084075  0.24821274  0.99390910  1
  Sr  Sr11  1  0.06915925  0.75178726  0.00609090  1
  Br  Br12  1  0.32556501  0.46334533  0.58242846  1
  Br  Br13  1  0.67443499  0.53665467  0.41757154  1
  Br  Br14  1  0.82556501  0.53665467  0.91757154  1
  Br  Br15  1  0.17443499  0.46334533  0.08242846  1
  Br  Br16  1  0.66679096  0.78467287  0.68386559  1
  Br  Br17  1  0.33320904  0.21532713  0.31613441  1
  Br  Br18  1  0.16679096  0.21532713  0.81613441  1
  Br  Br19  1  0.83320904  0.78467287  0.18386559  1
  Br  Br20  1  0.19084934  0.77296839  0.78300551  1
  Br  Br21  1  0.80915066  0.22703161  0.21699449  1
  Br  Br22  1  0.69084934  0.22703161  0.71699449  1
  Br  Br23  1  0.30915066  0.77296839  0.28300551  1
  Br  Br24  1  0.04619300  0.78666086  0.50193306  1
  Br  Br25  1  0.95380700  0.21333914  0.49806694  1
  Br  Br26  1  0.54619300  0.21333914  0.99806694  1
  Br  Br27  1  0.45380700  0.78666086  0.00193306  1
  Br  Br28  1  0.83919070  0.96047597  0.90056797  1
  Br  Br29  1  0.16080930  0.03952403  0.09943203  1
  Br  Br30  1  0.33919070  0.03952403  0.59943203  1
  Br  Br31  1  0.66080930  0.96047597  0.40056797  1
