# generated using pymatgen
data_Rb2GdCl5
_symmetry_space_group_name_H-M   'P 1'
_cell_length_a   8.20121648
_cell_length_b   8.77860513
_cell_length_c   13.17892388
_cell_angle_alpha   90.00000000
_cell_angle_beta   90.00000000
_cell_angle_gamma   90.00000000
_symmetry_Int_Tables_number   1
_chemical_formula_structural   Rb2GdCl5
_chemical_formula_sum   'Rb8 Gd4 Cl20'
_cell_volume   948.81980170
_cell_formula_units_Z   4
loop_
 _symmetry_equiv_pos_site_id
 _symmetry_equiv_pos_as_xyz
  1  'x, y, z'
loop_
 _atom_site_type_symbol
 _atom_site_label
 _atom_site_symmetry_multiplicity
 _atom_site_fract_x
 _atom_site_fract_y
 _atom_site_fract_z
 _atom_site_occupancy
  Rb  Rb0  1  0.94584394  0.00462397  0.82840838  1
  Rb  Rb1  1  0.05415606  0.99537603  0.17159162  1
  Rb  Rb2  1  0.44584394  0.99537603  0.67159162  1
  Rb  Rb3  1  0.05415606  0.50462397  0.17159162  1
  Rb  Rb4  1  0.55415606  0.00462397  0.32840838  1
  Rb  Rb5  1  0.94584394  0.49537603  0.82840838  1
  Rb  Rb6  1  0.55415606  0.49537603  0.32840838  1
  Rb  Rb7  1  0.44584394  0.50462397  0.67159162  1
  Gd  Gd8  1  0.92947559  0.75000000  0.50380953  1
  Gd  Gd9  1  0.07052441  0.25000000  0.49619047  1
  Gd  Gd10  1  0.42947559  0.25000000  0.99619047  1
  Gd  Gd11  1  0.57052441  0.75000000  0.00380953  1
  Cl  Cl12  1  0.11640053  0.75000000  0.67223834  1
  Cl  Cl13  1  0.88359947  0.25000000  0.32776166  1
  Cl  Cl14  1  0.61640053  0.25000000  0.82776166  1
  Cl  Cl15  1  0.38359947  0.75000000  0.17223834  1
  Cl  Cl16  1  0.84058778  0.04282179  0.57137915  1
  Cl  Cl17  1  0.15941222  0.95717821  0.42862085  1
  Cl  Cl18  1  0.34058778  0.95717821  0.92862085  1
  Cl  Cl19  1  0.15941222  0.54282179  0.42862085  1
  Cl  Cl20  1  0.65941222  0.04282179  0.07137915  1
  Cl  Cl21  1  0.84058778  0.45717821  0.57137915  1
  Cl  Cl22  1  0.65941222  0.45717821  0.07137915  1
  Cl  Cl23  1  0.34058778  0.54282179  0.92862085  1
  Cl  Cl24  1  0.59692619  0.75000000  0.51238260  1
  Cl  Cl25  1  0.40307381  0.25000000  0.48761740  1
  Cl  Cl26  1  0.09692619  0.25000000  0.98761740  1
  Cl  Cl27  1  0.90307381  0.75000000  0.01238260  1
  Cl  Cl28  1  0.65441843  0.75000000  0.80501034  1
  Cl  Cl29  1  0.34558157  0.25000000  0.19498966  1
  Cl  Cl30  1  0.15441843  0.25000000  0.69498966  1
  Cl  Cl31  1  0.84558157  0.75000000  0.30501034  1
