# generated using pymatgen
data_Te4MoW
_symmetry_space_group_name_H-M   'P 1'
_cell_length_a   3.56225544
_cell_length_b   3.56212324
_cell_length_c   24.31909095
_cell_angle_alpha   90.01307792
_cell_angle_beta   89.99057874
_cell_angle_gamma   120.00345304
_symmetry_Int_Tables_number   1
_chemical_formula_structural   Te4MoW
_chemical_formula_sum   'Te4 Mo1 W1'
_cell_volume   267.23715734
_cell_formula_units_Z   1
loop_
 _symmetry_equiv_pos_site_id
 _symmetry_equiv_pos_as_xyz
  1  'x, y, z'
loop_
 _atom_site_type_symbol
 _atom_site_label
 _atom_site_symmetry_multiplicity
 _atom_site_fract_x
 _atom_site_fract_y
 _atom_site_fract_z
 _atom_site_occupancy
  Te  Te0  1  0.33316442  0.66656334  0.52464781  1
  Te  Te1  1  0.66668543  0.33328613  0.07703038  1
  Te  Te2  1  0.66683068  0.33375723  0.22459936  1
  Te  Te3  1  0.33332532  0.66640238  0.37744950  1
  Mo  Mo4  1  0.66656849  0.33315793  0.45108421  1
  W  W5  1  0.33342667  0.66683599  0.15079374  1
