# generated using pymatgen
data_Dy2HfS5
_symmetry_space_group_name_H-M   'P 1'
_cell_length_a   7.23724585
_cell_length_b   7.71780990
_cell_length_c   11.50131603
_cell_angle_alpha   90.00000000
_cell_angle_beta   90.00000000
_cell_angle_gamma   90.00000000
_symmetry_Int_Tables_number   1
_chemical_formula_structural   Dy2HfS5
_chemical_formula_sum   'Dy8 Hf4 S20'
_cell_volume   642.41391596
_cell_formula_units_Z   4
loop_
 _symmetry_equiv_pos_site_id
 _symmetry_equiv_pos_as_xyz
  1  'x, y, z'
loop_
 _atom_site_type_symbol
 _atom_site_label
 _atom_site_symmetry_multiplicity
 _atom_site_fract_x
 _atom_site_fract_y
 _atom_site_fract_z
 _atom_site_occupancy
  Dy  Dy0  1  0.52287393  0.00253953  0.32138051  1
  Dy  Dy1  1  0.97712607  0.49746047  0.82138051  1
  Dy  Dy2  1  0.47712607  0.50253953  0.67861949  1
  Dy  Dy3  1  0.02287393  0.99746047  0.17861949  1
  Dy  Dy4  1  0.47712607  0.99746047  0.67861949  1
  Dy  Dy5  1  0.02287393  0.50253953  0.17861949  1
  Dy  Dy6  1  0.52287393  0.49746047  0.32138051  1
  Dy  Dy7  1  0.97712607  0.00253953  0.82138051  1
  Hf  Hf8  1  0.07514696  0.75000000  0.49443937  1
  Hf  Hf9  1  0.42485304  0.75000000  0.99443937  1
  Hf  Hf10  1  0.92485304  0.25000000  0.50556063  1
  Hf  Hf11  1  0.57514696  0.25000000  0.00556063  1
  S  S12  1  0.83902728  0.53582070  0.59292324  1
  S  S13  1  0.66097272  0.96417930  0.09292324  1
  S  S14  1  0.16097272  0.03582070  0.40707676  1
  S  S15  1  0.33902728  0.46417930  0.90707676  1
  S  S16  1  0.16097272  0.46417930  0.40707676  1
  S  S17  1  0.33902728  0.03582070  0.90707676  1
  S  S18  1  0.83902728  0.96417930  0.59292324  1
  S  S19  1  0.66097272  0.53582070  0.09292324  1
  S  S20  1  0.83374229  0.75000000  0.31870390  1
  S  S21  1  0.66625771  0.75000000  0.81870390  1
  S  S22  1  0.16625771  0.25000000  0.68129610  1
  S  S23  1  0.33374229  0.25000000  0.18129610  1
  S  S24  1  0.44700007  0.75000000  0.49662715  1
  S  S25  1  0.05299993  0.75000000  0.99662715  1
  S  S26  1  0.55299993  0.25000000  0.50337285  1
  S  S27  1  0.94700007  0.25000000  0.00337285  1
  S  S28  1  0.18836041  0.75000000  0.70716441  1
  S  S29  1  0.31163959  0.75000000  0.20716441  1
  S  S30  1  0.81163959  0.25000000  0.29283559  1
  S  S31  1  0.68836041  0.25000000  0.79283559  1
