# generated using pymatgen
data_TbFeO3
_symmetry_space_group_name_H-M   'P 1'
_cell_length_a   5.30188447
_cell_length_b   5.62729075
_cell_length_c   7.63675994
_cell_angle_alpha   90.00000000
_cell_angle_beta   90.00000000
_cell_angle_gamma   90.00000000
_symmetry_Int_Tables_number   1
_chemical_formula_structural   TbFeO3
_chemical_formula_sum   'Tb4 Fe4 O12'
_cell_volume   227.84460714
_cell_formula_units_Z   4
loop_
 _symmetry_equiv_pos_site_id
 _symmetry_equiv_pos_as_xyz
  1  'x, y, z'
loop_
 _atom_site_type_symbol
 _atom_site_label
 _atom_site_symmetry_multiplicity
 _atom_site_fract_x
 _atom_site_fract_y
 _atom_site_fract_z
 _atom_site_occupancy
  Tb  Tb0  1  0.01845928  0.92972006  0.75000000  1
  Tb  Tb1  1  0.51845928  0.57027994  0.25000000  1
  Tb  Tb2  1  0.48154072  0.42972006  0.75000000  1
  Tb  Tb3  1  0.98154072  0.07027994  0.25000000  1
  Fe  Fe4  1  0.50000000  0.00000000  0.50000000  1
  Fe  Fe5  1  0.00000000  0.50000000  0.50000000  1
  Fe  Fe6  1  0.00000000  0.50000000  0.00000000  1
  Fe  Fe7  1  0.50000000  0.00000000  0.00000000  1
  O  O8  1  0.69107556  0.30610526  0.44259605  1
  O  O9  1  0.19107556  0.19389474  0.55740395  1
  O  O10  1  0.80892444  0.80610526  0.05740395  1
  O  O11  1  0.30892444  0.69389474  0.94259605  1
  O  O12  1  0.30892444  0.69389474  0.55740395  1
  O  O13  1  0.80892444  0.80610526  0.44259605  1
  O  O14  1  0.19107556  0.19389474  0.94259605  1
  O  O15  1  0.69107556  0.30610526  0.05740395  1
  O  O16  1  0.11245165  0.46070280  0.25000000  1
  O  O17  1  0.61245165  0.03929720  0.75000000  1
  O  O18  1  0.38754835  0.96070280  0.25000000  1
  O  O19  1  0.88754835  0.53929720  0.75000000  1
