# generated using pymatgen
data_LiSb2F7
_symmetry_space_group_name_H-M   'P 1'
_cell_length_a   4.69469826
_cell_length_b   8.56765326
_cell_length_c   14.30912587
_cell_angle_alpha   90.00000000
_cell_angle_beta   90.00000000
_cell_angle_gamma   90.00000000
_symmetry_Int_Tables_number   1
_chemical_formula_structural   LiSb2F7
_chemical_formula_sum   'Li4 Sb8 F28'
_cell_volume   575.54948572
_cell_formula_units_Z   4
loop_
 _symmetry_equiv_pos_site_id
 _symmetry_equiv_pos_as_xyz
  1  'x, y, z'
loop_
 _atom_site_type_symbol
 _atom_site_label
 _atom_site_symmetry_multiplicity
 _atom_site_fract_x
 _atom_site_fract_y
 _atom_site_fract_z
 _atom_site_occupancy
  Li  Li0  1  0.86393486  0.92536795  0.25000000  1
  Li  Li1  1  0.63606514  0.42536795  0.25000000  1
  Li  Li2  1  0.13606514  0.07463205  0.75000000  1
  Li  Li3  1  0.36393486  0.57463205  0.75000000  1
  Sb  Sb4  1  0.29400245  0.11121534  0.40074101  1
  Sb  Sb5  1  0.20599755  0.61121534  0.09925899  1
  Sb  Sb6  1  0.70599755  0.88878466  0.90074101  1
  Sb  Sb7  1  0.79400245  0.38878466  0.59925899  1
  Sb  Sb8  1  0.70599755  0.88878466  0.59925899  1
  Sb  Sb9  1  0.79400245  0.38878466  0.90074101  1
  Sb  Sb10  1  0.29400245  0.11121534  0.09925899  1
  Sb  Sb11  1  0.20599755  0.61121534  0.40074101  1
  F  F12  1  0.61317315  0.00244275  0.34349180  1
  F  F13  1  0.88682685  0.50244275  0.15650820  1
  F  F14  1  0.38682685  0.99755725  0.84349180  1
  F  F15  1  0.11317315  0.49755725  0.65650820  1
  F  F16  1  0.38682685  0.99755725  0.65650820  1
  F  F17  1  0.11317315  0.49755725  0.84349180  1
  F  F18  1  0.61317315  0.00244275  0.15650820  1
  F  F19  1  0.88682685  0.50244275  0.34349180  1
  F  F20  1  0.44483095  0.30533149  0.34769368  1
  F  F21  1  0.05516905  0.80533149  0.15230632  1
  F  F22  1  0.55516905  0.69466851  0.84769368  1
  F  F23  1  0.94483095  0.19466851  0.65230632  1
  F  F24  1  0.55516905  0.69466851  0.65230632  1
  F  F25  1  0.94483095  0.19466851  0.84769368  1
  F  F26  1  0.44483095  0.30533149  0.15230632  1
  F  F27  1  0.05516905  0.80533149  0.34769368  1
  F  F28  1  0.59388136  0.15126531  0.50057608  1
  F  F29  1  0.90611864  0.65126531  0.99942392  1
  F  F30  1  0.40611864  0.84873469  0.00057608  1
  F  F31  1  0.09388136  0.34873469  0.49942392  1
  F  F32  1  0.40611864  0.84873469  0.49942392  1
  F  F33  1  0.09388136  0.34873469  0.00057608  1
  F  F34  1  0.59388136  0.15126531  0.99942392  1
  F  F35  1  0.90611864  0.65126531  0.50057608  1
  F  F36  1  0.14053368  0.09237337  0.25000000  1
  F  F37  1  0.35946632  0.59237337  0.25000000  1
  F  F38  1  0.85946632  0.90762663  0.75000000  1
  F  F39  1  0.64053368  0.40762663  0.75000000  1
