# generated using pymatgen
data_Sr4Sm2MgTa2O12
_symmetry_space_group_name_H-M   'P 1'
_cell_length_a   6.08971984
_cell_length_b   6.32600585
_cell_length_c   8.41022734
_cell_angle_alpha   89.43709224
_cell_angle_beta   90.66566797
_cell_angle_gamma   88.89927735
_symmetry_Int_Tables_number   1
_chemical_formula_structural   Sr4Sm2MgTa2O12
_chemical_formula_sum   'Sr4 Sm2 Mg1 Ta2 O12'
_cell_volume   323.89425531
_cell_formula_units_Z   1
loop_
 _symmetry_equiv_pos_site_id
 _symmetry_equiv_pos_as_xyz
  1  'x, y, z'
loop_
 _atom_site_type_symbol
 _atom_site_label
 _atom_site_symmetry_multiplicity
 _atom_site_fract_x
 _atom_site_fract_y
 _atom_site_fract_z
 _atom_site_occupancy
  Sr  Sr0  1  0.00016400  0.47413200  0.23447800  1
  Sr  Sr1  1  0.99636700  0.60908500  0.73852000  1
  Sr  Sr2  1  0.50044600  0.90575200  0.25809000  1
  Sr  Sr3  1  0.45723200  0.90184300  0.71847700  1
  Sm  Sm4  1  0.99502700  0.98312800  0.46177700  1
  Sm  Sm5  1  0.47901000  0.43874600  0.00577800  1
  Mg  Mg6  1  0.85546100  0.16972200  0.79304400  1
  Ta  Ta7  1  0.01566000  0.96853400  0.06435600  1
  Ta  Ta8  1  0.49496700  0.45937000  0.49805000  1
  O  O9  1  0.84569700  0.11548700  0.22791900  1
  O  O10  1  0.08580100  0.98386700  0.72514500  1
  O  O11  1  0.57587300  0.50873000  0.27030400  1
  O  O12  1  0.41555400  0.49791000  0.73163400  1
  O  O13  1  0.22237900  0.72034700  0.02406700  1
  O  O14  1  0.82926900  0.39823800  0.94298900  1
  O  O15  1  0.31727100  0.21886600  0.45187900  1
  O  O16  1  0.71764800  0.74632600  0.52357300  1
  O  O17  1  0.25823300  0.16464900  0.08398600  1
  O  O18  1  0.74857400  0.91399900  0.93817000  1
  O  O19  1  0.25457800  0.68701300  0.46533700  1
  O  O20  1  0.75770300  0.28008900  0.57680300  1
