# generated using pymatgen
data_MgAg20(BiO4)4
_symmetry_space_group_name_H-M   'P 1'
_cell_length_a   6.06503322
_cell_length_b   9.33685226
_cell_length_c   12.96634888
_cell_angle_alpha   95.84467493
_cell_angle_beta   91.87379208
_cell_angle_gamma   86.97279578
_symmetry_Int_Tables_number   1
_chemical_formula_structural   MgAg20(BiO4)4
_chemical_formula_sum   'Mg1 Ag20 Bi4 O16'
_cell_volume   729.15038156
_cell_formula_units_Z   1
loop_
 _symmetry_equiv_pos_site_id
 _symmetry_equiv_pos_as_xyz
  1  'x, y, z'
loop_
 _atom_site_type_symbol
 _atom_site_label
 _atom_site_symmetry_multiplicity
 _atom_site_fract_x
 _atom_site_fract_y
 _atom_site_fract_z
 _atom_site_occupancy
  Mg  Mg0  1  0.14400848  0.00156593  0.83025788  1
  Ag  Ag1  1  0.21532291  0.69557206  0.14635314  1
  Ag  Ag2  1  0.79447850  0.81249463  0.62751822  1
  Ag  Ag3  1  0.02104918  0.44392928  0.03173264  1
  Ag  Ag4  1  0.51834332  0.02409498  0.48085463  1
  Ag  Ag5  1  0.05898478  0.17383821  0.63055294  1
  Ag  Ag6  1  0.36432540  0.63195259  0.84183602  1
  Ag  Ag7  1  0.97417682  0.87247079  0.34544159  1
  Ag  Ag8  1  0.53737842  0.33950064  0.16384612  1
  Ag  Ag9  1  0.53346984  0.99097446  0.23923874  1
  Ag  Ag10  1  0.96883819  0.47753590  0.26819831  1
  Ag  Ag11  1  0.53990979  0.06485350  0.73527914  1
  Ag  Ag12  1  0.00550688  0.47905220  0.73951447  1
  Ag  Ag13  1  0.55197260  0.06705145  0.94753232  1
  Ag  Ag14  1  0.00937370  0.53610468  0.49791738  1
  Ag  Ag15  1  0.27734974  0.28401166  0.86281919  1
  Ag  Ag16  1  0.29240745  0.81505985  0.62996084  1
  Ag  Ag17  1  0.71108982  0.69552164  0.15472710  1
  Ag  Ag18  1  0.75827970  0.24044779  0.36360699  1
  Ag  Ag19  1  0.76523495  0.29044704  0.86157273  1
  Ag  Ag20  1  0.25572682  0.24240344  0.36294526  1
  Bi  Bi21  1  0.53709921  0.40355298  0.60839789  1
  Bi  Bi22  1  0.84053704  0.77440119  0.92390690  1
  Bi  Bi23  1  0.48015880  0.64318469  0.39076330  1
  Bi  Bi24  1  0.02230530  0.09470918  0.11753489  1
  O  O25  1  0.11166846  0.31798598  0.15423087  1
  O  O26  1  0.40526804  0.87319247  0.35967883  1
  O  O27  1  0.91943153  0.55101356  0.90069854  1
  O  O28  1  0.64200409  0.17493718  0.59744745  1
  O  O29  1  0.02963518  0.95993959  0.68669849  1
  O  O30  1  0.50345834  0.42747731  0.78777242  1
  O  O31  1  0.00480610  0.14407565  0.93679035  1
  O  O32  1  0.54863614  0.67066222  0.57087353  1
  O  O33  1  0.94036011  0.81736773  0.08548183  1
  O  O34  1  0.50515524  0.38786988  0.42689990  1
  O  O35  1  0.66252525  0.11619175  0.11738763  1
  O  O36  1  0.84001417  0.65768055  0.37949735  1
  O  O37  1  0.16562517  0.81789871  0.88807956  1
  O  O38  1  0.17390891  0.38938433  0.59867884  1
  O  O39  1  0.00982272  0.09419037  0.29506054  1
  O  O40  1  0.47493590  0.56968796  0.21449826  1
