# generated using pymatgen
data_Sr2MgV2(Si2O7)2
_symmetry_space_group_name_H-M   'P 1'
_cell_length_a   5.52375694
_cell_length_b   7.42198128
_cell_length_c   8.13272921
_cell_angle_alpha   75.91593170
_cell_angle_beta   110.25517862
_cell_angle_gamma   93.15184078
_symmetry_Int_Tables_number   1
_chemical_formula_structural   Sr2MgV2(Si2O7)2
_chemical_formula_sum   'Sr2 Mg1 V2 Si4 O14'
_cell_volume   303.24084565
_cell_formula_units_Z   1
loop_
 _symmetry_equiv_pos_site_id
 _symmetry_equiv_pos_as_xyz
  1  'x, y, z'
loop_
 _atom_site_type_symbol
 _atom_site_label
 _atom_site_symmetry_multiplicity
 _atom_site_fract_x
 _atom_site_fract_y
 _atom_site_fract_z
 _atom_site_occupancy
  Sr  Sr0  1  0.19186000  0.68668300  0.36462300  1
  Sr  Sr1  1  0.84855700  0.32859400  0.70140200  1
  Mg  Mg2  1  0.72941300  0.07247100  0.45238400  1
  V  V3  1  0.95040100  0.75156500  0.81661100  1
  V  V4  1  0.11575700  0.19850100  0.23959500  1
  Si  Si5  1  0.41494900  0.50396700  0.80332300  1
  Si  Si6  1  0.59423600  0.46502300  0.23106500  1
  Si  Si7  1  0.60705700  0.90847700  0.17437800  1
  Si  Si8  1  0.36582100  0.07131100  0.74788800  1
  O  O9  1  0.64817400  0.67908800  0.26269900  1
  O  O10  1  0.36248300  0.29627500  0.75150900  1
  O  O11  1  0.50645300  0.47637900  0.01844600  1
  O  O12  1  0.51207000  0.95280600  0.95637900  1
  O  O13  1  0.61808500  0.60944200  0.70938200  1
  O  O14  1  0.85609700  0.33286600  0.34860900  1
  O  O15  1  0.42125000  0.99040700  0.26123200  1
  O  O16  1  0.06089200  0.00992800  0.68295100  1
  O  O17  1  0.97884700  0.28013600  0.00349000  1
  O  O18  1  0.03365300  0.73804300  0.04431200  1
  O  O19  1  0.89402500  0.97584200  0.28769800  1
  O  O20  1  0.52793600  0.05526500  0.62094200  1
  O  O21  1  0.13173100  0.60969800  0.70051400  1
  O  O22  1  0.38025300  0.38686400  0.32473300  1
