# generated using pymatgen
data_Mn(SbO3)2
_symmetry_space_group_name_H-M   'P 1'
_cell_length_a   6.97101950
_cell_length_b   6.97306464
_cell_length_c   10.14824993
_cell_angle_alpha   72.34755830
_cell_angle_beta   74.16165763
_cell_angle_gamma   99.26972276
_symmetry_Int_Tables_number   1
_chemical_formula_structural   Mn(SbO3)2
_chemical_formula_sum   'Mn4 Sb8 O24'
_cell_volume   435.93492670
_cell_formula_units_Z   4
loop_
 _symmetry_equiv_pos_site_id
 _symmetry_equiv_pos_as_xyz
  1  'x, y, z'
loop_
 _atom_site_type_symbol
 _atom_site_label
 _atom_site_symmetry_multiplicity
 _atom_site_fract_x
 _atom_site_fract_y
 _atom_site_fract_z
 _atom_site_occupancy
  Mn  Mn0  1  0.99999732  0.50005472  0.49994893  1
  Mn  Mn1  1  0.50000812  0.74994792  0.75005152  1
  Mn  Mn2  1  0.99999529  0.00005385  0.99994981  1
  Mn  Mn3  1  0.50000502  0.24994527  0.25004869  1
  Sb  Sb4  1  0.41681185  0.79161096  0.12492645  1
  Sb  Sb5  1  0.91654543  0.04175108  0.37504839  1
  Sb  Sb6  1  0.41680900  0.29161658  0.62492247  1
  Sb  Sb7  1  0.91654115  0.54174036  0.87504117  1
  Sb  Sb8  1  0.58319529  0.70838549  0.37506440  1
  Sb  Sb9  1  0.08344883  0.95824927  0.62496528  1
  Sb  Sb10  1  0.58317574  0.20838530  0.87506781  1
  Sb  Sb11  1  0.08346198  0.45825958  0.12496252  1
  O  O12  1  0.31210843  0.70013724  0.34381395  1
  O  O13  1  0.81220589  0.95018143  0.59389181  1
  O  O14  1  0.31208874  0.20013665  0.84381309  1
  O  O15  1  0.81220466  0.45018229  0.09389019  1
  O  O16  1  0.13426631  0.75485284  0.11097680  1
  O  O17  1  0.63398348  0.00494983  0.36092743  1
  O  O18  1  0.13425781  0.25484310  0.61097721  1
  O  O19  1  0.63398514  0.50495281  0.86092609  1
  O  O20  1  0.45597539  0.09392529  0.09388622  1
  O  O21  1  0.95613111  0.34399256  0.34383408  1
  O  O22  1  0.45597537  0.59392337  0.59388565  1
  O  O23  1  0.95613548  0.84397767  0.84383288  1
  O  O24  1  0.68789537  0.79983478  0.15618810  1
  O  O25  1  0.18780999  0.04985160  0.40610097  1
  O  O26  1  0.68787897  0.29983616  0.65618946  1
  O  O27  1  0.18781353  0.54984771  0.90610312  1
  O  O28  1  0.36602154  0.49509735  0.13901352  1
  O  O29  1  0.86573336  0.74510725  0.38908778  1
  O  O30  1  0.36602387  0.99509693  0.63901307  1
  O  O31  1  0.86571704  0.24509374  0.88908915  1
  O  O32  1  0.54400342  0.40606072  0.40610456  1
  O  O33  1  0.04389511  0.65601835  0.65617187  1
  O  O34  1  0.54400320  0.90606610  0.90610548  1
  O  O35  1  0.04388979  0.15603485  0.15617507  1
