# generated using pymatgen
data_Mn3Cr3O8
_symmetry_space_group_name_H-M   'P 1'
_cell_length_a   6.00422372
_cell_length_b   5.96918871
_cell_length_c   10.25346139
_cell_angle_alpha   73.07523460
_cell_angle_beta   88.73120546
_cell_angle_gamma   60.17692899
_symmetry_Int_Tables_number   1
_chemical_formula_structural   Mn3Cr3O8
_chemical_formula_sum   'Mn6 Cr6 O16'
_cell_volume   301.66286695
_cell_formula_units_Z   2
loop_
 _symmetry_equiv_pos_site_id
 _symmetry_equiv_pos_as_xyz
  1  'x, y, z'
loop_
 _atom_site_type_symbol
 _atom_site_label
 _atom_site_symmetry_multiplicity
 _atom_site_fract_x
 _atom_site_fract_y
 _atom_site_fract_z
 _atom_site_occupancy
  Mn  Mn0  1  0.81246839  0.37527335  0.43689935  1
  Mn  Mn1  1  0.31283222  0.37483823  0.93745384  1
  Mn  Mn2  1  0.50764552  0.99568495  0.50060991  1
  Mn  Mn3  1  0.11645919  0.75446980  0.37430283  1
  Mn  Mn4  1  0.61585217  0.75501814  0.87328625  1
  Mn  Mn5  1  0.00907434  0.99494486  0.00136384  1
  Cr  Cr6  1  0.06310086  0.37489649  0.18739304  1
  Cr  Cr7  1  0.56220945  0.37519300  0.68710594  1
  Cr  Cr8  1  0.56292032  0.87509915  0.18777279  1
  Cr  Cr9  1  0.06206812  0.87543157  0.68749223  1
  Cr  Cr10  1  0.56292213  0.37467410  0.18774878  1
  Cr  Cr11  1  0.06216738  0.37497938  0.68747130  1
  O  O12  1  0.42294349  0.14271227  0.29201737  1
  O  O13  1  0.92250296  0.14253901  0.79238912  1
  O  O14  1  0.70186412  0.60775119  0.08299033  1
  O  O15  1  0.20127636  0.60779474  0.58308278  1
  O  O16  1  0.67733284  0.12241157  0.07811136  1
  O  O17  1  0.17818379  0.12083977  0.57991244  1
  O  O18  1  0.21536646  0.57953888  0.06683666  1
  O  O19  1  0.71392740  0.58044172  0.56714202  1
  O  O20  1  0.21540943  0.13850173  0.06684318  1
  O  O21  1  0.71389137  0.13826039  0.56711050  1
  O  O22  1  0.44864217  0.62716044  0.29732604  1
  O  O23  1  0.94771318  0.62765609  0.79681091  1
  O  O24  1  0.91090883  0.16998484  0.30747610  1
  O  O25  1  0.40983932  0.17077672  0.80779646  1
  O  O26  1  0.91079506  0.61175167  0.30749993  1
  O  O27  1  0.40968113  0.61137395  0.80775472  1
