# generated using pymatgen
data_P2W2O11
_symmetry_space_group_name_H-M   'P 1'
_cell_length_a   6.26183130
_cell_length_b   8.00549920
_cell_length_c   15.76982846
_cell_angle_alpha   90.00000000
_cell_angle_beta   90.00000000
_cell_angle_gamma   90.00000000
_symmetry_Int_Tables_number   1
_chemical_formula_structural   P2W2O11
_chemical_formula_sum   'P8 W8 O44'
_cell_volume   790.52707860
_cell_formula_units_Z   4
loop_
 _symmetry_equiv_pos_site_id
 _symmetry_equiv_pos_as_xyz
  1  'x, y, z'
loop_
 _atom_site_type_symbol
 _atom_site_label
 _atom_site_symmetry_multiplicity
 _atom_site_fract_x
 _atom_site_fract_y
 _atom_site_fract_z
 _atom_site_occupancy
  P  P0  1  0.75000000  0.59313835  0.58461983  1
  P  P1  1  0.25000000  0.40686165  0.41538017  1
  P  P2  1  0.25000000  0.09313835  0.91538017  1
  P  P3  1  0.75000000  0.90686165  0.08461983  1
  P  P4  1  0.75000000  0.00632132  0.75464871  1
  P  P5  1  0.25000000  -0.00632132  0.24535129  1
  P  P6  1  0.25000000  0.50632132  0.74535129  1
  P  P7  1  0.75000000  0.49367868  0.25464871  1
  W  W8  1  0.25000000  0.73646682  0.55992402  1
  W  W9  1  0.75000000  0.26353318  0.44007598  1
  W  W10  1  0.75000000  0.23646682  0.94007598  1
  W  W11  1  0.25000000  0.76353318  0.05992402  1
  W  W12  1  0.25000000  0.10031985  0.69736739  1
  W  W13  1  0.75000000  0.89968015  0.30263261  1
  W  W14  1  0.75000000  0.60031985  0.80263261  1
  W  W15  1  0.25000000  0.39968015  0.19736739  1
  O  O16  1  0.25000000  0.54659926  0.48072784  1
  O  O17  1  0.75000000  0.45340074  0.51927216  1
  O  O18  1  0.75000000  0.04659926  0.01927216  1
  O  O19  1  0.25000000  0.95340074  0.98072784  1
  O  O20  1  0.25000000  0.54215709  0.65263738  1
  O  O21  1  0.75000000  0.45784291  0.34736262  1
  O  O22  1  0.75000000  0.04215709  0.84736262  1
  O  O23  1  0.25000000  0.95784291  0.15263738  1
  O  O24  1  0.44368541  0.29299678  0.43208843  1
  O  O25  1  0.94368541  0.70700322  0.56791157  1
  O  O26  1  0.55631459  0.79299678  0.06791157  1
  O  O27  1  0.05631459  0.20700322  0.93208843  1
  O  O28  1  0.55631459  0.70700322  0.56791157  1
  O  O29  1  0.05631459  0.29299678  0.43208843  1
  O  O30  1  0.25000000  0.31822332  0.76220145  1
  O  O31  1  0.44368541  0.20700322  0.93208843  1
  O  O32  1  0.25000000  0.62200232  0.15691943  1
  O  O33  1  0.75000000  0.37799768  0.84308057  1
  O  O34  1  0.75000000  0.12200232  0.34308057  1
  O  O35  1  0.25000000  0.87799768  0.65691943  1
  O  O36  1  0.25000000  0.29766299  0.10285821  1
  O  O37  1  0.75000000  0.70233701  0.89714179  1
  O  O38  1  0.75000000  0.79766299  0.39714179  1
  O  O39  1  0.25000000  0.20233701  0.60285821  1
  O  O40  1  0.25000000  0.60785015  0.98637756  1
  O  O41  1  0.75000000  0.39214985  0.01362244  1
  O  O42  1  0.75000000  0.10785015  0.51362244  1
  O  O43  1  0.25000000  0.89214985  0.48637756  1
  O  O44  1  0.94326428  0.41486253  0.20923957  1
  O  O45  1  0.44326428  0.58513747  0.79076043  1
  O  O46  1  0.05673572  0.91486253  0.29076043  1
  O  O47  1  0.55673572  0.08513747  0.70923957  1
  O  O48  1  0.05673572  0.58513747  0.79076043  1
  O  O49  1  0.55673572  0.41486253  0.20923957  1
  O  O50  1  0.94326428  0.08513747  0.70923957  1
  O  O51  1  0.44326428  0.91486253  0.29076043  1
  O  O52  1  0.25000000  0.48014182  0.32744945  1
  O  O53  1  0.75000000  0.51985818  0.67255055  1
  O  O54  1  0.75000000  0.98014182  0.17255055  1
  O  O55  1  0.25000000  0.01985818  0.82744945  1
  O  O56  1  0.25000000  0.18177668  0.26220145  1
  O  O57  1  0.75000000  0.81822332  0.73779855  1
  O  O58  1  0.75000000  0.68177668  0.23779855  1
  O  O59  1  0.94368541  0.79299678  0.06791157  1
