# generated using pymatgen
data_RbFe2F6
_symmetry_space_group_name_H-M   'P 1'
_cell_length_a   6.95902628
_cell_length_b   7.41034536
_cell_length_c   10.06700348
_cell_angle_alpha   90.00000000
_cell_angle_beta   90.00000000
_cell_angle_gamma   90.00000000
_symmetry_Int_Tables_number   1
_chemical_formula_structural   RbFe2F6
_chemical_formula_sum   'Rb4 Fe8 F24'
_cell_volume   519.14316930
_cell_formula_units_Z   4
loop_
 _symmetry_equiv_pos_site_id
 _symmetry_equiv_pos_as_xyz
  1  'x, y, z'
loop_
 _atom_site_type_symbol
 _atom_site_label
 _atom_site_symmetry_multiplicity
 _atom_site_fract_x
 _atom_site_fract_y
 _atom_site_fract_z
 _atom_site_occupancy
  Rb  Rb0  1  0.49607491  0.25000000  0.12741555  1
  Rb  Rb1  1  0.99607491  0.25000000  0.37258445  1
  Rb  Rb2  1  0.50392509  0.75000000  0.87258445  1
  Rb  Rb3  1  0.00392509  0.75000000  0.62741555  1
  Fe  Fe4  1  0.30334446  0.25000000  0.77033418  1
  Fe  Fe5  1  0.80334446  0.25000000  0.72966582  1
  Fe  Fe6  1  0.69665554  0.75000000  0.22966582  1
  Fe  Fe7  1  0.19665554  0.75000000  0.27033418  1
  Fe  Fe8  1  0.00000000  -0.00000000  -0.00000000  1
  Fe  Fe9  1  0.50000000  0.50000000  0.50000000  1
  Fe  Fe10  1  0.00000000  0.50000000  -0.00000000  1
  Fe  Fe11  1  0.50000000  -0.00000000  0.50000000  1
  F  F12  1  0.24460852  0.07258064  0.92026611  1
  F  F13  1  0.74460852  0.42741936  0.57973389  1
  F  F14  1  0.75539148  0.57258064  0.07973389  1
  F  F15  1  0.25539148  0.92741936  0.42026611  1
  F  F16  1  0.75539148  0.92741936  0.07973389  1
  F  F17  1  0.25539148  0.57258064  0.42026611  1
  F  F18  1  0.24460852  0.42741936  0.92026611  1
  F  F19  1  0.74460852  0.07258064  0.57973389  1
  F  F20  1  0.86997636  0.02022904  0.82445681  1
  F  F21  1  0.36997636  0.47977096  0.67554319  1
  F  F22  1  0.13002364  0.52022904  0.17554319  1
  F  F23  1  0.63002364  0.97977096  0.32445681  1
  F  F24  1  0.13002364  0.97977096  0.17554319  1
  F  F25  1  0.63002364  0.52022904  0.32445681  1
  F  F26  1  0.86997636  0.47977096  0.82445681  1
  F  F27  1  0.36997636  0.02022904  0.67554319  1
  F  F28  1  0.92979814  0.25000000  0.04730459  1
  F  F29  1  0.42979814  0.25000000  0.45269541  1
  F  F30  1  0.07020186  0.75000000  0.95269541  1
  F  F31  1  0.57020186  0.75000000  0.54730459  1
  F  F32  1  0.07158425  0.25000000  0.65846404  1
  F  F33  1  0.57158425  0.25000000  0.84153596  1
  F  F34  1  0.92841575  0.75000000  0.34153596  1
  F  F35  1  0.42841575  0.75000000  0.15846404  1
