# generated using pymatgen
data_HoTlS2
_symmetry_space_group_name_H-M   'P 1'
_cell_length_a   3.99166723
_cell_length_b   3.99166768
_cell_length_c   7.84292905
_cell_angle_alpha   75.25748757
_cell_angle_beta   75.25748364
_cell_angle_gamma   59.99999631
_symmetry_Int_Tables_number   1
_chemical_formula_structural   HoTlS2
_chemical_formula_sum   'Ho1 Tl1 S2'
_cell_volume   103.44488422
_cell_formula_units_Z   1
loop_
 _symmetry_equiv_pos_site_id
 _symmetry_equiv_pos_as_xyz
  1  'x, y, z'
loop_
 _atom_site_type_symbol
 _atom_site_label
 _atom_site_symmetry_multiplicity
 _atom_site_fract_x
 _atom_site_fract_y
 _atom_site_fract_z
 _atom_site_occupancy
  Ho  Ho0  1  0.00000000  0.00000000  -0.00000000  1
  Tl  Tl1  1  0.50000000  0.50000000  0.50000000  1
  S  S2  1  0.73231940  0.73231940  0.80303981  1
  S  S3  1  0.26768060  0.26768060  0.19696019  1
