# generated using pymatgen
data_SnBr2
_symmetry_space_group_name_H-M   'P 1'
_cell_length_a   4.33819930
_cell_length_b   12.74769617
_cell_length_c   12.74769600
_cell_angle_alpha   120.00000202
_cell_angle_beta   90.00000000
_cell_angle_gamma   90.00000000
_symmetry_Int_Tables_number   1
_chemical_formula_structural   SnBr2
_chemical_formula_sum   'Sn6 Br12'
_cell_volume   610.52510182
_cell_formula_units_Z   6
loop_
 _symmetry_equiv_pos_site_id
 _symmetry_equiv_pos_as_xyz
  1  'x, y, z'
loop_
 _atom_site_type_symbol
 _atom_site_label
 _atom_site_symmetry_multiplicity
 _atom_site_fract_x
 _atom_site_fract_y
 _atom_site_fract_z
 _atom_site_occupancy
  Sn  Sn0  1  0.25000000  0.41040368  0.09536659  1
  Sn  Sn1  1  0.25000000  0.90463341  0.31503709  1
  Sn  Sn2  1  0.25000000  0.68496291  0.58959632  1
  Sn  Sn3  1  0.75000000  0.58959632  0.90463341  1
  Sn  Sn4  1  0.75000000  0.09536659  0.68496291  1
  Sn  Sn5  1  0.75000000  0.31503709  0.41040368  1
  Br  Br6  1  0.75000000  0.24367048  0.00398111  1
  Br  Br7  1  0.75000000  -0.00398111  0.23969037  1
  Br  Br8  1  0.75000000  0.76030963  0.75632952  1
  Br  Br9  1  0.25000000  0.75632952  -0.00398111  1
  Br  Br10  1  0.25000000  0.00398111  0.76030963  1
  Br  Br11  1  0.25000000  0.23969037  0.24367048  1
  Br  Br12  1  0.25000000  0.38595207  0.86639556  1
  Br  Br13  1  0.25000000  0.13360444  0.51955651  1
  Br  Br14  1  0.25000000  0.48044349  0.61404793  1
  Br  Br15  1  0.75000000  0.61404793  0.13360444  1
  Br  Br16  1  0.75000000  0.86639556  0.48044349  1
  Br  Br17  1  0.75000000  0.51955651  0.38595207  1
