# generated using pymatgen
data_RbBaSc(SiO3)3
_symmetry_space_group_name_H-M   'P 1'
_cell_length_a   10.24022953
_cell_length_b   6.98204933
_cell_length_c   13.78002575
_cell_angle_alpha   59.65398549
_cell_angle_beta   90.00000000
_cell_angle_gamma   90.00000000
_symmetry_Int_Tables_number   1
_chemical_formula_structural   RbBaSc(SiO3)3
_chemical_formula_sum   'Rb4 Ba4 Sc4 Si12 O36'
_cell_volume   850.25352011
_cell_formula_units_Z   4
loop_
 _symmetry_equiv_pos_site_id
 _symmetry_equiv_pos_as_xyz
  1  'x, y, z'
loop_
 _atom_site_type_symbol
 _atom_site_label
 _atom_site_symmetry_multiplicity
 _atom_site_fract_x
 _atom_site_fract_y
 _atom_site_fract_z
 _atom_site_occupancy
  Rb  Rb0  1  0.05377167  0.66571357  0.07880961  1
  Rb  Rb1  1  0.44622833  0.66571357  0.57880961  1
  Rb  Rb2  1  0.94622833  0.33428643  0.92119039  1
  Rb  Rb3  1  0.55377167  0.33428643  0.42119039  1
  Ba  Ba4  1  0.94044186  0.32857461  0.41206937  1
  Ba  Ba5  1  0.55955814  0.32857461  0.91206937  1
  Ba  Ba6  1  0.05955814  0.67142539  0.58793063  1
  Ba  Ba7  1  0.44044186  0.67142539  0.08793063  1
  Sc  Sc8  1  0.00382564  0.02253348  0.73417861  1
  Sc  Sc9  1  0.49617436  0.02253348  0.23417861  1
  Sc  Sc10  1  0.99617436  0.97746652  0.26582139  1
  Sc  Sc11  1  0.50382564  0.97746652  0.76582139  1
  Si  Si12  1  0.76453018  0.86938860  0.94191492  1
  Si  Si13  1  0.73546982  0.86938860  0.44191492  1
  Si  Si14  1  0.23546982  0.13061140  0.05808508  1
  Si  Si15  1  0.26453018  0.13061140  0.55808508  1
  Si  Si16  1  0.75213495  0.38482919  0.12297186  1
  Si  Si17  1  0.74786505  0.38482919  0.62297186  1
  Si  Si18  1  0.24786505  0.61517081  0.87702814  1
  Si  Si19  1  0.25213495  0.61517081  0.37702814  1
  Si  Si20  1  0.75360672  0.75072871  0.18382737  1
  Si  Si21  1  0.74639328  0.75072871  0.68382737  1
  Si  Si22  1  0.24639328  0.24927129  0.81617263  1
  Si  Si23  1  0.25360672  0.24927129  0.31617263  1
  O  O24  1  0.87493401  0.00550434  0.85231072  1
  O  O25  1  0.62506599  0.00550434  0.35231072  1
  O  O26  1  0.12506599  0.99449566  0.14768928  1
  O  O27  1  0.37493401  0.99449566  0.64768928  1
  O  O28  1  0.61352761  0.93915968  0.90998613  1
  O  O29  1  0.88647239  0.93915968  0.40998613  1
  O  O30  1  0.38647239  0.06084032  0.09001387  1
  O  O31  1  0.11352761  0.06084032  0.59001387  1
  O  O32  1  0.78541992  0.59969406  0.99525258  1
  O  O33  1  0.71458008  0.59969406  0.49525258  1
  O  O34  1  0.21458008  0.40030594  0.00474742  1
  O  O35  1  0.28541992  0.40030594  0.50474742  1
  O  O36  1  0.79380117  0.90931692  0.05005704  1
  O  O37  1  0.70619883  0.90931692  0.55005704  1
  O  O38  1  0.20619883  0.09068308  0.94994296  1
  O  O39  1  0.29380117  0.09068308  0.44994296  1
  O  O40  1  0.87267021  0.22110692  0.15341263  1
  O  O41  1  0.62732979  0.22110692  0.65341263  1
  O  O42  1  0.12732979  0.77889308  0.84658737  1
  O  O43  1  0.37267021  0.77889308  0.34658737  1
  O  O44  1  0.60755069  0.30656841  0.11113120  1
  O  O45  1  0.89244931  0.30656841  0.61113120  1
  O  O46  1  0.39244931  0.69343159  0.88886880  1
  O  O47  1  0.10755069  0.69343159  0.38886880  1
  O  O48  1  0.74845213  0.49144268  0.20648301  1
  O  O49  1  0.75154787  0.49144268  0.70648301  1
  O  O50  1  0.25154787  0.50855732  0.79351699  1
  O  O51  1  0.24845213  0.50855732  0.29351699  1
  O  O52  1  0.87012948  0.74189942  0.26320894  1
  O  O53  1  0.62987052  0.74189942  0.76320894  1
  O  O54  1  0.12987052  0.25810058  0.73679106  1
  O  O55  1  0.37012948  0.25810058  0.23679106  1
  O  O56  1  0.60713236  0.80142459  0.20497137  1
  O  O57  1  0.89286764  0.80142459  0.70497137  1
  O  O58  1  0.39286764  0.19857541  0.79502863  1
  O  O59  1  0.10713236  0.19857541  0.29502863  1
