# generated using pymatgen
data_Cs3SbS3
_symmetry_space_group_name_H-M   'P 1'
_cell_length_a   10.37907753
_cell_length_b   10.37907753
_cell_length_c   10.37907753
_cell_angle_alpha   90.00000000
_cell_angle_beta   90.00000000
_cell_angle_gamma   90.00000000
_symmetry_Int_Tables_number   1
_chemical_formula_structural   Cs3SbS3
_chemical_formula_sum   'Cs12 Sb4 S12'
_cell_volume   1118.08872557
_cell_formula_units_Z   4
loop_
 _symmetry_equiv_pos_site_id
 _symmetry_equiv_pos_as_xyz
  1  'x, y, z'
loop_
 _atom_site_type_symbol
 _atom_site_label
 _atom_site_symmetry_multiplicity
 _atom_site_fract_x
 _atom_site_fract_y
 _atom_site_fract_z
 _atom_site_occupancy
  Cs  Cs0  1  0.44183845  0.94183845  0.55816155  1
  Cs  Cs1  1  0.94183845  0.55816155  0.44183845  1
  Cs  Cs2  1  0.55816155  0.44183845  0.94183845  1
  Cs  Cs3  1  0.05816155  0.05816155  0.05816155  1
  Cs  Cs4  1  0.93938196  0.43938196  0.06061804  1
  Cs  Cs5  1  0.43938196  0.06061804  0.93938196  1
  Cs  Cs6  1  0.06061804  0.93938196  0.43938196  1
  Cs  Cs7  1  0.56061804  0.56061804  0.56061804  1
  Cs  Cs8  1  0.67845931  0.17845931  0.32154069  1
  Cs  Cs9  1  0.17845931  0.32154069  0.67845931  1
  Cs  Cs10  1  0.32154069  0.67845931  0.17845931  1
  Cs  Cs11  1  0.82154069  0.82154069  0.82154069  1
  Sb  Sb12  1  0.22425125  0.72425125  0.77574875  1
  Sb  Sb13  1  0.72425125  0.77574875  0.22425125  1
  Sb  Sb14  1  0.77574875  0.22425125  0.72425125  1
  Sb  Sb15  1  0.27574875  0.27574875  0.27574875  1
  S  S16  1  0.15843902  0.94881140  0.75815374  1
  S  S17  1  0.24184626  0.65843902  0.55118860  1
  S  S18  1  0.44881140  0.74184626  0.84156098  1
  S  S19  1  0.65843902  0.55118860  0.24184626  1
  S  S20  1  0.74184626  0.84156098  0.44881140  1
  S  S21  1  0.94881140  0.75815374  0.15843902  1
  S  S22  1  0.84156098  0.44881140  0.74184626  1
  S  S23  1  0.75815374  0.15843902  0.94881140  1
  S  S24  1  0.55118860  0.24184626  0.65843902  1
  S  S25  1  0.34156098  0.05118860  0.25815374  1
  S  S26  1  0.25815374  0.34156098  0.05118860  1
  S  S27  1  0.05118860  0.25815374  0.34156098  1
