# generated using pymatgen
data_Sr5Cr3O12F
_symmetry_space_group_name_H-M   'P 1'
_cell_length_a   9.92480816
_cell_length_b   9.92485853
_cell_length_c   7.44691790
_cell_angle_alpha   90.00000000
_cell_angle_beta   90.00000000
_cell_angle_gamma   120.00133994
_symmetry_Int_Tables_number   1
_chemical_formula_structural   Sr5Cr3O12F
_chemical_formula_sum   'Sr10 Cr6 O24 F2'
_cell_volume   635.25454283
_cell_formula_units_Z   2
loop_
 _symmetry_equiv_pos_site_id
 _symmetry_equiv_pos_as_xyz
  1  'x, y, z'
loop_
 _atom_site_type_symbol
 _atom_site_label
 _atom_site_symmetry_multiplicity
 _atom_site_fract_x
 _atom_site_fract_y
 _atom_site_fract_z
 _atom_site_occupancy
  Sr  Sr0  1  0.75972182  0.74997761  0.25000000  1
  Sr  Sr1  1  0.99024527  0.24027146  0.25000000  1
  Sr  Sr2  1  0.75001659  0.99015983  0.75000000  1
  Sr  Sr3  1  0.00983509  0.75983171  0.75000000  1
  Sr  Sr4  1  0.24015021  0.24998880  0.75000000  1
  Sr  Sr5  1  0.25001769  0.00974782  0.25000000  1
  Sr  Sr6  1  0.33333421  0.66667356  0.50072584  1
  Sr  Sr7  1  0.66666949  0.33333489  0.00077529  1
  Sr  Sr8  1  0.66666949  0.33333489  0.49922471  1
  Sr  Sr9  1  0.33333421  0.66667356  -0.00072584  1
  Cr  Cr10  1  0.60029552  0.96930839  0.25000000  1
  Cr  Cr11  1  0.03072266  0.63102121  0.25000000  1
  Cr  Cr12  1  0.63103102  0.60018877  0.75000000  1
  Cr  Cr13  1  0.39982200  0.03084357  0.75000000  1
  Cr  Cr14  1  0.96915368  0.36896746  0.75000000  1
  Cr  Cr15  1  0.36896871  0.39970275  0.25000000  1
  O  O16  1  0.52226214  0.68917427  0.75000000  1
  O  O17  1  0.59791970  0.12909820  0.75000000  1
  O  O18  1  0.25337694  0.34438133  0.43421842  1
  O  O19  1  0.90885516  0.25335439  0.93421340  1
  O  O20  1  0.34451691  0.09115929  0.93425200  1
  O  O21  1  0.65562932  0.90902436  0.43422958  1
  O  O22  1  0.09099626  0.74662507  0.43424704  1
  O  O23  1  0.74665108  0.65547651  0.93424837  1
  O  O24  1  0.74665108  0.65547651  0.56575163  1
  O  O25  1  0.09099626  0.74662507  0.06575296  1
  O  O26  1  0.65562932  0.90902436  0.06577042  1
  O  O27  1  0.34451691  0.09115929  0.56574800  1
  O  O28  1  0.87091207  0.46877698  0.75000000  1
  O  O29  1  0.25337694  0.34438133  0.06578158  1
  O  O30  1  0.53120619  0.40209520  0.75000000  1
  O  O31  1  0.12923325  0.53138438  0.25000000  1
  O  O32  1  0.47801228  0.31103920  0.25000000  1
  O  O33  1  0.16689057  0.47771235  0.75000000  1
  O  O34  1  0.31080919  0.83307635  0.75000000  1
  O  O35  1  0.68899763  0.16704028  0.25000000  1
  O  O36  1  0.83298106  0.52195982  0.25000000  1
  O  O37  1  0.90885516  0.25335439  0.56578660  1
  O  O38  1  0.46858251  0.59781878  0.25000000  1
  O  O39  1  0.40215079  0.87078272  0.25000000  1
  F  F40  1  0.00000203  -0.00000503  0.25000000  1
  F  F41  1  -0.00000042  -0.00001864  0.75000000  1
