# generated using pymatgen
data_Ba2V3HO9
_symmetry_space_group_name_H-M   'P 1'
_cell_length_a   6.15184648
_cell_length_b   7.88986754
_cell_length_c   9.23717127
_cell_angle_alpha   112.98190457
_cell_angle_beta   90.00000000
_cell_angle_gamma   90.00000000
_symmetry_Int_Tables_number   1
_chemical_formula_structural   Ba2V3HO9
_chemical_formula_sum   'Ba4 V6 H2 O18'
_cell_volume   412.76082880
_cell_formula_units_Z   2
loop_
 _symmetry_equiv_pos_site_id
 _symmetry_equiv_pos_as_xyz
  1  'x, y, z'
loop_
 _atom_site_type_symbol
 _atom_site_label
 _atom_site_symmetry_multiplicity
 _atom_site_fract_x
 _atom_site_fract_y
 _atom_site_fract_z
 _atom_site_occupancy
  Ba  Ba0  1  0.75000000  0.32250594  0.41314483  1
  Ba  Ba1  1  0.25000000  0.67749406  0.58685517  1
  Ba  Ba2  1  0.75000000  0.73879341  0.24597350  1
  Ba  Ba3  1  0.25000000  0.26120659  0.75402650  1
  V  V4  1  0.50000000  0.00000000  0.00000000  1
  V  V5  1  -0.00000000  0.00000000  0.00000000  1
  V  V6  1  0.25000000  0.05006557  0.33361768  1
  V  V7  1  0.75000000  0.94993443  0.66638232  1
  V  V8  1  0.75000000  0.56427291  0.83060242  1
  V  V9  1  0.25000000  0.43572709  0.16939758  1
  H  H10  1  0.75000000  0.27581982  0.02298101  1
  H  H11  1  0.25000000  0.72418018  0.97701899  1
  O  O12  1  0.48812651  0.01002673  0.21916396  1
  O  O13  1  0.98812651  0.98997327  0.78083604  1
  O  O14  1  0.51187349  0.98997327  0.78083604  1
  O  O15  1  0.01187349  0.01002673  0.21916396  1
  O  O16  1  0.52942825  0.50312212  0.71067869  1
  O  O17  1  0.02942825  0.49687788  0.28932131  1
  O  O18  1  0.47057175  0.49687788  0.28932131  1
  O  O19  1  0.97057175  0.50312212  0.71067869  1
  O  O20  1  0.75000000  0.80839126  0.95380048  1
  O  O21  1  0.25000000  0.19160874  0.04619952  1
  O  O22  1  0.25000000  0.27306085  0.45908941  1
  O  O23  1  0.75000000  0.72693915  0.54091059  1
  O  O24  1  0.75000000  0.17535389  0.06232685  1
  O  O25  1  0.25000000  0.82464611  0.93767315  1
  O  O26  1  0.25000000  0.92230250  0.44340038  1
  O  O27  1  0.75000000  0.07769750  0.55659962  1
  O  O28  1  0.75000000  0.44546426  0.94924324  1
  O  O29  1  0.25000000  0.55453574  0.05075676  1
