# generated using pymatgen
data_VCrO4
_symmetry_space_group_name_H-M   'P 1'
_cell_length_a   6.59574223
_cell_length_b   6.59573972
_cell_length_c   6.82949198
_cell_angle_alpha   77.05933490
_cell_angle_beta   77.05938285
_cell_angle_gamma   84.11601358
_symmetry_Int_Tables_number   1
_chemical_formula_structural   VCrO4
_chemical_formula_sum   'V4 Cr4 O16'
_cell_volume   281.77972201
_cell_formula_units_Z   4
loop_
 _symmetry_equiv_pos_site_id
 _symmetry_equiv_pos_as_xyz
  1  'x, y, z'
loop_
 _atom_site_type_symbol
 _atom_site_label
 _atom_site_symmetry_multiplicity
 _atom_site_fract_x
 _atom_site_fract_y
 _atom_site_fract_z
 _atom_site_occupancy
  V  V0  1  0.72659603  0.72659574  0.39801799  1
  V  V1  1  0.27340292  0.27340327  0.60198339  1
  V  V2  1  0.74935989  0.25064035  -0.00000033  1
  V  V3  1  0.25064099  0.74935958  -0.00000025  1
  Cr  Cr4  1  0.20237132  0.20237120  0.14285690  1
  Cr  Cr5  1  0.79762875  0.79762839  0.85714288  1
  Cr  Cr6  1  0.82018386  0.17981611  0.49999986  1
  Cr  Cr7  1  0.17981649  0.82018393  0.49999981  1
  O  O8  1  0.20427598  0.52637066  0.52737736  1
  O  O9  1  0.47362865  0.79572552  0.47262254  1
  O  O10  1  0.79572561  0.47362854  0.47262295  1
  O  O11  1  0.52637052  0.20427662  0.52737694  1
  O  O12  1  0.10739337  0.80194416  0.79807523  1
  O  O13  1  0.19805588  0.89260655  0.20192476  1
  O  O14  1  0.89260666  0.19805615  0.20192492  1
  O  O15  1  0.80194416  0.10739259  0.79807520  1
  O  O16  1  0.86082166  0.86082166  0.54139931  1
  O  O17  1  0.13917808  0.13917793  0.45860054  1
  O  O18  1  0.20573494  0.20573479  0.86239582  1
  O  O19  1  0.79426353  0.79426300  0.13760578  1
  O  O20  1  0.79276233  0.49992580  0.88861880  1
  O  O21  1  0.20723956  0.50007390  0.11138014  1
  O  O22  1  0.50007413  0.20723831  0.11138030  1
  O  O23  1  0.49992669  0.79276226  0.88861918  1
