# generated using pymatgen
data_Rb3CoCl5
_symmetry_space_group_name_H-M   'P 1'
_cell_length_a   8.81417761
_cell_length_b   8.81417761
_cell_length_c   9.42813598
_cell_angle_alpha   117.86824848
_cell_angle_beta   117.86824848
_cell_angle_gamma   90.00000000
_symmetry_Int_Tables_number   1
_chemical_formula_structural   Rb3CoCl5
_chemical_formula_sum   'Rb6 Co2 Cl10'
_cell_volume   549.59594638
_cell_formula_units_Z   2
loop_
 _symmetry_equiv_pos_site_id
 _symmetry_equiv_pos_as_xyz
  1  'x, y, z'
loop_
 _atom_site_type_symbol
 _atom_site_label
 _atom_site_symmetry_multiplicity
 _atom_site_fract_x
 _atom_site_fract_y
 _atom_site_fract_z
 _atom_site_occupancy
  Rb  Rb0  1  0.25000000  0.25000000  0.50000000  1
  Rb  Rb1  1  0.75000000  0.75000000  0.50000000  1
  Rb  Rb2  1  0.66276094  0.16276094  0.00000000  1
  Rb  Rb3  1  0.33723906  0.83723906  -0.00000000  1
  Rb  Rb4  1  0.83723906  0.66276094  0.00000000  1
  Rb  Rb5  1  0.16276094  0.33723906  0.00000000  1
  Co  Co6  1  0.25000000  0.75000000  0.50000000  1
  Co  Co7  1  0.75000000  0.25000000  0.50000000  1
  Cl  Cl8  1  0.29644979  0.79644979  0.30657134  1
  Cl  Cl9  1  0.70355021  0.20355021  0.69342866  1
  Cl  Cl10  1  0.01012155  0.51012155  0.30657134  1
  Cl  Cl11  1  0.51012155  0.29644979  0.30657134  1
  Cl  Cl12  1  0.20355021  0.98987845  0.69342866  1
  Cl  Cl13  1  0.98987845  0.48987845  0.69342866  1
  Cl  Cl14  1  0.48987845  0.70355021  0.69342866  1
  Cl  Cl15  1  0.79644979  0.01012155  0.30657134  1
  Cl  Cl16  1  -0.00000000  0.00000000  0.00000000  1
  Cl  Cl17  1  0.50000000  0.50000000  0.00000000  1
