# generated using pymatgen
data_K2MnI4
_symmetry_space_group_name_H-M   'P 1'
_cell_length_a   7.96141461
_cell_length_b   8.20331145
_cell_length_c   9.69485726
_cell_angle_alpha   90.00000000
_cell_angle_beta   108.05003398
_cell_angle_gamma   90.00000000
_symmetry_Int_Tables_number   1
_chemical_formula_structural   K2MnI4
_chemical_formula_sum   'K4 Mn2 I8'
_cell_volume   602.01009958
_cell_formula_units_Z   2
loop_
 _symmetry_equiv_pos_site_id
 _symmetry_equiv_pos_as_xyz
  1  'x, y, z'
loop_
 _atom_site_type_symbol
 _atom_site_label
 _atom_site_symmetry_multiplicity
 _atom_site_fract_x
 _atom_site_fract_y
 _atom_site_fract_z
 _atom_site_occupancy
  K  K0  1  0.21733438  0.25000000  0.55229380  1
  K  K1  1  0.78266562  0.75000000  0.44770620  1
  K  K2  1  0.25878227  0.25000000  0.06643508  1
  K  K3  1  0.74121773  0.75000000  0.93356492  1
  Mn  Mn4  1  0.77295866  0.25000000  0.69944203  1
  Mn  Mn5  1  0.22704134  0.75000000  0.30055797  1
  I  I6  1  0.58874498  0.25000000  0.41533786  1
  I  I7  1  0.41125502  0.75000000  0.58466214  1
  I  I8  1  -0.00074988  0.00459307  0.23984794  1
  I  I9  1  0.00074988  0.99540693  0.76015206  1
  I  I10  1  0.00074988  0.50459307  0.76015206  1
  I  I11  1  -0.00074988  0.49540693  0.23984794  1
  I  I12  1  0.57316478  0.25000000  0.87765625  1
  I  I13  1  0.42683522  0.75000000  0.12234375  1
