# generated using pymatgen
data_Rb6HgSe4
_symmetry_space_group_name_H-M   'P 1'
_cell_length_a   10.78268786
_cell_length_b   10.78268951
_cell_length_c   8.30177238
_cell_angle_alpha   89.99958150
_cell_angle_beta   90.00042138
_cell_angle_gamma   119.99975038
_symmetry_Int_Tables_number   1
_chemical_formula_structural   Rb6HgSe4
_chemical_formula_sum   'Rb12 Hg2 Se8'
_cell_volume   835.90453032
_cell_formula_units_Z   2
loop_
 _symmetry_equiv_pos_site_id
 _symmetry_equiv_pos_as_xyz
  1  'x, y, z'
loop_
 _atom_site_type_symbol
 _atom_site_label
 _atom_site_symmetry_multiplicity
 _atom_site_fract_x
 _atom_site_fract_y
 _atom_site_fract_z
 _atom_site_occupancy
  Rb  Rb0  1  0.14905482  0.29811412  0.20496684  1
  Rb  Rb1  1  0.14905627  0.85094363  0.20496624  1
  Rb  Rb2  1  0.70188605  0.85094530  0.20496681  1
  Rb  Rb3  1  0.85094450  0.70188884  0.70496499  1
  Rb  Rb4  1  0.85094277  0.14905726  0.70496416  1
  Rb  Rb5  1  0.29811123  0.14905553  0.70496479  1
  Rb  Rb6  1  0.52679201  0.05358626  0.37875768  1
  Rb  Rb7  1  0.52679244  0.47320762  0.37875692  1
  Rb  Rb8  1  0.94641410  0.47320831  0.37875762  1
  Rb  Rb9  1  0.47320660  0.94641530  0.87875841  1
  Rb  Rb10  1  0.47320615  0.52679367  0.87875830  1
  Rb  Rb11  1  0.05358455  0.52679330  0.87875818  1
  Hg  Hg12  1  0.33332924  0.66667066  0.50023791  1
  Hg  Hg13  1  0.66666866  0.33333140  0.00024404  1
  Se  Se14  1  0.33335029  0.66664909  0.16633480  1
  Se  Se15  1  0.66666331  0.33333684  0.66628071  1
  Se  Se16  1  0.80683823  0.61367173  0.10073385  1
  Se  Se17  1  0.80683600  0.19316429  0.10073429  1
  Se  Se18  1  0.38632828  0.19316196  0.10073417  1
  Se  Se19  1  0.19316727  0.38633737  0.60073168  1
  Se  Se20  1  0.19316469  0.80683468  0.60073167  1
  Se  Se21  1  0.61366254  0.80683284  0.60073195  1
