# generated using pymatgen
data_LaLuS3
_symmetry_space_group_name_H-M   'P 1'
_cell_length_a   6.70515075
_cell_length_b   7.33021724
_cell_length_c   9.86327545
_cell_angle_alpha   90.00000000
_cell_angle_beta   90.00000000
_cell_angle_gamma   90.00000000
_symmetry_Int_Tables_number   1
_chemical_formula_structural   LaLuS3
_chemical_formula_sum   'La4 Lu4 S12'
_cell_volume   484.78207568
_cell_formula_units_Z   4
loop_
 _symmetry_equiv_pos_site_id
 _symmetry_equiv_pos_as_xyz
  1  'x, y, z'
loop_
 _atom_site_type_symbol
 _atom_site_label
 _atom_site_symmetry_multiplicity
 _atom_site_fract_x
 _atom_site_fract_y
 _atom_site_fract_z
 _atom_site_occupancy
  La  La0  1  0.53456267  0.40758403  0.75000000  1
  La  La1  1  0.46543733  0.59241597  0.25000000  1
  La  La2  1  0.03456267  0.09241597  0.25000000  1
  La  La3  1  0.96543733  0.90758403  0.75000000  1
  Lu  Lu4  1  0.00000000  0.50000000  0.00000000  1
  Lu  Lu5  1  0.00000000  0.50000000  0.50000000  1
  Lu  Lu6  1  0.50000000  -0.00000000  0.50000000  1
  Lu  Lu7  1  0.50000000  -0.00000000  0.00000000  1
  S  S8  1  0.81977752  0.18803704  0.56526154  1
  S  S9  1  0.18022248  0.81196296  0.06526154  1
  S  S10  1  0.31977752  0.31196296  0.06526154  1
  S  S11  1  0.68022248  0.68803704  0.56526154  1
  S  S12  1  0.81977752  0.18803704  0.93473846  1
  S  S13  1  0.18022248  0.81196296  0.43473846  1
  S  S14  1  0.31977752  0.31196296  0.43473846  1
  S  S15  1  0.68022248  0.68803704  0.93473846  1
  S  S16  1  0.86870483  0.45594737  0.25000000  1
  S  S17  1  0.13129517  0.54405263  0.75000000  1
  S  S18  1  0.36870483  0.04405263  0.75000000  1
  S  S19  1  0.63129517  0.95594737  0.25000000  1
