# generated using pymatgen
data_Sr8MgMn6O20
_symmetry_space_group_name_H-M   'P 1'
_cell_length_a   5.60096397
_cell_length_b   6.71242823
_cell_length_c   13.81882745
_cell_angle_alpha   91.44538112
_cell_angle_beta   91.64142132
_cell_angle_gamma   112.34231171
_symmetry_Int_Tables_number   1
_chemical_formula_structural   Sr8MgMn6O20
_chemical_formula_sum   'Sr8 Mg1 Mn6 O20'
_cell_volume   479.96807276
_cell_formula_units_Z   1
loop_
 _symmetry_equiv_pos_site_id
 _symmetry_equiv_pos_as_xyz
  1  'x, y, z'
loop_
 _atom_site_type_symbol
 _atom_site_label
 _atom_site_symmetry_multiplicity
 _atom_site_fract_x
 _atom_site_fract_y
 _atom_site_fract_z
 _atom_site_occupancy
  Sr  Sr0  1  0.21752600  0.46833400  0.15054000  1
  Sr  Sr1  1  0.68001000  0.45458200  0.95471700  1
  Sr  Sr2  1  0.74581700  0.48784700  0.38214800  1
  Sr  Sr3  1  0.27363500  0.53619600  0.57580400  1
  Sr  Sr4  1  0.03563000  0.96162700  0.61428600  1
  Sr  Sr5  1  0.01615900  0.06232400  0.35349200  1
  Sr  Sr6  1  0.48352200  0.03880000  0.15752500  1
  Sr  Sr7  1  0.61466000  0.91946700  0.79051400  1
  Mg  Mg8  1  0.26357000  0.82097100  0.94059000  1
  Mn  Mn9  1  0.68919200  0.29319100  0.65216000  1
  Mn  Mn10  1  0.36648900  0.75056100  0.34822900  1
  Mn  Mn11  1  0.84688900  0.73471700  0.15713500  1
  Mn  Mn12  1  0.17340700  0.28284400  0.84130300  1
  Mn  Mn13  1  0.53306300  0.02760500  0.49316100  1
  Mn  Mn14  1  0.90610600  0.02163100  0.00954600  1
  O  O15  1  0.48197500  0.25801600  0.75932300  1
  O  O16  1  0.10515400  0.76096600  0.25949700  1
  O  O17  1  0.60682500  0.75913700  0.25183300  1
  O  O18  1  0.96393500  0.24312600  0.71989200  1
  O  O19  1  0.18063600  0.80792100  0.45762700  1
  O  O20  1  0.42524700  0.24810900  0.54024800  1
  O  O21  1  0.17457300  0.29043000  0.98404000  1
  O  O22  1  0.08445700  0.73837800  0.05949100  1
  O  O23  1  0.87050700  0.22523800  0.51895500  1
  O  O24  1  0.62904000  0.79041700  0.45030800  1
  O  O25  1  0.62826000  0.75848300  0.05451100  1
  O  O26  1  0.59776700  0.07502100  0.95656300  1
  O  O27  1  0.83584900  0.58149200  0.64006300  1
  O  O28  1  0.22356700  0.45387300  0.35027400  1
  O  O29  1  0.99720300  0.06471400  0.15554000  1
  O  O30  1  0.02947800  0.95246500  0.86856200  1
  O  O31  1  0.51193200  0.94128400  0.62323800  1
  O  O32  1  0.69693800  0.43115700  0.15196100  1
  O  O33  1  0.30849300  0.59032000  0.85446200  1
  O  O34  1  0.52868200  0.08542100  0.35475600  1
