# generated using pymatgen
data_PrAlGe2O7
_symmetry_space_group_name_H-M   'P 1'
_cell_length_a   6.55364821
_cell_length_b   7.26369594
_cell_length_c   12.79098888
_cell_angle_alpha   62.50825525
_cell_angle_beta   90.00000000
_cell_angle_gamma   90.00000000
_symmetry_Int_Tables_number   1
_chemical_formula_structural   PrAlGe2O7
_chemical_formula_sum   'Pr4 Al4 Ge8 O28'
_cell_volume   540.14006849
_cell_formula_units_Z   4
loop_
 _symmetry_equiv_pos_site_id
 _symmetry_equiv_pos_as_xyz
  1  'x, y, z'
loop_
 _atom_site_type_symbol
 _atom_site_label
 _atom_site_symmetry_multiplicity
 _atom_site_fract_x
 _atom_site_fract_y
 _atom_site_fract_z
 _atom_site_occupancy
  Pr  Pr0  1  0.35257841  0.73603761  0.52539338  1
  Pr  Pr1  1  0.64742159  0.26396239  0.47460662  1
  Pr  Pr2  1  0.85257841  0.26396239  0.97460662  1
  Pr  Pr3  1  0.14742159  0.73603761  0.02539338  1
  Al  Al4  1  0.39649040  0.71385443  0.26964048  1
  Al  Al5  1  0.60350960  0.28614557  0.73035952  1
  Al  Al6  1  0.89649040  0.28614557  0.23035952  1
  Al  Al7  1  0.10350960  0.71385443  0.76964048  1
  Ge  Ge8  1  0.65698312  0.70799389  0.05015375  1
  Ge  Ge9  1  0.34301688  0.29200611  0.94984625  1
  Ge  Ge10  1  0.15698312  0.29200611  0.44984625  1
  Ge  Ge11  1  0.84301688  0.70799389  0.55015375  1
  Ge  Ge12  1  0.90945760  0.80172484  0.28079510  1
  Ge  Ge13  1  0.09054240  0.19827516  0.71920490  1
  Ge  Ge14  1  0.40945760  0.19827516  0.21920490  1
  Ge  Ge15  1  0.59054240  0.80172484  0.78079510  1
  O  O16  1  0.37811168  0.92899828  0.30075813  1
  O  O17  1  0.62188832  0.07100172  0.69924187  1
  O  O18  1  0.87811168  0.07100172  0.19924187  1
  O  O19  1  0.12188832  0.92899828  0.80075813  1
  O  O20  1  0.82289967  0.90617210  0.02445385  1
  O  O21  1  0.17710033  0.09382790  0.97554615  1
  O  O22  1  0.32289967  0.09382790  0.47554615  1
  O  O23  1  0.67710033  0.90617210  0.52445385  1
  O  O24  1  0.61546711  0.27568535  0.27656651  1
  O  O25  1  0.38453289  0.72431465  0.72343349  1
  O  O26  1  0.11546711  0.72431465  0.22343349  1
  O  O27  1  0.88453289  0.27568535  0.77656651  1
  O  O28  1  0.99632036  0.74568046  0.42716676  1
  O  O29  1  0.00367964  0.25431954  0.57283324  1
  O  O30  1  0.49632036  0.25431954  0.07283324  1
  O  O31  1  0.50367964  0.74568046  0.92716676  1
  O  O32  1  0.44926770  0.70150261  0.13643556  1
  O  O33  1  0.55073230  0.29849739  0.86356444  1
  O  O34  1  0.94926770  0.29849739  0.36356444  1
  O  O35  1  0.05073230  0.70150261  0.63643556  1
  O  O36  1  0.83713713  0.50335946  0.08627938  1
  O  O37  1  0.16286287  0.49664054  0.91372062  1
  O  O38  1  0.33713713  0.49664054  0.41372062  1
  O  O39  1  0.66286287  0.50335946  0.58627938  1
  O  O40  1  0.68035461  0.66170416  0.31264801  1
  O  O41  1  0.31964539  0.33829584  0.68735199  1
  O  O42  1  0.18035461  0.33829584  0.18735199  1
  O  O43  1  0.81964539  0.66170416  0.81264801  1
