# generated using pymatgen
data_SrCuF4
_symmetry_space_group_name_H-M   'P 1'
_cell_length_a   5.66447247
_cell_length_b   5.66447231
_cell_length_c   6.63637147
_cell_angle_alpha   115.26787173
_cell_angle_beta   115.26785687
_cell_angle_gamma   89.99210531
_symmetry_Int_Tables_number   1
_chemical_formula_structural   SrCuF4
_chemical_formula_sum   'Sr2 Cu2 F8'
_cell_volume   169.76871354
_cell_formula_units_Z   2
loop_
 _symmetry_equiv_pos_site_id
 _symmetry_equiv_pos_as_xyz
  1  'x, y, z'
loop_
 _atom_site_type_symbol
 _atom_site_label
 _atom_site_symmetry_multiplicity
 _atom_site_fract_x
 _atom_site_fract_y
 _atom_site_fract_z
 _atom_site_occupancy
  Sr  Sr0  1  0.75000061  0.74999939  0.50000000  1
  Sr  Sr1  1  0.24999939  0.25000061  0.50000000  1
  Cu  Cu2  1  0.50000000  0.00000000  0.00000000  1
  Cu  Cu3  1  0.00000000  0.50000000  0.00000000  1
  F  F4  1  0.95432247  0.45432247  0.24828426  1
  F  F5  1  0.70603439  0.20603439  0.75182565  1
  F  F6  1  0.04567753  0.54567753  0.75171574  1
  F  F7  1  0.20601957  0.04577175  0.75177869  1
  F  F8  1  0.29396561  0.79396561  0.24817435  1
  F  F9  1  0.45422825  0.29398043  0.24822131  1
  F  F10  1  0.79398043  0.95422825  0.24822131  1
  F  F11  1  0.54577175  0.70601957  0.75177869  1
