# generated using pymatgen
data_TaTl3Se4
_symmetry_space_group_name_H-M   'P 1'
_cell_length_a   6.89967706
_cell_length_b   6.89967728
_cell_length_c   6.89967819
_cell_angle_alpha   109.47122332
_cell_angle_beta   109.47122396
_cell_angle_gamma   109.47121666
_symmetry_Int_Tables_number   1
_chemical_formula_structural   TaTl3Se4
_chemical_formula_sum   'Ta1 Tl3 Se4'
_cell_volume   252.85088322
_cell_formula_units_Z   1
loop_
 _symmetry_equiv_pos_site_id
 _symmetry_equiv_pos_as_xyz
  1  'x, y, z'
loop_
 _atom_site_type_symbol
 _atom_site_label
 _atom_site_symmetry_multiplicity
 _atom_site_fract_x
 _atom_site_fract_y
 _atom_site_fract_z
 _atom_site_occupancy
  Ta  Ta0  1  -0.00000000  0.00000000  0.00000000  1
  Tl  Tl1  1  -0.00000000  0.50000000  0.50000000  1
  Tl  Tl2  1  0.50000000  0.00000000  0.50000000  1
  Tl  Tl3  1  0.50000000  0.50000000  0.00000000  1
  Se  Se4  1  -0.00000000  0.00000000  0.65159759  1
  Se  Se5  1  -0.00000000  0.65159759  0.00000000  1
  Se  Se6  1  0.65159759  0.00000000  0.00000000  1
  Se  Se7  1  0.34840241  0.34840241  0.34840241  1
