# generated using pymatgen
data_VPO4
_symmetry_space_group_name_H-M   'P 1'
_cell_length_a   5.22171287
_cell_length_b   7.79092099
_cell_length_c   6.33946366
_cell_angle_alpha   90.00027813
_cell_angle_beta   90.00008460
_cell_angle_gamma   89.99993480
_symmetry_Int_Tables_number   1
_chemical_formula_structural   VPO4
_chemical_formula_sum   'V4 P4 O16'
_cell_volume   257.90175887
_cell_formula_units_Z   4
loop_
 _symmetry_equiv_pos_site_id
 _symmetry_equiv_pos_as_xyz
  1  'x, y, z'
loop_
 _atom_site_type_symbol
 _atom_site_label
 _atom_site_symmetry_multiplicity
 _atom_site_fract_x
 _atom_site_fract_y
 _atom_site_fract_z
 _atom_site_occupancy
  V  V0  1  0.49999886  0.50000010  0.49999993  1
  V  V1  1  0.00000012  0.00000012  -0.00000007  1
  V  V2  1  -0.00000003  0.00000006  0.49999992  1
  V  V3  1  0.49999915  0.50000022  -0.00000005  1
  P  P4  1  0.50000084  0.85083703  0.75001096  1
  P  P5  1  -0.00000079  0.35089581  0.75000894  1
  P  P6  1  0.50000056  0.14916306  0.24998925  1
  P  P7  1  0.00000004  0.64910434  0.24999103  1
  O  O8  1  0.74432706  0.96595160  0.74998548  1
  O  O9  1  0.24435188  0.46600462  0.74998450  1
  O  O10  1  0.74432776  0.03404867  0.25001449  1
  O  O11  1  0.24435217  0.53399596  0.25001564  1
  O  O12  1  0.25567282  0.03404885  0.25001450  1
  O  O13  1  0.75564712  0.53399607  0.25001545  1
  O  O14  1  0.25567215  0.96595117  0.74998529  1
  O  O15  1  0.75564667  0.46600389  0.74998428  1
  O  O16  1  0.50000076  0.74434921  0.54985662  1
  O  O17  1  0.00000023  0.24441175  0.54984895  1
  O  O18  1  0.50000035  0.25565112  0.45014315  1
  O  O19  1  0.00000022  0.75558852  0.45015110  1
  O  O20  1  0.50000097  0.74437078  0.95013133  1
  O  O21  1  0.00000010  0.24443591  0.95012492  1
  O  O22  1  0.50000048  0.25562979  0.04986837  1
  O  O23  1  0.00000050  0.75556433  0.04987504  1
