# generated using pymatgen
data_Na2LuC2O6F
_symmetry_space_group_name_H-M   'P 1'
_cell_length_a   9.10417110
_cell_length_b   9.10417110
_cell_length_c   11.09230560
_cell_angle_alpha   87.71155891
_cell_angle_beta   87.71155891
_cell_angle_gamma   38.50631889
_symmetry_Int_Tables_number   1
_chemical_formula_structural   Na2LuC2O6F
_chemical_formula_sum   'Na8 Lu4 C8 O24 F4'
_cell_volume   571.90463046
_cell_formula_units_Z   4
loop_
 _symmetry_equiv_pos_site_id
 _symmetry_equiv_pos_as_xyz
  1  'x, y, z'
loop_
 _atom_site_type_symbol
 _atom_site_label
 _atom_site_symmetry_multiplicity
 _atom_site_fract_x
 _atom_site_fract_y
 _atom_site_fract_z
 _atom_site_occupancy
  Na  Na0  1  0.47980617  0.29929584  0.87894932  1
  Na  Na1  1  0.70070416  0.52019383  0.62105068  1
  Na  Na2  1  0.52019383  0.70070416  0.12105068  1
  Na  Na3  1  0.29929584  0.47980617  0.37894932  1
  Na  Na4  1  0.84886565  0.66345397  0.86240801  1
  Na  Na5  1  0.33654603  0.15113435  0.63759199  1
  Na  Na6  1  0.15113435  0.33654603  0.13759199  1
  Na  Na7  1  0.66345397  0.84886565  0.36240801  1
  Lu  Lu8  1  0.09683793  0.78337927  0.62740051  1
  Lu  Lu9  1  0.21662073  0.90316207  0.87259949  1
  Lu  Lu10  1  0.90316207  0.21662073  0.37259949  1
  Lu  Lu11  1  0.78337927  0.09683793  0.12740051  1
  C  C12  1  0.64457712  0.23540540  0.61535461  1
  C  C13  1  0.76459460  0.35542288  0.88464539  1
  C  C14  1  0.35542288  0.76459460  0.38464539  1
  C  C15  1  0.23540540  0.64457712  0.11535461  1
  C  C16  1  0.87611232  0.70922290  0.58160255  1
  C  C17  1  0.29077710  0.12388768  0.91839745  1
  C  C18  1  0.12388768  0.29077710  0.41839745  1
  C  C19  1  0.70922290  0.87611232  0.08160255  1
  O  O20  1  0.43220138  0.42110225  0.58319344  1
  O  O21  1  0.57889775  0.56779862  0.91680656  1
  O  O22  1  0.56779862  0.57889775  0.41680656  1
  O  O23  1  0.42110225  0.43220138  0.08319344  1
  O  O24  1  0.70351287  0.09638984  0.70000891  1
  O  O25  1  0.90361016  0.29648713  0.79999109  1
  O  O26  1  0.29648713  0.90361016  0.29999109  1
  O  O27  1  0.09638984  0.70351287  0.20000891  1
  O  O28  1  0.18252992  0.82629577  0.43719210  1
  O  O29  1  0.17370423  0.81747008  0.06280790  1
  O  O30  1  0.81747008  0.17370423  0.56280790  1
  O  O31  1  0.82629577  0.18252992  0.93719210  1
  O  O32  1  0.00687045  0.60881214  0.67698354  1
  O  O33  1  0.39118786  0.99312955  0.82301646  1
  O  O34  1  0.99312955  0.39118786  0.32301646  1
  O  O35  1  0.60881214  0.00687045  0.17698354  1
  O  O36  1  0.92850453  0.76681177  0.49585727  1
  O  O37  1  0.23318823  0.07149547  0.00414273  1
  O  O38  1  0.07149547  0.23318823  0.50414273  1
  O  O39  1  0.76681177  0.92850453  0.99585727  1
  O  O40  1  0.70311602  0.75810737  0.57174772  1
  O  O41  1  0.24189263  0.29688398  0.92825228  1
  O  O42  1  0.29688398  0.24189263  0.42825228  1
  O  O43  1  0.75810737  0.70311602  0.07174772  1
  F  F44  1  0.18461057  0.69903842  0.81829839  1
  F  F45  1  0.30096158  0.81538943  0.68170161  1
  F  F46  1  0.81538943  0.30096158  0.18170161  1
  F  F47  1  0.69903842  0.18461057  0.31829839  1
