# generated using pymatgen
data_CaLa4Ga2(FeO6)2
_symmetry_space_group_name_H-M   'P 1'
_cell_length_a   6.50821387
_cell_length_b   6.33821605
_cell_length_c   7.32056554
_cell_angle_alpha   86.29312669
_cell_angle_beta   90.87027890
_cell_angle_gamma   90.19741124
_symmetry_Int_Tables_number   1
_chemical_formula_structural   CaLa4Ga2(FeO6)2
_chemical_formula_sum   'Ca1 La4 Ga2 Fe2 O12'
_cell_volume   301.30928294
_cell_formula_units_Z   1
loop_
 _symmetry_equiv_pos_site_id
 _symmetry_equiv_pos_as_xyz
  1  'x, y, z'
loop_
 _atom_site_type_symbol
 _atom_site_label
 _atom_site_symmetry_multiplicity
 _atom_site_fract_x
 _atom_site_fract_y
 _atom_site_fract_z
 _atom_site_occupancy
  Ca  Ca0  1  0.20706700  0.85575600  0.70310700  1
  La  La1  1  0.38196600  0.36778200  0.72670700  1
  La  La2  1  0.86442500  0.15822600  0.78093000  1
  La  La3  1  0.56743500  0.44771500  0.23513400  1
  La  La4  1  0.08495700  0.04663200  0.25025800  1
  Ga  Ga5  1  0.02923100  0.61133100  0.01914400  1
  Ga  Ga6  1  0.58055300  0.88869200  0.47884300  1
  Fe  Fe7  1  0.96560200  0.51297600  0.48348000  1
  Fe  Fe8  1  0.50061500  0.96224400  0.01716400  1
  O  O9  1  0.53210300  0.97832900  0.71572600  1
  O  O10  1  0.03257600  0.53158600  0.77471200  1
  O  O11  1  0.47579600  0.06547600  0.28077300  1
  O  O12  1  0.96206200  0.41762100  0.21235100  1
  O  O13  1  0.68714900  0.35769700  0.53438700  1
  O  O14  1  0.19769800  0.11316400  0.93975200  1
  O  O15  1  0.32190900  0.67187600  0.02134900  1
  O  O16  1  0.86350900  0.82771300  0.46870200  1
  O  O17  1  0.36522200  0.67814200  0.47649500  1
  O  O18  1  0.84943200  0.84204200  0.04041800  1
  O  O19  1  0.62374200  0.28697200  0.96682400  1
  O  O20  1  0.13314000  0.19945600  0.54041200  1
