# generated using pymatgen
data_Sr3Ga2Cl2O5
_symmetry_space_group_name_H-M   'P 1'
_cell_length_a   9.58411601
_cell_length_b   9.57719784
_cell_length_c   9.59966293
_cell_angle_alpha   90.00000000
_cell_angle_beta   90.00000000
_cell_angle_gamma   90.00000000
_symmetry_Int_Tables_number   1
_chemical_formula_structural   Sr3Ga2Cl2O5
_chemical_formula_sum   'Sr12 Ga8 Cl8 O20'
_cell_volume   881.14322212
_cell_formula_units_Z   4
loop_
 _symmetry_equiv_pos_site_id
 _symmetry_equiv_pos_as_xyz
  1  'x, y, z'
loop_
 _atom_site_type_symbol
 _atom_site_label
 _atom_site_symmetry_multiplicity
 _atom_site_fract_x
 _atom_site_fract_y
 _atom_site_fract_z
 _atom_site_occupancy
  Sr  Sr0  1  0.29175993  0.16762452  0.99416222  1
  Sr  Sr1  1  0.79175993  0.33237548  0.00583778  1
  Sr  Sr2  1  0.70824007  0.66762452  0.50583778  1
  Sr  Sr3  1  0.20824007  0.83237548  0.49416222  1
  Sr  Sr4  1  0.47526148  0.75084012  0.16646764  1
  Sr  Sr5  1  0.97526148  0.74915988  0.83353236  1
  Sr  Sr6  1  0.66570692  0.02395411  0.73709650  1
  Sr  Sr7  1  0.16570692  0.47604589  0.26290350  1
  Sr  Sr8  1  0.52473852  0.25084012  0.33353236  1
  Sr  Sr9  1  0.02473852  0.24915988  0.66646764  1
  Sr  Sr10  1  0.33429308  0.52395411  0.76290350  1
  Sr  Sr11  1  0.83429308  0.97604589  0.23709650  1
  Ga  Ga12  1  0.33998877  0.85300177  0.85423985  1
  Ga  Ga13  1  0.83998877  0.64699823  0.14576015  1
  Ga  Ga14  1  0.64284151  0.65499666  0.84525447  1
  Ga  Ga15  1  0.14284151  0.84500334  0.15474553  1
  Ga  Ga16  1  0.66001123  0.35300177  0.64576015  1
  Ga  Ga17  1  0.16001123  0.14699823  0.35423985  1
  Ga  Ga18  1  0.35715849  0.15499666  0.65474553  1
  Ga  Ga19  1  0.85715849  0.34500334  0.34525447  1
  Cl  Cl20  1  0.09172289  0.46369661  0.95145015  1
  Cl  Cl21  1  0.59172289  0.03630339  0.04854985  1
  Cl  Cl22  1  0.01714464  0.57710261  0.56496404  1
  Cl  Cl23  1  0.51714464  0.92289739  0.43503596  1
  Cl  Cl24  1  0.48285536  0.42289739  0.06496404  1
  Cl  Cl25  1  0.98285536  0.07710261  0.93503596  1
  Cl  Cl26  1  0.40827711  0.53630339  0.45145015  1
  Cl  Cl27  1  0.90827711  0.96369661  0.54854985  1
  O  O28  1  0.72804607  0.40907897  0.47256464  1
  O  O29  1  0.22804607  0.09092103  0.52743536  1
  O  O30  1  0.71850922  0.73931438  0.25801071  1
  O  O31  1  0.21850922  0.76068562  0.74198929  1
  O  O32  1  0.78149078  0.26068562  0.75801071  1
  O  O33  1  0.28149078  0.23931438  0.24198929  1
  O  O34  1  0.77195393  0.59092103  0.97256464  1
  O  O35  1  0.27195393  0.90907897  0.02743536  1
  O  O36  1  0.23728708  0.71869253  0.26051021  1
  O  O37  1  0.73728708  0.78130747  0.73948979  1
  O  O38  1  0.59002165  0.51565470  0.72030955  1
  O  O39  1  0.09002165  0.98434530  0.27969045  1
  O  O40  1  0.40997835  0.01565470  0.77969045  1
  O  O41  1  0.90997835  0.48434530  0.22030955  1
  O  O42  1  0.52856541  0.21825725  0.59146855  1
  O  O43  1  0.02856541  0.28174275  0.40853145  1
  O  O44  1  0.47143459  0.71825725  0.90853145  1
  O  O45  1  0.97143459  0.78174275  0.09146855  1
  O  O46  1  0.26271292  0.28130747  0.76051021  1
  O  O47  1  0.76271292  0.21869253  0.23948979  1
