# generated using pymatgen
data_ZnNiF6
_symmetry_space_group_name_H-M   'P 1'
_cell_length_a   5.18630778
_cell_length_b   5.18630798
_cell_length_c   5.18630758
_cell_angle_alpha   55.75001625
_cell_angle_beta   55.75001930
_cell_angle_gamma   55.75002274
_symmetry_Int_Tables_number   1
_chemical_formula_structural   ZnNiF6
_chemical_formula_sum   'Zn1 Ni1 F6'
_cell_volume   88.91849747
_cell_formula_units_Z   1
loop_
 _symmetry_equiv_pos_site_id
 _symmetry_equiv_pos_as_xyz
  1  'x, y, z'
loop_
 _atom_site_type_symbol
 _atom_site_label
 _atom_site_symmetry_multiplicity
 _atom_site_fract_x
 _atom_site_fract_y
 _atom_site_fract_z
 _atom_site_occupancy
  Zn  Zn0  1  0.50000000  0.50000000  0.50000000  1
  Ni  Ni1  1  0.00000000  -0.00000000  0.00000000  1
  F  F2  1  0.90259863  0.23031184  0.63004710  1
  F  F3  1  0.23031184  0.63004710  0.90259863  1
  F  F4  1  0.36995290  0.09740137  0.76968816  1
  F  F5  1  0.76968816  0.36995290  0.09740137  1
  F  F6  1  0.09740137  0.76968816  0.36995290  1
  F  F7  1  0.63004710  0.90259863  0.23031184  1
