# generated using pymatgen
data_BaMg14CO16
_symmetry_space_group_name_H-M   'P 1'
_cell_length_a   8.75418122
_cell_length_b   8.63955881
_cell_length_c   4.49357477
_cell_angle_alpha   90.00000000
_cell_angle_beta   90.00000000
_cell_angle_gamma   90.00000000
_symmetry_Int_Tables_number   1
_chemical_formula_structural   BaMg14CO16
_chemical_formula_sum   'Ba1 Mg14 C1 O16'
_cell_volume   339.85923099
_cell_formula_units_Z   1
loop_
 _symmetry_equiv_pos_site_id
 _symmetry_equiv_pos_as_xyz
  1  'x, y, z'
loop_
 _atom_site_type_symbol
 _atom_site_label
 _atom_site_symmetry_multiplicity
 _atom_site_fract_x
 _atom_site_fract_y
 _atom_site_fract_z
 _atom_site_occupancy
  Ba  Ba0  1  -0.00000000  0.00000000  0.00000000  1
  Mg  Mg1  1  0.50000000  0.00000000  0.00000000  1
  Mg  Mg2  1  0.50000000  0.50000000  0.00000000  1
  Mg  Mg3  1  -0.00000000  0.26634908  0.50000000  1
  Mg  Mg4  1  -0.00000000  0.73365092  0.50000000  1
  Mg  Mg5  1  0.50000000  0.25269293  0.50000000  1
  Mg  Mg6  1  0.50000000  0.74730707  0.50000000  1
  Mg  Mg7  1  0.26368952  0.00000000  0.50000000  1
  Mg  Mg8  1  0.24777327  0.50000000  0.50000000  1
  Mg  Mg9  1  0.73631048  0.00000000  0.50000000  1
  Mg  Mg10  1  0.75222673  0.50000000  0.50000000  1
  Mg  Mg11  1  0.25705291  0.26010464  0.00000000  1
  Mg  Mg12  1  0.25705291  0.73989536  0.00000000  1
  Mg  Mg13  1  0.74294709  0.26010464  -0.00000000  1
  Mg  Mg14  1  0.74294709  0.73989536  0.00000000  1
  C  C15  1  -0.00000000  0.50000000  0.00000000  1
  O  O16  1  0.28017128  0.00000000  0.00000000  1
  O  O17  1  0.25949975  0.50000000  0.00000000  1
  O  O18  1  0.71982872  0.00000000  -0.00000000  1
  O  O19  1  0.74050025  0.50000000  -0.00000000  1
  O  O20  1  0.24833219  0.25023611  0.50000000  1
  O  O21  1  0.24833219  0.74976389  0.50000000  1
  O  O22  1  0.75166781  0.25023611  0.50000000  1
  O  O23  1  0.75166781  0.74976389  0.50000000  1
  O  O24  1  -0.00000000  0.00000000  0.50000000  1
  O  O25  1  -0.00000000  0.50000000  0.50000000  1
  O  O26  1  0.50000000  0.00000000  0.50000000  1
  O  O27  1  0.50000000  0.50000000  0.50000000  1
  O  O28  1  -0.00000000  0.28348652  -0.00000000  1
  O  O29  1  -0.00000000  0.71651348  0.00000000  1
  O  O30  1  0.50000000  0.25680661  0.00000000  1
  O  O31  1  0.50000000  0.74319339  0.00000000  1
