# generated using pymatgen
data_MgTe
_symmetry_space_group_name_H-M   'P 1'
_cell_length_a   4.57073663
_cell_length_b   4.57073600
_cell_length_c   4.57073689
_cell_angle_alpha   60.00000090
_cell_angle_beta   60.00000541
_cell_angle_gamma   59.99999914
_symmetry_Int_Tables_number   1
_chemical_formula_structural   MgTe
_chemical_formula_sum   'Mg1 Te1'
_cell_volume   67.52173262
_cell_formula_units_Z   1
loop_
 _symmetry_equiv_pos_site_id
 _symmetry_equiv_pos_as_xyz
  1  'x, y, z'
loop_
 _atom_site_type_symbol
 _atom_site_label
 _atom_site_symmetry_multiplicity
 _atom_site_fract_x
 _atom_site_fract_y
 _atom_site_fract_z
 _atom_site_occupancy
  Mg  Mg0  1  0.00000000  0.00000000  -0.00000000  1
  Te  Te1  1  0.25000000  0.25000000  0.25000000  1
