# generated using pymatgen
data_MgAs4(PO4)4
_symmetry_space_group_name_H-M   'P 1'
_cell_length_a   5.08061963
_cell_length_b   8.40415866
_cell_length_c   9.00342295
_cell_angle_alpha   96.56790114
_cell_angle_beta   90.00000000
_cell_angle_gamma   90.00000000
_symmetry_Int_Tables_number   1
_chemical_formula_structural   MgAs4(PO4)4
_chemical_formula_sum   'Mg1 As4 P4 O16'
_cell_volume   381.90813440
_cell_formula_units_Z   1
loop_
 _symmetry_equiv_pos_site_id
 _symmetry_equiv_pos_as_xyz
  1  'x, y, z'
loop_
 _atom_site_type_symbol
 _atom_site_label
 _atom_site_symmetry_multiplicity
 _atom_site_fract_x
 _atom_site_fract_y
 _atom_site_fract_z
 _atom_site_occupancy
  Mg  Mg0  1  0.25000000  0.89078894  0.06127792  1
  As  As1  1  0.25000000  0.65688460  0.68738763  1
  As  As2  1  0.75000000  0.32454772  0.26077889  1
  As  As3  1  0.75000000  0.17842384  0.78030712  1
  As  As4  1  0.25000000  0.67467764  0.25688924  1
  P  P5  1  0.25000000  0.30489082  0.61150195  1
  P  P6  1  0.75000000  0.68333490  0.41482845  1
  P  P7  1  0.75000000  0.83632336  0.86275396  1
  P  P8  1  0.25000000  0.20192065  0.09943649  1
  O  O9  1  0.25000000  0.36381614  0.46213495  1
  O  O10  1  0.75000000  0.61943656  0.56550161  1
  O  O11  1  0.75000000  0.91484779  0.02183389  1
  O  O12  1  0.25000000  0.10543881  0.94309885  1
  O  O13  1  0.25000000  0.45269411  0.74384365  1
  O  O14  1  0.75000000  0.54385759  0.27620886  1
  O  O15  1  0.75000000  0.95550785  0.73897188  1
  O  O16  1  0.25000000  0.08652065  0.21693018  1
  O  O17  1  0.00364215  0.31941287  0.11262865  1
  O  O18  1  0.49298372  0.73103375  0.84350023  1
  O  O19  1  0.99370982  0.78760485  0.38594281  1
  O  O20  1  0.49619235  0.19832606  0.63822856  1
  O  O21  1  0.00701628  0.73103375  0.84350023  1
  O  O22  1  0.49635785  0.31941287  0.11262865  1
  O  O23  1  0.00380765  0.19832606  0.63822856  1
  O  O24  1  0.50629018  0.78760485  0.38594281  1
