# generated using pymatgen
data_TlFeO2
_symmetry_space_group_name_H-M   'P 1'
_cell_length_a   6.10543743
_cell_length_b   6.10543742
_cell_length_c   6.10543743
_cell_angle_alpha   59.74384641
_cell_angle_beta   59.74384646
_cell_angle_gamma   59.74384647
_symmetry_Int_Tables_number   1
_chemical_formula_structural   TlFeO2
_chemical_formula_sum   'Tl2 Fe2 O4'
_cell_volume   159.99327188
_cell_formula_units_Z   2
loop_
 _symmetry_equiv_pos_site_id
 _symmetry_equiv_pos_as_xyz
  1  'x, y, z'
loop_
 _atom_site_type_symbol
 _atom_site_label
 _atom_site_symmetry_multiplicity
 _atom_site_fract_x
 _atom_site_fract_y
 _atom_site_fract_z
 _atom_site_occupancy
  O  O0  1  0.49999885  0.00000090  0.50000077  1
  O  O1  1  0.00000068  0.50000043  0.50000004  1
  O  O2  1  0.50000069  0.50000042  0.99999915  1
  O  O3  1  0.49999911  0.50000087  0.50000051  1
  Fe  Fe4  1  0.62462960  0.62462933  0.62463103  1
  Fe  Fe5  1  0.37536936  0.37537027  0.37537073  1
  Tl  Tl6  1  0.87830909  0.87831013  0.87831116  1
  Tl  Tl7  1  0.12168987  0.12168947  0.12169061  1
