# generated using pymatgen
data_Cs3V2O2F7
_symmetry_space_group_name_H-M   'P 1'
_cell_length_a   6.32767507
_cell_length_b   6.32767507
_cell_length_c   14.76517383
_cell_angle_alpha   89.70022805
_cell_angle_beta   89.70022805
_cell_angle_gamma   120.17847169
_symmetry_Int_Tables_number   1
_chemical_formula_structural   Cs3V2O2F7
_chemical_formula_sum   'Cs6 V4 O4 F14'
_cell_volume   511.03398410
_cell_formula_units_Z   2
loop_
 _symmetry_equiv_pos_site_id
 _symmetry_equiv_pos_as_xyz
  1  'x, y, z'
loop_
 _atom_site_type_symbol
 _atom_site_label
 _atom_site_symmetry_multiplicity
 _atom_site_fract_x
 _atom_site_fract_y
 _atom_site_fract_z
 _atom_site_occupancy
  Cs  Cs0  1  0.66909926  0.33090074  0.25000000  1
  Cs  Cs1  1  0.33090074  0.66909926  0.75000000  1
  Cs  Cs2  1  0.66624854  0.33424149  0.93294747  1
  Cs  Cs3  1  0.33375146  0.66575851  0.06705253  1
  Cs  Cs4  1  0.33424149  0.66624854  0.43294747  1
  Cs  Cs5  1  0.66575851  0.33375146  0.56705253  1
  V  V6  1  0.98291047  0.97199661  0.14914651  1
  V  V7  1  0.01708953  0.02800339  0.85085349  1
  V  V8  1  0.97199661  0.98291047  0.64914651  1
  V  V9  1  0.02800339  0.01708953  0.35085349  1
  O  O10  1  0.28298772  0.13894234  0.40656884  1
  O  O11  1  0.71701228  0.86105766  0.59343116  1
  O  O12  1  0.13894234  0.28298772  0.90656884  1
  O  O13  1  0.86105766  0.71701228  0.09343116  1
  F  F14  1  0.26591042  0.12816706  0.75359460  1
  F  F15  1  0.87183294  0.73408958  0.74640540  1
  F  F16  1  0.86907140  0.13092860  0.75000000  1
  F  F17  1  0.73408958  0.87183294  0.24640540  1
  F  F18  1  0.12816706  0.26591042  0.25359460  1
  F  F19  1  0.13092860  0.86907140  0.25000000  1
  F  F20  1  0.83782072  0.70355259  0.40317215  1
  F  F21  1  0.84270542  0.13818408  0.40643517  1
  F  F22  1  0.16217928  0.29644741  0.59682785  1
  F  F23  1  0.15729458  0.86181592  0.59356483  1
  F  F24  1  0.70355259  0.83782072  0.90317215  1
  F  F25  1  0.13818408  0.84270542  0.90643517  1
  F  F26  1  0.29644741  0.16217928  0.09682785  1
  F  F27  1  0.86181592  0.15729458  0.09356483  1
