# generated using pymatgen
data_Na5ErH6WO10
_symmetry_space_group_name_H-M   'P 1'
_cell_length_a   11.14079593
_cell_length_b   11.14079593
_cell_length_c   11.55041330
_cell_angle_alpha   113.94073177
_cell_angle_beta   113.94073177
_cell_angle_gamma   95.27711466
_symmetry_Int_Tables_number   1
_chemical_formula_structural   Na5ErH6WO10
_chemical_formula_sum   'Na20 Er4 H24 W4 O40'
_cell_volume   1139.62059303
_cell_formula_units_Z   4
loop_
 _symmetry_equiv_pos_site_id
 _symmetry_equiv_pos_as_xyz
  1  'x, y, z'
loop_
 _atom_site_type_symbol
 _atom_site_label
 _atom_site_symmetry_multiplicity
 _atom_site_fract_x
 _atom_site_fract_y
 _atom_site_fract_z
 _atom_site_occupancy
  Na  Na0  1  0.68958052  0.80826464  0.50171071  1
  Na  Na1  1  0.19173536  0.31041948  0.99828929  1
  Na  Na2  1  0.31041948  0.19173536  0.49828929  1
  Na  Na3  1  0.80826464  0.68958052  0.00171071  1
  Na  Na4  1  0.90259468  0.59872719  0.50603947  1
  Na  Na5  1  0.40127281  0.09740532  0.99396053  1
  Na  Na6  1  0.09740532  0.40127281  0.49396053  1
  Na  Na7  1  0.59872719  0.90259468  0.00603947  1
  Na  Na8  1  0.67143848  0.58105909  0.62011576  1
  Na  Na9  1  0.41894091  0.32856152  0.87988424  1
  Na  Na10  1  0.32856152  0.41894091  0.37988424  1
  Na  Na11  1  0.58105909  0.67143848  0.12011576  1
  Na  Na12  1  0.07457483  0.18340619  0.62364232  1
  Na  Na13  1  0.81659381  0.92542517  0.87635768  1
  Na  Na14  1  0.92542517  0.81659381  0.37635768  1
  Na  Na15  1  0.18340619  0.07457483  0.12364232  1
  Na  Na16  1  0.74739486  0.25260514  0.25000000  1
  Na  Na17  1  0.25260514  0.74739486  0.75000000  1
  Na  Na18  1  0.80892235  0.19107765  0.75000000  1
  Na  Na19  1  0.19107765  0.80892235  0.25000000  1
  Er  Er20  1  0.54235522  0.45764478  0.25000000  1
  Er  Er21  1  0.45764478  0.54235522  0.75000000  1
  Er  Er22  1  0.95714696  0.04285304  0.25000000  1
  Er  Er23  1  0.04285304  0.95714696  0.75000000  1
  H  H24  1  0.76736034  0.57353734  0.25877589  1
  H  H25  1  0.42646266  0.23263966  0.24122411  1
  H  H26  1  0.23263966  0.42646266  0.74122411  1
  H  H27  1  0.57353734  0.76736034  0.75877589  1
  H  H28  1  0.44929459  0.66295903  0.42734175  1
  H  H29  1  0.33704097  0.55070541  0.07265825  1
  H  H30  1  0.55070541  0.33704097  0.57265825  1
  H  H31  1  0.66295903  0.44929459  0.92734175  1
  H  H32  1  0.69554002  0.35967075  0.45889956  1
  H  H33  1  0.64032925  0.30445998  0.04110044  1
  H  H34  1  0.30445998  0.64032925  0.54110044  1
  H  H35  1  0.35967075  0.69554002  0.95889956  1
  H  H36  1  0.09795181  0.26542104  0.25278873  1
  H  H37  1  0.73457896  0.90204819  0.24721127  1
  H  H38  1  0.90204819  0.73457896  0.74721127  1
  H  H39  1  0.26542104  0.09795181  0.75278873  1
  H  H40  1  0.85465405  0.20685951  0.45242826  1
  H  H41  1  0.79314049  0.14534595  0.04757174  1
  H  H42  1  0.14534595  0.79314049  0.54757174  1
  H  H43  1  0.20685951  0.85465405  0.95242826  1
  H  H44  1  0.17809549  0.98004122  0.47640665  1
  H  H45  1  0.01995878  0.82190451  0.02359335  1
  H  H46  1  0.82190451  0.01995878  0.52359335  1
  H  H47  1  0.98004122  0.17809549  0.97640665  1
  W  W48  1  0.03361855  0.53798531  0.83298218  1
  W  W49  1  0.46201469  0.96638145  0.66701782  1
  W  W50  1  0.96638145  0.46201469  0.16701782  1
  W  W51  1  0.53798531  0.03361855  0.33298218  1
  O  O52  1  0.72304610  0.62766169  0.30939121  1
  O  O53  1  0.37233831  0.27695390  0.19060879  1
  O  O54  1  0.27695390  0.37233831  0.69060879  1
  O  O55  1  0.62766169  0.72304610  0.80939121  1
  O  O56  1  0.51268267  0.60845593  0.42600855  1
  O  O57  1  0.39154407  0.48731733  0.07399145  1
  O  O58  1  0.48731733  0.39154407  0.57399145  1
  O  O59  1  0.60845593  0.51268267  0.92600855  1
  O  O60  1  0.70091755  0.42364766  0.42225288  1
  O  O61  1  0.57635234  0.29908245  0.07774712  1
  O  O62  1  0.29908245  0.57635234  0.57774712  1
  O  O63  1  0.42364766  0.70091755  0.92225288  1
  O  O64  1  0.13125408  0.21751556  0.30828735  1
  O  O65  1  0.78248444  0.86874592  0.19171265  1
  O  O66  1  0.86874592  0.78248444  0.69171265  1
  O  O67  1  0.21751556  0.13125408  0.80828735  1
  O  O68  1  0.92211193  0.20249963  0.41883711  1
  O  O69  1  0.79750037  0.07788807  0.08116289  1
  O  O70  1  0.07788807  0.79750037  0.58116289  1
  O  O71  1  0.20249963  0.92211193  0.91883711  1
  O  O72  1  0.10665070  0.00739733  0.41944868  1
  O  O73  1  0.99260267  0.89334930  0.08055132  1
  O  O74  1  0.89334930  0.99260267  0.58055132  1
  O  O75  1  0.00739733  0.10665070  0.91944868  1
  O  O76  1  0.02228617  0.36435040  0.81034746  1
  O  O77  1  0.63564960  0.97771383  0.68965254  1
  O  O78  1  0.97771383  0.63564960  0.18965254  1
  O  O79  1  0.36435040  0.02228617  0.31034746  1
  O  O80  1  0.06748708  0.55215656  0.69648828  1
  O  O81  1  0.44784344  0.93251292  0.80351172  1
  O  O82  1  0.93251292  0.44784344  0.30351172  1
  O  O83  1  0.55215656  0.06748708  0.19648828  1
  O  O84  1  0.87495785  0.57901700  0.81453191  1
  O  O85  1  0.42098300  0.12504215  0.68546809  1
  O  O86  1  0.12504215  0.42098300  0.18546809  1
  O  O87  1  0.57901700  0.87495785  0.31453191  1
  O  O88  1  0.17409234  0.66679972  0.01125996  1
  O  O89  1  0.33320028  0.82590766  0.48874004  1
  O  O90  1  0.82590766  0.33320028  0.98874004  1
  O  O91  1  0.66679972  0.17409234  0.51125996  1
