# generated using pymatgen
data_MgNb2O6
_symmetry_space_group_name_H-M   'P 1'
_cell_length_a   5.06265251
_cell_length_b   5.74580683
_cell_length_c   14.29456117
_cell_angle_alpha   90.00000000
_cell_angle_beta   90.00000000
_cell_angle_gamma   90.00000000
_symmetry_Int_Tables_number   1
_chemical_formula_structural   MgNb2O6
_chemical_formula_sum   'Mg4 Nb8 O24'
_cell_volume   415.81482394
_cell_formula_units_Z   4
loop_
 _symmetry_equiv_pos_site_id
 _symmetry_equiv_pos_as_xyz
  1  'x, y, z'
loop_
 _atom_site_type_symbol
 _atom_site_label
 _atom_site_symmetry_multiplicity
 _atom_site_fract_x
 _atom_site_fract_y
 _atom_site_fract_z
 _atom_site_occupancy
  Mg  Mg0  1  0.75000000  0.83564898  -0.00000000  1
  Mg  Mg1  1  0.25000000  0.66435102  0.50000000  1
  Mg  Mg2  1  0.25000000  0.16435102  -0.00000000  1
  Mg  Mg3  1  0.75000000  0.33564898  0.50000000  1
  Nb  Nb4  1  0.75163364  0.81520547  0.65927184  1
  Nb  Nb5  1  0.25163364  0.68479453  0.84072816  1
  Nb  Nb6  1  0.74836636  0.81520547  0.34072816  1
  Nb  Nb7  1  0.24836636  0.68479453  0.15927184  1
  Nb  Nb8  1  0.75163364  0.31520547  0.84072816  1
  Nb  Nb9  1  0.25163364  0.18479453  0.65927184  1
  Nb  Nb10  1  0.74836636  0.31520547  0.15927184  1
  Nb  Nb11  1  0.24836636  0.18479453  0.34072816  1
  O  O12  1  0.42045537  0.37679776  0.24422554  1
  O  O13  1  0.92045537  0.12320224  0.25577446  1
  O  O14  1  0.07954463  0.37679776  0.75577446  1
  O  O15  1  0.57954463  0.12320224  0.74422554  1
  O  O16  1  0.57954463  0.62320224  0.75577446  1
  O  O17  1  0.07954463  0.87679776  0.74422554  1
  O  O18  1  0.92045537  0.62320224  0.24422554  1
  O  O19  1  0.42045537  0.87679776  0.25577446  1
  O  O20  1  0.08790836  0.38669192  0.42144650  1
  O  O21  1  0.58790836  0.11330808  0.07855350  1
  O  O22  1  0.41209164  0.38669192  0.57855350  1
  O  O23  1  0.91209164  0.11330808  0.92144650  1
  O  O24  1  0.57338983  0.60608846  0.09495295  1
  O  O25  1  0.07338983  0.89391154  0.40504705  1
  O  O26  1  0.92661017  0.60608846  0.90504705  1
  O  O27  1  0.42661017  0.89391154  0.59495295  1
  O  O28  1  0.42661017  0.39391154  0.90504705  1
  O  O29  1  0.92661017  0.10608846  0.59495295  1
  O  O30  1  0.07338983  0.39391154  0.09495295  1
  O  O31  1  0.57338983  0.10608846  0.40504705  1
  O  O32  1  0.08790836  0.88669192  0.07855350  1
  O  O33  1  0.58790836  0.61330808  0.42144650  1
  O  O34  1  0.41209164  0.88669192  0.92144650  1
  O  O35  1  0.91209164  0.61330808  0.57855350  1
