# generated using pymatgen
data_ZnNiP2WO9
_symmetry_space_group_name_H-M   'P 1'
_cell_length_a   6.46817200
_cell_length_b   7.68592400
_cell_length_c   14.51003800
_cell_angle_alpha   90.00000000
_cell_angle_beta   90.00000000
_cell_angle_gamma   90.00000000
_symmetry_Int_Tables_number   1
_chemical_formula_structural   ZnNiP2WO9
_chemical_formula_sum   'Zn4 Ni4 P8 W4 O36'
_cell_volume   721.35026487
_cell_formula_units_Z   4
loop_
 _symmetry_equiv_pos_site_id
 _symmetry_equiv_pos_as_xyz
  1  'x, y, z'
loop_
 _atom_site_type_symbol
 _atom_site_label
 _atom_site_symmetry_multiplicity
 _atom_site_fract_x
 _atom_site_fract_y
 _atom_site_fract_z
 _atom_site_occupancy
  Zn  Zn0  1  0.24787500  0.72013900  0.31629500  1
  Zn  Zn1  1  0.25212500  0.27986100  0.81629500  1
  Zn  Zn2  1  0.74787500  0.77986100  0.68370500  1
  Zn  Zn3  1  0.75212500  0.22013900  0.18370500  1
  Ni  Ni4  1  0.99852600  0.75047500  0.50028100  1
  Ni  Ni5  1  0.00147400  0.25047500  0.99971900  1
  Ni  Ni6  1  0.50147400  0.24952500  0.00028100  1
  Ni  Ni7  1  0.49852600  0.74952500  0.49971900  1
  P  P8  1  0.75296600  0.09793900  0.42870900  1
  P  P9  1  0.25296600  0.40206100  0.57129100  1
  P  P10  1  0.24703400  0.59793900  0.07129100  1
  P  P11  1  0.74703400  0.90206100  0.92870900  1
  P  P12  1  0.25176800  0.12698100  0.19040300  1
  P  P13  1  0.75176800  0.37301900  0.80959700  1
  P  P14  1  0.74823200  0.62698100  0.30959700  1
  P  P15  1  0.24823200  0.87301900  0.69040300  1
  W  W16  1  0.25199500  0.11383100  0.38262800  1
  W  W17  1  0.75199500  0.38616900  0.61737200  1
  W  W18  1  0.74800500  0.61383100  0.11737200  1
  W  W19  1  0.24800500  0.88616900  0.88262800  1
  O  O20  1  0.54853700  0.36784700  0.86797200  1
  O  O21  1  0.04853700  0.13215300  0.13202800  1
  O  O22  1  0.45146300  0.86784700  0.63202800  1
  O  O23  1  0.95146300  0.63215300  0.36797200  1
  O  O24  1  0.45496600  0.13425700  0.13276300  1
  O  O25  1  0.95496600  0.36574300  0.86723700  1
  O  O26  1  0.54503400  0.63425700  0.36723700  1
  O  O27  1  0.04503400  0.86574300  0.63276300  1
  O  O28  1  0.75056300  0.08583500  0.97311000  1
  O  O29  1  0.25056300  0.41416500  0.02689000  1
  O  O30  1  0.24943700  0.58583500  0.52689000  1
  O  O31  1  0.74943700  0.91416500  0.47311000  1
  O  O32  1  0.24850900  0.87210500  0.43505600  1
  O  O33  1  0.74850900  0.62789500  0.56494400  1
  O  O34  1  0.75149100  0.37210500  0.06494400  1
  O  O35  1  0.25149100  0.12789500  0.93505600  1
  O  O36  1  0.25150000  0.95925500  0.25389000  1
  O  O37  1  0.75150000  0.54074500  0.74611000  1
  O  O38  1  0.74850000  0.45925500  0.24611000  1
  O  O39  1  0.24850000  0.04074500  0.75389000  1
  O  O40  1  0.93478300  0.87327900  0.86521100  1
  O  O41  1  0.43478300  0.62672100  0.13478900  1
  O  O42  1  0.06521700  0.37327900  0.63478900  1
  O  O43  1  0.56521700  0.12672100  0.36521100  1
  O  O44  1  0.06745700  0.62542700  0.13627800  1
  O  O45  1  0.56745700  0.87457300  0.86372200  1
  O  O46  1  0.93254300  0.12542700  0.36372200  1
  O  O47  1  0.43254300  0.37457300  0.63627800  1
  O  O48  1  0.25122400  0.72799900  0.76487800  1
  O  O49  1  0.75122400  0.77200100  0.23512200  1
  O  O50  1  0.74877600  0.22799900  0.73512200  1
  O  O51  1  0.24877600  0.27200100  0.26487800  1
  O  O52  1  0.24857500  0.73260200  0.99240200  1
  O  O53  1  0.74857500  0.76739800  0.00759800  1
  O  O54  1  0.75142500  0.23260200  0.50759800  1
  O  O55  1  0.25142500  0.26739800  0.49240200  1
