# generated using pymatgen
data_Cs2Sb8S13
_symmetry_space_group_name_H-M   'P 1'
_cell_length_a   8.46598246
_cell_length_b   11.59426593
_cell_length_c   15.53553278
_cell_angle_alpha   85.57190416
_cell_angle_beta   77.94554759
_cell_angle_gamma   72.67903203
_symmetry_Int_Tables_number   1
_chemical_formula_structural   Cs2Sb8S13
_chemical_formula_sum   'Cs4 Sb16 S26'
_cell_volume   1423.48201150
_cell_formula_units_Z   2
loop_
 _symmetry_equiv_pos_site_id
 _symmetry_equiv_pos_as_xyz
  1  'x, y, z'
loop_
 _atom_site_type_symbol
 _atom_site_label
 _atom_site_symmetry_multiplicity
 _atom_site_fract_x
 _atom_site_fract_y
 _atom_site_fract_z
 _atom_site_occupancy
  Cs  Cs0  1  0.71194205  0.42860488  0.76741059  1
  Cs  Cs1  1  0.28805795  0.57139512  0.23258941  1
  Cs  Cs2  1  0.63545430  0.13010860  0.05660471  1
  Cs  Cs3  1  0.36454570  0.86989140  0.94339529  1
  Sb  Sb4  1  0.83258247  0.62408318  0.06675405  1
  Sb  Sb5  1  0.16741753  0.37591682  0.93324595  1
  Sb  Sb6  1  0.74769713  0.00467450  0.59187783  1
  Sb  Sb7  1  0.25230287  0.99532550  0.40812217  1
  Sb  Sb8  1  0.96562115  0.72811028  0.45230111  1
  Sb  Sb9  1  0.03437885  0.27188972  0.54769889  1
  Sb  Sb10  1  0.51548510  0.77659522  0.57860729  1
  Sb  Sb11  1  0.48451490  0.22340478  0.42139271  1
  Sb  Sb12  1  0.36102671  0.20270452  0.72771973  1
  Sb  Sb13  1  0.63897329  0.79729548  0.27228027  1
  Sb  Sb14  1  0.10307542  0.97360980  0.72999101  1
  Sb  Sb15  1  0.89692458  0.02639020  0.27000899  1
  Sb  Sb16  1  0.01518277  0.67935436  0.81689794  1
  Sb  Sb17  1  -0.01518277  0.32064564  0.18310206  1
  Sb  Sb18  1  0.29730534  0.53023021  0.58527654  1
  Sb  Sb19  1  0.70269466  0.46976979  0.41472346  1
  S  S20  1  0.82948447  0.10564584  0.70549427  1
  S  S21  1  0.17051553  0.89435416  0.29450573  1
  S  S22  1  0.79199019  0.61730760  0.55623110  1
  S  S23  1  0.20800981  0.38269240  0.44376890  1
  S  S24  1  0.44477253  0.63524562  0.43639376  1
  S  S25  1  0.55522747  0.36475438  0.56360624  1
  S  S26  1  0.72796000  0.88896146  0.42147667  1
  S  S27  1  0.27204000  0.11103854  0.57852333  1
  S  S28  1  0.23600509  0.35932703  0.08337160  1
  S  S29  1  0.76399491  0.64067297  0.91662840  1
  S  S30  1  0.44601224  0.24796135  0.87015803  1
  S  S31  1  0.55398776  0.75203865  0.12984197  1
  S  S32  1  0.38740190  0.64825359  0.68989733  1
  S  S33  1  0.61259810  0.35174641  0.31010267  1
  S  S34  1  0.02399141  0.84687345  0.56406586  1
  S  S35  1  0.97600859  0.15312655  0.43593414  1
  S  S36  1  0.78258355  0.42239735  0.08744281  1
  S  S37  1  0.21741645  0.57760265  0.91255719  1
  S  S38  1  0.59537220  0.87927054  0.69608547  1
  S  S39  1  0.40462780  0.12072946  0.30391453  1
  S  S40  1  0.14229961  0.11974242  0.82454439  1
  S  S41  1  0.85770039  0.88025758  0.17545561  1
  S  S42  1  0.15958964  0.40138499  0.71948661  1
  S  S43  1  0.84041036  0.59861501  0.28051339  1
  S  S44  1  0.98137634  0.87958318  0.87280521  1
  S  S45  1  0.01862366  0.12041682  0.12719479  1
