# generated using pymatgen
data_Na2PS3
_symmetry_space_group_name_H-M   'P 1'
_cell_length_a   6.52185117
_cell_length_b   6.52185117
_cell_length_c   7.51680750
_cell_angle_alpha   81.36689691
_cell_angle_beta   81.36689691
_cell_angle_gamma   117.89955973
_symmetry_Int_Tables_number   1
_chemical_formula_structural   Na2PS3
_chemical_formula_sum   'Na4 P2 S6'
_cell_volume   270.33178817
_cell_formula_units_Z   2
loop_
 _symmetry_equiv_pos_site_id
 _symmetry_equiv_pos_as_xyz
  1  'x, y, z'
loop_
 _atom_site_type_symbol
 _atom_site_label
 _atom_site_symmetry_multiplicity
 _atom_site_fract_x
 _atom_site_fract_y
 _atom_site_fract_z
 _atom_site_occupancy
  Na  Na0  1  0.33775247  0.66224753  -0.00000000  1
  Na  Na1  1  0.66224753  0.33775247  -0.00000000  1
  Na  Na2  1  0.18412130  0.81587870  0.50000000  1
  Na  Na3  1  0.81587870  0.18412130  0.50000000  1
  P  P4  1  0.05411392  0.05411392  0.84220309  1
  P  P5  1  0.94588608  0.94588608  0.15779691  1
  S  S6  1  0.79450712  0.79450712  0.75722032  1
  S  S7  1  0.20549288  0.20549288  0.24277968  1
  S  S8  1  0.37426761  0.07164340  0.76926479  1
  S  S9  1  0.07164340  0.37426761  0.76926479  1
  S  S10  1  0.62573239  0.92835660  0.23073521  1
  S  S11  1  0.92835660  0.62573239  0.23073521  1
