# generated using pymatgen
data_RbTb(MoO4)2
_symmetry_space_group_name_H-M   'P 1'
_cell_length_a   7.43000131
_cell_length_b   7.43000131
_cell_length_c   7.70819014
_cell_angle_alpha   62.03536268
_cell_angle_beta   62.03536268
_cell_angle_gamma   88.45786974
_symmetry_Int_Tables_number   1
_chemical_formula_structural   RbTb(MoO4)2
_chemical_formula_sum   'Rb2 Tb2 Mo4 O16'
_cell_volume   321.64188067
_cell_formula_units_Z   2
loop_
 _symmetry_equiv_pos_site_id
 _symmetry_equiv_pos_as_xyz
  1  'x, y, z'
loop_
 _atom_site_type_symbol
 _atom_site_label
 _atom_site_symmetry_multiplicity
 _atom_site_fract_x
 _atom_site_fract_y
 _atom_site_fract_z
 _atom_site_occupancy
  Rb  Rb0  1  0.19401799  0.80598201  0.75000000  1
  Rb  Rb1  1  0.80598201  0.19401799  0.25000000  1
  Tb  Tb2  1  0.77020251  0.22979749  0.75000000  1
  Tb  Tb3  1  0.22979749  0.77020251  0.25000000  1
  Mo  Mo4  1  0.69336201  0.69626719  0.76224614  1
  Mo  Mo5  1  0.30663799  0.30373281  0.23775386  1
  Mo  Mo6  1  0.30373281  0.30663799  0.73775386  1
  Mo  Mo7  1  0.69626719  0.69336201  0.26224614  1
  O  O8  1  0.61086419  0.76571426  0.56668869  1
  O  O9  1  0.38913581  0.23428574  0.43331131  1
  O  O10  1  0.23428574  0.38913581  0.93331131  1
  O  O11  1  0.76571426  0.61086419  0.06668869  1
  O  O12  1  0.38723448  0.07284166  0.87158422  1
  O  O13  1  0.61276552  0.92715834  0.12841578  1
  O  O14  1  0.92715834  0.61276552  0.62841578  1
  O  O15  1  0.07284166  0.38723448  0.37158422  1
  O  O16  1  0.58179514  0.36703616  0.97100935  1
  O  O17  1  0.41820486  0.63296384  0.02899065  1
  O  O18  1  0.63296384  0.41820486  0.52899065  1
  O  O19  1  0.36703616  0.58179514  0.47100935  1
  O  O20  1  0.79544254  0.94714379  0.69697175  1
  O  O21  1  0.20455746  0.05285621  0.30302825  1
  O  O22  1  0.05285621  0.20455746  0.80302825  1
  O  O23  1  0.94714379  0.79544254  0.19697175  1
