# generated using pymatgen
data_Ba2CaGa2CuF14
_symmetry_space_group_name_H-M   'P 1'
_cell_length_a   7.38812469
_cell_length_b   7.38812469
_cell_length_c   14.70236676
_cell_angle_alpha   88.37155593
_cell_angle_beta   88.37155593
_cell_angle_gamma   42.31194036
_symmetry_Int_Tables_number   1
_chemical_formula_structural   Ba2CaGa2CuF14
_chemical_formula_sum   'Ba4 Ca2 Ga4 Cu2 F28'
_cell_volume   539.97860067
_cell_formula_units_Z   2
loop_
 _symmetry_equiv_pos_site_id
 _symmetry_equiv_pos_as_xyz
  1  'x, y, z'
loop_
 _atom_site_type_symbol
 _atom_site_label
 _atom_site_symmetry_multiplicity
 _atom_site_fract_x
 _atom_site_fract_y
 _atom_site_fract_z
 _atom_site_occupancy
  Ba  Ba0  1  0.62934849  0.75317856  0.87988641  1
  Ba  Ba1  1  0.37065151  0.24682144  0.12011359  1
  Ba  Ba2  1  0.24682144  0.37065151  0.62011359  1
  Ba  Ba3  1  0.75317856  0.62934849  0.37988641  1
  Ca  Ca4  1  0.92206315  0.07793685  0.75000000  1
  Ca  Ca5  1  0.07793685  0.92206315  0.25000000  1
  Ga  Ga6  1  0.59931226  0.63998042  0.62413693  1
  Ga  Ga7  1  0.40068774  0.36001958  0.37586307  1
  Ga  Ga8  1  0.36001958  0.40068774  0.87586307  1
  Ga  Ga9  1  0.63998042  0.59931226  0.12413693  1
  Cu  Cu10  1  -0.00000000  0.00000000  0.50000000  1
  Cu  Cu11  1  -0.00000000  0.00000000  0.00000000  1
  F  F12  1  0.88395929  0.00565932  0.11569818  1
  F  F13  1  0.11604071  0.99434068  0.88430182  1
  F  F14  1  0.99434068  0.11604071  0.38430182  1
  F  F15  1  0.00565932  0.88395929  0.61569818  1
  F  F16  1  0.63808026  0.09766684  0.95301930  1
  F  F17  1  0.36191974  0.90233316  0.04698070  1
  F  F18  1  0.90233316  0.36191974  0.54698070  1
  F  F19  1  0.09766684  0.63808026  0.45301930  1
  F  F20  1  0.37930851  0.78923808  0.51886485  1
  F  F21  1  0.62069149  0.21076192  0.48113515  1
  F  F22  1  0.21076192  0.62069149  0.98113515  1
  F  F23  1  0.78923808  0.37930851  0.01886485  1
  F  F24  1  0.32959518  0.91566594  0.70585377  1
  F  F25  1  0.67040482  0.08433406  0.29414623  1
  F  F26  1  0.08433406  0.67040482  0.79414623  1
  F  F27  1  0.91566594  0.32959518  0.20585377  1
  F  F28  1  0.56028363  0.42336731  0.65522979  1
  F  F29  1  0.43971637  0.57663269  0.34477021  1
  F  F30  1  0.57663269  0.43971637  0.84477021  1
  F  F31  1  0.42336731  0.56028363  0.15522979  1
  F  F32  1  0.54170866  0.14192347  0.77791350  1
  F  F33  1  0.45829134  0.85807653  0.22208650  1
  F  F34  1  0.85807653  0.45829134  0.72208650  1
  F  F35  1  0.14192347  0.54170866  0.27791350  1
  F  F36  1  0.67328077  0.82794859  0.59216185  1
  F  F37  1  0.32671923  0.17205141  0.40783815  1
  F  F38  1  0.17205141  0.32671923  0.90783815  1
  F  F39  1  0.82794859  0.67328077  0.09216185  1
