# generated using pymatgen
data_Cd4As2Cl3
_symmetry_space_group_name_H-M   'P 1'
_cell_length_a   12.53198313
_cell_length_b   12.53198313
_cell_length_c   12.53198313
_cell_angle_alpha   90.00000000
_cell_angle_beta   90.00000000
_cell_angle_gamma   90.00000000
_symmetry_Int_Tables_number   1
_chemical_formula_structural   Cd4As2Cl3
_chemical_formula_sum   'Cd32 As16 Cl24'
_cell_volume   1968.15548443
_cell_formula_units_Z   8
loop_
 _symmetry_equiv_pos_site_id
 _symmetry_equiv_pos_as_xyz
  1  'x, y, z'
loop_
 _atom_site_type_symbol
 _atom_site_label
 _atom_site_symmetry_multiplicity
 _atom_site_fract_x
 _atom_site_fract_y
 _atom_site_fract_z
 _atom_site_occupancy
  Cd  Cd0  1  0.98014321  0.24509808  0.02465378  1
  Cd  Cd1  1  0.01985679  0.75490192  0.97534622  1
  Cd  Cd2  1  0.51985679  0.75490192  0.52465378  1
  Cd  Cd3  1  0.01985679  0.74509808  0.47534622  1
  Cd  Cd4  1  0.02465378  0.98014321  0.24509808  1
  Cd  Cd5  1  0.48014321  0.24509808  0.47534622  1
  Cd  Cd6  1  0.98014321  0.25490192  0.52465378  1
  Cd  Cd7  1  0.97534622  0.01985679  0.75490192  1
  Cd  Cd8  1  0.48014321  0.25490192  0.97534622  1
  Cd  Cd9  1  0.52465378  0.51985679  0.75490192  1
  Cd  Cd10  1  0.51985679  0.74509808  0.02465378  1
  Cd  Cd11  1  0.47534622  0.48014321  0.24509808  1
  Cd  Cd12  1  0.47534622  0.01985679  0.74509808  1
  Cd  Cd13  1  0.52465378  0.98014321  0.25490192  1
  Cd  Cd14  1  0.97534622  0.48014321  0.25490192  1
  Cd  Cd15  1  0.02465378  0.51985679  0.74509808  1
  Cd  Cd16  1  0.24509808  0.02465378  0.98014321  1
  Cd  Cd17  1  0.75490192  0.97534622  0.01985679  1
  Cd  Cd18  1  0.74509808  0.47534622  0.01985679  1
  Cd  Cd19  1  0.25490192  0.52465378  0.98014321  1
  Cd  Cd20  1  0.25490192  0.97534622  0.48014321  1
  Cd  Cd21  1  0.74509808  0.02465378  0.51985679  1
  Cd  Cd22  1  0.75490192  0.52465378  0.51985679  1
  Cd  Cd23  1  0.24509808  0.47534622  0.48014321  1
  Cd  Cd24  1  0.22222013  0.22222013  0.22222013  1
  Cd  Cd25  1  0.77777987  0.77777987  0.77777987  1
  Cd  Cd26  1  0.27777987  0.77777987  0.72222013  1
  Cd  Cd27  1  0.77777987  0.72222013  0.27777987  1
  Cd  Cd28  1  0.72222013  0.22222013  0.27777987  1
  Cd  Cd29  1  0.22222013  0.27777987  0.72222013  1
  Cd  Cd30  1  0.72222013  0.27777987  0.77777987  1
  Cd  Cd31  1  0.27777987  0.72222013  0.22222013  1
  As  As32  1  0.44481979  0.44481979  0.44481979  1
  As  As33  1  0.55518021  0.55518021  0.55518021  1
  As  As34  1  0.05518021  0.55518021  0.94481979  1
  As  As35  1  0.55518021  0.94481979  0.05518021  1
  As  As36  1  0.94481979  0.44481979  0.05518021  1
  As  As37  1  0.44481979  0.05518021  0.94481979  1
  As  As38  1  0.94481979  0.05518021  0.55518021  1
  As  As39  1  0.05518021  0.94481979  0.44481979  1
  As  As40  1  0.10390605  0.10390605  0.10390605  1
  As  As41  1  0.89609395  0.89609395  0.89609395  1
  As  As42  1  0.39609395  0.89609395  0.60390605  1
  As  As43  1  0.89609395  0.60390605  0.39609395  1
  As  As44  1  0.60390605  0.10390605  0.39609395  1
  As  As45  1  0.10390605  0.39609395  0.60390605  1
  As  As46  1  0.60390605  0.39609395  0.89609395  1
  As  As47  1  0.39609395  0.60390605  0.10390605  1
  Cl  Cl48  1  0.18192620  0.42309345  0.27142267  1
  Cl  Cl49  1  0.81807380  0.57690655  0.72857733  1
  Cl  Cl50  1  0.31807380  0.57690655  0.77142267  1
  Cl  Cl51  1  0.81807380  0.92309345  0.22857733  1
  Cl  Cl52  1  0.27142267  0.18192620  0.42309345  1
  Cl  Cl53  1  0.68192620  0.42309345  0.22857733  1
  Cl  Cl54  1  0.18192620  0.07690655  0.77142267  1
  Cl  Cl55  1  0.72857733  0.81807380  0.57690655  1
  Cl  Cl56  1  0.68192620  0.07690655  0.72857733  1
  Cl  Cl57  1  0.77142267  0.31807380  0.57690655  1
  Cl  Cl58  1  0.31807380  0.92309345  0.27142267  1
  Cl  Cl59  1  0.22857733  0.68192620  0.42309345  1
  Cl  Cl60  1  0.22857733  0.81807380  0.92309345  1
  Cl  Cl61  1  0.77142267  0.18192620  0.07690655  1
  Cl  Cl62  1  0.72857733  0.68192620  0.07690655  1
  Cl  Cl63  1  0.27142267  0.31807380  0.92309345  1
  Cl  Cl64  1  0.42309345  0.27142267  0.18192620  1
  Cl  Cl65  1  0.57690655  0.72857733  0.81807380  1
  Cl  Cl66  1  0.92309345  0.22857733  0.81807380  1
  Cl  Cl67  1  0.07690655  0.77142267  0.18192620  1
  Cl  Cl68  1  0.07690655  0.72857733  0.68192620  1
  Cl  Cl69  1  0.92309345  0.27142267  0.31807380  1
  Cl  Cl70  1  0.57690655  0.77142267  0.31807380  1
  Cl  Cl71  1  0.42309345  0.22857733  0.68192620  1
