# generated using pymatgen
data_Sr(LuSe2)2
_symmetry_space_group_name_H-M   'P 1'
_cell_length_a   4.06393135
_cell_length_b   12.45353067
_cell_length_c   14.68612790
_cell_angle_alpha   90.00000000
_cell_angle_beta   90.00000000
_cell_angle_gamma   90.00000000
_symmetry_Int_Tables_number   1
_chemical_formula_structural   Sr(LuSe2)2
_chemical_formula_sum   'Sr4 Lu8 Se16'
_cell_volume   743.26924645
_cell_formula_units_Z   4
loop_
 _symmetry_equiv_pos_site_id
 _symmetry_equiv_pos_as_xyz
  1  'x, y, z'
loop_
 _atom_site_type_symbol
 _atom_site_label
 _atom_site_symmetry_multiplicity
 _atom_site_fract_x
 _atom_site_fract_y
 _atom_site_fract_z
 _atom_site_occupancy
  Sr  Sr0  1  0.25000000  0.75999500  0.33378916  1
  Sr  Sr1  1  0.25000000  0.25999500  0.16621084  1
  Sr  Sr2  1  0.75000000  0.24000500  0.66621084  1
  Sr  Sr3  1  0.75000000  0.74000500  0.83378916  1
  Lu  Lu4  1  0.25000000  0.43970696  0.38889350  1
  Lu  Lu5  1  0.25000000  0.93970696  0.11110650  1
  Lu  Lu6  1  0.75000000  0.56029304  0.61110650  1
  Lu  Lu7  1  0.75000000  0.06029304  0.88889350  1
  Lu  Lu8  1  0.25000000  0.41707002  0.90231024  1
  Lu  Lu9  1  0.25000000  0.91707002  0.59768976  1
  Lu  Lu10  1  0.75000000  0.58292998  0.09768976  1
  Lu  Lu11  1  0.75000000  0.08292998  0.40231024  1
  Se  Se12  1  0.25000000  0.20429765  0.83319969  1
  Se  Se13  1  0.25000000  0.70429765  0.66680031  1
  Se  Se14  1  0.75000000  0.79570235  0.16680031  1
  Se  Se15  1  0.75000000  0.29570235  0.33319969  1
  Se  Se16  1  0.25000000  0.12673152  0.52931241  1
  Se  Se17  1  0.25000000  0.62673152  0.97068759  1
  Se  Se18  1  0.75000000  0.87326848  0.47068759  1
  Se  Se19  1  0.75000000  0.37326848  0.02931241  1
  Se  Se20  1  0.25000000  0.02811906  0.28476958  1
  Se  Se21  1  0.25000000  0.52811906  0.21523042  1
  Se  Se22  1  0.75000000  0.97188094  0.71523042  1
  Se  Se23  1  0.75000000  0.47188094  0.78476958  1
  Se  Se24  1  0.25000000  0.41049043  0.57566504  1
  Se  Se25  1  0.25000000  0.91049043  0.92433496  1
  Se  Se26  1  0.75000000  0.58950957  0.42433496  1
  Se  Se27  1  0.75000000  0.08950957  0.07566504  1
