# generated using pymatgen
data_Ca5V3ClO12
_symmetry_space_group_name_H-M   'P 1'
_cell_length_a   10.19300741
_cell_length_b   10.19300740
_cell_length_c   6.69598377
_cell_angle_alpha   90.00000000
_cell_angle_beta   90.00000000
_cell_angle_gamma   119.99999756
_symmetry_Int_Tables_number   1
_chemical_formula_structural   Ca5V3ClO12
_chemical_formula_sum   'Ca10 V6 Cl2 O24'
_cell_volume   602.48982119
_cell_formula_units_Z   2
loop_
 _symmetry_equiv_pos_site_id
 _symmetry_equiv_pos_as_xyz
  1  'x, y, z'
loop_
 _atom_site_type_symbol
 _atom_site_label
 _atom_site_symmetry_multiplicity
 _atom_site_fract_x
 _atom_site_fract_y
 _atom_site_fract_z
 _atom_site_occupancy
  Ca  Ca0  1  0.66666700  0.33333300  0.50429663  1
  Ca  Ca1  1  0.33333300  0.66666700  0.00429663  1
  Ca  Ca2  1  0.33333300  0.66666700  0.49570337  1
  Ca  Ca3  1  0.66666700  0.33333300  0.99570337  1
  Ca  Ca4  1  0.03364998  0.26757386  0.75000000  1
  Ca  Ca5  1  0.73242614  0.76607613  0.75000000  1
  Ca  Ca6  1  0.23392387  0.96635002  0.75000000  1
  Ca  Ca7  1  0.96635002  0.73242614  0.25000000  1
  Ca  Ca8  1  0.26757386  0.23392387  0.25000000  1
  Ca  Ca9  1  0.76607613  0.03364998  0.25000000  1
  V  V10  1  0.38401338  0.41580072  0.75000000  1
  V  V11  1  0.58419928  0.96821266  0.75000000  1
  V  V12  1  0.03178734  0.61598662  0.75000000  1
  V  V13  1  0.61598662  0.58419928  0.25000000  1
  V  V14  1  0.41580072  0.03178734  0.25000000  1
  V  V15  1  0.96821266  0.38401338  0.25000000  1
  Cl  Cl16  1  -0.00000000  0.00000000  0.50000000  1
  Cl  Cl17  1  -0.00000000  0.00000000  0.00000000  1
  O  O18  1  0.51540516  0.35961948  0.75000000  1
  O  O19  1  0.64038052  0.15578568  0.75000000  1
  O  O20  1  0.84421432  0.48459484  0.75000000  1
  O  O21  1  0.48459484  0.64038052  0.25000000  1
  O  O22  1  0.35961948  0.84421432  0.25000000  1
  O  O23  1  0.15578568  0.51540516  0.25000000  1
  O  O24  1  0.46902664  0.61232133  0.75000000  1
  O  O25  1  0.38767867  0.85670431  0.75000000  1
  O  O26  1  0.14329569  0.53097336  0.75000000  1
  O  O27  1  0.53097336  0.38767867  0.25000000  1
  O  O28  1  0.61232133  0.14329569  0.25000000  1
  O  O29  1  0.85670431  0.46902664  0.25000000  1
  O  O30  1  0.26426842  0.35128006  0.54812858  1
  O  O31  1  0.64871994  0.91298936  0.54812858  1
  O  O32  1  0.08701064  0.73573158  0.54812858  1
  O  O33  1  0.73573158  0.64871994  0.04812858  1
  O  O34  1  0.35128006  0.08701064  0.04812858  1
  O  O35  1  0.91298936  0.26426842  0.04812858  1
  O  O36  1  0.73573158  0.64871994  0.45187142  1
  O  O37  1  0.35128006  0.08701064  0.45187142  1
  O  O38  1  0.91298936  0.26426842  0.45187142  1
  O  O39  1  0.26426842  0.35128006  0.95187142  1
  O  O40  1  0.64871994  0.91298936  0.95187142  1
  O  O41  1  0.08701064  0.73573158  0.95187142  1
