# generated using pymatgen
data_Mg(InS2)2
_symmetry_space_group_name_H-M   'P 1'
_cell_length_a   6.80036614
_cell_length_b   7.84756712
_cell_length_c   12.92914105
_cell_angle_alpha   98.75991714
_cell_angle_beta   94.93052826
_cell_angle_gamma   89.98022851
_symmetry_Int_Tables_number   1
_chemical_formula_structural   Mg(InS2)2
_chemical_formula_sum   'Mg4 In8 S16'
_cell_volume   679.35199319
_cell_formula_units_Z   4
loop_
 _symmetry_equiv_pos_site_id
 _symmetry_equiv_pos_as_xyz
  1  'x, y, z'
loop_
 _atom_site_type_symbol
 _atom_site_label
 _atom_site_symmetry_multiplicity
 _atom_site_fract_x
 _atom_site_fract_y
 _atom_site_fract_z
 _atom_site_occupancy
  Mg  Mg0  1  0.86775245  0.80273931  0.70155525  1
  Mg  Mg1  1  0.13224755  0.19726069  0.29844475  1
  Mg  Mg2  1  0.75051255  0.62500534  0.99819039  1
  Mg  Mg3  1  0.24948745  0.37499466  0.00180961  1
  In  In4  1  0.86113677  0.30191516  0.70477080  1
  In  In5  1  0.13886323  0.69808484  0.29522920  1
  In  In6  1  0.76088555  0.12390068  0.00030644  1
  In  In7  1  0.23911445  0.87609932  0.99969356  1
  In  In8  1  0.62976660  0.44389053  0.29367440  1
  In  In9  1  0.37023340  0.55610947  0.70632560  1
  In  In10  1  0.62910634  0.95321725  0.29768787  1
  In  In11  1  0.37089366  0.04678275  0.70231213  1
  S  S12  1  0.90194634  0.35215931  0.89581021  1
  S  S13  1  0.09805366  0.64784069  0.10418979  1
  S  S14  1  0.89563389  0.84690282  0.89241466  1
  S  S15  1  0.10436611  0.15309718  0.10758534  1
  S  S16  1  0.81385367  0.21889064  0.37442415  1
  S  S17  1  0.18614633  0.78110936  0.62557585  1
  S  S18  1  0.81259321  0.71717262  0.37318049  1
  S  S19  1  0.18740679  0.28282738  0.62681951  1
  S  S20  1  0.68979250  0.03075310  0.62428079  1
  S  S21  1  0.31020750  0.96924690  0.37571921  1
  S  S22  1  0.68850486  0.53462072  0.62677859  1
  S  S23  1  0.31149514  0.46537928  0.37322141  1
  S  S24  1  0.59802476  0.89866696  0.10475455  1
  S  S25  1  0.40197524  0.10133304  0.89524545  1
  S  S26  1  0.60147165  0.40083475  0.10229991  1
  S  S27  1  0.39852835  0.59916525  0.89770009  1
