# generated using pymatgen
data_Cs8Mg(Sn2O3)4
_symmetry_space_group_name_H-M   'P 1'
_cell_length_a   6.23854185
_cell_length_b   9.01475714
_cell_length_c   16.07528809
_cell_angle_alpha   95.40328454
_cell_angle_beta   78.80329092
_cell_angle_gamma   90.44271060
_symmetry_Int_Tables_number   1
_chemical_formula_structural   Cs8Mg(Sn2O3)4
_chemical_formula_sum   'Cs8 Mg1 Sn8 O12'
_cell_volume   882.85735877
_cell_formula_units_Z   1
loop_
 _symmetry_equiv_pos_site_id
 _symmetry_equiv_pos_as_xyz
  1  'x, y, z'
loop_
 _atom_site_type_symbol
 _atom_site_label
 _atom_site_symmetry_multiplicity
 _atom_site_fract_x
 _atom_site_fract_y
 _atom_site_fract_z
 _atom_site_occupancy
  Cs  Cs0  1  0.23550801  0.54801464  0.37271079  1
  Cs  Cs1  1  0.76449199  0.45198536  0.62728921  1
  Cs  Cs2  1  0.83849669  0.00816307  0.16448219  1
  Cs  Cs3  1  0.16150331  0.99183693  0.83551781  1
  Cs  Cs4  1  0.37359259  0.30750448  0.13229200  1
  Cs  Cs5  1  0.62640741  0.69249552  0.86770800  1
  Cs  Cs6  1  0.71685891  0.84561420  0.40527421  1
  Cs  Cs7  1  0.28314109  0.15438580  0.59472579  1
  Mg  Mg8  1  -0.00000000  0.50000000  0.00000000  1
  Sn  Sn9  1  0.33658356  0.76209537  0.16189439  1
  Sn  Sn10  1  0.66341644  0.23790463  0.83810561  1
  Sn  Sn11  1  0.73409061  0.29524102  0.37292241  1
  Sn  Sn12  1  0.26590939  0.70475898  0.62707759  1
  Sn  Sn13  1  0.25949530  0.08638699  0.31713870  1
  Sn  Sn14  1  0.74050470  0.91361301  0.68286130  1
  Sn  Sn15  1  0.80783380  0.56645698  0.22082617  1
  Sn  Sn16  1  0.19216620  0.43354302  0.77917383  1
  O  O17  1  0.02719074  0.23190266  0.28977354  1
  O  O18  1  0.47786557  0.76724920  0.70983350  1
  O  O19  1  0.04051610  0.72597385  0.24367326  1
  O  O20  1  0.45282099  0.27913035  0.75558756  1
  O  O21  1  0.97280926  0.76809734  0.71022646  1
  O  O22  1  0.52213443  0.23275080  0.29016650  1
  O  O23  1  0.95948390  0.27402615  0.75632674  1
  O  O24  1  0.54717901  0.72086965  0.24441244  1
  O  O25  1  0.32377552  0.99215723  0.19007807  1
  O  O26  1  0.67622448  0.00784277  0.80992193  1
  O  O27  1  0.74763763  0.51781896  0.34939999  1
  O  O28  1  0.25236237  0.48218104  0.65060001  1
