# generated using pymatgen
data_Sm(ErS2)3
_symmetry_space_group_name_H-M   'P 1'
_cell_length_a   3.93292075
_cell_length_b   10.96269367
_cell_length_c   11.22625744
_cell_angle_alpha   108.87970906
_cell_angle_beta   90.00000000
_cell_angle_gamma   90.00000000
_symmetry_Int_Tables_number   1
_chemical_formula_structural   Sm(ErS2)3
_chemical_formula_sum   'Sm2 Er6 S12'
_cell_volume   457.98412137
_cell_formula_units_Z   2
loop_
 _symmetry_equiv_pos_site_id
 _symmetry_equiv_pos_as_xyz
  1  'x, y, z'
loop_
 _atom_site_type_symbol
 _atom_site_label
 _atom_site_symmetry_multiplicity
 _atom_site_fract_x
 _atom_site_fract_y
 _atom_site_fract_z
 _atom_site_occupancy
  Sm  Sm0  1  0.25000000  0.54750814  0.19375958  1
  Sm  Sm1  1  0.75000000  0.45249186  0.80624042  1
  Er  Er2  1  0.25000000  0.66130601  0.58598491  1
  Er  Er3  1  0.75000000  0.33869399  0.41401509  1
  Er  Er4  1  0.25000000  0.18071363  0.00221386  1
  Er  Er5  1  0.75000000  0.81928637  0.99778614  1
  Er  Er6  1  0.25000000  0.93874719  0.33254369  1
  Er  Er7  1  0.75000000  0.06125281  0.66745631  1
  S  S8  1  0.25000000  0.30452811  0.25107546  1
  S  S9  1  0.75000000  0.69547189  0.74892454  1
  S  S10  1  0.25000000  0.41830499  0.59475261  1
  S  S11  1  0.75000000  0.58169501  0.40524739  1
  S  S12  1  0.25000000  0.61604410  0.96324383  1
  S  S13  1  0.75000000  0.38395590  0.03675617  1
  S  S14  1  0.25000000  0.97745094  0.11223251  1
  S  S15  1  0.75000000  0.02254906  0.88776749  1
  S  S16  1  0.75000000  0.10451419  0.44012382  1
  S  S17  1  0.25000000  0.89548581  0.55987618  1
  S  S18  1  0.75000000  0.76226225  0.22651839  1
  S  S19  1  0.25000000  0.23773775  0.77348161  1
