# generated using pymatgen
data_Tb2MgSe4
_symmetry_space_group_name_H-M   'P 1'
_cell_length_a   14.11971455
_cell_length_b   8.21822563
_cell_length_c   6.81888864
_cell_angle_alpha   89.99982902
_cell_angle_beta   90.00000702
_cell_angle_gamma   90.00011708
_symmetry_Int_Tables_number   1
_chemical_formula_structural   Tb2MgSe4
_chemical_formula_sum   'Tb8 Mg4 Se16'
_cell_volume   791.25701892
_cell_formula_units_Z   4
loop_
 _symmetry_equiv_pos_site_id
 _symmetry_equiv_pos_as_xyz
  1  'x, y, z'
loop_
 _atom_site_type_symbol
 _atom_site_label
 _atom_site_symmetry_multiplicity
 _atom_site_fract_x
 _atom_site_fract_y
 _atom_site_fract_z
 _atom_site_occupancy
  Tb  Tb0  1  0.00000055  -0.00000605  0.50000684  1
  Tb  Tb1  1  0.49999772  -0.00000465  0.99998752  1
  Tb  Tb2  1  0.49999796  0.50000584  0.99998708  1
  Tb  Tb3  1  0.00000063  0.50000712  0.50000694  1
  Tb  Tb4  1  0.23406952  0.75000136  0.99515385  1
  Tb  Tb5  1  0.76593514  0.24999985  0.00482812  1
  Tb  Tb6  1  0.26592789  0.25000103  0.49515339  1
  Tb  Tb7  1  0.73406102  0.75000032  0.50484272  1
  Mg  Mg8  1  0.09451674  0.25000083  0.91377062  1
  Mg  Mg9  1  0.90550425  0.75000103  0.08624951  1
  Mg  Mg10  1  0.40548769  0.75000047  0.41375492  1
  Mg  Mg11  1  0.59448004  0.24999911  0.58619753  1
  Se  Se12  1  0.17040486  0.00636131  0.73530642  1
  Se  Se13  1  0.82960158  0.99363102  0.26476538  1
  Se  Se14  1  0.32960300  0.99362923  0.23526542  1
  Se  Se15  1  0.67039932  0.00637825  0.76469174  1
  Se  Se16  1  0.67040446  0.49361524  0.76470666  1
  Se  Se17  1  0.32960352  0.50637345  0.23526457  1
  Se  Se18  1  0.82960198  0.50637072  0.26476509  1
  Se  Se19  1  0.17040535  0.49364112  0.73530695  1
  Se  Se20  1  0.07221009  0.75000106  0.24622094  1
  Se  Se21  1  0.92779269  0.25000031  0.75383855  1
  Se  Se22  1  0.42778544  0.25000177  0.74619009  1
  Se  Se23  1  0.57221674  0.75000019  0.25381094  1
  Se  Se24  1  0.08999194  0.25000126  0.28274324  1
  Se  Se25  1  0.90999796  0.75000069  0.71725755  1
  Se  Se26  1  0.41000068  0.74998745  0.78271854  1
  Se  Se27  1  0.59000423  0.25000068  0.21721191  1
