# generated using pymatgen
data_Tb2CoTe2(SO7)2
_symmetry_space_group_name_H-M   'P 1'
_cell_length_a   5.25125987
_cell_length_b   7.80643167
_cell_length_c   8.06338333
_cell_angle_alpha   115.91720619
_cell_angle_beta   107.18991066
_cell_angle_gamma   85.71198350
_symmetry_Int_Tables_number   1
_chemical_formula_structural   Tb2CoTe2(SO7)2
_chemical_formula_sum   'Tb2 Co1 Te2 S2 O14'
_cell_volume   283.45263204
_cell_formula_units_Z   1
loop_
 _symmetry_equiv_pos_site_id
 _symmetry_equiv_pos_as_xyz
  1  'x, y, z'
loop_
 _atom_site_type_symbol
 _atom_site_label
 _atom_site_symmetry_multiplicity
 _atom_site_fract_x
 _atom_site_fract_y
 _atom_site_fract_z
 _atom_site_occupancy
  Tb  Tb0  1  0.07800741  0.25149857  0.98265947  1
  Tb  Tb1  1  0.92199259  0.74850143  0.01734053  1
  Co  Co2  1  0.00000000  0.00000000  0.50000000  1
  Te  Te3  1  0.51114415  0.27141271  0.65776272  1
  Te  Te4  1  0.48885585  0.72858729  0.34223728  1
  S  S5  1  0.76315502  0.24628729  0.25179355  1
  S  S6  1  0.23684498  0.75371271  0.74820645  1
  O  O7  1  0.89948245  0.40831933  0.25914968  1
  O  O8  1  0.10051755  0.59168067  0.74085032  1
  O  O9  1  0.86820422  0.22551803  0.43148505  1
  O  O10  1  0.13179578  0.77448197  0.56851495  1
  O  O11  1  0.47509774  0.26978562  0.21695761  1
  O  O12  1  0.52490226  0.73021438  0.78304239  1
  O  O13  1  0.81891583  0.07619878  0.08745977  1
  O  O14  1  0.18108417  0.92380122  0.91254023  1
  O  O15  1  0.74819392  0.43880732  0.89393972  1
  O  O16  1  0.25180608  0.56119268  0.10606028  1
  O  O17  1  0.27544940  0.19277534  0.75050683  1
  O  O18  1  0.72455060  0.80722466  0.24949317  1
  O  O19  1  0.74446006  0.07514953  0.66597806  1
  O  O20  1  0.25553994  0.92485047  0.33402194  1
