# generated using pymatgen
data_SrMg14CO16
_symmetry_space_group_name_H-M   'P 1'
_cell_length_a   8.65182074
_cell_length_b   8.59938625
_cell_length_c   4.37446653
_cell_angle_alpha   90.00000000
_cell_angle_beta   90.00000000
_cell_angle_gamma   90.00000000
_symmetry_Int_Tables_number   1
_chemical_formula_structural   SrMg14CO16
_chemical_formula_sum   'Sr1 Mg14 C1 O16'
_cell_volume   325.46183350
_cell_formula_units_Z   1
loop_
 _symmetry_equiv_pos_site_id
 _symmetry_equiv_pos_as_xyz
  1  'x, y, z'
loop_
 _atom_site_type_symbol
 _atom_site_label
 _atom_site_symmetry_multiplicity
 _atom_site_fract_x
 _atom_site_fract_y
 _atom_site_fract_z
 _atom_site_occupancy
  Sr  Sr0  1  -0.00000000  0.00000000  0.00000000  1
  Mg  Mg1  1  0.50000000  0.00000000  0.00000000  1
  Mg  Mg2  1  0.50000000  0.50000000  0.00000000  1
  Mg  Mg3  1  -0.00000000  0.26210590  0.50000000  1
  Mg  Mg4  1  0.00000000  0.73789410  0.50000000  1
  Mg  Mg5  1  0.50000000  0.25176151  0.50000000  1
  Mg  Mg6  1  0.50000000  0.74823849  0.50000000  1
  Mg  Mg7  1  0.25900388  0.00000000  0.50000000  1
  Mg  Mg8  1  0.24738348  0.50000000  0.50000000  1
  Mg  Mg9  1  0.74099612  0.00000000  0.50000000  1
  Mg  Mg10  1  0.75261652  0.50000000  0.50000000  1
  Mg  Mg11  1  0.25379802  0.25742517  0.00000000  1
  Mg  Mg12  1  0.25379802  0.74257483  0.00000000  1
  Mg  Mg13  1  0.74620198  0.25742517  0.00000000  1
  Mg  Mg14  1  0.74620198  0.74257483  -0.00000000  1
  C  C15  1  -0.00000000  0.50000000  0.00000000  1
  O  O16  1  0.27099879  -0.00000000  0.00000000  1
  O  O17  1  0.25595813  0.50000000  0.00000000  1
  O  O18  1  0.72900121  -0.00000000  0.00000000  1
  O  O19  1  0.74404187  0.50000000  0.00000000  1
  O  O20  1  0.24851528  0.25049289  0.50000000  1
  O  O21  1  0.24851528  0.74950711  0.50000000  1
  O  O22  1  0.75148472  0.25049289  0.50000000  1
  O  O23  1  0.75148472  0.74950711  0.50000000  1
  O  O24  1  -0.00000000  0.00000000  0.50000000  1
  O  O25  1  -0.00000000  0.50000000  0.50000000  1
  O  O26  1  0.50000000  0.00000000  0.50000000  1
  O  O27  1  0.50000000  0.50000000  0.50000000  1
  O  O28  1  -0.00000000  0.27232676  -0.00000000  1
  O  O29  1  0.00000000  0.72767324  0.00000000  1
  O  O30  1  0.50000000  0.25474577  0.00000000  1
  O  O31  1  0.50000000  0.74525423  -0.00000000  1
