# generated using pymatgen
data_TeAsIr
_symmetry_space_group_name_H-M   'P 1'
_cell_length_a   6.20717564
_cell_length_b   6.20717564
_cell_length_c   6.20717564
_cell_angle_alpha   90.00000000
_cell_angle_beta   90.00000000
_cell_angle_gamma   90.00000000
_symmetry_Int_Tables_number   1
_chemical_formula_structural   TeAsIr
_chemical_formula_sum   'Te4 As4 Ir4'
_cell_volume   239.15645288
_cell_formula_units_Z   4
loop_
 _symmetry_equiv_pos_site_id
 _symmetry_equiv_pos_as_xyz
  1  'x, y, z'
loop_
 _atom_site_type_symbol
 _atom_site_label
 _atom_site_symmetry_multiplicity
 _atom_site_fract_x
 _atom_site_fract_y
 _atom_site_fract_z
 _atom_site_occupancy
  Te  Te0  1  0.12150119  0.62150119  0.87849881  1
  Te  Te1  1  0.62150119  0.87849881  0.12150119  1
  Te  Te2  1  0.87849881  0.12150119  0.62150119  1
  Te  Te3  1  0.37849881  0.37849881  0.37849881  1
  As  As4  1  0.87767530  0.37767530  0.12232470  1
  As  As5  1  0.37767530  0.12232470  0.87767530  1
  As  As6  1  0.12232470  0.87767530  0.37767530  1
  As  As7  1  0.62232470  0.62232470  0.62232470  1
  Ir  Ir8  1  0.48914754  0.98914754  0.51085246  1
  Ir  Ir9  1  0.98914754  0.51085246  0.48914754  1
  Ir  Ir10  1  0.51085246  0.48914754  0.98914754  1
  Ir  Ir11  1  0.01085246  0.01085246  0.01085246  1
