# generated using pymatgen
data_Bi2Se3O10
_symmetry_space_group_name_H-M   'P 1'
_cell_length_a   8.78964127
_cell_length_b   8.78964127
_cell_length_c   8.05229048
_cell_angle_alpha   69.56897879
_cell_angle_beta   69.56897879
_cell_angle_gamma   50.72166489
_symmetry_Int_Tables_number   1
_chemical_formula_structural   Bi2Se3O10
_chemical_formula_sum   'Bi4 Se6 O20'
_cell_volume   444.17319494
_cell_formula_units_Z   2
loop_
 _symmetry_equiv_pos_site_id
 _symmetry_equiv_pos_as_xyz
  1  'x, y, z'
loop_
 _atom_site_type_symbol
 _atom_site_label
 _atom_site_symmetry_multiplicity
 _atom_site_fract_x
 _atom_site_fract_y
 _atom_site_fract_z
 _atom_site_occupancy
  Bi  Bi0  1  0.83101286  0.53139047  0.85097842  1
  Bi  Bi1  1  0.46860953  0.16898714  0.64902158  1
  Bi  Bi2  1  0.16898714  0.46860953  0.14902158  1
  Bi  Bi3  1  0.53139047  0.83101286  0.35097842  1
  Se  Se4  1  0.94813295  0.80194867  0.46705056  1
  Se  Se5  1  0.19805133  0.05186705  0.03294944  1
  Se  Se6  1  0.05186705  0.19805133  0.53294944  1
  Se  Se7  1  0.80194867  0.94813295  0.96705056  1
  Se  Se8  1  0.60959530  0.39040470  0.25000000  1
  Se  Se9  1  0.39040470  0.60959530  0.75000000  1
  O  O10  1  0.74873859  0.29083087  0.06621921  1
  O  O11  1  0.70916913  0.25126141  0.43378079  1
  O  O12  1  0.25126141  0.70916913  0.93378079  1
  O  O13  1  0.29083087  0.74873859  0.56621921  1
  O  O14  1  0.39397848  0.41856393  0.30624759  1
  O  O15  1  0.58143607  0.60602152  0.19375241  1
  O  O16  1  0.60602152  0.58143607  0.69375241  1
  O  O17  1  0.41856393  0.39397848  0.80624759  1
  O  O18  1  0.04025605  0.57906097  0.61246359  1
  O  O19  1  0.42093903  0.95974395  0.88753641  1
  O  O20  1  0.95974395  0.42093903  0.38753641  1
  O  O21  1  0.57906097  0.04025605  0.11246359  1
  O  O22  1  -0.00246590  0.74487601  0.26439991  1
  O  O23  1  0.25512399  0.00246590  0.23560009  1
  O  O24  1  0.00246590  0.25512399  0.73560009  1
  O  O25  1  0.74487601  -0.00246590  0.76439991  1
  O  O26  1  0.69412719  0.89382534  0.51822702  1
  O  O27  1  0.10617466  0.30587281  0.98177298  1
  O  O28  1  0.30587281  0.10617466  0.48177298  1
  O  O29  1  0.89382534  0.69412719  0.01822702  1
