# generated using pymatgen
data_Sr3V2O8
_symmetry_space_group_name_H-M   'P 1'
_cell_length_a   7.46402992
_cell_length_b   7.46403061
_cell_length_c   7.46402953
_cell_angle_alpha   44.22675936
_cell_angle_beta   44.22675018
_cell_angle_gamma   44.22676373
_symmetry_Int_Tables_number   1
_chemical_formula_structural   Sr3V2O8
_chemical_formula_sum   'Sr3 V2 O8'
_cell_volume   183.83545087
_cell_formula_units_Z   1
loop_
 _symmetry_equiv_pos_site_id
 _symmetry_equiv_pos_as_xyz
  1  'x, y, z'
loop_
 _atom_site_type_symbol
 _atom_site_label
 _atom_site_symmetry_multiplicity
 _atom_site_fract_x
 _atom_site_fract_y
 _atom_site_fract_z
 _atom_site_occupancy
  Sr  Sr0  1  0.79815518  0.79815518  0.79815518  1
  Sr  Sr1  1  0.20184482  0.20184482  0.20184482  1
  Sr  Sr2  1  -0.00000000  0.00000000  -0.00000000  1
  V  V3  1  0.59394380  0.59394380  0.59394380  1
  V  V4  1  0.40605620  0.40605620  0.40605620  1
  O  O5  1  0.73155248  0.23228685  0.73155248  1
  O  O6  1  0.23228685  0.73155248  0.73155248  1
  O  O7  1  0.73155248  0.73155248  0.23228685  1
  O  O8  1  0.26844752  0.76771315  0.26844752  1
  O  O9  1  0.76771315  0.26844752  0.26844752  1
  O  O10  1  0.32162850  0.32162850  0.32162850  1
  O  O11  1  0.67837150  0.67837150  0.67837150  1
  O  O12  1  0.26844752  0.26844752  0.76771315  1
