# generated using pymatgen
data_Cs2CdGe3S8
_symmetry_space_group_name_H-M   'P 1'
_cell_length_a   7.56961558
_cell_length_b   12.97401136
_cell_length_c   17.33072556
_cell_angle_alpha   90.00000000
_cell_angle_beta   90.00000000
_cell_angle_gamma   90.00000000
_symmetry_Int_Tables_number   1
_chemical_formula_structural   Cs2CdGe3S8
_chemical_formula_sum   'Cs8 Cd4 Ge12 S32'
_cell_volume   1702.02072285
_cell_formula_units_Z   4
loop_
 _symmetry_equiv_pos_site_id
 _symmetry_equiv_pos_as_xyz
  1  'x, y, z'
loop_
 _atom_site_type_symbol
 _atom_site_label
 _atom_site_symmetry_multiplicity
 _atom_site_fract_x
 _atom_site_fract_y
 _atom_site_fract_z
 _atom_site_occupancy
  Cs  Cs0  1  0.74763374  0.36720303  0.55459677  1
  Cs  Cs1  1  0.75236626  0.63279697  0.05459677  1
  Cs  Cs2  1  0.24763374  0.13279697  0.44540323  1
  Cs  Cs3  1  0.25236626  0.86720303  0.94540323  1
  Cs  Cs4  1  0.23071608  0.19470928  0.84820967  1
  Cs  Cs5  1  0.26928392  0.80529072  0.34820967  1
  Cs  Cs6  1  0.73071608  0.30529072  0.15179033  1
  Cs  Cs7  1  0.76928392  0.69470928  0.65179033  1
  Cd  Cd8  1  0.52756960  0.50143246  0.84822605  1
  Cd  Cd9  1  0.97243040  0.49856754  0.34822605  1
  Cd  Cd10  1  0.02756960  0.99856754  0.15177395  1
  Cd  Cd11  1  0.47243040  0.00143246  0.65177395  1
  Ge  Ge12  1  0.46930723  0.47065648  0.34613311  1
  Ge  Ge13  1  0.03069277  0.52934352  0.84613311  1
  Ge  Ge14  1  0.96930723  0.02934352  0.65386689  1
  Ge  Ge15  1  0.53069277  0.97065648  0.15386689  1
  Ge  Ge16  1  0.26127939  0.44631658  0.01750539  1
  Ge  Ge17  1  0.23872061  0.55368342  0.51750539  1
  Ge  Ge18  1  0.76127939  0.05368342  0.98249461  1
  Ge  Ge19  1  0.73872061  0.94631658  0.48249461  1
  Ge  Ge20  1  0.26850145  0.45285781  0.67713229  1
  Ge  Ge21  1  0.23149855  0.54714219  0.17713229  1
  Ge  Ge22  1  0.76850145  0.04714219  0.32286771  1
  Ge  Ge23  1  0.73149855  0.95285781  0.82286771  1
  S  S24  1  0.50105113  0.38395569  0.72976185  1
  S  S25  1  0.99894887  0.61604431  0.22976185  1
  S  S26  1  0.00105113  0.11604431  0.27023815  1
  S  S27  1  0.49894887  0.88395569  0.77023815  1
  S  S28  1  0.98785391  0.92354745  0.76042832  1
  S  S29  1  0.51214609  0.07645255  0.26042832  1
  S  S30  1  0.48785391  0.57645255  0.23957168  1
  S  S31  1  0.01214609  0.42354745  0.73957168  1
  S  S32  1  0.73445198  0.12696272  0.65604719  1
  S  S33  1  0.76554802  0.87303728  0.15604719  1
  S  S34  1  0.23445198  0.37303728  0.34395281  1
  S  S35  1  0.26554802  0.62696272  0.84395281  1
  S  S36  1  0.20974840  0.12530494  0.65015531  1
  S  S37  1  0.29025160  0.87469506  0.15015531  1
  S  S38  1  0.70974840  0.37469506  0.34984469  1
  S  S39  1  0.79025160  0.62530494  0.84984469  1
  S  S40  1  0.00666778  0.11338658  0.03080852  1
  S  S41  1  0.49333222  0.88661342  0.53080852  1
  S  S42  1  0.50666778  0.38661342  0.96919148  1
  S  S43  1  0.99333222  0.61338658  0.46919148  1
  S  S44  1  0.98422896  0.91484916  0.55224171  1
  S  S45  1  0.51577104  0.08515084  0.05224171  1
  S  S46  1  0.48422896  0.58515084  0.44775829  1
  S  S47  1  0.01577104  0.41484916  0.94775829  1
  S  S48  1  0.23191504  0.38490687  0.55659498  1
  S  S49  1  0.26808496  0.61509313  0.05659498  1
  S  S50  1  0.73191504  0.11509313  0.44340502  1
  S  S51  1  0.76808496  0.88490687  0.94340502  1
  S  S52  1  0.21361533  0.37902854  0.13674371  1
  S  S53  1  0.28638467  0.62097146  0.63674371  1
  S  S54  1  0.71361533  0.12097146  0.86325629  1
  S  S55  1  0.78638467  0.87902854  0.36325629  1
