# generated using pymatgen
data_MgZr2H10(S3O14)2
_symmetry_space_group_name_H-M   'P 1'
_cell_length_a   5.27360187
_cell_length_b   9.21504658
_cell_length_c   12.66306834
_cell_angle_alpha   94.23061623
_cell_angle_beta   90.34825717
_cell_angle_gamma   95.76877866
_symmetry_Int_Tables_number   1
_chemical_formula_structural   MgZr2H10(S3O14)2
_chemical_formula_sum   'Mg1 Zr2 H10 S6 O28'
_cell_volume   610.53935826
_cell_formula_units_Z   1
loop_
 _symmetry_equiv_pos_site_id
 _symmetry_equiv_pos_as_xyz
  1  'x, y, z'
loop_
 _atom_site_type_symbol
 _atom_site_label
 _atom_site_symmetry_multiplicity
 _atom_site_fract_x
 _atom_site_fract_y
 _atom_site_fract_z
 _atom_site_occupancy
  Mg  Mg0  1  0.21616979  0.10953006  0.42983970  1
  Zr  Zr1  1  0.77913764  0.88522968  0.82386247  1
  Zr  Zr2  1  0.23706300  0.11421416  0.16453211  1
  H  H3  1  0.44965700  0.64968019  0.55338659  1
  H  H4  1  0.53658244  0.33843186  0.45527630  1
  H  H5  1  0.27546958  0.79513772  0.53034134  1
  H  H6  1  0.66972161  0.18814138  0.47374685  1
  H  H7  1  0.44803408  0.73503845  0.43482055  1
  H  H8  1  0.48485279  0.23398085  0.61419589  1
  H  H9  1  0.11381492  0.39849970  0.82777395  1
  H  H10  1  0.87319585  0.61116464  0.18037908  1
  H  H11  1  0.30853200  0.44424033  0.91678186  1
  H  H12  1  0.70128651  0.55776396  0.08515145  1
  S  S13  1  0.76017409  0.61226565  0.69988814  1
  S  S14  1  0.29328476  0.39729553  0.28917878  1
  S  S15  1  0.29781985  0.04089849  0.67678780  1
  S  S16  1  0.70874748  0.96254665  0.32700099  1
  S  S17  1  0.27204306  0.80265674  0.99513139  1
  S  S18  1  0.74796105  0.20168934  0.99666278  1
  O  O19  1  0.90775929  0.76175243  0.68178127  1
  O  O20  1  0.14044017  0.24619489  0.31714641  1
  O  O21  1  0.57486822  0.56859115  0.61167449  1
  O  O22  1  0.48543589  0.44238326  0.37241634  1
  O  O23  1  0.92339878  0.49968275  0.71418974  1
  O  O24  1  0.11850383  0.50198264  0.27134469  1
  O  O25  1  0.61991794  0.66003010  0.80038708  1
  O  O26  1  0.41562898  0.33563412  0.18897499  1
  O  O27  1  0.25014785  0.99607209  0.56192384  1
  O  O28  1  0.83308641  0.04584592  0.42531126  1
  O  O29  1  0.06248824  0.03946670  0.73657941  1
  O  O30  1  0.88167066  0.98618211  0.23745929  1
  O  O31  1  0.42353035  0.19837138  0.68656077  1
  O  O32  1  0.64083738  0.81096329  0.34504306  1
  O  O33  1  0.47505434  0.94465348  0.71914013  1
  O  O34  1  0.46128889  0.03637195  0.30804443  1
  O  O35  1  0.07405027  0.84773568  0.91747831  1
  O  O36  1  0.97473376  0.17533792  0.06741796  1
  O  O37  1  0.77437738  0.11123252  0.89634992  1
  O  O38  1  0.23573472  0.89240798  0.09667906  1
  O  O39  1  0.24283302  0.64950256  0.00595569  1
  O  O40  1  0.73722461  0.35318379  0.98558665  1
  O  O41  1  0.52209957  0.85860700  0.95029281  1
  O  O42  1  0.52372688  0.13025303  0.05379519  1
  O  O43  1  0.24403882  0.36010216  0.86976256  1
  O  O44  1  0.73235034  0.63919838  0.13871062  1
  O  O45  1  0.33803888  0.70601703  0.49603785  1
  O  O46  1  0.52568704  0.24526733  0.49630115  1
