# generated using pymatgen
data_Rb3GeF7
_symmetry_space_group_name_H-M   'P 1'
_cell_length_a   8.00489959
_cell_length_b   8.00489959
_cell_length_c   5.87822720
_cell_angle_alpha   90.00000000
_cell_angle_beta   90.00000000
_cell_angle_gamma   90.00000000
_symmetry_Int_Tables_number   1
_chemical_formula_structural   Rb3GeF7
_chemical_formula_sum   'Rb6 Ge2 F14'
_cell_volume   376.66749636
_cell_formula_units_Z   2
loop_
 _symmetry_equiv_pos_site_id
 _symmetry_equiv_pos_as_xyz
  1  'x, y, z'
loop_
 _atom_site_type_symbol
 _atom_site_label
 _atom_site_symmetry_multiplicity
 _atom_site_fract_x
 _atom_site_fract_y
 _atom_site_fract_z
 _atom_site_occupancy
  Rb  Rb0  1  0.69135128  0.19135128  0.50000000  1
  Rb  Rb1  1  0.30864872  0.80864872  0.50000000  1
  Rb  Rb2  1  0.19135128  0.30864872  0.50000000  1
  Rb  Rb3  1  0.80864872  0.69135128  0.50000000  1
  Rb  Rb4  1  0.00000000  -0.00000000  0.00000000  1
  Rb  Rb5  1  0.50000000  0.50000000  0.00000000  1
  Ge  Ge6  1  0.50000000  -0.00000000  0.00000000  1
  Ge  Ge7  1  0.00000000  0.50000000  0.00000000  1
  F  F8  1  0.11170514  0.61170514  0.22013577  1
  F  F9  1  0.88829486  0.38829486  0.77986423  1
  F  F10  1  0.88829486  0.38829486  0.22013577  1
  F  F11  1  0.61170514  0.88829486  0.22013577  1
  F  F12  1  0.61170514  0.88829486  0.77986423  1
  F  F13  1  0.11170514  0.61170514  0.77986423  1
  F  F14  1  0.38829486  0.11170514  0.77986423  1
  F  F15  1  0.38829486  0.11170514  0.22013577  1
  F  F16  1  0.65958161  0.15958161  0.00000000  1
  F  F17  1  0.34041839  0.84041839  0.00000000  1
  F  F18  1  0.15958161  0.34041839  0.00000000  1
  F  F19  1  0.84041839  0.65958161  0.00000000  1
  F  F20  1  0.00000000  -0.00000000  0.50000000  1
  F  F21  1  0.50000000  0.50000000  0.50000000  1
