# generated using pymatgen
data_Ta2Mo2O11
_symmetry_space_group_name_H-M   'P 1'
_cell_length_a   9.16603380
_cell_length_b   9.16603380
_cell_length_c   9.16603379
_cell_angle_alpha   35.89214102
_cell_angle_beta   35.89214102
_cell_angle_gamma   35.89213421
_symmetry_Int_Tables_number   1
_chemical_formula_structural   Ta2Mo2O11
_chemical_formula_sum   'Ta2 Mo2 O11'
_cell_volume   236.69533383
_cell_formula_units_Z   1
loop_
 _symmetry_equiv_pos_site_id
 _symmetry_equiv_pos_as_xyz
  1  'x, y, z'
loop_
 _atom_site_type_symbol
 _atom_site_label
 _atom_site_symmetry_multiplicity
 _atom_site_fract_x
 _atom_site_fract_y
 _atom_site_fract_z
 _atom_site_occupancy
  Ta  Ta0  1  0.37206513  0.37206513  0.37206513  1
  Ta  Ta1  1  0.62793487  0.62793487  0.62793487  1
  Mo  Mo2  1  0.11276318  0.11276318  0.11276318  1
  Mo  Mo3  1  0.88723682  0.88723682  0.88723682  1
  O  O4  1  0.73972464  0.25378818  0.73972464  1
  O  O5  1  0.25378818  0.73972464  0.73972464  1
  O  O6  1  0.73972464  0.73972464  0.25378818  1
  O  O7  1  0.74621182  0.26027536  0.26027536  1
  O  O8  1  0.26027536  0.74621182  0.26027536  1
  O  O9  1  0.26027536  0.26027536  0.74621182  1
  O  O10  1  0.17878386  0.17878386  0.17878386  1
  O  O11  1  0.82121614  0.82121614  0.82121614  1
  O  O12  1  0.50000000  0.50000000  0.00000000  1
  O  O13  1  0.50000000  0.00000000  0.50000000  1
  O  O14  1  0.00000000  0.50000000  0.50000000  1
