# generated using pymatgen
data_Sr2MgV2(Si2O7)2
_symmetry_space_group_name_H-M   'P 1'
_cell_length_a   5.54378284
_cell_length_b   7.28790333
_cell_length_c   7.88462088
_cell_angle_alpha   93.10598826
_cell_angle_beta   110.58256465
_cell_angle_gamma   90.00000243
_symmetry_Int_Tables_number   1
_chemical_formula_structural   Sr2MgV2(Si2O7)2
_chemical_formula_sum   'Sr2 Mg1 V2 Si4 O14'
_cell_volume   297.72419144
_cell_formula_units_Z   1
loop_
 _symmetry_equiv_pos_site_id
 _symmetry_equiv_pos_as_xyz
  1  'x, y, z'
loop_
 _atom_site_type_symbol
 _atom_site_label
 _atom_site_symmetry_multiplicity
 _atom_site_fract_x
 _atom_site_fract_y
 _atom_site_fract_z
 _atom_site_occupancy
  Sr  Sr0  1  0.19685900  0.76982800  0.38802000  1
  Sr  Sr1  1  0.80883900  0.23017200  0.61198000  1
  Mg  Mg2  1  0.12677500  0.50000000  0.00000000  1
  V  V3  1  0.87337400  0.76476800  0.77129500  1
  V  V4  1  0.10207900  0.23523200  0.22870500  1
  Si  Si5  1  0.40633400  0.46972700  0.77803200  1
  Si  Si6  1  0.62830100  0.53027300  0.22196800  1
  Si  Si7  1  0.60571700  0.97555000  0.21661100  1
  Si  Si8  1  0.38910700  0.02445000  0.78338900  1
  O  O9  1  0.64369000  0.75572200  0.27378800  1
  O  O10  1  0.36990200  0.24427800  0.72621200  1
  O  O11  1  0.52863600  0.50000000  0.00000000  1
  O  O12  1  0.50093900  0.00000000  0.00000000  1
  O  O13  1  0.58796100  0.55588900  0.68021800  1
  O  O14  1  0.90774200  0.44411100  0.31978200  1
  O  O15  1  0.40552600  0.06216100  0.30860100  1
  O  O16  1  0.09692500  0.93783900  0.69139900  1
  O  O17  1  0.98478000  0.25618500  0.98097200  1
  O  O18  1  0.00380900  0.74381500  0.01902800  1
  O  O19  1  0.89520900  0.06009600  0.31654400  1
  O  O20  1  0.57866500  0.93990400  0.68345600  1
  O  O21  1  0.11226300  0.53997300  0.73444300  1
  O  O22  1  0.37782000  0.46002700  0.26555700  1
