# generated using pymatgen
data_Nd10Se19
_symmetry_space_group_name_H-M   'P 1'
_cell_length_a   9.32667970
_cell_length_b   9.32667970
_cell_length_c   17.00037083
_cell_angle_alpha   90.00000000
_cell_angle_beta   90.00000000
_cell_angle_gamma   90.00000000
_symmetry_Int_Tables_number   1
_chemical_formula_structural   Nd10Se19
_chemical_formula_sum   'Nd20 Se38'
_cell_volume   1478.81047923
_cell_formula_units_Z   2
loop_
 _symmetry_equiv_pos_site_id
 _symmetry_equiv_pos_as_xyz
  1  'x, y, z'
loop_
 _atom_site_type_symbol
 _atom_site_label
 _atom_site_symmetry_multiplicity
 _atom_site_fract_x
 _atom_site_fract_y
 _atom_site_fract_z
 _atom_site_occupancy
  Nd  Nd0  1  0.25000000  0.75000000  0.11602687  1
  Nd  Nd1  1  0.25000000  0.75000000  0.61602687  1
  Nd  Nd2  1  0.75000000  0.25000000  0.88397313  1
  Nd  Nd3  1  0.75000000  0.25000000  0.38397313  1
  Nd  Nd4  1  0.55365883  0.64767908  0.89482091  1
  Nd  Nd5  1  0.35232092  0.05365883  0.39482091  1
  Nd  Nd6  1  0.14767908  0.44634117  0.39482091  1
  Nd  Nd7  1  0.94634117  0.85232092  0.89482091  1
  Nd  Nd8  1  0.44634117  0.35232092  0.10517909  1
  Nd  Nd9  1  0.64767908  0.94634117  0.60517909  1
  Nd  Nd10  1  0.85232092  0.55365883  0.60517909  1
  Nd  Nd11  1  0.05365883  0.14767908  0.10517909  1
  Nd  Nd12  1  0.45702056  0.34715384  0.62034021  1
  Nd  Nd13  1  0.65284616  0.95702156  0.12034021  1
  Nd  Nd14  1  0.84715384  0.54297844  0.12034021  1
  Nd  Nd15  1  0.04297844  0.15284616  0.62034021  1
  Nd  Nd16  1  0.54297844  0.65284616  0.37965979  1
  Nd  Nd17  1  0.34715384  0.04297844  0.87965979  1
  Nd  Nd18  1  0.15284616  0.45702056  0.87965979  1
  Nd  Nd19  1  0.95702156  0.84715384  0.37965979  1
  Se  Se20  1  0.75000000  0.25000000  0.06489391  1
  Se  Se21  1  0.75000000  0.25000000  0.56489391  1
  Se  Se22  1  0.25000000  0.75000000  0.93510609  1
  Se  Se23  1  0.25000000  0.75000000  0.43510609  1
  Se  Se24  1  0.85071742  0.55288217  0.93725391  1
  Se  Se25  1  0.44711783  0.35071742  0.43725391  1
  Se  Se26  1  0.05288217  0.14928258  0.43725391  1
  Se  Se27  1  0.64928258  0.94711783  0.93725391  1
  Se  Se28  1  0.14928258  0.44711783  0.06274609  1
  Se  Se29  1  0.55288217  0.64928258  0.56274609  1
  Se  Se30  1  0.94711783  0.85071742  0.56274609  1
  Se  Se31  1  0.35071742  0.05288217  0.06274609  1
  Se  Se32  1  0.45133387  0.34782976  0.92837223  1
  Se  Se33  1  0.65217024  0.95133387  0.42837223  1
  Se  Se34  1  0.84782976  0.54866613  0.42837223  1
  Se  Se35  1  0.04866613  0.15217024  0.92837223  1
  Se  Se36  1  0.54866613  0.65217024  0.07162777  1
  Se  Se37  1  0.34782976  0.04866613  0.57162777  1
  Se  Se38  1  0.15217024  0.45133387  0.57162777  1
  Se  Se39  1  0.95133387  0.84782976  0.07162777  1
  Se  Se40  1  0.88285517  0.06824352  0.24956921  1
  Se  Se41  1  0.93175648  0.38285517  0.74956921  1
  Se  Se42  1  0.56824352  0.11714483  0.74956921  1
  Se  Se43  1  0.61714483  0.43175648  0.24956921  1
  Se  Se44  1  0.11714483  0.93175648  0.75043079  1
  Se  Se45  1  0.06824352  0.61714483  0.25043079  1
  Se  Se46  1  0.43175648  0.88285517  0.25043079  1
  Se  Se47  1  0.38285517  0.56824352  0.75043079  1
  Se  Se48  1  0.97148078  0.32429571  0.25028892  1
  Se  Se49  1  0.67570429  0.47148078  0.75028892  1
  Se  Se50  1  0.82429571  0.02851922  0.75028892  1
  Se  Se51  1  0.52851922  0.17570429  0.25028892  1
  Se  Se52  1  0.02851922  0.67570429  0.74971108  1
  Se  Se53  1  0.32429571  0.52851922  0.24971108  1
  Se  Se54  1  0.17570429  0.97148078  0.24971108  1
  Se  Se55  1  0.47148078  0.82429571  0.74971108  1
  Se  Se56  1  0.75000000  0.75000000  0.25000000  1
  Se  Se57  1  0.25000000  0.25000000  0.75000000  1
