# generated using pymatgen
data_KMg14SbO16
_symmetry_space_group_name_H-M   'P 1'
_cell_length_a   8.72876021
_cell_length_b   8.82505939
_cell_length_c   4.45312719
_cell_angle_alpha   90.00000000
_cell_angle_beta   90.00000000
_cell_angle_gamma   90.00000000
_symmetry_Int_Tables_number   1
_chemical_formula_structural   KMg14SbO16
_chemical_formula_sum   'K1 Mg14 Sb1 O16'
_cell_volume   343.03252444
_cell_formula_units_Z   1
loop_
 _symmetry_equiv_pos_site_id
 _symmetry_equiv_pos_as_xyz
  1  'x, y, z'
loop_
 _atom_site_type_symbol
 _atom_site_label
 _atom_site_symmetry_multiplicity
 _atom_site_fract_x
 _atom_site_fract_y
 _atom_site_fract_z
 _atom_site_occupancy
  K  K0  1  -0.00000000  0.00000000  0.00000000  1
  Mg  Mg1  1  0.50000000  0.00000000  0.00000000  1
  Mg  Mg2  1  0.50000000  0.50000000  0.00000000  1
  Mg  Mg3  1  -0.00000000  0.23598252  0.50000000  1
  Mg  Mg4  1  -0.00000000  0.76401748  0.50000000  1
  Mg  Mg5  1  0.50000000  0.24704152  0.50000000  1
  Mg  Mg6  1  0.50000000  0.75295848  0.50000000  1
  Mg  Mg7  1  0.25322008  0.00000000  0.50000000  1
  Mg  Mg8  1  0.26144345  0.50000000  0.50000000  1
  Mg  Mg9  1  0.74677992  0.00000000  0.50000000  1
  Mg  Mg10  1  0.73855655  0.50000000  0.50000000  1
  Mg  Mg11  1  0.25868891  0.24226126  -0.00000000  1
  Mg  Mg12  1  0.25868891  0.75773874  -0.00000000  1
  Mg  Mg13  1  0.74131109  0.24226126  0.00000000  1
  Mg  Mg14  1  0.74131109  0.75773874  0.00000000  1
  Sb  Sb15  1  -0.00000000  0.50000000  0.00000000  1
  O  O16  1  0.27608711  0.00000000  0.00000000  1
  O  O17  1  0.26540339  0.50000000  0.00000000  1
  O  O18  1  0.72391289  0.00000000  -0.00000000  1
  O  O19  1  0.73459661  0.50000000  -0.00000000  1
  O  O20  1  0.24970768  0.25152869  0.50000000  1
  O  O21  1  0.24970768  0.74847131  0.50000000  1
  O  O22  1  0.75029232  0.25152869  0.50000000  1
  O  O23  1  0.75029232  0.74847131  0.50000000  1
  O  O24  1  -0.00000000  0.00000000  0.50000000  1
  O  O25  1  -0.00000000  0.50000000  0.50000000  1
  O  O26  1  0.50000000  0.00000000  0.50000000  1
  O  O27  1  0.50000000  0.50000000  0.50000000  1
  O  O28  1  -0.00000000  0.25968911  0.00000000  1
  O  O29  1  -0.00000000  0.74031089  -0.00000000  1
  O  O30  1  0.50000000  0.25428477  0.00000000  1
  O  O31  1  0.50000000  0.74571523  0.00000000  1
