# generated using pymatgen
data_Tl2Se3
_symmetry_space_group_name_H-M   'P 1'
_cell_length_a   7.13865310
_cell_length_b   7.13865310
_cell_length_c   7.59991692
_cell_angle_alpha   70.81770264
_cell_angle_beta   70.81770264
_cell_angle_gamma   53.02448822
_symmetry_Int_Tables_number   1
_chemical_formula_structural   Tl2Se3
_chemical_formula_sum   'Tl4 Se6'
_cell_volume   287.79361487
_cell_formula_units_Z   2
loop_
 _symmetry_equiv_pos_site_id
 _symmetry_equiv_pos_as_xyz
  1  'x, y, z'
loop_
 _atom_site_type_symbol
 _atom_site_label
 _atom_site_symmetry_multiplicity
 _atom_site_fract_x
 _atom_site_fract_y
 _atom_site_fract_z
 _atom_site_occupancy
  Tl  Tl0  1  0.79017137  0.43204897  0.52477253  1
  Tl  Tl1  1  0.56795103  0.20982863  0.97522747  1
  Tl  Tl2  1  0.20982863  0.56795103  0.47522747  1
  Tl  Tl3  1  0.43204897  0.79017137  0.02477253  1
  Se  Se4  1  0.15342986  0.84657014  0.75000000  1
  Se  Se5  1  0.84657014  0.15342986  0.25000000  1
  Se  Se6  1  0.98054825  0.64615341  0.06051329  1
  Se  Se7  1  0.35384659  0.01945175  0.43948671  1
  Se  Se8  1  0.01945175  0.35384659  0.93948671  1
  Se  Se9  1  0.64615341  0.98054825  0.56051329  1
