# generated using pymatgen
data_YTh9MgO20
_symmetry_space_group_name_H-M   'P 1'
_cell_length_a   8.02279905
_cell_length_b   20.05748694
_cell_length_c   10.60873611
_cell_angle_alpha   18.97689796
_cell_angle_beta   55.17228477
_cell_angle_gamma   59.70874387
_symmetry_Int_Tables_number   1
_chemical_formula_structural   YTh9MgO20
_chemical_formula_sum   'Y1 Th9 Mg1 O20'
_cell_volume   451.60794588
_cell_formula_units_Z   1
loop_
 _symmetry_equiv_pos_site_id
 _symmetry_equiv_pos_as_xyz
  1  'x, y, z'
loop_
 _atom_site_type_symbol
 _atom_site_label
 _atom_site_symmetry_multiplicity
 _atom_site_fract_x
 _atom_site_fract_y
 _atom_site_fract_z
 _atom_site_occupancy
  Y  Y0  1  0.00588680  0.01300527  0.97160658  1
  Th  Th1  1  0.01299637  0.20085250  0.97468680  1
  Th  Th2  1  0.49917605  0.99821911  0.00592296  1
  Th  Th3  1  0.02672658  0.43916336  0.93595542  1
  Th  Th4  1  0.50306882  0.20286185  0.98908775  1
  Th  Th5  1  0.00064901  0.60718531  0.98804670  1
  Th  Th6  1  0.49824370  0.40470877  0.99108465  1
  Th  Th7  1  0.01688659  0.78396425  0.02615904  1
  Th  Th8  1  0.51179833  0.60761849  0.97884656  1
  Th  Th9  1  0.50933297  0.81461617  0.97055607  1
  Mg  Mg10  1  0.80918044  0.13926591  0.41960807  1
  O  O11  1  0.12597981  0.14614521  0.25373523  1
  O  O12  1  0.13109400  0.36423776  0.22271076  1
  O  O13  1  0.62648286  0.15934807  0.22028371  1
  O  O14  1  0.36579894  0.05542776  0.74264804  1
  O  O15  1  0.13062718  0.55189812  0.24261985  1
  O  O16  1  0.64181701  0.35463015  0.23038039  1
  O  O17  1  0.38053360  0.25546283  0.73174481  1
  O  O18  1  0.13021768  0.76101361  0.22700593  1
  O  O19  1  0.88019638  0.06272011  0.71228255  1
  O  O20  1  0.13158691  0.95263956  0.24125621  1
  O  O21  1  0.62892375  0.55222760  0.24269639  1
  O  O22  1  0.38001819  0.46274421  0.72537260  1
  O  O23  1  0.88282834  0.25413959  0.73349952  1
  O  O24  1  0.37922102  0.65197508  0.74541147  1
  O  O25  1  0.63438924  0.74519492  0.25720017  1
  O  O26  1  0.62525837  0.95506998  0.23731991  1
  O  O27  1  0.88720745  0.43819900  0.76986580  1
  O  O28  1  0.38110172  0.84794601  0.74975139  1
  O  O29  1  0.88130631  0.66485532  0.72258091  1
  O  O30  1  0.88146556  0.85266412  0.74007376  1
