# generated using pymatgen
data_Sr14(SnAs4)3
_symmetry_space_group_name_H-M   'P 1'
_cell_length_a   9.54624835
_cell_length_b   9.54624910
_cell_length_c   9.54624884
_cell_angle_alpha   86.88408920
_cell_angle_beta   86.88408942
_cell_angle_gamma   86.88408609
_symmetry_Int_Tables_number   1
_chemical_formula_structural   Sr14(SnAs4)3
_chemical_formula_sum   'Sr14 Sn3 As12'
_cell_volume   866.23410698
_cell_formula_units_Z   1
loop_
 _symmetry_equiv_pos_site_id
 _symmetry_equiv_pos_as_xyz
  1  'x, y, z'
loop_
 _atom_site_type_symbol
 _atom_site_label
 _atom_site_symmetry_multiplicity
 _atom_site_fract_x
 _atom_site_fract_y
 _atom_site_fract_z
 _atom_site_occupancy
  Sr  Sr0  1  0.41344114  0.27069153  0.77383149  1
  Sr  Sr1  1  0.77383149  0.41344114  0.27069153  1
  Sr  Sr2  1  0.27069153  0.77383149  0.41344114  1
  Sr  Sr3  1  0.98732365  0.53760454  0.65310527  1
  Sr  Sr4  1  0.65310527  0.98732365  0.53760454  1
  Sr  Sr5  1  0.53760454  0.65310527  0.98732365  1
  Sr  Sr6  1  0.17509929  0.53576558  0.02083843  1
  Sr  Sr7  1  0.02083843  0.17509929  0.53576558  1
  Sr  Sr8  1  0.53576558  0.02083843  0.17509929  1
  Sr  Sr9  1  0.76400009  0.26642357  0.90979768  1
  Sr  Sr10  1  0.90979768  0.76400009  0.26642357  1
  Sr  Sr11  1  0.26642357  0.90979768  0.76400009  1
  Sr  Sr12  1  0.18715947  0.18715947  0.18715947  1
  Sr  Sr13  1  0.40057607  0.40057607  0.40057607  1
  Sn  Sn14  1  0.00027858  0.00027858  0.00027858  1
  Sn  Sn15  1  0.83667803  0.83667803  0.83667803  1
  Sn  Sn16  1  0.60857116  0.60857116  0.60857116  1
  As  As17  1  0.70246857  0.33014731  0.58763774  1
  As  As18  1  0.58763774  0.70246857  0.33014731  1
  As  As19  1  0.33014731  0.58763774  0.70246857  1
  As  As20  1  0.58827638  0.96850626  0.85961182  1
  As  As21  1  0.85961182  0.58827638  0.96850626  1
  As  As22  1  0.96850626  0.85961182  0.58827638  1
  As  As23  1  0.47290732  0.34242938  0.08418188  1
  As  As24  1  0.08418188  0.47290732  0.34242938  1
  As  As25  1  0.34242938  0.08418188  0.47290732  1
  As  As26  1  0.09681102  0.22468170  0.85588505  1
  As  As27  1  0.85588505  0.09681102  0.22468170  1
  As  As28  1  0.22468170  0.85588505  0.09681102  1
