# generated using pymatgen
data_Rb3SbS4
_symmetry_space_group_name_H-M   'P 1'
_cell_length_a   9.61987661
_cell_length_b   9.91535499
_cell_length_c   11.19597319
_cell_angle_alpha   90.00000000
_cell_angle_beta   90.00000000
_cell_angle_gamma   90.00000000
_symmetry_Int_Tables_number   1
_chemical_formula_structural   Rb3SbS4
_chemical_formula_sum   'Rb12 Sb4 S16'
_cell_volume   1067.92221011
_cell_formula_units_Z   4
loop_
 _symmetry_equiv_pos_site_id
 _symmetry_equiv_pos_as_xyz
  1  'x, y, z'
loop_
 _atom_site_type_symbol
 _atom_site_label
 _atom_site_symmetry_multiplicity
 _atom_site_fract_x
 _atom_site_fract_y
 _atom_site_fract_z
 _atom_site_occupancy
  Rb  Rb0  1  0.36002653  0.57860133  0.75000000  1
  Rb  Rb1  1  0.94073907  0.70475284  0.04278360  1
  Rb  Rb2  1  0.05926093  0.29524716  0.54278360  1
  Rb  Rb3  1  0.55926093  0.20475284  0.95721640  1
  Rb  Rb4  1  0.55926093  0.20475284  0.54278360  1
  Rb  Rb5  1  0.05926093  0.29524716  0.95721640  1
  Rb  Rb6  1  0.94073907  0.70475284  0.45721640  1
  Rb  Rb7  1  0.44073907  0.79524716  0.04278360  1
  Rb  Rb8  1  0.63997347  0.42139867  0.25000000  1
  Rb  Rb9  1  0.86002653  0.92139867  0.75000000  1
  Rb  Rb10  1  0.13997347  0.07860133  0.25000000  1
  Rb  Rb11  1  0.44073907  0.79524716  0.45721640  1
  Sb  Sb12  1  0.28002967  0.01754139  0.75000000  1
  Sb  Sb13  1  0.78002967  0.48245861  0.75000000  1
  Sb  Sb14  1  0.21997033  0.51754139  0.25000000  1
  Sb  Sb15  1  0.71997033  0.98245861  0.25000000  1
  S  S16  1  0.84185318  0.03925631  0.42340220  1
  S  S17  1  0.34185318  0.46074369  0.07659780  1
  S  S18  1  0.65814682  0.53925631  0.57659780  1
  S  S19  1  0.15814682  0.96074369  0.92340220  1
  S  S20  1  0.15814682  0.96074369  0.57659780  1
  S  S21  1  0.65814682  0.53925631  0.92340220  1
  S  S22  1  0.34185318  0.46074369  0.42340220  1
  S  S23  1  0.84185318  0.03925631  0.07659780  1
  S  S24  1  0.49812871  0.91014202  0.75000000  1
  S  S25  1  0.99812871  0.58985798  0.75000000  1
  S  S26  1  0.00187129  0.41014202  0.25000000  1
  S  S27  1  0.50187129  0.08985798  0.25000000  1
  S  S28  1  0.31294934  0.25175386  0.75000000  1
  S  S29  1  0.68705066  0.74824614  0.25000000  1
  S  S30  1  0.18705066  0.75175386  0.25000000  1
  S  S31  1  0.81294934  0.24824614  0.75000000  1
