# generated using pymatgen
data_PrVO4
_symmetry_space_group_name_H-M   'P 1'
_cell_length_a   6.16160875
_cell_length_b   6.16160907
_cell_length_c   6.16160984
_cell_angle_alpha   106.08279265
_cell_angle_beta   106.08278756
_cell_angle_gamma   116.48399956
_symmetry_Int_Tables_number   1
_chemical_formula_structural   PrVO4
_chemical_formula_sum   'Pr2 V2 O8'
_cell_volume   178.03090965
_cell_formula_units_Z   2
loop_
 _symmetry_equiv_pos_site_id
 _symmetry_equiv_pos_as_xyz
  1  'x, y, z'
loop_
 _atom_site_type_symbol
 _atom_site_label
 _atom_site_symmetry_multiplicity
 _atom_site_fract_x
 _atom_site_fract_y
 _atom_site_fract_z
 _atom_site_occupancy
  Pr  Pr0  1  0.87500000  0.12500000  0.75000000  1
  Pr  Pr1  1  0.12500000  0.87500000  0.25000000  1
  V  V2  1  0.62500000  0.37500000  0.25000000  1
  V  V3  1  0.37500000  0.62500000  0.75000000  1
  O  O4  1  0.79358004  0.36456167  0.07098062  1
  O  O5  1  0.79358004  0.72260042  0.42901938  1
  O  O6  1  0.63543833  0.20641996  0.42901938  1
  O  O7  1  0.20641996  0.27739958  0.57098062  1
  O  O8  1  0.20641996  0.63543833  0.92901938  1
  O  O9  1  0.27739958  0.20641996  0.07098062  1
  O  O10  1  0.72260042  0.79358004  0.92901938  1
  O  O11  1  0.36456167  0.79358004  0.57098062  1
