# generated using pymatgen
data_RbNa8(GaP2)3
_symmetry_space_group_name_H-M   'P 1'
_cell_length_a   4.74266619
_cell_length_b   16.48672918
_cell_length_c   22.45069488
_cell_angle_alpha   90.00000000
_cell_angle_beta   90.00000000
_cell_angle_gamma   90.00000000
_symmetry_Int_Tables_number   1
_chemical_formula_structural   RbNa8(GaP2)3
_chemical_formula_sum   'Rb4 Na32 Ga12 P24'
_cell_volume   1755.44347472
_cell_formula_units_Z   4
loop_
 _symmetry_equiv_pos_site_id
 _symmetry_equiv_pos_as_xyz
  1  'x, y, z'
loop_
 _atom_site_type_symbol
 _atom_site_label
 _atom_site_symmetry_multiplicity
 _atom_site_fract_x
 _atom_site_fract_y
 _atom_site_fract_z
 _atom_site_occupancy
  Rb  Rb0  1  0.25000000  0.80803752  0.50048913  1
  Rb  Rb1  1  0.25000000  0.69196248  0.00048913  1
  Rb  Rb2  1  0.75000000  0.19196248  0.49951087  1
  Rb  Rb3  1  0.75000000  0.30803752  0.99951087  1
  Na  Na4  1  0.25000000  0.03253055  0.55199664  1
  Na  Na5  1  0.25000000  0.46746945  0.05199664  1
  Na  Na6  1  0.75000000  0.96746945  0.44800336  1
  Na  Na7  1  0.75000000  0.53253055  0.94800336  1
  Na  Na8  1  0.25000000  0.35095722  0.55664346  1
  Na  Na9  1  0.25000000  0.14904278  0.05664346  1
  Na  Na10  1  0.75000000  0.64904278  0.44335654  1
  Na  Na11  1  0.75000000  0.85095722  0.94335654  1
  Na  Na12  1  0.25000000  0.92206924  0.68089578  1
  Na  Na13  1  0.25000000  0.57793076  0.18089578  1
  Na  Na14  1  0.75000000  0.07793076  0.31910422  1
  Na  Na15  1  0.75000000  0.42206924  0.81910422  1
  Na  Na16  1  0.25000000  0.69267456  0.68086475  1
  Na  Na17  1  0.25000000  0.80732544  0.18086475  1
  Na  Na18  1  0.75000000  0.30732544  0.31913525  1
  Na  Na19  1  0.75000000  0.19267456  0.81913525  1
  Na  Na20  1  0.25000000  0.45643044  0.69212421  1
  Na  Na21  1  0.25000000  0.04356956  0.19212421  1
  Na  Na22  1  0.75000000  0.54356956  0.30787579  1
  Na  Na23  1  0.75000000  0.95643044  0.80787579  1
  Na  Na24  1  0.25000000  0.80013013  0.83706064  1
  Na  Na25  1  0.25000000  0.69986987  0.33706064  1
  Na  Na26  1  0.75000000  0.19986987  0.16293936  1
  Na  Na27  1  0.75000000  0.30013013  0.66293936  1
  Na  Na28  1  0.25000000  0.58011781  0.84068787  1
  Na  Na29  1  0.25000000  0.91988219  0.34068787  1
  Na  Na30  1  0.75000000  0.41988219  0.15931213  1
  Na  Na31  1  0.75000000  0.08011781  0.65931213  1
  Na  Na32  1  0.25000000  0.94324496  0.03941060  1
  Na  Na33  1  0.25000000  0.55675504  0.53941060  1
  Na  Na34  1  0.75000000  0.05675504  0.96058940  1
  Na  Na35  1  0.75000000  0.44324496  0.46058940  1
  Ga  Ga36  1  0.25000000  0.19083091  0.71641621  1
  Ga  Ga37  1  0.25000000  0.30916909  0.21641621  1
  Ga  Ga38  1  0.75000000  0.80916909  0.28358379  1
  Ga  Ga39  1  0.75000000  0.69083091  0.78358379  1
  Ga  Ga40  1  0.25000000  0.06924291  0.86454852  1
  Ga  Ga41  1  0.25000000  0.43075709  0.36454852  1
  Ga  Ga42  1  0.75000000  0.93075709  0.13545148  1
  Ga  Ga43  1  0.75000000  0.56924291  0.63545148  1
  Ga  Ga44  1  0.25000000  0.30935900  0.87287130  1
  Ga  Ga45  1  0.25000000  0.19064100  0.37287130  1
  Ga  Ga46  1  0.75000000  0.69064100  0.12712870  1
  Ga  Ga47  1  0.75000000  0.80935900  0.62712870  1
  P  P48  1  0.25000000  0.19202941  0.61554622  1
  P  P49  1  0.25000000  0.30797059  0.11554622  1
  P  P50  1  0.75000000  0.80797059  0.38445378  1
  P  P51  1  0.75000000  0.69202941  0.88445378  1
  P  P52  1  0.25000000  0.06431363  0.76150405  1
  P  P53  1  0.25000000  0.43568637  0.26150405  1
  P  P54  1  0.75000000  0.93568637  0.23849595  1
  P  P55  1  0.75000000  0.56431363  0.73849595  1
  P  P56  1  0.25000000  0.31311966  0.76836693  1
  P  P57  1  0.25000000  0.18688034  0.26836693  1
  P  P58  1  0.75000000  0.68688034  0.23163307  1
  P  P59  1  0.75000000  0.81311966  0.73163307  1
  P  P60  1  0.25000000  0.94560579  0.91023106  1
  P  P61  1  0.25000000  0.55439421  0.41023106  1
  P  P62  1  0.75000000  0.05439421  0.08976894  1
  P  P63  1  0.75000000  0.44560579  0.58976894  1
  P  P64  1  0.25000000  0.43418604  0.91708305  1
  P  P65  1  0.25000000  0.06581396  0.41708305  1
  P  P66  1  0.75000000  0.56581396  0.08291695  1
  P  P67  1  0.75000000  0.93418604  0.58291695  1
  P  P68  1  0.25000000  0.18466572  0.92387062  1
  P  P69  1  0.25000000  0.31533428  0.42387062  1
  P  P70  1  0.75000000  0.81533428  0.07612938  1
  P  P71  1  0.75000000  0.68466572  0.57612938  1
