# generated using pymatgen
data_SrHfS3
_symmetry_space_group_name_H-M   'P 1'
_cell_length_a   6.72976646
_cell_length_b   7.08201880
_cell_length_c   9.74143735
_cell_angle_alpha   90.00000000
_cell_angle_beta   90.00000000
_cell_angle_gamma   90.00000000
_symmetry_Int_Tables_number   1
_chemical_formula_structural   SrHfS3
_chemical_formula_sum   'Sr4 Hf4 S12'
_cell_volume   464.28014400
_cell_formula_units_Z   4
loop_
 _symmetry_equiv_pos_site_id
 _symmetry_equiv_pos_as_xyz
  1  'x, y, z'
loop_
 _atom_site_type_symbol
 _atom_site_label
 _atom_site_symmetry_multiplicity
 _atom_site_fract_x
 _atom_site_fract_y
 _atom_site_fract_z
 _atom_site_occupancy
  Sr  Sr0  1  0.02341001  0.42285347  0.25000000  1
  Sr  Sr1  1  0.97658999  0.57714653  0.75000000  1
  Sr  Sr2  1  0.52341001  0.07714653  0.75000000  1
  Sr  Sr3  1  0.47658999  0.92285347  0.25000000  1
  Hf  Hf4  1  0.00000000  -0.00000000  0.00000000  1
  Hf  Hf5  1  0.50000000  0.50000000  0.00000000  1
  Hf  Hf6  1  0.00000000  -0.00000000  0.50000000  1
  Hf  Hf7  1  0.50000000  0.50000000  0.50000000  1
  S  S8  1  0.30583525  0.19838587  0.04732977  1
  S  S9  1  0.69416475  0.80161413  0.95266923  1
  S  S10  1  0.80583525  0.30161413  0.95266923  1
  S  S11  1  0.69416475  0.80161413  0.54733077  1
  S  S12  1  0.19416475  0.69838587  0.04732977  1
  S  S13  1  0.30583525  0.19838587  0.45266923  1
  S  S14  1  0.19416475  0.69838587  0.45266923  1
  S  S15  1  0.80583525  0.30161413  0.54733077  1
  S  S16  1  0.59283541  0.51668766  0.25000000  1
  S  S17  1  0.40716459  0.48331234  0.75000000  1
  S  S18  1  0.09283541  0.98331234  0.75000000  1
  S  S19  1  0.90716459  0.01668766  0.25000000  1
