# generated using pymatgen
data_Mg2SnS4
_symmetry_space_group_name_H-M   'P 1'
_cell_length_a   6.24206909
_cell_length_b   7.54144427
_cell_length_c   12.99954770
_cell_angle_alpha   90.00000000
_cell_angle_beta   90.00000000
_cell_angle_gamma   90.00000000
_symmetry_Int_Tables_number   1
_chemical_formula_structural   Mg2SnS4
_chemical_formula_sum   'Mg8 Sn4 S16'
_cell_volume   611.94351856
_cell_formula_units_Z   4
loop_
 _symmetry_equiv_pos_site_id
 _symmetry_equiv_pos_as_xyz
  1  'x, y, z'
loop_
 _atom_site_type_symbol
 _atom_site_label
 _atom_site_symmetry_multiplicity
 _atom_site_fract_x
 _atom_site_fract_y
 _atom_site_fract_z
 _atom_site_occupancy
  Mg  Mg0  1  0.50000000  0.00000000  0.50000000  1
  Mg  Mg1  1  0.00000000  0.50000000  -0.00000000  1
  Mg  Mg2  1  0.50000000  0.50000000  0.50000000  1
  Mg  Mg3  1  0.00000000  0.00000000  -0.00000000  1
  Mg  Mg4  1  0.00531450  0.75000000  0.27015792  1
  Mg  Mg5  1  0.49468550  0.75000000  0.77015792  1
  Mg  Mg6  1  0.99468550  0.25000000  0.72984208  1
  Mg  Mg7  1  0.50531450  0.25000000  0.22984208  1
  Sn  Sn8  1  0.57689937  0.75000000  0.09055008  1
  Sn  Sn9  1  0.92310063  0.75000000  0.59055008  1
  Sn  Sn10  1  0.42310063  0.25000000  0.90944992  1
  Sn  Sn11  1  0.07689937  0.25000000  0.40944992  1
  S  S12  1  0.19838088  0.75000000  0.09203055  1
  S  S13  1  0.30161912  0.75000000  0.59203055  1
  S  S14  1  0.80161912  0.25000000  0.90796945  1
  S  S15  1  0.69838088  0.25000000  0.40796945  1
  S  S16  1  0.75058933  0.75000000  0.92498158  1
  S  S17  1  0.74941067  0.75000000  0.42498158  1
  S  S18  1  0.24941067  0.25000000  0.07501842  1
  S  S19  1  0.25058933  0.25000000  0.57501842  1
  S  S20  1  0.75963598  0.99566972  0.16867891  1
  S  S21  1  0.74036402  0.50433028  0.66867891  1
  S  S22  1  0.24036402  0.49566972  0.83132109  1
  S  S23  1  0.25963598  0.00433028  0.33132109  1
  S  S24  1  0.24036402  0.00433028  0.83132109  1
  S  S25  1  0.25963598  0.49566972  0.33132109  1
  S  S26  1  0.75963598  0.50433028  0.16867891  1
  S  S27  1  0.74036402  0.99566972  0.66867891  1
