# generated using pymatgen
data_RhF6
_symmetry_space_group_name_H-M   'P 1'
_cell_length_a   5.44925701
_cell_length_b   5.44925701
_cell_length_c   5.44925701
_cell_angle_alpha   109.47088917
_cell_angle_beta   109.47112534
_cell_angle_gamma   109.47164739
_symmetry_Int_Tables_number   1
_chemical_formula_structural   RhF6
_chemical_formula_sum   'Rh1 F6'
_cell_volume   124.56326499
_cell_formula_units_Z   1
loop_
 _symmetry_equiv_pos_site_id
 _symmetry_equiv_pos_as_xyz
  1  'x, y, z'
loop_
 _atom_site_type_symbol
 _atom_site_label
 _atom_site_symmetry_multiplicity
 _atom_site_fract_x
 _atom_site_fract_y
 _atom_site_fract_z
 _atom_site_occupancy
  Rh  Rh0  1  0.00000000  0.00000000  0.00000000  1
  F  F1  1  0.70860714  0.70860714  0.00000000  1
  F  F2  1  0.29139286  0.29139286  0.00000000  1
  F  F3  1  0.70860951  0.00000000  0.70860951  1
  F  F4  1  0.29139049  -0.00000000  0.29139049  1
  F  F5  1  0.00000000  0.70861110  0.70861110  1
  F  F6  1  -0.00000000  0.29138890  0.29138890  1
