# generated using pymatgen
data_MgTi3V5O16
_symmetry_space_group_name_H-M   'P 1'
_cell_length_a   5.94849782
_cell_length_b   5.98276789
_cell_length_c   9.23900838
_cell_angle_alpha   90.17547106
_cell_angle_beta   89.85223303
_cell_angle_gamma   120.03512471
_symmetry_Int_Tables_number   1
_chemical_formula_structural   MgTi3V5O16
_chemical_formula_sum   'Mg1 Ti3 V5 O16'
_cell_volume   284.64874755
_cell_formula_units_Z   1
loop_
 _symmetry_equiv_pos_site_id
 _symmetry_equiv_pos_as_xyz
  1  'x, y, z'
loop_
 _atom_site_type_symbol
 _atom_site_label
 _atom_site_symmetry_multiplicity
 _atom_site_fract_x
 _atom_site_fract_y
 _atom_site_fract_z
 _atom_site_occupancy
  Mg  Mg0  1  0.66762200  0.33288600  0.38131200  1
  Ti  Ti1  1  0.16361900  0.83225300  0.19686200  1
  Ti  Ti2  1  0.18166200  0.33447500  0.19742800  1
  Ti  Ti3  1  0.31971900  0.13028400  0.71713400  1
  V  V4  1  0.33357000  0.66905300  0.48726200  1
  V  V5  1  0.66431500  0.83340100  0.19854000  1
  V  V6  1  0.69195700  0.33596700  0.97943200  1
  V  V7  1  0.85039800  0.17722100  0.70119300  1
  V  V8  1  0.80758500  0.66189300  0.71812200  1
  O  O9  1  0.15376500  0.82399800  0.60853400  1
  O  O10  1  0.04166000  0.52468000  0.33355900  1
  O  O11  1  0.32274700  0.66302800  0.09518900  1
  O  O12  1  0.00986300  0.01031800  0.30105400  1
  O  O13  1  0.99739200  0.00099600  0.81450400  1
  O  O14  1  0.16006600  0.33113400  0.60568300  1
  O  O15  1  0.47892100  0.96175600  0.33395800  1
  O  O16  1  0.47603800  0.51363500  0.33282100  1
  O  O17  1  0.35003700  0.17655600  0.09792700  1
  O  O18  1  0.65897500  0.83518900  0.60687700  1
  O  O19  1  0.53094000  0.47931100  0.83834600  1
  O  O20  1  0.53090300  0.05193700  0.83318100  1
  O  O21  1  0.66040000  0.33224800  0.59628200  1
  O  O22  1  0.84133800  0.65881800  0.09583500  1
  O  O23  1  0.95244600  0.47592100  0.83323600  1
  O  O24  1  0.83114700  0.18657100  0.09716500  1
