# generated using pymatgen
data_RbMnO4
_symmetry_space_group_name_H-M   'P 1'
_cell_length_a   5.64370944
_cell_length_b   7.58931327
_cell_length_c   9.49823033
_cell_angle_alpha   90.00000000
_cell_angle_beta   90.00000000
_cell_angle_gamma   90.00000000
_symmetry_Int_Tables_number   1
_chemical_formula_structural   RbMnO4
_chemical_formula_sum   'Rb4 Mn4 O16'
_cell_volume   406.82705169
_cell_formula_units_Z   4
loop_
 _symmetry_equiv_pos_site_id
 _symmetry_equiv_pos_as_xyz
  1  'x, y, z'
loop_
 _atom_site_type_symbol
 _atom_site_label
 _atom_site_symmetry_multiplicity
 _atom_site_fract_x
 _atom_site_fract_y
 _atom_site_fract_z
 _atom_site_occupancy
  Rb  Rb0  1  0.25000000  0.84458439  0.81508888  1
  Rb  Rb1  1  0.75000000  0.15541561  0.18491112  1
  Rb  Rb2  1  0.75000000  0.34458439  0.68491112  1
  Rb  Rb3  1  0.25000000  0.65541561  0.31508888  1
  Mn  Mn4  1  0.25000000  0.30073164  0.94139658  1
  Mn  Mn5  1  0.75000000  0.69926836  0.05860342  1
  Mn  Mn6  1  0.75000000  0.80073164  0.55860342  1
  Mn  Mn7  1  0.25000000  0.19926836  0.44139658  1
  O  O8  1  0.51846509  0.81904768  0.08144053  1
  O  O9  1  0.01846509  0.18095232  0.91855947  1
  O  O10  1  0.48153491  0.31904768  0.41855947  1
  O  O11  1  0.98153491  0.68095232  0.58144053  1
  O  O12  1  0.48153491  0.18095232  0.91855947  1
  O  O13  1  0.98153491  0.81904768  0.08144053  1
  O  O14  1  0.51846509  0.68095232  0.58144053  1
  O  O15  1  0.01846509  0.31904768  0.41855947  1
  O  O16  1  0.25000000  0.04291591  0.32812397  1
  O  O17  1  0.75000000  0.95708409  0.67187603  1
  O  O18  1  0.75000000  0.54291591  0.17187603  1
  O  O19  1  0.25000000  0.45708409  0.82812397  1
  O  O20  1  0.25000000  0.12244781  0.59836072  1
  O  O21  1  0.75000000  0.87755219  0.40163928  1
  O  O22  1  0.75000000  0.62244781  0.90163928  1
  O  O23  1  0.25000000  0.37755219  0.09836072  1
