# generated using pymatgen
data_La7SmCr2(Fe3O10)2
_symmetry_space_group_name_H-M   'P 1'
_cell_length_a   11.07725688
_cell_length_b   11.69139530
_cell_length_c   17.91266034
_cell_angle_alpha   109.07439139
_cell_angle_beta   107.95418396
_cell_angle_gamma   90.02782731
_symmetry_Int_Tables_number   1
_chemical_formula_structural   La7SmCr2(Fe3O10)2
_chemical_formula_sum   'La28 Sm4 Cr8 Fe24 O80'
_cell_volume   2072.44554512
_cell_formula_units_Z   4
loop_
 _symmetry_equiv_pos_site_id
 _symmetry_equiv_pos_as_xyz
  1  'x, y, z'
loop_
 _atom_site_type_symbol
 _atom_site_label
 _atom_site_symmetry_multiplicity
 _atom_site_fract_x
 _atom_site_fract_y
 _atom_site_fract_z
 _atom_site_occupancy
  La  La0  1  0.30018810  0.06388574  0.11367865  1
  La  La1  1  0.30473227  0.06394163  0.61137842  1
  La  La2  1  0.30423418  0.56140772  0.60979136  1
  La  La3  1  0.80788223  0.06397596  0.61156643  1
  La  La4  1  0.80435889  0.56629497  0.11367588  1
  La  La5  1  0.80316518  0.56477988  0.61110580  1
  La  La6  1  0.19436524  0.43367347  0.38798052  1
  La  La7  1  0.18881971  0.43675856  0.88838233  1
  La  La8  1  0.19015986  0.93632907  0.38706908  1
  La  La9  1  0.18998902  0.93454914  0.88580944  1
  La  La10  1  0.69154211  0.43882372  0.38942069  1
  La  La11  1  0.69497791  0.93441372  0.38851681  1
  La  La12  1  0.68994044  0.93517444  0.88642687  1
  La  La13  1  0.05569911  0.29729572  0.11308647  1
  La  La14  1  0.05624091  0.29926297  0.61027440  1
  La  La15  1  0.05336249  0.79813966  0.60969446  1
  La  La16  1  0.55257963  0.29664961  0.11245313  1
  La  La17  1  0.55937856  0.29682901  0.61352675  1
  La  La18  1  0.55123180  0.80024492  0.11513464  1
  La  La19  1  0.55402007  0.79709634  0.61109890  1
  La  La20  1  0.44512140  0.20130770  0.38980468  1
  La  La21  1  0.44236030  0.20369350  0.88807827  1
  La  La22  1  0.44226502  0.70130189  0.38680958  1
  La  La23  1  0.43969284  0.70073914  0.88615000  1
  La  La24  1  0.94125639  0.20288079  0.38720184  1
  La  La25  1  0.94270037  0.20363455  0.88767058  1
  La  La26  1  0.94313941  0.70140384  0.38764941  1
  La  La27  1  0.93901920  0.70021945  0.88627649  1
  Sm  Sm28  1  0.29819185  0.56730209  0.11200594  1
  Sm  Sm29  1  0.80112475  0.06714389  0.11211507  1
  Sm  Sm30  1  0.68922498  0.43319345  0.88866003  1
  Sm  Sm31  1  0.05234323  0.79619522  0.11319549  1
  Cr  Cr32  1  0.00087308  0.99828213  0.00134511  1
  Cr  Cr33  1  0.00003951  0.50144008  0.00091237  1
  Cr  Cr34  1  0.50176441  0.99946847  0.00059125  1
  Cr  Cr35  1  0.50331672  0.99790593  0.49985447  1
  Cr  Cr36  1  0.50137240  0.50192577  0.00088407  1
  Cr  Cr37  1  0.25038220  0.75108270  0.00104136  1
  Cr  Cr38  1  0.75179802  0.24951967  0.00047393  1
  Cr  Cr39  1  0.75178630  0.75099840  0.00125936  1
  Fe  Fe40  1  0.00552068  0.00071335  0.49927269  1
  Fe  Fe41  1  0.00374914  0.50193649  0.49971695  1
  Fe  Fe42  1  0.50361097  0.49887519  0.50000420  1
  Fe  Fe43  1  0.25465768  0.25113162  0.00128881  1
  Fe  Fe44  1  0.25503607  0.24835657  0.49922213  1
  Fe  Fe45  1  0.25409762  0.74891880  0.49934448  1
  Fe  Fe46  1  0.75539188  0.24980456  0.49995620  1
  Fe  Fe47  1  0.75350669  0.75143495  0.50005582  1
  Fe  Fe48  1  0.10878631  0.10119300  0.24978108  1
  Fe  Fe49  1  0.11333601  0.10413517  0.74986589  1
  Fe  Fe50  1  0.11464203  0.60480948  0.25149243  1
  Fe  Fe51  1  0.11058534  0.60134879  0.74747598  1
  Fe  Fe52  1  0.61510280  0.10421850  0.25215551  1
  Fe  Fe53  1  0.61250830  0.10430215  0.75083335  1
  Fe  Fe54  1  0.60911485  0.60295764  0.25010623  1
  Fe  Fe55  1  0.61148236  0.60047855  0.74941982  1
  Fe  Fe56  1  0.36127050  0.39799467  0.24932836  1
  Fe  Fe57  1  0.36341630  0.39625819  0.74869381  1
  Fe  Fe58  1  0.35930828  0.89574463  0.24932578  1
  Fe  Fe59  1  0.36073107  0.89513733  0.74723658  1
  Fe  Fe60  1  0.86214419  0.39644531  0.25078667  1
  Fe  Fe61  1  0.85957901  0.39595859  0.74849531  1
  Fe  Fe62  1  0.86407728  0.89974023  0.25016099  1
  Fe  Fe63  1  0.86105138  0.89695963  0.74834229  1
  O  O64  1  0.11450513  0.11834840  0.47564218  1
  O  O65  1  0.11415836  0.11520523  0.97912931  1
  O  O66  1  0.11276618  0.61787989  0.47726572  1
  O  O67  1  0.11382986  0.61992685  0.98184913  1
  O  O68  1  0.61695794  0.11352882  0.47861859  1
  O  O69  1  0.61414183  0.11791538  0.97987502  1
  O  O70  1  0.61094335  0.61722636  0.47695290  1
  O  O71  1  0.61356290  0.61470557  0.97480345  1
  O  O72  1  0.13756501  0.38837242  0.02303663  1
  O  O73  1  0.13907856  0.38494874  0.52371739  1
  O  O74  1  0.13455061  0.88176717  0.02656565  1
  O  O75  1  0.13893145  0.88569907  0.52174156  1
  O  O76  1  0.63291347  0.38069264  0.01913831  1
  O  O77  1  0.63701481  0.38240130  0.52164351  1
  O  O78  1  0.63933423  0.88637901  0.02542062  1
  O  O79  1  0.63829311  0.88447224  0.52230007  1
  O  O80  1  0.36479908  0.10533970  0.47739110  1
  O  O81  1  0.36575901  0.11056069  0.97950842  1
  O  O82  1  0.36153759  0.60642327  0.47743116  1
  O  O83  1  0.36320975  0.61192356  0.97959873  1
  O  O84  1  0.86776435  0.11288241  0.47790540  1
  O  O85  1  0.86367278  0.10964789  0.98076060  1
  O  O86  1  0.86254237  0.61360257  0.47668735  1
  O  O87  1  0.85965944  0.60799029  0.97533141  1
  O  O88  1  0.38530705  0.39552465  0.02451979  1
  O  O89  1  0.38892355  0.38393121  0.52134408  1
  O  O90  1  0.38448706  0.88886250  0.02131611  1
  O  O91  1  0.38884027  0.88728041  0.52168446  1
  O  O92  1  0.88337352  0.38840593  0.01935674  1
  O  O93  1  0.88643374  0.39175713  0.52142144  1
  O  O94  1  0.88875133  0.89201813  0.02953067  1
  O  O95  1  0.88870354  0.89090410  0.52294952  1
  O  O96  1  0.10512876  0.12185441  0.14574819  1
  O  O97  1  0.09143030  0.11529930  0.63959348  1
  O  O98  1  0.11069375  0.62225270  0.14575738  1
  O  O99  1  0.08868229  0.61386374  0.63791910  1
  O  O100  1  0.61141262  0.12022961  0.14620485  1
  O  O101  1  0.59729365  0.11935904  0.64384918  1
  O  O102  1  0.60842031  0.62242624  0.14537090  1
  O  O103  1  0.58971478  0.61168192  0.63897989  1
  O  O104  1  0.44841629  0.38512266  0.35929739  1
  O  O105  1  0.46611954  0.38009492  0.85438441  1
  O  O106  1  0.45470377  0.87824523  0.35517721  1
  O  O107  1  0.45781749  0.87967052  0.85462307  1
  O  O108  1  0.95248197  0.38765571  0.36164775  1
  O  O109  1  0.96118199  0.38181569  0.85507238  1
  O  O110  1  0.94973623  0.88698792  0.36057991  1
  O  O111  1  0.95808523  0.87958905  0.85519621  1
  O  O112  1  0.34301199  0.27480755  0.13902696  1
  O  O113  1  0.33902034  0.27480693  0.63803504  1
  O  O114  1  0.35303921  0.77218666  0.14338839  1
  O  O115  1  0.34020786  0.77480972  0.63725559  1
  O  O116  1  0.85254307  0.27364369  0.14426412  1
  O  O117  1  0.83691919  0.27665392  0.63758186  1
  O  O118  1  0.86636206  0.77342707  0.14646406  1
  O  O119  1  0.83773093  0.77635150  0.63783090  1
  O  O120  1  0.20169330  0.22032175  0.36070750  1
  O  O121  1  0.20480034  0.22405212  0.86186509  1
  O  O122  1  0.20006682  0.72611215  0.36213254  1
  O  O123  1  0.20629615  0.72333486  0.85519508  1
  O  O124  1  0.70043785  0.22595236  0.36249562  1
  O  O125  1  0.70968284  0.22711048  0.85742618  1
  O  O126  1  0.69966670  0.72226444  0.36098442  1
  O  O127  1  0.70902498  0.72674544  0.85548683  1
  O  O128  1  0.42054428  0.06951219  0.25109656  1
  O  O129  1  0.41773558  0.07040856  0.75040872  1
  O  O130  1  0.41325795  0.56849921  0.24437096  1
  O  O131  1  0.41795574  0.56980312  0.74886874  1
  O  O132  1  0.91251807  0.07146361  0.24552027  1
  O  O133  1  0.92116504  0.07059447  0.75056369  1
  O  O134  1  0.92093279  0.56893992  0.25031705  1
  O  O135  1  0.91711025  0.56889102  0.74852138  1
  O  O136  1  0.16917851  0.43075894  0.25093834  1
  O  O137  1  0.17031894  0.42934287  0.74984714  1
  O  O138  1  0.16377542  0.92626596  0.24575692  1
  O  O139  1  0.16891216  0.93052521  0.74887509  1
  O  O140  1  0.66702730  0.42996108  0.25022252  1
  O  O141  1  0.66968715  0.43039315  0.75556764  1
  O  O142  1  0.67215653  0.93124484  0.25151653  1
  O  O143  1  0.66824364  0.93012467  0.74921823  1
