# generated using pymatgen
data_Rb2HoCl5
_symmetry_space_group_name_H-M   'P 1'
_cell_length_a   7.33178129
_cell_length_b   9.38397612
_cell_length_c   14.71735167
_cell_angle_alpha   90.00000000
_cell_angle_beta   90.00000000
_cell_angle_gamma   90.00000000
_symmetry_Int_Tables_number   1
_chemical_formula_structural   Rb2HoCl5
_chemical_formula_sum   'Rb8 Ho4 Cl20'
_cell_volume   1012.57234674
_cell_formula_units_Z   4
loop_
 _symmetry_equiv_pos_site_id
 _symmetry_equiv_pos_as_xyz
  1  'x, y, z'
loop_
 _atom_site_type_symbol
 _atom_site_label
 _atom_site_symmetry_multiplicity
 _atom_site_fract_x
 _atom_site_fract_y
 _atom_site_fract_z
 _atom_site_occupancy
  Rb  Rb0  1  0.25000000  0.66979668  0.91576338  1
  Rb  Rb1  1  0.75000000  0.33020332  0.08423662  1
  Rb  Rb2  1  0.75000000  0.83020332  0.41576338  1
  Rb  Rb3  1  0.25000000  0.16979668  0.58423662  1
  Rb  Rb4  1  0.25000000  0.96990275  0.20892275  1
  Rb  Rb5  1  0.75000000  0.03009725  0.79107725  1
  Rb  Rb6  1  0.75000000  0.53009725  0.70892275  1
  Rb  Rb7  1  0.25000000  0.46990275  0.29107725  1
  Ho  Ho8  1  0.25000000  0.68875281  0.56352491  1
  Ho  Ho9  1  0.75000000  0.31124719  0.43647509  1
  Ho  Ho10  1  0.75000000  0.81124719  0.06352491  1
  Ho  Ho11  1  0.25000000  0.18875281  0.93647509  1
  Cl  Cl12  1  0.25000000  0.53258725  0.70736209  1
  Cl  Cl13  1  0.75000000  0.46741275  0.29263791  1
  Cl  Cl14  1  0.75000000  0.96741275  0.20736209  1
  Cl  Cl15  1  0.25000000  0.03258725  0.79263791  1
  Cl  Cl16  1  0.50977261  0.85042526  0.61321807  1
  Cl  Cl17  1  0.49022739  0.14957474  0.38678193  1
  Cl  Cl18  1  0.49022739  0.64957474  0.11321807  1
  Cl  Cl19  1  0.00977261  0.14957474  0.38678193  1
  Cl  Cl20  1  0.50977261  0.35042526  0.88678193  1
  Cl  Cl21  1  0.99022739  0.85042526  0.61321807  1
  Cl  Cl22  1  0.99022739  0.35042526  0.88678193  1
  Cl  Cl23  1  0.00977261  0.64957474  0.11321807  1
  Cl  Cl24  1  0.25000000  0.78217745  0.39544191  1
  Cl  Cl25  1  0.75000000  0.21782255  0.60455809  1
  Cl  Cl26  1  0.75000000  0.71782255  0.89544191  1
  Cl  Cl27  1  0.25000000  0.28217745  0.10455809  1
  Cl  Cl28  1  -0.00000000  0.50000000  0.50000000  1
  Cl  Cl29  1  -0.00000000  0.00000000  0.00000000  1
  Cl  Cl30  1  0.50000000  0.50000000  0.50000000  1
  Cl  Cl31  1  0.50000000  0.00000000  0.00000000  1
