# generated using pymatgen
data_AsOsSe
_symmetry_space_group_name_H-M   'P 1'
_cell_length_a   6.09320751
_cell_length_b   6.13118455
_cell_length_c   6.20217030
_cell_angle_alpha   112.36321567
_cell_angle_beta   90.00000000
_cell_angle_gamma   90.00000000
_symmetry_Int_Tables_number   1
_chemical_formula_structural   AsOsSe
_chemical_formula_sum   'As4 Os4 Se4'
_cell_volume   214.27790960
_cell_formula_units_Z   4
loop_
 _symmetry_equiv_pos_site_id
 _symmetry_equiv_pos_as_xyz
  1  'x, y, z'
loop_
 _atom_site_type_symbol
 _atom_site_label
 _atom_site_symmetry_multiplicity
 _atom_site_fract_x
 _atom_site_fract_y
 _atom_site_fract_z
 _atom_site_occupancy
  As  As0  1  0.36743176  0.64381135  0.88139487  1
  As  As1  1  0.63256824  0.35618865  0.11860513  1
  As  As2  1  0.86743176  0.35618865  0.61860513  1
  As  As3  1  0.13256824  0.64381135  0.38139487  1
  Os  Os4  1  0.00295141  0.77397396  0.79406164  1
  Os  Os5  1  0.99704859  0.22602604  0.20593836  1
  Os  Os6  1  0.50295141  0.22602604  0.70593836  1
  Os  Os7  1  0.49704859  0.77397396  0.29406164  1
  Se  Se8  1  0.62790655  0.84130802  0.68831948  1
  Se  Se9  1  0.37209345  0.15869198  0.31168052  1
  Se  Se10  1  0.12790655  0.15869198  0.81168052  1
  Se  Se11  1  0.87209345  0.84130802  0.18831948  1
