# generated using pymatgen
data_Rb5In(MoO4)4
_symmetry_space_group_name_H-M   'P 1'
_cell_length_a   7.99757691
_cell_length_b   11.07458216
_cell_length_c   11.41412336
_cell_angle_alpha   66.22643751
_cell_angle_beta   90.00000000
_cell_angle_gamma   90.00000000
_symmetry_Int_Tables_number   1
_chemical_formula_structural   Rb5In(MoO4)4
_chemical_formula_sum   'Rb10 In2 Mo8 O32'
_cell_volume   925.16376651
_cell_formula_units_Z   2
loop_
 _symmetry_equiv_pos_site_id
 _symmetry_equiv_pos_as_xyz
  1  'x, y, z'
loop_
 _atom_site_type_symbol
 _atom_site_label
 _atom_site_symmetry_multiplicity
 _atom_site_fract_x
 _atom_site_fract_y
 _atom_site_fract_z
 _atom_site_occupancy
  Rb  Rb0  1  0.34530536  0.84460269  0.10427292  1
  Rb  Rb1  1  0.65469464  0.15539731  0.89572708  1
  Rb  Rb2  1  0.34530536  0.65539731  0.89572708  1
  Rb  Rb3  1  0.65469464  0.34460269  0.10427292  1
  Rb  Rb4  1  0.86860510  0.35567802  0.59079227  1
  Rb  Rb5  1  0.13139490  0.64432198  0.40920773  1
  Rb  Rb6  1  0.86860510  0.14432198  0.40920773  1
  Rb  Rb7  1  0.13139490  0.85567802  0.59079227  1
  Rb  Rb8  1  0.61087700  0.75000000  0.50000000  1
  Rb  Rb9  1  0.38912300  0.25000000  0.50000000  1
  In  In10  1  0.91498195  0.75000000  0.00000000  1
  In  In11  1  0.08501805  0.25000000  0.00000000  1
  Mo  Mo12  1  0.65935403  0.55780186  0.28272299  1
  Mo  Mo13  1  0.34064597  0.44219814  0.71727701  1
  Mo  Mo14  1  0.65935403  0.94219814  0.71727701  1
  Mo  Mo15  1  0.34064597  0.05780186  0.28272299  1
  Mo  Mo16  1  0.85249862  0.94328166  0.19624694  1
  Mo  Mo17  1  0.14750138  0.05671834  0.80375306  1
  Mo  Mo18  1  0.85249862  0.55671834  0.80375306  1
  Mo  Mo19  1  0.14750138  0.44328166  0.19624694  1
  O  O20  1  0.88900128  0.11837164  0.11409795  1
  O  O21  1  0.11099872  0.88162836  0.88590205  1
  O  O22  1  0.88900128  0.38162836  0.88590205  1
  O  O23  1  0.11099872  0.61837164  0.11409795  1
  O  O24  1  0.72232971  0.62262330  0.11408395  1
  O  O25  1  0.27767029  0.37737670  0.88591605  1
  O  O26  1  0.72232971  0.87737670  0.88591605  1
  O  O27  1  0.27767029  0.12262330  0.11408395  1
  O  O28  1  0.90792886  0.89398300  0.35632018  1
  O  O29  1  0.09207114  0.10601700  0.64367982  1
  O  O30  1  0.90792886  0.60601700  0.64367982  1
  O  O31  1  0.09207114  0.39398300  0.35632018  1
  O  O32  1  0.45603562  0.60529700  0.30337967  1
  O  O33  1  0.54396438  0.39470300  0.69662033  1
  O  O34  1  0.45603562  0.89470300  0.69662033  1
  O  O35  1  0.54396438  0.10529700  0.30337967  1
  O  O36  1  0.97040726  0.85180855  0.12542649  1
  O  O37  1  0.02959274  0.14819145  0.87457351  1
  O  O38  1  0.97040726  0.64819145  0.87457351  1
  O  O39  1  0.02959274  0.35180855  0.12542649  1
  O  O40  1  0.64178860  0.91669433  0.17986341  1
  O  O41  1  0.35821140  0.08330567  0.82013659  1
  O  O42  1  0.64178860  0.58330567  0.82013659  1
  O  O43  1  0.35821140  0.41669433  0.17986341  1
  O  O44  1  0.32383603  0.88495808  0.34817167  1
  O  O45  1  0.67616397  0.11504192  0.65182833  1
  O  O46  1  0.32383603  0.61504192  0.65182833  1
  O  O47  1  0.67616397  0.38495808  0.34817167  1
  O  O48  1  0.79330394  0.61387888  0.37034069  1
  O  O49  1  0.20669606  0.38612112  0.62965931  1
  O  O50  1  0.79330394  0.88612112  0.62965931  1
  O  O51  1  0.20669606  0.11387888  0.37034069  1
