# generated using pymatgen
data_Pr9Ga5S21
_symmetry_space_group_name_H-M   'P 1'
_cell_length_a   11.79607632
_cell_length_b   11.79607634
_cell_length_c   11.79607530
_cell_angle_alpha   95.03625180
_cell_angle_beta   95.03625678
_cell_angle_gamma   95.03625651
_symmetry_Int_Tables_number   1
_chemical_formula_structural   Pr9Ga5S21
_chemical_formula_sum   'Pr18 Ga10 S42'
_cell_volume   1621.18473273
_cell_formula_units_Z   2
loop_
 _symmetry_equiv_pos_site_id
 _symmetry_equiv_pos_as_xyz
  1  'x, y, z'
loop_
 _atom_site_type_symbol
 _atom_site_label
 _atom_site_symmetry_multiplicity
 _atom_site_fract_x
 _atom_site_fract_y
 _atom_site_fract_z
 _atom_site_occupancy
  Pr  Pr0  1  0.11625636  0.88540215  0.74343661  1
  Pr  Pr1  1  0.45636631  0.22839982  0.07959546  1
  Pr  Pr2  1  0.77135434  0.55238137  0.39321030  1
  Pr  Pr3  1  0.39321030  0.77135434  0.55238137  1
  Pr  Pr4  1  0.74343661  0.11625636  0.88540215  1
  Pr  Pr5  1  0.07959546  0.45636631  0.22839982  1
  Pr  Pr6  1  0.22839982  0.07959546  0.45636631  1
  Pr  Pr7  1  0.55238137  0.39321030  0.77135434  1
  Pr  Pr8  1  0.88540215  0.74343661  0.11625636  1
  Pr  Pr9  1  0.21112931  0.43666462  0.58527600  1
  Pr  Pr10  1  0.55660174  0.78195668  0.93252905  1
  Pr  Pr11  1  0.87167335  0.10143234  0.24999066  1
  Pr  Pr12  1  0.93252905  0.55660174  0.78195668  1
  Pr  Pr13  1  0.24999066  0.87167335  0.10143234  1
  Pr  Pr14  1  0.58527600  0.21112931  0.43666462  1
  Pr  Pr15  1  0.10143234  0.24999066  0.87167335  1
  Pr  Pr16  1  0.43666462  0.58527600  0.21112931  1
  Pr  Pr17  1  0.78195668  0.93252905  0.55660174  1
  Ga  Ga18  1  0.72328270  0.39128713  0.04913124  1
  Ga  Ga19  1  0.04913124  0.72328270  0.39128713  1
  Ga  Ga20  1  0.39128713  0.04913124  0.72328270  1
  Ga  Ga21  1  0.88509293  0.22780047  0.55095251  1
  Ga  Ga22  1  0.22780047  0.55095251  0.88509293  1
  Ga  Ga23  1  0.55095251  0.88509293  0.22780047  1
  Ga  Ga24  1  0.85188063  0.85188063  0.85188063  1
  Ga  Ga25  1  0.14491558  0.14491558  0.14491558  1
  Ga  Ga26  1  0.64437430  0.64437430  0.64437430  1
  Ga  Ga27  1  0.35079034  0.35079034  0.35079034  1
  S  S28  1  0.54668005  0.45068838  0.01247285  1
  S  S29  1  0.87390019  0.78601076  0.35923724  1
  S  S30  1  0.21242441  0.11044423  0.69607669  1
  S  S31  1  0.69607669  0.21242441  0.11044423  1
  S  S32  1  0.01247285  0.54668005  0.45068838  1
  S  S33  1  0.35923724  0.87390019  0.78601076  1
  S  S34  1  0.78601076  0.35923724  0.87390019  1
  S  S35  1  0.11044423  0.69607669  0.21242441  1
  S  S36  1  0.45068838  0.01247285  0.54668005  1
  S  S37  1  0.96638399  0.07123653  0.48194414  1
  S  S38  1  0.30083292  0.38935791  0.81667034  1
  S  S39  1  0.63280794  0.72488442  0.16461793  1
  S  S40  1  0.81667034  0.30083292  0.38935791  1
  S  S41  1  0.16461793  0.63280794  0.72488442  1
  S  S42  1  0.48194414  0.96638399  0.07123653  1
  S  S43  1  0.72488442  0.16461793  0.63280794  1
  S  S44  1  0.07123653  0.48194414  0.96638399  1
  S  S45  1  0.38935791  0.81667034  0.30083292  1
  S  S46  1  0.84555410  0.50991626  0.17147240  1
  S  S47  1  0.17147240  0.84555410  0.50991626  1
  S  S48  1  0.50991626  0.17147240  0.84555410  1
  S  S49  1  0.67413732  0.00673831  0.34623564  1
  S  S50  1  0.00673831  0.34623564  0.67413732  1
  S  S51  1  0.34623564  0.67413732  0.00673831  1
  S  S52  1  0.55307024  0.40760747  0.30968049  1
  S  S53  1  0.89665109  0.76143024  0.66678014  1
  S  S54  1  0.23617845  0.09227128  0.99256883  1
  S  S55  1  0.99256883  0.23617845  0.09227128  1
  S  S56  1  0.30968049  0.55307024  0.40760747  1
  S  S57  1  0.66678014  0.89665109  0.76143024  1
  S  S58  1  0.76143024  0.66678014  0.89665109  1
  S  S59  1  0.09227128  0.99256883  0.23617845  1
  S  S60  1  0.40760747  0.30968049  0.55307024  1
  S  S61  1  0.15010097  0.28615207  0.37887867  1
  S  S62  1  0.48084594  0.61907335  0.72514271  1
  S  S63  1  0.79447908  0.94354554  0.03915416  1
  S  S64  1  0.72514271  0.48084594  0.61907335  1
  S  S65  1  0.03915416  0.79447908  0.94354554  1
  S  S66  1  0.37887867  0.15010097  0.28615207  1
  S  S67  1  0.94354554  0.03915416  0.79447908  1
  S  S68  1  0.28615207  0.37887867  0.15010097  1
  S  S69  1  0.61907335  0.72514271  0.48084594  1
