# generated using pymatgen
data_HgMoO4
_symmetry_space_group_name_H-M   'P 1'
_cell_length_a   5.13925001
_cell_length_b   6.10402046
_cell_length_c   6.44704672
_cell_angle_alpha   118.25500295
_cell_angle_beta   109.34487638
_cell_angle_gamma   89.99999330
_symmetry_Int_Tables_number   1
_chemical_formula_structural   HgMoO4
_chemical_formula_sum   'Hg2 Mo2 O8'
_cell_volume   165.06995858
_cell_formula_units_Z   2
loop_
 _symmetry_equiv_pos_site_id
 _symmetry_equiv_pos_as_xyz
  1  'x, y, z'
loop_
 _atom_site_type_symbol
 _atom_site_label
 _atom_site_symmetry_multiplicity
 _atom_site_fract_x
 _atom_site_fract_y
 _atom_site_fract_z
 _atom_site_occupancy
  Hg  Hg0  1  0.50000000  0.50000000  0.50000000  1
  Hg  Hg1  1  0.00000000  -0.00000000  0.50000000  1
  Mo  Mo2  1  0.75000000  0.19157321  0.00000000  1
  Mo  Mo3  1  0.25000000  0.80842679  -0.00000000  1
  O  O4  1  0.97147021  0.47759315  0.22573369  1
  O  O5  1  0.52852979  0.25186046  0.77426631  1
  O  O6  1  0.02852979  0.52240685  0.77426631  1
  O  O7  1  0.47147021  0.74813954  0.22573369  1
  O  O8  1  0.03571060  0.00783691  0.19539434  1
  O  O9  1  0.46428940  0.81244356  0.80460566  1
  O  O10  1  0.96428940  0.99216309  0.80460566  1
  O  O11  1  0.53571060  0.18755644  0.19539434  1
