# generated using pymatgen
data_TiI2O7
_symmetry_space_group_name_H-M   'P 1'
_cell_length_a   6.53257767
_cell_length_b   6.53257767
_cell_length_c   7.20102523
_cell_angle_alpha   90.00000000
_cell_angle_beta   90.00000000
_cell_angle_gamma   103.37161730
_symmetry_Int_Tables_number   1
_chemical_formula_structural   TiI2O7
_chemical_formula_sum   'Ti2 I4 O14'
_cell_volume   298.96991398
_cell_formula_units_Z   2
loop_
 _symmetry_equiv_pos_site_id
 _symmetry_equiv_pos_as_xyz
  1  'x, y, z'
loop_
 _atom_site_type_symbol
 _atom_site_label
 _atom_site_symmetry_multiplicity
 _atom_site_fract_x
 _atom_site_fract_y
 _atom_site_fract_z
 _atom_site_occupancy
  Ti  Ti0  1  0.99539733  0.99539733  0.94601390  1
  Ti  Ti1  1  0.00460267  0.00460267  0.44601390  1
  I  I2  1  0.54910663  0.06172384  0.20938427  1
  I  I3  1  0.06172384  0.54910663  0.20938427  1
  I  I4  1  0.45089337  0.93827616  0.70938427  1
  I  I5  1  0.93827616  0.45089337  0.70938427  1
  O  O6  1  0.92659552  0.92659552  0.71017773  1
  O  O7  1  0.07340448  0.07340448  0.21017773  1
  O  O8  1  0.69542332  0.96897104  0.40074933  1
  O  O9  1  0.96897104  0.69542332  0.40074933  1
  O  O10  1  0.30457668  0.03102896  0.90074933  1
  O  O11  1  0.03102896  0.30457668  0.90074933  1
  O  O12  1  0.69254441  0.96746094  0.01734482  1
  O  O13  1  0.96746094  0.69254441  0.01734482  1
  O  O14  1  0.30745559  0.03253906  0.51734482  1
  O  O15  1  0.03253906  0.30745559  0.51734482  1
  O  O16  1  0.67701403  0.33417772  0.20822277  1
  O  O17  1  0.33417772  0.67701403  0.20822277  1
  O  O18  1  0.32298597  0.66582228  0.70822277  1
  O  O19  1  0.66582228  0.32298597  0.70822277  1
