# generated using pymatgen
data_Ca3HfSi2O9
_symmetry_space_group_name_H-M   'P 1'
_cell_length_a   10.13786068
_cell_length_b   7.35868433
_cell_length_c   10.42241024
_cell_angle_alpha   88.72165510
_cell_angle_beta   90.00000000
_cell_angle_gamma   90.00000000
_symmetry_Int_Tables_number   1
_chemical_formula_structural   Ca3HfSi2O9
_chemical_formula_sum   'Ca12 Hf4 Si8 O36'
_cell_volume   777.33200881
_cell_formula_units_Z   4
loop_
 _symmetry_equiv_pos_site_id
 _symmetry_equiv_pos_as_xyz
  1  'x, y, z'
loop_
 _atom_site_type_symbol
 _atom_site_label
 _atom_site_symmetry_multiplicity
 _atom_site_fract_x
 _atom_site_fract_y
 _atom_site_fract_z
 _atom_site_occupancy
  Ca  Ca0  1  0.92123221  0.36455595  0.11124664  1
  Ca  Ca1  1  0.42123221  0.63544405  0.38875336  1
  Ca  Ca2  1  0.07876779  0.63544405  0.88875336  1
  Ca  Ca3  1  0.57876779  0.36455595  0.61124664  1
  Ca  Ca4  1  0.33124335  0.88182553  0.08690281  1
  Ca  Ca5  1  0.83124335  0.11817447  0.41309719  1
  Ca  Ca6  1  0.66875665  0.11817447  0.91309719  1
  Ca  Ca7  1  0.16875665  0.88182553  0.58690281  1
  Ca  Ca8  1  0.30543961  0.37241051  0.09968960  1
  Ca  Ca9  1  0.80543961  0.62758949  0.40031040  1
  Ca  Ca10  1  0.69456039  0.62758949  0.90031040  1
  Ca  Ca11  1  0.19456039  0.37241051  0.59968960  1
  Hf  Hf12  1  0.56155613  0.87904458  0.61542232  1
  Hf  Hf13  1  0.06155613  0.12095542  0.88457768  1
  Hf  Hf14  1  0.43844387  0.12095542  0.38457768  1
  Hf  Hf15  1  0.93844387  0.87904458  0.11542232  1
  Si  Si16  1  0.13634243  0.59892281  0.30744077  1
  Si  Si17  1  0.63634243  0.40107719  0.19255923  1
  Si  Si18  1  0.86365757  0.40107719  0.69255923  1
  Si  Si19  1  0.36365757  0.59892281  0.80744077  1
  Si  Si20  1  0.12345960  0.16777838  0.31724787  1
  Si  Si21  1  0.62345960  0.83222162  0.18275213  1
  Si  Si22  1  0.87654040  0.83222162  0.68275213  1
  Si  Si23  1  0.37654040  0.16777838  0.81724787  1
  O  O24  1  0.39067344  0.33865946  0.48367564  1
  O  O25  1  0.89067344  0.66134054  0.01632436  1
  O  O26  1  0.60932656  0.66134054  0.51632436  1
  O  O27  1  0.10932656  0.33865946  0.98367564  1
  O  O28  1  0.11173384  0.90793510  0.01121441  1
  O  O29  1  0.61173384  0.09206490  0.48878559  1
  O  O30  1  0.88826616  0.09206490  0.98878559  1
  O  O31  1  0.38826616  0.90793510  0.51121441  1
  O  O32  1  0.16820895  0.62079781  0.45725510  1
  O  O33  1  0.66820895  0.37920219  0.04274490  1
  O  O34  1  0.83179105  0.37920219  0.54274490  1
  O  O35  1  0.33179105  0.62079781  0.95725510  1
  O  O36  1  0.00151459  0.69672268  0.26058366  1
  O  O37  1  0.50151459  0.30327732  0.23941634  1
  O  O38  1  0.88888418  0.85598080  0.53027941  1
  O  O39  1  0.99848541  0.30327732  0.73941634  1
  O  O40  1  0.23278181  0.64400787  0.72340741  1
  O  O41  1  0.73278181  0.35599213  0.77659259  1
  O  O42  1  0.76721819  0.35599213  0.27659259  1
  O  O43  1  0.26721819  0.64400787  0.22340741  1
  O  O44  1  0.76627190  0.89470060  0.23779496  1
  O  O45  1  0.26627190  0.10529940  0.26220504  1
  O  O46  1  0.23372810  0.10529940  0.76220504  1
  O  O47  1  0.73372810  0.89470060  0.73779496  1
  O  O48  1  0.39313637  0.38371631  0.77217633  1
  O  O49  1  0.89313637  0.61628369  0.72782367  1
  O  O50  1  0.60686363  0.61628369  0.22782367  1
  O  O51  1  0.10686363  0.38371631  0.27217633  1
  O  O52  1  0.00261390  0.91567236  0.75608391  1
  O  O53  1  0.50261390  0.08432764  0.74391609  1
  O  O54  1  0.99738610  0.08432764  0.24391609  1
  O  O55  1  0.49738610  0.91567236  0.25608391  1
  O  O56  1  0.61111582  0.85598080  0.03027941  1
  O  O57  1  0.11111582  0.14401920  0.46972059  1
  O  O58  1  0.38888418  0.14401920  0.96972059  1
  O  O59  1  0.49848541  0.69672268  0.76058366  1
