# generated using pymatgen
data_Ba10MgAs6(ClO12)2
_symmetry_space_group_name_H-M   'P 1'
_cell_length_a   11.16150591
_cell_length_b   10.74577735
_cell_length_c   7.78622207
_cell_angle_alpha   90.00000000
_cell_angle_beta   90.00000000
_cell_angle_gamma   116.76515337
_symmetry_Int_Tables_number   1
_chemical_formula_structural   Ba10MgAs6(ClO12)2
_chemical_formula_sum   'Ba10 Mg1 As6 Cl2 O24'
_cell_volume   833.81695511
_cell_formula_units_Z   1
loop_
 _symmetry_equiv_pos_site_id
 _symmetry_equiv_pos_as_xyz
  1  'x, y, z'
loop_
 _atom_site_type_symbol
 _atom_site_label
 _atom_site_symmetry_multiplicity
 _atom_site_fract_x
 _atom_site_fract_y
 _atom_site_fract_z
 _atom_site_occupancy
  Ba  Ba0  1  0.66327441  0.33468229  0.50225532  1
  Ba  Ba1  1  0.26264674  0.63908420  0.52020663  1
  Ba  Ba2  1  0.99034118  0.24563597  0.25000000  1
  Ba  Ba3  1  0.26264674  0.63908420  0.97979337  1
  Ba  Ba4  1  0.79380504  0.75186635  0.25000000  1
  Ba  Ba5  1  0.27826143  0.98704067  0.25000000  1
  Ba  Ba6  1  0.71174470  0.98489504  0.75000000  1
  Ba  Ba7  1  0.98054684  0.75288106  0.75000000  1
  Ba  Ba8  1  0.66327441  0.33468229  0.99774468  1
  Ba  Ba9  1  0.25389581  0.25180499  0.75000000  1
  Mg  Mg10  1  0.48807486  0.71980217  0.25000000  1
  As  As11  1  0.97002426  0.57022607  0.25000000  1
  As  As12  1  0.56169143  0.61660515  0.75000000  1
  As  As13  1  0.34783661  0.95361770  0.75000000  1
  As  As14  1  0.41784238  0.38590331  0.25000000  1
  As  As15  1  0.00186306  0.38316549  0.75000000  1
  As  As16  1  0.66260208  0.05706322  0.25000000  1
  Cl  Cl17  1  0.99166209  0.00087542  0.99741412  1
  Cl  Cl18  1  0.99166209  0.00087542  0.50258588  1
  O  O19  1  0.61181781  0.72193498  0.93203520  1
  O  O20  1  0.36302437  0.51589682  0.25000000  1
  O  O21  1  0.36430271  0.28100339  0.42832639  1
  O  O22  1  0.38693892  0.52879384  0.75000000  1
  O  O23  1  0.07629414  0.34982720  0.57236719  1
  O  O24  1  0.63152010  0.50169939  0.75000000  1
  O  O25  1  0.82982527  0.30208317  0.75000000  1
  O  O26  1  0.06071400  0.56275752  0.75000000  1
  O  O27  1  0.59188881  0.47315640  0.25000000  1
  O  O28  1  0.75119853  0.12522269  0.06379959  1
  O  O29  1  0.07629414  0.34982720  0.92763281  1
  O  O30  1  0.84721895  0.39308947  0.25000000  1
  O  O31  1  0.43668661  0.85667897  0.75000000  1
  O  O32  1  0.91476616  0.63590878  0.07012321  1
  O  O33  1  0.91476616  0.63590878  0.42987679  1
  O  O34  1  0.45232581  0.13029629  0.75000000  1
  O  O35  1  0.36430271  0.28100339  0.07167361  1
  O  O36  1  0.75119853  0.12522269  0.43620041  1
  O  O37  1  0.34624754  0.77439494  0.25000000  1
  O  O38  1  0.23882675  0.89629863  0.92339428  1
  O  O39  1  0.64537105  0.88947717  0.25000000  1
  O  O40  1  0.23882675  0.89629863  0.57660572  1
  O  O41  1  0.61181781  0.72193498  0.56796480  1
  O  O42  1  0.53763018  0.11024371  0.25000000  1
