# generated using pymatgen
data_SrSiO3
_symmetry_space_group_name_H-M   'P 1'
_cell_length_a   6.94518575
_cell_length_b   6.95536271
_cell_length_c   9.71250518
_cell_angle_alpha   69.57432701
_cell_angle_beta   83.49285053
_cell_angle_gamma   75.56126536
_symmetry_Int_Tables_number   1
_chemical_formula_structural   SrSiO3
_chemical_formula_sum   'Sr6 Si6 O18'
_cell_volume   425.60981406
_cell_formula_units_Z   6
loop_
 _symmetry_equiv_pos_site_id
 _symmetry_equiv_pos_as_xyz
  1  'x, y, z'
loop_
 _atom_site_type_symbol
 _atom_site_label
 _atom_site_symmetry_multiplicity
 _atom_site_fract_x
 _atom_site_fract_y
 _atom_site_fract_z
 _atom_site_occupancy
  Sr  Sr0  1  0.58478181  0.22913291  0.65128317  1
  Sr  Sr1  1  0.41521819  0.77086709  0.34871683  1
  Sr  Sr2  1  0.07903252  0.41094689  0.33806179  1
  Sr  Sr3  1  0.92096748  0.58905311  0.66193821  1
  Sr  Sr4  1  0.24065022  0.25216294  0.99764247  1
  Sr  Sr5  1  0.75934978  0.74783706  0.00235753  1
  Si  Si6  1  0.04317748  0.01904393  0.70510240  1
  Si  Si7  1  0.95682252  0.98095607  0.29489760  1
  Si  Si8  1  0.26886684  0.77056254  0.97934018  1
  Si  Si9  1  0.73113316  0.22943746  0.02065982  1
  Si  Si10  1  0.38431617  0.66476646  0.70755736  1
  Si  Si11  1  0.61568383  0.33523354  0.29244264  1
  O  O12  1  0.96651429  0.25972343  0.60590335  1
  O  O13  1  0.03348571  0.74027657  0.39409665  1
  O  O14  1  0.86269242  0.89960817  0.73934095  1
  O  O15  1  0.13730758  0.10039183  0.26065905  1
  O  O16  1  0.13694502  0.99473440  0.86261092  1
  O  O17  1  0.86305498  0.00526560  0.13738908  1
  O  O18  1  0.13344644  0.60394618  0.05589021  1
  O  O19  1  0.86655356  0.39605382  0.94410979  1
  O  O20  1  0.38292483  0.83775795  0.08294504  1
  O  O21  1  0.61707517  0.16224205  0.91705496  1
  O  O22  1  0.43942094  0.68748007  0.86205748  1
  O  O23  1  0.56057906  0.31251993  0.13794252  1
  O  O24  1  0.72705232  0.52361449  0.26245795  1
  O  O25  1  0.27294768  0.47638551  0.73754205  1
  O  O26  1  0.76699971  0.10474610  0.37682095  1
  O  O27  1  0.23300029  0.89525390  0.62317905  1
  O  O28  1  0.42636547  0.36980910  0.39972149  1
  O  O29  1  0.57363453  0.63019090  0.60027851  1
