# generated using pymatgen
data_Rb2PdSe2
_symmetry_space_group_name_H-M   'P 1'
_cell_length_a   3.80574756
_cell_length_b   6.64316540
_cell_length_c   6.64316540
_cell_angle_alpha   70.44409661
_cell_angle_beta   73.35500239
_cell_angle_gamma   73.35500239
_symmetry_Int_Tables_number   1
_chemical_formula_structural   Rb2PdSe2
_chemical_formula_sum   'Rb2 Pd1 Se2'
_cell_volume   148.21767723
_cell_formula_units_Z   1
loop_
 _symmetry_equiv_pos_site_id
 _symmetry_equiv_pos_as_xyz
  1  'x, y, z'
loop_
 _atom_site_type_symbol
 _atom_site_label
 _atom_site_symmetry_multiplicity
 _atom_site_fract_x
 _atom_site_fract_y
 _atom_site_fract_z
 _atom_site_occupancy
  Rb  Rb0  1  0.19403938  0.30596062  0.30596062  1
  Rb  Rb1  1  0.80596062  0.69403938  0.69403938  1
  Pd  Pd2  1  0.00000000  -0.00000000  0.00000000  1
  Se  Se3  1  0.50000000  0.21278090  0.78721910  1
  Se  Se4  1  0.50000000  0.78721910  0.21278090  1
