# generated using pymatgen
data_Li7V3P8O29
_symmetry_space_group_name_H-M   'P 1'
_cell_length_a   9.85637898
_cell_length_b   9.87282522
_cell_length_c   13.95099889
_cell_angle_alpha   90.03151966
_cell_angle_beta   89.40158800
_cell_angle_gamma   59.93117953
_symmetry_Int_Tables_number   1
_chemical_formula_structural   Li7V3P8O29
_chemical_formula_sum   'Li14 V6 P16 O58'
_cell_volume   1174.78880896
_cell_formula_units_Z   2
loop_
 _symmetry_equiv_pos_site_id
 _symmetry_equiv_pos_as_xyz
  1  'x, y, z'
loop_
 _atom_site_type_symbol
 _atom_site_label
 _atom_site_symmetry_multiplicity
 _atom_site_fract_x
 _atom_site_fract_y
 _atom_site_fract_z
 _atom_site_occupancy
  Li  Li0  1  0.90779192  0.76018673  0.06297141  1
  Li  Li1  1  0.77069453  0.90867345  0.56543561  1
  Li  Li2  1  0.90863827  0.33133415  0.56291786  1
  Li  Li3  1  0.66687079  0.66387758  0.38395632  1
  Li  Li4  1  0.66640487  0.66860230  0.88360234  1
  Li  Li5  1  0.77087796  0.32057976  0.06539406  1
  Li  Li6  1  0.32906392  0.90565933  0.06078415  1
  Li  Li7  1  0.32925226  0.76543791  0.56058640  1
  Li  Li8  1  0.33998425  0.32239470  0.61140109  1
  Li  Li9  1  0.33935527  0.33962136  0.11137568  1
  Li  Li10  1  0.09067482  0.68131503  0.43600128  1
  Li  Li11  1  0.09088221  0.22814451  0.93593251  1
  Li  Li12  1  0.98410802  0.96370943  0.99705829  1
  Li  Li13  1  0.98217077  0.05238294  0.49666991  1
  V  V14  1  0.56214534  0.43578447  0.24911102  1
  V  V15  1  0.43651355  0.56285670  0.75289877  1
  V  V16  1  0.56219137  0.00200885  0.74920084  1
  V  V17  1  0.43656527  0.00086468  0.25274352  1
  V  V18  1  0.99868054  0.56588722  0.24889866  1
  V  V19  1  0.99950405  0.43504693  0.74879858  1
  P  P20  1  0.90384350  0.77622368  0.84266069  1
  P  P21  1  0.77077882  0.91342720  0.34876621  1
  P  P22  1  0.90395630  0.31957215  0.34268790  1
  P  P23  1  0.66259391  0.66818410  0.12498759  1
  P  P24  1  0.66282407  0.66865408  0.62497640  1
  P  P25  1  0.77111106  0.31592250  0.84856790  1
  P  P26  1  0.69398183  0.22172818  0.66134249  1
  P  P27  1  0.31684260  0.91017613  0.84279953  1
  P  P28  1  0.69416928  0.08413004  0.16135774  1
  P  P29  1  0.31702084  0.77285100  0.34276537  1
  P  P30  1  0.22340052  0.69101086  0.15581532  1
  P  P31  1  0.33334132  0.33521411  0.37191124  1
  P  P32  1  0.33374690  0.33140655  0.87197634  1
  P  P33  1  0.09491258  0.67899487  0.65820440  1
  P  P34  1  0.22399194  0.08544856  0.65596851  1
  P  P35  1  0.09490658  0.22652348  0.15809123  1
  O  O36  1  0.00237847  0.76511918  0.57053625  1
  O  O37  1  0.91885206  0.75072375  0.34001867  1
  O  O38  1  0.80422512  0.98491322  0.08290619  1
  O  O39  1  0.74113788  0.92070632  0.83215951  1
  O  O40  1  0.88705529  0.62916893  0.83221276  1
  O  O41  1  0.81251664  0.66786200  0.15764491  1
  O  O42  1  0.88678043  0.48363455  0.33247706  1
  O  O43  1  0.00228161  0.23290941  0.07053412  1
  O  O44  1  0.91953681  0.32970748  0.83959237  1
  O  O45  1  0.66440320  0.81743066  0.66503936  1
  O  O46  1  0.62591860  0.89192120  0.33150559  1
  O  O47  1  0.81356493  0.51936283  0.65675556  1
  O  O48  1  0.64756453  0.67303329  0.01769310  1
  O  O49  1  0.64600612  0.67896637  0.51766733  1
  O  O50  1  0.66447419  0.51771271  0.16509978  1
  O  O51  1  0.48266634  0.89157003  0.82851567  1
  O  O52  1  0.51581163  0.81614103  0.17053809  1
  O  O53  1  0.74139107  0.33732630  0.33191450  1
  O  O54  1  0.77799904  0.20458050  0.76262496  1
  O  O55  1  0.80424895  0.21077214  0.58289144  1
  O  O56  1  0.76833896  0.24046700  0.94100084  1
  O  O57  1  0.62645643  0.48243472  0.83123001  1
  O  O58  1  0.51641058  0.66741820  0.67101867  1
  O  O59  1  0.66320575  0.25365271  0.15693778  1
  O  O60  1  0.48280624  0.62521072  0.32876743  1
  O  O61  1  0.33559062  0.91713298  0.33729288  1
  O  O62  1  0.77847009  0.01727511  0.26269242  1
  O  O63  1  0.76830485  0.99168618  0.44114142  1
  O  O64  1  0.21767866  0.98693690  0.57633340  1
  O  O65  1  0.66359032  0.08283349  0.65699849  1
  O  O66  1  0.53253831  0.37530428  0.66579128  1
  O  O67  1  0.33515670  0.74742893  0.83763735  1
  O  O68  1  0.47264046  0.34453313  0.32119941  1
  O  O69  1  0.37526746  0.52819029  0.16234217  1
  O  O70  1  0.21659681  0.79595993  0.07627351  1
  O  O71  1  0.23609127  0.76597537  0.43377817  1
  O  O72  1  0.20775158  0.77963323  0.25681553  1
  O  O73  1  0.25794186  0.66529542  0.65792936  1
  O  O74  1  0.47336431  0.18256320  0.82163160  1
  O  O75  1  0.53283047  0.09190782  0.16585589  1
  O  O76  1  0.34355831  0.47210878  0.82459649  1
  O  O77  1  0.34998005  0.32733545  0.97815078  1
  O  O78  1  0.34968776  0.32251947  0.47784430  1
  O  O79  1  0.18128485  0.48322888  0.34104570  1
  O  O80  1  0.37562752  0.09652600  0.66276741  1
  O  O81  1  0.34348065  0.18454957  0.32422607  1
  O  O82  1  0.08196798  0.66560840  0.15512445  1
  O  O83  1  0.00585719  0.78048126  0.75198518  1
  O  O84  1  0.98178391  0.78307395  0.93307746  1
  O  O85  1  0.11839976  0.51311075  0.66891185  1
  O  O86  1  0.18210905  0.33499098  0.84093292  1
  O  O87  1  0.11798760  0.36918258  0.16894577  1
  O  O88  1  0.25812965  0.07734183  0.15762170  1
  O  O89  1  0.23604463  0.99799607  0.93400559  1
  O  O90  1  0.20748869  0.01274736  0.75689652  1
  O  O91  1  0.08281999  0.25235986  0.65485593  1
  O  O92  1  0.98174892  0.23473680  0.43301717  1
  O  O93  1  0.00638078  0.21372498  0.25196176  1
