# generated using pymatgen
data_NO3
_symmetry_space_group_name_H-M   'P 1'
_cell_length_a   6.14087044
_cell_length_b   8.93312014
_cell_length_c   16.11108617
_cell_angle_alpha   90.00000000
_cell_angle_beta   90.01094672
_cell_angle_gamma   90.00000000
_symmetry_Int_Tables_number   1
_chemical_formula_structural   NO3
_chemical_formula_sum   'N16 O48'
_cell_volume   883.80798667
_cell_formula_units_Z   16
loop_
 _symmetry_equiv_pos_site_id
 _symmetry_equiv_pos_as_xyz
  1  'x, y, z'
loop_
 _atom_site_type_symbol
 _atom_site_label
 _atom_site_symmetry_multiplicity
 _atom_site_fract_x
 _atom_site_fract_y
 _atom_site_fract_z
 _atom_site_occupancy
  N  N0  1  0.97955049  0.75567763  0.48761468  1
  N  N1  1  0.02044951  0.25567763  0.01238532  1
  N  N2  1  0.02044951  0.24432237  0.51238532  1
  N  N3  1  0.97955049  0.74432237  0.98761468  1
  N  N4  1  0.52323155  0.59019065  0.36384859  1
  N  N5  1  0.47676845  0.09019065  0.13615141  1
  N  N6  1  0.47676845  0.40980935  0.63615141  1
  N  N7  1  0.52323155  0.90980935  0.86384859  1
  N  N8  1  0.02671005  0.91952713  0.25869285  1
  N  N9  1  0.97328995  0.41952713  0.24130715  1
  N  N10  1  0.97328995  0.08047287  0.74130715  1
  N  N11  1  0.02671005  0.58047287  0.75869285  1
  N  N12  1  0.52715612  0.57331606  0.11164209  1
  N  N13  1  0.47284388  0.07331606  0.38835791  1
  N  N14  1  0.47284388  0.42668394  0.88835791  1
  N  N15  1  0.52715612  0.92668394  0.61164209  1
  O  O16  1  0.10675463  0.76341285  0.54695067  1
  O  O17  1  0.89324537  0.26341285  0.95304933  1
  O  O18  1  0.89324537  0.23658715  0.45304933  1
  O  O19  1  0.10675463  0.73658715  0.04695067  1
  O  O20  1  0.89690160  0.63451612  0.46698121  1
  O  O21  1  0.10309840  0.13451612  0.03301879  1
  O  O22  1  0.10309840  0.36548388  0.53301879  1
  O  O23  1  0.89690160  0.86548388  0.96698121  1
  O  O24  1  0.93177138  0.87058012  0.44775571  1
  O  O25  1  0.06822862  0.37058012  0.05224429  1
  O  O26  1  0.06822862  0.12941988  0.55224429  1
  O  O27  1  0.93177138  0.62941988  0.94775571  1
  O  O28  1  0.39065821  0.60386175  0.42110835  1
  O  O29  1  0.60934079  0.10386175  0.07889165  1
  O  O30  1  0.60934079  0.39613825  0.57889165  1
  O  O31  1  0.39065821  0.89613825  0.92110835  1
  O  O32  1  0.60244515  0.46646947  0.34629099  1
  O  O33  1  0.39755485  0.96646947  0.15370901  1
  O  O34  1  0.39755485  0.53353053  0.65370901  1
  O  O35  1  0.60244515  0.03353053  0.84629099  1
  O  O36  1  0.58023507  0.70198894  0.32294868  1
  O  O37  1  0.41976493  0.20198894  0.17705132  1
  O  O38  1  0.41976493  0.29801106  0.67705132  1
  O  O39  1  0.58023507  0.79801106  0.82294868  1
  O  O40  1  0.89085631  0.92164249  0.20210711  1
  O  O41  1  0.10914369  0.42164249  0.29789289  1
  O  O42  1  0.10914369  0.07835751  0.79789289  1
  O  O43  1  0.89085631  0.57835751  0.70210711  1
  O  O44  1  0.11100042  0.79875103  0.28044631  1
  O  O45  1  0.88899958  0.29875103  0.21955369  1
  O  O46  1  0.88899958  0.20124897  0.71955369  1
  O  O47  1  0.11100042  0.70124897  0.78044631  1
  O  O48  1  0.08286510  0.03615800  0.29463714  1
  O  O49  1  0.91713490  0.53615800  0.20536286  1
  O  O50  1  0.91713490  0.96384200  0.70536286  1
  O  O51  1  0.08286510  0.46384200  0.79463714  1
  O  O52  1  0.39463647  0.57018635  0.16952880  1
  O  O53  1  0.60536353  0.07018635  0.33047120  1
  O  O54  1  0.60536353  0.42981365  0.83047120  1
  O  O55  1  0.39463647  0.92981365  0.66952880  1
  O  O56  1  0.58205723  0.45405503  0.07740161  1
  O  O57  1  0.41794277  0.95405503  0.42259839  1
  O  O58  1  0.41794277  0.54594497  0.92259839  1
  O  O59  1  0.58205723  0.04594497  0.57740161  1
  O  O60  1  0.60658692  0.69294827  0.08738276  1
  O  O61  1  0.39341308  0.19294827  0.41261724  1
  O  O62  1  0.39341308  0.30705173  0.91261724  1
  O  O63  1  0.60658692  0.80705173  0.58738276  1
