# generated using pymatgen
data_Sm4Mg(Mo2O7)2
_symmetry_space_group_name_H-M   'P 1'
_cell_length_a   7.54381101
_cell_length_b   7.58516938
_cell_length_c   7.58527096
_cell_angle_alpha   60.48169878
_cell_angle_beta   60.50875238
_cell_angle_gamma   60.50776668
_symmetry_Int_Tables_number   1
_chemical_formula_structural   Sm4Mg(Mo2O7)2
_chemical_formula_sum   'Sm4 Mg1 Mo4 O14'
_cell_volume   310.37473383
_cell_formula_units_Z   1
loop_
 _symmetry_equiv_pos_site_id
 _symmetry_equiv_pos_as_xyz
  1  'x, y, z'
loop_
 _atom_site_type_symbol
 _atom_site_label
 _atom_site_symmetry_multiplicity
 _atom_site_fract_x
 _atom_site_fract_y
 _atom_site_fract_z
 _atom_site_occupancy
  Sm  Sm0  1  0.46764400  0.00993400  0.48336800  1
  Sm  Sm1  1  0.51748200  0.48986000  0.48990500  1
  Sm  Sm2  1  0.46747200  0.48357700  0.00995900  1
  Sm  Sm3  1  0.00852000  0.48635300  0.48658000  1
  Mg  Mg4  1  0.72517900  0.76303500  0.76297000  1
  Mo  Mo5  1  0.00737400  0.99895800  0.99899800  1
  Mo  Mo6  1  0.00520000  0.00413500  0.49026700  1
  Mo  Mo7  1  0.49200400  0.00927700  0.00922800  1
  Mo  Mo8  1  0.00517800  0.49026600  0.00412900  1
  O  O9  1  0.67344200  0.08141300  0.66262700  1
  O  O10  1  0.04938600  0.67692600  0.67692000  1
  O  O11  1  0.90395200  0.34095200  0.34097300  1
  O  O12  1  0.67343600  0.66259600  0.08137400  1
  O  O13  1  0.37567800  0.37819600  0.37821800  1
  O  O14  1  0.93286600  0.33817500  0.90586000  1
  O  O15  1  0.08729100  0.09744500  0.64817800  1
  O  O16  1  0.36602200  0.89346800  0.89351700  1
  O  O17  1  0.33835900  0.35143900  0.89100800  1
  O  O18  1  0.08716900  0.64815800  0.09759300  1
  O  O19  1  0.63933500  0.63519600  0.63518600  1
  O  O20  1  0.33836700  0.89101600  0.35135400  1
  O  O21  1  0.93265500  0.90599400  0.33822800  1
  O  O22  1  0.64705900  0.10470100  0.10462800  1
