# generated using pymatgen
data_Li6Zn3(PS4)4
_symmetry_space_group_name_H-M   'P 1'
_cell_length_a   9.33610413
_cell_length_b   11.58860141
_cell_length_c   23.14102881
_cell_angle_alpha   89.98678362
_cell_angle_beta   90.00030449
_cell_angle_gamma   89.94317813
_symmetry_Int_Tables_number   1
_chemical_formula_structural   Li6Zn3(PS4)4
_chemical_formula_sum   'Li24 Zn12 P16 S64'
_cell_volume   2503.68190480
_cell_formula_units_Z   4
loop_
 _symmetry_equiv_pos_site_id
 _symmetry_equiv_pos_as_xyz
  1  'x, y, z'
loop_
 _atom_site_type_symbol
 _atom_site_label
 _atom_site_symmetry_multiplicity
 _atom_site_fract_x
 _atom_site_fract_y
 _atom_site_fract_z
 _atom_site_occupancy
  Li  Li0  1  0.75121750  0.99854965  0.87927724  1
  Li  Li1  1  0.25529276  0.75006341  0.75173784  1
  Li  Li2  1  0.24823204  0.25148526  0.75181022  1
  Li  Li3  1  0.25077910  0.24413433  0.99889586  1
  Li  Li4  1  0.50048813  0.50017401  0.25016896  1
  Li  Li5  1  0.50347584  0.99845151  0.25096361  1
  Li  Li6  1  0.50325031  0.50205606  0.49985364  1
  Li  Li7  1  0.50024527  0.99800814  0.49916461  1
  Li  Li8  1  0.00424662  0.75187667  0.37393572  1
  Li  Li9  1  0.00181935  0.25040363  0.37504701  1
  Li  Li10  1  0.51105199  0.50104018  0.75139625  1
  Li  Li11  1  0.50891413  0.99975791  0.74724774  1
  Li  Li12  1  0.99627681  0.75246889  0.62206416  1
  Li  Li13  1  0.99270212  0.25239210  0.62234717  1
  Li  Li14  1  0.50178432  0.50387272  0.99957996  1
  Li  Li15  1  0.50138993  0.99712581  0.00114385  1
  Li  Li16  1  0.99893925  0.74494930  0.87818603  1
  Li  Li17  1  0.98862156  0.25077282  0.87535540  1
  Li  Li18  1  0.00211425  0.74953233  0.12551945  1
  Li  Li19  1  0.99888496  0.24786681  0.12705790  1
  Li  Li20  1  0.50645090  0.74878319  0.62370398  1
  Li  Li21  1  0.50570453  0.25335829  0.87513843  1
  Li  Li22  1  0.49970503  0.74879430  0.87642834  1
  Li  Li23  1  0.99939203  0.99748900  0.00190169  1
  Zn  Zn24  1  0.50623950  0.24774317  0.12617635  1
  Zn  Zn25  1  0.50027578  0.75130567  0.12423918  1
  Zn  Zn26  1  0.49854339  0.24969475  0.37479648  1
  Zn  Zn27  1  0.50009573  0.75039934  0.37524225  1
  Zn  Zn28  1  0.99877608  0.50030969  0.25014481  1
  Zn  Zn29  1  0.99986132  0.99993970  0.25011741  1
  Zn  Zn30  1  0.50455018  0.24999008  0.62325976  1
  Zn  Zn31  1  0.99852063  0.50071636  0.49870658  1
  Zn  Zn32  1  0.99772139  0.99833840  0.49952809  1
  Zn  Zn33  1  0.98738928  0.50075653  0.74970472  1
  Zn  Zn34  1  0.99402381  0.00011296  0.74987264  1
  Zn  Zn35  1  0.99116853  0.50278140  0.00043260  1
  P  P36  1  0.75043069  0.25017924  0.25042371  1
  P  P37  1  0.74982741  0.74952671  0.24994226  1
  P  P38  1  0.74969983  0.25042240  0.49937412  1
  P  P39  1  0.75097063  0.74608638  0.49860158  1
  P  P40  1  0.25046625  0.49994161  0.37502617  1
  P  P41  1  0.25013895  0.00032029  0.37505980  1
  P  P42  1  0.75143778  0.24481509  0.74928335  1
  P  P43  1  0.74695948  0.75101730  0.75055806  1
  P  P44  1  0.24931990  0.49834565  0.62794036  1
  P  P45  1  0.24890724  0.00176912  0.62367549  1
  P  P46  1  0.74688943  0.25419979  0.99862171  1
  P  P47  1  0.75242590  0.75403937  0.00288940  1
  P  P48  1  0.25046673  0.49744200  0.87427713  1
  P  P49  1  0.24795115  0.99787458  0.87351285  1
  P  P50  1  0.24742982  0.49927683  0.12428122  1
  P  P51  1  0.25403312  0.00540066  0.12581698  1
  S  S52  1  0.87252897  0.35631905  0.05194695  1
  S  S53  1  0.86922974  0.85700870  0.05489875  1
  S  S54  1  0.86540752  0.36125942  0.30242009  1
  S  S55  1  0.86437667  0.86127199  0.30186711  1
  S  S56  1  0.36522510  0.60889365  0.17556391  1
  S  S57  1  0.37135573  0.11218583  0.17911257  1
  S  S58  1  0.86154406  0.36359611  0.55130392  1
  S  S59  1  0.86258863  0.86110915  0.55077452  1
  S  S60  1  0.36424117  0.61140385  0.42710789  1
  S  S61  1  0.36435430  0.11172914  0.42718281  1
  S  S62  1  0.86189991  0.35837261  0.80169050  1
  S  S63  1  0.87405553  0.85869031  0.80405039  1
  S  S64  1  0.36856428  0.60567925  0.67921598  1
  S  S65  1  0.36683228  0.11350992  0.67726131  1
  S  S66  1  0.36091670  0.60489856  0.92579656  1
  S  S67  1  0.37090606  0.10538819  0.92428627  1
  S  S68  1  0.63527362  0.64575325  0.30574597  1
  S  S69  1  0.63601015  0.14639263  0.30622128  1
  S  S70  1  0.63997912  0.64340149  0.55317241  1
  S  S71  1  0.63736043  0.14456558  0.55528969  1
  S  S72  1  0.13671465  0.89626756  0.43109335  1
  S  S73  1  0.13739121  0.39538225  0.43111261  1
  S  S74  1  0.63808131  0.64716391  0.80526370  1
  S  S75  1  0.63288206  0.14304780  0.80364928  1
  S  S76  1  0.13084542  0.89704083  0.68061164  1
  S  S77  1  0.12409549  0.39243761  0.68140709  1
  S  S78  1  0.62929433  0.64744359  0.05474142  1
  S  S79  1  0.63469640  0.14695473  0.05456173  1
  S  S80  1  0.12595637  0.89806588  0.92514090  1
  S  S81  1  0.12330344  0.39415154  0.92810183  1
  S  S82  1  0.13661915  0.90034068  0.18020098  1
  S  S83  1  0.13480335  0.39536533  0.18030744  1
  S  S84  1  0.86265247  0.13767116  0.19831345  1
  S  S85  1  0.86435852  0.63808160  0.19780185  1
  S  S86  1  0.86525518  0.13948476  0.44766136  1
  S  S87  1  0.87295160  0.64073413  0.44566912  1
  S  S88  1  0.36441333  0.38844259  0.32276669  1
  S  S89  1  0.36364248  0.88848509  0.32292215  1
  S  S90  1  0.86907015  0.13894110  0.69580080  1
  S  S91  1  0.87271360  0.64649243  0.69796668  1
  S  S92  1  0.36417192  0.38938224  0.57494614  1
  S  S93  1  0.36541302  0.89438306  0.57428334  1
  S  S94  1  0.86774006  0.14289262  0.94844958  1
  S  S95  1  0.85891743  0.63913080  0.94866165  1
  S  S96  1  0.36635952  0.39043877  0.82124497  1
  S  S97  1  0.37349010  0.89663619  0.82058911  1
  S  S98  1  0.37002357  0.38778582  0.07282307  1
  S  S99  1  0.36406203  0.89157405  0.07345841  1
  S  S100  1  0.63800591  0.35545122  0.19447968  1
  S  S101  1  0.63480665  0.85337950  0.19439555  1
  S  S102  1  0.63357580  0.35370923  0.44408863  1
  S  S103  1  0.63773838  0.85302740  0.44311384  1
  S  S104  1  0.13656175  0.60357652  0.31884161  1
  S  S105  1  0.13505746  0.10424694  0.31943868  1
  S  S106  1  0.63442754  0.35030507  0.69503009  1
  S  S107  1  0.63790177  0.85468798  0.69565814  1
  S  S108  1  0.13265859  0.60010353  0.57230011  1
  S  S109  1  0.12685888  0.10546963  0.57123731  1
  S  S110  1  0.63028952  0.35871320  0.94682709  1
  S  S111  1  0.63357250  0.85513011  0.94697565  1
  S  S112  1  0.12371895  0.60145117  0.82014584  1
  S  S113  1  0.12602458  0.10793113  0.81903938  1
  S  S114  1  0.13611954  0.60330346  0.06805674  1
  S  S115  1  0.13462036  0.10770770  0.07147832  1
