# generated using pymatgen
data_Sn15Ru3O14
_symmetry_space_group_name_H-M   'P 1'
_cell_length_a   7.12114717
_cell_length_b   7.17779502
_cell_length_c   13.00237225
_cell_angle_alpha   73.99962534
_cell_angle_beta   74.10765103
_cell_angle_gamma   60.26191186
_symmetry_Int_Tables_number   1
_chemical_formula_structural   Sn15Ru3O14
_chemical_formula_sum   'Sn15 Ru3 O14'
_cell_volume   547.18705955
_cell_formula_units_Z   1
loop_
 _symmetry_equiv_pos_site_id
 _symmetry_equiv_pos_as_xyz
  1  'x, y, z'
loop_
 _atom_site_type_symbol
 _atom_site_label
 _atom_site_symmetry_multiplicity
 _atom_site_fract_x
 _atom_site_fract_y
 _atom_site_fract_z
 _atom_site_occupancy
  Sn  Sn0  1  0.90203482  0.01820387  0.17779259  1
  Sn  Sn1  1  0.48735341  0.60579012  0.41944309  1
  Sn  Sn2  1  0.48943073  0.08182183  0.42568767  1
  Sn  Sn3  1  0.00309372  0.08183191  0.42567566  1
  Sn  Sn4  1  0.09526117  0.15003525  0.65942121  1
  Sn  Sn5  1  0.44323033  0.98837376  0.12527922  1
  Sn  Sn6  1  0.15134229  0.77804071  0.91920739  1
  Sn  Sn7  1  0.42910707  0.49999281  0.16146340  1
  Sn  Sn8  1  0.90943350  0.49999899  0.16147071  1
  Sn  Sn9  1  0.68053808  0.75093145  0.88782419  1
  Sn  Sn10  1  0.67253634  0.26990909  0.91106584  1
  Sn  Sn11  1  0.14642452  0.26995580  0.91105540  1
  Sn  Sn12  1  0.57809878  0.67372116  0.65291165  1
  Sn  Sn13  1  0.09535143  0.67371110  0.65295527  1
  Sn  Sn14  1  0.01502125  0.58879774  0.38115080  1
  Ru  Ru15  1  0.69789617  0.29853164  0.30571218  1
  Ru  Ru16  1  0.88459560  0.46276307  0.76801345  1
  Ru  Ru17  1  0.28926071  0.38733308  0.03410404  1
  O  O18  1  0.12248022  0.71474896  0.46646876  1
  O  O19  1  0.69631042  0.71480231  0.46647125  1
  O  O20  1  0.95822691  0.07389524  0.00956865  1
  O  O21  1  0.12185333  0.28156624  0.47466438  1
  O  O22  1  0.62435418  0.69463257  0.05663557  1
  O  O23  1  0.42320322  0.56595935  0.58771017  1
  O  O24  1  0.34323064  0.94418610  0.36938958  1
  O  O25  1  0.42443087  0.00338525  0.59283588  1
  O  O26  1  0.97944378  0.00333598  0.59280281  1
  O  O27  1  0.35341128  0.94300026  0.88561315  1
  O  O28  1  0.81786869  0.94298451  0.88560598  1
  O  O29  1  0.74362405  0.83725686  0.18233646  1
  O  O30  1  0.23685500  0.83720839  0.18237137  1
  O  O31  1  0.22506750  0.80178059  0.74806522  1
