# generated using pymatgen
data_Cs2ZnBi2S5
_symmetry_space_group_name_H-M   'P 1'
_cell_length_a   4.11740153
_cell_length_b   15.96577456
_cell_length_c   18.29161297
_cell_angle_alpha   90.00000000
_cell_angle_beta   90.00000000
_cell_angle_gamma   90.00000000
_symmetry_Int_Tables_number   1
_chemical_formula_structural   Cs2ZnBi2S5
_chemical_formula_sum   'Cs8 Zn4 Bi8 S20'
_cell_volume   1202.44499177
_cell_formula_units_Z   4
loop_
 _symmetry_equiv_pos_site_id
 _symmetry_equiv_pos_as_xyz
  1  'x, y, z'
loop_
 _atom_site_type_symbol
 _atom_site_label
 _atom_site_symmetry_multiplicity
 _atom_site_fract_x
 _atom_site_fract_y
 _atom_site_fract_z
 _atom_site_occupancy
  Cs  Cs0  1  0.25000000  0.00571381  0.37834529  1
  Cs  Cs1  1  0.25000000  0.50571381  0.12165471  1
  Cs  Cs2  1  0.75000000  0.99428619  0.62165471  1
  Cs  Cs3  1  0.75000000  0.49428619  0.87834529  1
  Cs  Cs4  1  0.25000000  0.46104392  0.61921051  1
  Cs  Cs5  1  0.25000000  0.96104392  0.88078949  1
  Cs  Cs6  1  0.75000000  0.53895608  0.38078949  1
  Cs  Cs7  1  0.75000000  0.03895608  0.11921051  1
  Zn  Zn8  1  0.25000000  0.20562958  0.64429087  1
  Zn  Zn9  1  0.25000000  0.70562958  0.85570913  1
  Zn  Zn10  1  0.75000000  0.79437042  0.35570913  1
  Zn  Zn11  1  0.75000000  0.29437042  0.14429087  1
  Bi  Bi12  1  0.25000000  0.25048112  0.98322530  1
  Bi  Bi13  1  0.25000000  0.75048112  0.51677470  1
  Bi  Bi14  1  0.75000000  0.74951888  0.01677470  1
  Bi  Bi15  1  0.75000000  0.24951888  0.48322530  1
  Bi  Bi16  1  0.25000000  0.29148789  0.30155567  1
  Bi  Bi17  1  0.25000000  0.79148789  0.19844433  1
  Bi  Bi18  1  0.75000000  0.70851211  0.69844433  1
  Bi  Bi19  1  0.75000000  0.20851211  0.80155567  1
  S  S20  1  0.25000000  0.10909745  0.74241975  1
  S  S21  1  0.25000000  0.60909745  0.75758025  1
  S  S22  1  0.75000000  0.89090255  0.25758025  1
  S  S23  1  0.75000000  0.39090255  0.24241975  1
  S  S24  1  0.25000000  0.14239397  0.52870232  1
  S  S25  1  0.25000000  0.64239397  0.97129768  1
  S  S26  1  0.75000000  0.85760603  0.47129768  1
  S  S27  1  0.75000000  0.35760603  0.02870232  1
  S  S28  1  0.25000000  0.21555859  0.15536152  1
  S  S29  1  0.25000000  0.71555859  0.34463848  1
  S  S30  1  0.75000000  0.78444141  0.84463848  1
  S  S31  1  0.75000000  0.28444141  0.65536152  1
  S  S32  1  0.25000000  0.31819706  0.85173440  1
  S  S33  1  0.25000000  0.81819706  0.64826560  1
  S  S34  1  0.75000000  0.68180294  0.14826560  1
  S  S35  1  0.75000000  0.18180294  0.35173440  1
  S  S36  1  0.25000000  0.36622679  0.43743573  1
  S  S37  1  0.25000000  0.86622679  0.06256427  1
  S  S38  1  0.75000000  0.63377321  0.56256427  1
  S  S39  1  0.75000000  0.13377321  0.93743573  1
