# generated using pymatgen
data_K4(BSe)9
_symmetry_space_group_name_H-M   'P 1'
_cell_length_a   22.65903195
_cell_length_b   22.65903195
_cell_length_c   10.01924401
_cell_angle_alpha   82.98327739
_cell_angle_beta   82.98327739
_cell_angle_gamma   137.08049840
_symmetry_Int_Tables_number   1
_chemical_formula_structural   K4(BSe)9
_chemical_formula_sum   'K24 B54 Se54'
_cell_volume   3301.99159047
_cell_formula_units_Z   6
loop_
 _symmetry_equiv_pos_site_id
 _symmetry_equiv_pos_as_xyz
  1  'x, y, z'
loop_
 _atom_site_type_symbol
 _atom_site_label
 _atom_site_symmetry_multiplicity
 _atom_site_fract_x
 _atom_site_fract_y
 _atom_site_fract_z
 _atom_site_occupancy
  K  K0  1  0.74437300  0.59809200  0.10025700  1
  K  K1  1  0.86543700  0.14814500  0.99631700  1
  K  K2  1  0.45870300  0.08829700  0.09105900  1
  K  K3  1  0.79370300  0.17041400  0.48686600  1
  K  K4  1  0.16013500  0.16013500  0.39208100  1
  K  K5  1  0.05842500  0.25262800  0.53073400  1
  K  K6  1  0.39518700  0.24522400  0.95787000  1
  K  K7  1  0.91204200  0.39361300  0.77790300  1
  K  K8  1  0.73519700  0.90050000  0.51397100  1
  K  K9  1  0.90050000  0.73519700  0.51397100  1
  K  K10  1  0.60837000  0.60837000  0.58147900  1
  K  K11  1  0.24747200  0.39262900  0.96236500  1
  K  K12  1  0.49349100  0.49349100  0.02055400  1
  K  K13  1  0.17041400  0.79370300  0.48686600  1
  K  K14  1  0.59809200  0.74437300  0.10025700  1
  K  K15  1  0.39361300  0.91204200  0.77790300  1
  K  K16  1  0.40575700  0.40294300  0.45757300  1
  K  K17  1  0.07599900  0.62556900  0.19829100  1
  K  K18  1  0.25262800  0.05842500  0.53073400  1
  K  K19  1  0.08829700  0.45870300  0.09105900  1
  K  K20  1  0.83326400  0.51392400  0.90462000  1
  K  K21  1  0.14814500  0.86543700  0.99631700  1
  K  K22  1  0.62556900  0.07599900  0.19829100  1
  K  K23  1  0.51392400  0.83326400  0.90462000  1
  B  B24  1  0.67229100  0.40922000  0.48322000  1
  B  B25  1  0.91818500  0.60005400  0.36998500  1
  B  B26  1  0.81790700  0.98211000  0.84992600  1
  B  B27  1  0.55783700  0.22434200  0.63084400  1
  B  B28  1  0.62594900  0.12927100  0.75109400  1
  B  B29  1  0.34491200  0.74156000  0.45441900  1
  B  B30  1  0.90890600  0.97529700  0.03680700  1
  B  B31  1  0.81271000  0.31881400  0.22085300  1
  B  B32  1  0.62830300  0.33420900  0.65015800  1
  B  B33  1  0.29679600  0.55760300  0.53266600  1
  B  B34  1  0.18243700  0.01502200  0.14671500  1
  B  B35  1  0.08764400  0.08764400  0.85359800  1
  B  B36  1  0.72464700  0.72464700  0.17562900  1
  B  B37  1  0.66494500  0.48599600  0.70331900  1
  B  B38  1  0.04195000  0.37839500  0.62708300  1
  B  B39  1  0.97529700  0.90890600  0.03680700  1
  B  B40  1  0.40765200  0.74072600  0.54114100  1
  B  B41  1  0.30702500  0.67295800  0.34325800  1
  B  B42  1  0.33420900  0.62830300  0.65015800  1
  B  B43  1  0.48599600  0.66494500  0.70331900  1
  B  B44  1  0.22434200  0.55783700  0.63084400  1
  B  B45  1  0.01502200  0.18243700  0.14671500  1
  B  B46  1  0.40922000  0.67229100  0.48322000  1
  B  B47  1  0.90993700  0.90993700  0.14827900  1
  B  B48  1  0.02674100  0.98225700  0.14195700  1
  B  B49  1  0.02161000  0.08787300  0.96399400  1
  B  B50  1  0.62995500  0.22997600  0.51527700  1
  B  B51  1  0.67295800  0.30702500  0.34325800  1
  B  B52  1  0.74156000  0.34491200  0.45441900  1
  B  B53  1  0.34747000  0.62854600  0.35728700  1
  B  B54  1  0.23204200  0.55969500  0.45133200  1
  B  B55  1  0.98225700  0.02674100  0.14195700  1
  B  B56  1  0.31881400  0.81271000  0.22085300  1
  B  B57  1  0.74302500  0.41648400  0.36272300  1
  B  B58  1  0.22997600  0.62995500  0.51527700  1
  B  B59  1  0.37839500  0.04195000  0.62708300  1
  B  B60  1  0.67092400  0.29190300  0.63674000  1
  B  B61  1  0.08787300  0.02161000  0.96399400  1
  B  B62  1  0.12927100  0.62594900  0.75109400  1
  B  B63  1  0.29190300  0.67092400  0.63674000  1
  B  B64  1  0.55969500  0.23204200  0.45133200  1
  B  B65  1  0.90351400  0.90351400  0.97420500  1
  B  B66  1  0.30914200  0.47172200  0.34360100  1
  B  B67  1  0.09261700  0.09261700  0.02723300  1
  B  B68  1  0.55760300  0.29679600  0.53266600  1
  B  B69  1  0.62854600  0.34747000  0.35728700  1
  B  B70  1  0.41648400  0.74302500  0.36272300  1
  B  B71  1  0.27489800  0.27489800  0.83339500  1
  B  B72  1  0.01492200  0.97049700  0.85886200  1
  B  B73  1  0.74072600  0.40765200  0.54114100  1
  B  B74  1  0.97049700  0.01492300  0.85886200  1
  B  B75  1  0.98211000  0.81790700  0.84992600  1
  B  B76  1  0.47172200  0.30914200  0.34360100  1
  B  B77  1  0.60005400  0.91818500  0.36998500  1
  Se  Se78  1  0.27151200  0.45059400  0.54926000  1
  Se  Se79  1  0.59443500  0.03489800  0.88057500  1
  Se  Se80  1  0.04630200  0.19417900  0.94299700  1
  Se  Se81  1  0.03128400  0.72700800  0.31804700  1
  Se  Se82  1  0.02486300  0.92117100  0.71417900  1
  Se  Se83  1  0.54271600  0.85573500  0.22590600  1
  Se  Se84  1  0.36908500  0.84679000  0.38023400  1
  Se  Se85  1  0.95563600  0.80311800  0.05552100  1
  Se  Se86  1  0.69429800  0.51216700  0.49498200  1
  Se  Se87  1  0.36570100  0.58552900  0.21088600  1
  Se  Se88  1  0.44808900  0.11535300  0.42425200  1
  Se  Se89  1  0.61653300  0.37148800  0.81543600  1
  Se  Se90  1  0.60132800  0.60132800  0.25128700  1
  Se  Se91  1  0.12372200  0.60347300  0.56162100  1
  Se  Se92  1  0.68013300  0.24049600  0.80052000  1
  Se  Se93  1  0.85573500  0.54271600  0.22590600  1
  Se  Se94  1  0.71372700  0.29165200  0.16990900  1
  Se  Se95  1  0.43822000  0.10351900  0.76843200  1
  Se  Se96  1  0.28884200  0.38527200  0.26960600  1
  Se  Se97  1  0.37148800  0.61653300  0.81543600  1
  Se  Se98  1  0.20561900  0.20561900  0.70435000  1
  Se  Se99  1  0.79473400  0.79473400  0.30259600  1
  Se  Se100  1  0.97765900  0.73692900  0.78517600  1
  Se  Se101  1  0.11535300  0.44808900  0.42425200  1
  Se  Se102  1  0.73692900  0.97765900  0.78517600  1
  Se  Se103  1  0.21094800  0.21094800  0.03806900  1
  Se  Se104  1  0.86772900  0.29547400  0.11820000  1
  Se  Se105  1  0.29547400  0.86772900  0.11820000  1
  Se  Se106  1  0.92117100  0.02486300  0.71417900  1
  Se  Se107  1  0.38527200  0.28884200  0.26960600  1
  Se  Se108  1  0.29165200  0.71372700  0.16990900  1
  Se  Se109  1  0.45059400  0.27151200  0.54926000  1
  Se  Se110  1  0.91777900  0.25951400  0.68640100  1
  Se  Se111  1  0.97371200  0.07496500  0.28540000  1
  Se  Se112  1  0.72700800  0.03128400  0.31804700  1
  Se  Se113  1  0.60347300  0.12372200  0.56162100  1
  Se  Se114  1  0.03489800  0.59443500  0.88057500  1
  Se  Se115  1  0.10351900  0.43822000  0.76843200  1
  Se  Se116  1  0.68746700  0.56986000  0.78950800  1
  Se  Se117  1  0.85952300  0.51923100  0.56703000  1
  Se  Se118  1  0.25951400  0.91777900  0.68640100  1
  Se  Se119  1  0.78296600  0.78296600  0.96937500  1
  Se  Se120  1  0.80311800  0.95563600  0.05552100  1
  Se  Se121  1  0.07496500  0.97371200  0.28540000  1
  Se  Se122  1  0.56986000  0.68746700  0.78950800  1
  Se  Se123  1  0.84679000  0.36908500  0.38023400  1
  Se  Se124  1  0.51216700  0.69429800  0.49498200  1
  Se  Se125  1  0.26509200  0.02549500  0.20889600  1
  Se  Se126  1  0.19417900  0.04630200  0.94299700  1
  Se  Se127  1  0.24049600  0.68013300  0.80052000  1
  Se  Se128  1  0.02549500  0.26509200  0.20889600  1
  Se  Se129  1  0.58552900  0.36570100  0.21088600  1
  Se  Se130  1  0.39862100  0.39596100  0.77881000  1
  Se  Se131  1  0.51923100  0.85952300  0.56703000  1
