# generated using pymatgen
data_WSe2
_symmetry_space_group_name_H-M   'P 1'
_cell_length_a   3.31811597
_cell_length_b   3.31811582
_cell_length_c   29.73944741
_cell_angle_alpha   90.00000000
_cell_angle_beta   90.00000000
_cell_angle_gamma   120.00001196
_symmetry_Int_Tables_number   1
_chemical_formula_structural   WSe2
_chemical_formula_sum   'W3 Se6'
_cell_volume   283.56104990
_cell_formula_units_Z   3
loop_
 _symmetry_equiv_pos_site_id
 _symmetry_equiv_pos_as_xyz
  1  'x, y, z'
loop_
 _atom_site_type_symbol
 _atom_site_label
 _atom_site_symmetry_multiplicity
 _atom_site_fract_x
 _atom_site_fract_y
 _atom_site_fract_z
 _atom_site_occupancy
  W  W0  1  0.66666700  0.33333300  0.34664200  1
  W  W1  1  0.33333300  0.66666700  0.11708944  1
  W  W2  1  0.33333300  0.66666700  0.57619356  1
  Se  Se3  1  0.33333300  0.66666700  0.40256711  1
  Se  Se4  1  0.66666700  0.33333300  0.17300902  1
  Se  Se5  1  0.66666700  0.33333300  0.63208804  1
  Se  Se6  1  0.33333300  0.66666700  0.29071689  1
  Se  Se7  1  0.66666700  0.33333300  0.06119496  1
  Se  Se8  1  0.66666700  0.33333300  0.52027498  1
