# generated using pymatgen
data_Pr3CBr5
_symmetry_space_group_name_H-M   'P 1'
_cell_length_a   7.68121388
_cell_length_b   9.14017450
_cell_length_c   9.22967269
_cell_angle_alpha   108.15911601
_cell_angle_beta   97.70273233
_cell_angle_gamma   105.91439624
_symmetry_Int_Tables_number   1
_chemical_formula_structural   Pr3CBr5
_chemical_formula_sum   'Pr6 C2 Br10'
_cell_volume   574.78548399
_cell_formula_units_Z   2
loop_
 _symmetry_equiv_pos_site_id
 _symmetry_equiv_pos_as_xyz
  1  'x, y, z'
loop_
 _atom_site_type_symbol
 _atom_site_label
 _atom_site_symmetry_multiplicity
 _atom_site_fract_x
 _atom_site_fract_y
 _atom_site_fract_z
 _atom_site_occupancy
  Pr  Pr0  1  0.88697903  0.95662514  0.23328973  1
  Pr  Pr1  1  0.11302097  0.04337486  0.76671027  1
  Pr  Pr2  1  0.02678152  0.71589020  0.91591871  1
  Pr  Pr3  1  0.97321848  0.28410980  0.08408129  1
  Pr  Pr4  1  0.60660355  0.84448084  0.79591689  1
  Pr  Pr5  1  0.39339645  0.15551916  0.20408311  1
  C  C6  1  0.90811523  0.96588141  0.95368187  1
  C  C7  1  0.09188477  0.03411859  0.04631813  1
  Br  Br8  1  0.74400844  0.91279616  0.53116096  1
  Br  Br9  1  0.25599156  0.08720384  0.46883904  1
  Br  Br10  1  0.45579045  0.81732388  0.08478521  1
  Br  Br11  1  0.54420955  0.18267612  0.91521479  1
  Br  Br12  1  0.82461451  0.27293573  0.36280886  1
  Br  Br13  1  0.17538549  0.72706427  0.63719114  1
  Br  Br14  1  0.90781874  0.62661381  0.17869697  1
  Br  Br15  1  0.09218126  0.37338619  0.82130303  1
  Br  Br16  1  0.64630502  0.52494440  0.71679083  1
  Br  Br17  1  0.35369498  0.47505560  0.28320917  1
