# generated using pymatgen
data_Li5V3P8O29
_symmetry_space_group_name_H-M   'P 1'
_cell_length_a   9.81912775
_cell_length_b   9.83439709
_cell_length_c   14.08710148
_cell_angle_alpha   89.75528830
_cell_angle_beta   89.72786783
_cell_angle_gamma   59.70878525
_symmetry_Int_Tables_number   1
_chemical_formula_structural   Li5V3P8O29
_chemical_formula_sum   'Li10 V6 P16 O58'
_cell_volume   1174.58671110
_cell_formula_units_Z   2
loop_
 _symmetry_equiv_pos_site_id
 _symmetry_equiv_pos_as_xyz
  1  'x, y, z'
loop_
 _atom_site_type_symbol
 _atom_site_label
 _atom_site_symmetry_multiplicity
 _atom_site_fract_x
 _atom_site_fract_y
 _atom_site_fract_z
 _atom_site_occupancy
  Li  Li0  1  0.90257405  0.77206415  0.06030543  1
  Li  Li1  1  0.76364237  0.89813784  0.55813530  1
  Li  Li2  1  0.89826102  0.33084000  0.55756931  1
  Li  Li3  1  0.76935750  0.31847866  0.06280445  1
  Li  Li4  1  0.32358173  0.90500902  0.06156480  1
  Li  Li5  1  0.33155375  0.76226600  0.55737241  1
  Li  Li6  1  0.22329848  0.68398824  0.94187472  1
  Li  Li7  1  0.23616564  0.09932375  0.43710700  1
  Li  Li8  1  0.08916010  0.22969985  0.94020389  1
  Li  Li9  1  0.97617413  0.98035335  0.49191077  1
  V  V10  1  0.56739447  0.43050464  0.25352989  1
  V  V11  1  0.43549251  0.56450920  0.74920121  1
  V  V12  1  0.56965235  0.00148613  0.75283624  1
  V  V13  1  0.43582126  0.99925892  0.24733527  1
  V  V14  1  0.00504336  0.56594214  0.25449623  1
  V  V15  1  0.99695952  0.43585593  0.74593250  1
  P  P16  1  0.91236393  0.76624774  0.84272919  1
  P  P17  1  0.77238370  0.91328940  0.34306234  1
  P  P18  1  0.91323454  0.31531897  0.33987864  1
  P  P19  1  0.67155396  0.66194837  0.13031211  1
  P  P20  1  0.66323838  0.67278556  0.62828572  1
  P  P21  1  0.76886290  0.31902733  0.84374210  1
  P  P22  1  0.69363616  0.22214989  0.66052626  1
  P  P23  1  0.31912538  0.91253020  0.84105711  1
  P  P24  1  0.68567640  0.08639997  0.16059837  1
  P  P25  1  0.31344150  0.77540541  0.34264164  1
  P  P26  1  0.23130908  0.68185479  0.16080446  1
  P  P27  1  0.33330831  0.32929380  0.37173062  1
  P  P28  1  0.32943139  0.33304375  0.86926195  1
  P  P29  1  0.08535109  0.69046567  0.65983191  1
  P  P30  1  0.23121073  0.08680106  0.65791444  1
  P  P31  1  0.08811191  0.23299004  0.15723921  1
  O  O32  1  0.99351648  0.79536418  0.57918165  1
  O  O33  1  0.91654673  0.74294802  0.32900845  1
  O  O34  1  0.77159771  0.98957523  0.07732934  1
  O  O35  1  0.74515694  0.91427587  0.83406315  1
  O  O36  1  0.90007220  0.61946987  0.82305458  1
  O  O37  1  0.81919017  0.66456459  0.17393231  1
  O  O38  1  0.91208584  0.47238287  0.32746393  1
  O  O39  1  0.99736951  0.24742619  0.06866763  1
  O  O40  1  0.91647741  0.33837477  0.83503525  1
  O  O41  1  0.67251760  0.81699178  0.67239707  1
  O  O42  1  0.61872145  0.91220079  0.33185043  1
  O  O43  1  0.80833252  0.51506325  0.66651634  1
  O  O44  1  0.67733243  0.66480286  0.02438812  1
  O  O45  1  0.66717622  0.68209610  0.52259282  1
  O  O46  1  0.67472581  0.51038262  0.16911608  1
  O  O47  1  0.47955240  0.90242034  0.82147947  1
  O  O48  1  0.51624121  0.81151465  0.16823545  1
  O  O49  1  0.74484631  0.34362500  0.33673803  1
  O  O50  1  0.78810193  0.20224730  0.75864714  1
  O  O51  1  0.80000232  0.20384279  0.57900324  1
  O  O52  1  0.75839140  0.25489574  0.93665541  1
  O  O53  1  0.61798573  0.47986071  0.81948236  1
  O  O54  1  0.50883296  0.68166192  0.66629098  1
  O  O55  1  0.66202676  0.25410435  0.16012895  1
  O  O56  1  0.46903505  0.62106408  0.33102188  1
  O  O57  1  0.33809788  0.91986011  0.33329654  1
  O  O58  1  0.78799486  0.01086573  0.25678619  1
  O  O59  1  0.79271549  0.97694848  0.43481094  1
  O  O60  1  0.23361905  0.99967695  0.56960212  1
  O  O61  1  0.66365018  0.07991284  0.66257562  1
  O  O62  1  0.53720876  0.37805866  0.66821232  1
  O  O63  1  0.33597109  0.74782153  0.84150421  1
  O  O64  1  0.47949948  0.32623011  0.32795958  1
  O  O65  1  0.38250603  0.52341966  0.17805622  1
  O  O66  1  0.23923961  0.76028941  0.07058329  1
  O  O67  1  0.22320416  0.79379897  0.43253034  1
  O  O68  1  0.20538191  0.79293705  0.25083112  1
  O  O69  1  0.25727062  0.65953363  0.66129815  1
  O  O70  1  0.47838156  0.18397961  0.82099713  1
  O  O71  1  0.52417026  0.09550755  0.17812267  1
  O  O72  1  0.32900010  0.48374794  0.83083993  1
  O  O73  1  0.33571290  0.32211853  0.97435480  1
  O  O74  1  0.31496080  0.34057682  0.47661800  1
  O  O75  1  0.18354413  0.48189455  0.32351943  1
  O  O76  1  0.38533298  0.08855551  0.67357801  1
  O  O77  1  0.32183930  0.18635094  0.33250831  1
  O  O78  1  0.08473319  0.66069376  0.16042605  1
  O  O79  1  0.01140826  0.78565613  0.75803109  1
  O  O80  1  0.99445815  0.75798810  0.93373305  1
  O  O81  1  0.08496176  0.53453697  0.66906074  1
  O  O82  1  0.18380988  0.32811561  0.82809607  1
  O  O83  1  0.09681964  0.38204332  0.17767159  1
  O  O84  1  0.25333790  0.08392635  0.15599254  1
  O  O85  1  0.24432519  0.00194787  0.93064724  1
  O  O86  1  0.20826703  0.00243128  0.75079402  1
  O  O87  1  0.08513695  0.25495797  0.65750913  1
  O  O88  1  0.99881216  0.22835580  0.42876513  1
  O  O89  1  0.00067906  0.20884963  0.24830587  1
