# generated using pymatgen
data_Na2ZrS3
_symmetry_space_group_name_H-M   'P 1'
_cell_length_a   6.65743556
_cell_length_b   6.65743556
_cell_length_c   6.92211821
_cell_angle_alpha   80.68250689
_cell_angle_beta   80.68250689
_cell_angle_gamma   120.04400021
_symmetry_Int_Tables_number   1
_chemical_formula_structural   Na2ZrS3
_chemical_formula_sum   'Na4 Zr2 S6'
_cell_volume   251.24889085
_cell_formula_units_Z   2
loop_
 _symmetry_equiv_pos_site_id
 _symmetry_equiv_pos_as_xyz
  1  'x, y, z'
loop_
 _atom_site_type_symbol
 _atom_site_label
 _atom_site_symmetry_multiplicity
 _atom_site_fract_x
 _atom_site_fract_y
 _atom_site_fract_z
 _atom_site_occupancy
  Na  Na0  1  0.65851130  0.34148870  0.50000000  1
  Na  Na1  1  0.34148870  0.65851130  0.50000000  1
  Na  Na2  1  0.50000000  0.50000000  -0.00000000  1
  Na  Na3  1  0.00000000  0.00000000  0.50000000  1
  Zr  Zr4  1  0.83184274  0.16815726  -0.00000000  1
  Zr  Zr5  1  0.16815726  0.83184274  -0.00000000  1
  S  S6  1  0.78540674  0.78540674  0.22279992  1
  S  S7  1  0.21459326  0.21459326  0.77720008  1
  S  S8  1  0.42495752  0.06413416  0.22301196  1
  S  S9  1  0.57504248  0.93586584  0.77698804  1
  S  S10  1  0.93586584  0.57504248  0.77698804  1
  S  S11  1  0.06413416  0.42495752  0.22301196  1
