# generated using pymatgen
data_BaGePbO4
_symmetry_space_group_name_H-M   'P 1'
_cell_length_a   6.25566285
_cell_length_b   7.68566832
_cell_length_c   10.24030058
_cell_angle_alpha   90.00000000
_cell_angle_beta   90.00000000
_cell_angle_gamma   90.00000000
_symmetry_Int_Tables_number   1
_chemical_formula_structural   BaGePbO4
_chemical_formula_sum   'Ba4 Ge4 Pb4 O16'
_cell_volume   492.34289739
_cell_formula_units_Z   4
loop_
 _symmetry_equiv_pos_site_id
 _symmetry_equiv_pos_as_xyz
  1  'x, y, z'
loop_
 _atom_site_type_symbol
 _atom_site_label
 _atom_site_symmetry_multiplicity
 _atom_site_fract_x
 _atom_site_fract_y
 _atom_site_fract_z
 _atom_site_occupancy
  Ba  Ba0  1  0.47639679  0.74950177  0.78662471  1
  Ba  Ba1  1  0.97639679  0.75049823  0.21337529  1
  Ba  Ba2  1  0.02360321  0.25049823  0.28662471  1
  Ba  Ba3  1  0.52360321  0.24950177  0.71337529  1
  Ge  Ge4  1  0.51871302  0.95881569  0.09009894  1
  Ge  Ge5  1  0.01871302  0.54118431  0.90990106  1
  Ge  Ge6  1  0.98128698  0.04118431  0.59009894  1
  Ge  Ge7  1  0.48128698  0.45881569  0.40990106  1
  Pb  Pb8  1  0.43168793  0.94903590  0.40879249  1
  Pb  Pb9  1  0.93168793  0.55096410  0.59120751  1
  Pb  Pb10  1  0.06831207  0.05096410  0.90879249  1
  Pb  Pb11  1  0.56831207  0.44903590  0.09120751  1
  O  O12  1  0.43478255  0.05076046  0.93993850  1
  O  O13  1  0.93478255  0.44923954  0.06006150  1
  O  O14  1  0.06521745  0.94923954  0.43993850  1
  O  O15  1  0.56521745  0.55076046  0.56006150  1
  O  O16  1  0.74199708  0.05015198  0.16540571  1
  O  O17  1  0.24199708  0.44984802  0.83459429  1
  O  O18  1  0.75800292  0.94984802  0.66540571  1
  O  O19  1  0.25800292  0.55015198  0.33459429  1
  O  O20  1  0.58665459  0.73874344  0.05545486  1
  O  O21  1  0.08665459  0.76125656  0.94454514  1
  O  O22  1  0.91334541  0.26125656  0.55545486  1
  O  O23  1  0.41334541  0.23874344  0.44454514  1
  O  O24  1  0.30006299  0.98374884  0.19935215  1
  O  O25  1  0.80006299  0.51625116  0.80064785  1
  O  O26  1  0.19993701  0.01625116  0.69935215  1
  O  O27  1  0.69993701  0.48374884  0.30064785  1
