# generated using pymatgen
data_Y9Al5S21
_symmetry_space_group_name_H-M   'P 1'
_cell_length_a   11.40508659
_cell_length_b   11.40508660
_cell_length_c   11.40508670
_cell_angle_alpha   94.11298346
_cell_angle_beta   94.11298341
_cell_angle_gamma   94.11297479
_symmetry_Int_Tables_number   1
_chemical_formula_structural   Y9Al5S21
_chemical_formula_sum   'Y18 Al10 S42'
_cell_volume   1471.48435128
_cell_formula_units_Z   2
loop_
 _symmetry_equiv_pos_site_id
 _symmetry_equiv_pos_as_xyz
  1  'x, y, z'
loop_
 _atom_site_type_symbol
 _atom_site_label
 _atom_site_symmetry_multiplicity
 _atom_site_fract_x
 _atom_site_fract_y
 _atom_site_fract_z
 _atom_site_occupancy
  Y  Y0  1  0.26245617  0.11860666  0.88531406  1
  Y  Y1  1  0.93115818  0.77600186  0.54630078  1
  Y  Y2  1  0.60309065  0.44915817  0.23354005  1
  Y  Y3  1  0.44915817  0.23354005  0.60309065  1
  Y  Y4  1  0.11860666  0.88531406  0.26245617  1
  Y  Y5  1  0.77600186  0.54630078  0.93115818  1
  Y  Y6  1  0.54630078  0.93115818  0.77600186  1
  Y  Y7  1  0.23354005  0.60309065  0.44915817  1
  Y  Y8  1  0.88531406  0.26245617  0.11860666  1
  Y  Y9  1  0.41470578  0.56667935  0.79188327  1
  Y  Y10  1  0.07033366  0.22564518  0.45477783  1
  Y  Y11  1  0.75518814  0.90115580  0.12545061  1
  Y  Y12  1  0.22564518  0.45477783  0.07033366  1
  Y  Y13  1  0.90115580  0.12545061  0.75518814  1
  Y  Y14  1  0.56667935  0.79188327  0.41470578  1
  Y  Y15  1  0.12545061  0.75518814  0.90115580  1
  Y  Y16  1  0.79188327  0.41470578  0.56667935  1
  Y  Y17  1  0.45477783  0.07033366  0.22564518  1
  Al  Al18  1  0.95254799  0.61229933  0.27988020  1
  Al  Al19  1  0.61229933  0.27988020  0.95254799  1
  Al  Al20  1  0.27988020  0.95254799  0.61229933  1
  Al  Al21  1  0.45178192  0.77631549  0.11672147  1
  Al  Al22  1  0.11672147  0.45178192  0.77631549  1
  Al  Al23  1  0.77631549  0.11672147  0.45178192  1
  Al  Al24  1  0.13957701  0.13957701  0.13957701  1
  Al  Al25  1  0.82300385  0.82300385  0.82300385  1
  Al  Al26  1  0.32202968  0.32202968  0.32202968  1
  Al  Al27  1  0.64099501  0.64099501  0.64099501  1
  S  S28  1  0.82814381  0.49106686  0.16087408  1
  S  S29  1  0.49106686  0.16087408  0.82814381  1
  S  S30  1  0.16087408  0.82814381  0.49106686  1
  S  S31  1  0.66103820  0.99217552  0.32712872  1
  S  S32  1  0.32712872  0.66103820  0.99217552  1
  S  S33  1  0.99217552  0.32712872  0.66103820  1
  S  S34  1  0.99190129  0.55310909  0.46026771  1
  S  S35  1  0.64654640  0.21710783  0.13161600  1
  S  S36  1  0.30896103  0.89400248  0.79531202  1
  S  S37  1  0.89400248  0.79531202  0.30896103  1
  S  S38  1  0.55310909  0.46026771  0.99190129  1
  S  S39  1  0.21710783  0.13161600  0.64654640  1
  S  S40  1  0.13161600  0.64654640  0.21710783  1
  S  S41  1  0.79531202  0.30896103  0.89400248  1
  S  S42  1  0.46026771  0.99190129  0.55310909  1
  S  S43  1  0.52327184  0.93733375  0.03698824  1
  S  S44  1  0.18751601  0.61584855  0.70244842  1
  S  S45  1  0.84224706  0.28125321  0.37188873  1
  S  S46  1  0.61584855  0.70244842  0.18751601  1
  S  S47  1  0.28125321  0.37188873  0.84224706  1
  S  S48  1  0.93733375  0.03698824  0.52327184  1
  S  S49  1  0.37188873  0.84224706  0.28125321  1
  S  S50  1  0.03698824  0.52327184  0.93733375  1
  S  S51  1  0.70244842  0.18751601  0.61584855  1
  S  S52  1  0.68759888  0.58585382  0.44446351  1
  S  S53  1  0.33283996  0.23652411  0.10601807  1
  S  S54  1  0.00010050  0.89702317  0.76159922  1
  S  S55  1  0.89702317  0.76159922  0.00010050  1
  S  S56  1  0.58585382  0.44446351  0.68759888  1
  S  S57  1  0.23652411  0.10601807  0.33283996  1
  S  S58  1  0.10601807  0.33283996  0.23652411  1
  S  S59  1  0.76159922  0.00010050  0.89702317  1
  S  S60  1  0.44446351  0.68759888  0.58585382  1
  S  S61  1  0.61892255  0.71495390  0.84544963  1
  S  S62  1  0.27078060  0.37705006  0.50929346  1
  S  S63  1  0.95733392  0.05603525  0.20062641  1
  S  S64  1  0.37705006  0.50929346  0.27078060  1
  S  S65  1  0.05603525  0.20062641  0.95733392  1
  S  S66  1  0.71495390  0.84544963  0.61892255  1
  S  S67  1  0.20062641  0.95733392  0.05603525  1
  S  S68  1  0.84544963  0.61892255  0.71495390  1
  S  S69  1  0.50929346  0.27078060  0.37705006  1
