# generated using pymatgen
data_Cd(GaCl4)2
_symmetry_space_group_name_H-M   'P 1'
_cell_length_a   6.71082672
_cell_length_b   7.12465837
_cell_length_c   13.00437895
_cell_angle_alpha   87.60387204
_cell_angle_beta   90.00000000
_cell_angle_gamma   90.00000000
_symmetry_Int_Tables_number   1
_chemical_formula_structural   Cd(GaCl4)2
_chemical_formula_sum   'Cd2 Ga4 Cl16'
_cell_volume   621.22624930
_cell_formula_units_Z   2
loop_
 _symmetry_equiv_pos_site_id
 _symmetry_equiv_pos_as_xyz
  1  'x, y, z'
loop_
 _atom_site_type_symbol
 _atom_site_label
 _atom_site_symmetry_multiplicity
 _atom_site_fract_x
 _atom_site_fract_y
 _atom_site_fract_z
 _atom_site_occupancy
  Cd  Cd0  1  0.75603351  0.07648683  0.81720491  1
  Cd  Cd1  1  0.24396649  0.07648683  0.31720491  1
  Ga  Ga2  1  0.93463318  0.22791686  0.57768782  1
  Ga  Ga3  1  0.06536682  0.22791686  0.07768782  1
  Ga  Ga4  1  0.57003914  0.63524372  0.77601491  1
  Ga  Ga5  1  0.42996086  0.63524372  0.27601491  1
  Cl  Cl6  1  0.41605849  0.60614038  0.63510323  1
  Cl  Cl7  1  0.58394151  0.60614038  0.13510323  1
  Cl  Cl8  1  0.88097486  0.73470343  0.75769246  1
  Cl  Cl9  1  0.11902514  0.73470343  0.25769246  1
  Cl  Cl10  1  0.93928440  0.48607670  0.49094272  1
  Cl  Cl11  1  0.06071560  0.48607670  0.99094272  1
  Cl  Cl12  1  0.91383313  0.99690329  0.99942685  1
  Cl  Cl13  1  0.08616687  0.99690329  0.49942685  1
  Cl  Cl14  1  0.63174107  0.12716456  0.62017029  1
  Cl  Cl15  1  0.36825893  0.12716456  0.12017029  1
  Cl  Cl16  1  0.56493571  0.37611653  0.87730800  1
  Cl  Cl17  1  0.43506429  0.37611653  0.37730800  1
  Cl  Cl18  1  0.44203996  0.86442783  0.86703282  1
  Cl  Cl19  1  0.55796004  0.86442783  0.36703282  1
  Cl  Cl20  1  0.92746709  0.23622088  0.23361598  1
  Cl  Cl21  1  0.07253291  0.23622088  0.73361598  1
