# generated using pymatgen
data_SrSnO3
_symmetry_space_group_name_H-M   'P 1'
_cell_length_a   5.72636674
_cell_length_b   5.72636706
_cell_length_c   5.72636704
_cell_angle_alpha   90.48428040
_cell_angle_beta   119.45242148
_cell_angle_gamma   119.98990291
_symmetry_Int_Tables_number   1
_chemical_formula_structural   SrSnO3
_chemical_formula_sum   'Sr2 Sn2 O6'
_cell_volume   133.32770579
_cell_formula_units_Z   2
loop_
 _symmetry_equiv_pos_site_id
 _symmetry_equiv_pos_as_xyz
  1  'x, y, z'
loop_
 _atom_site_type_symbol
 _atom_site_label
 _atom_site_symmetry_multiplicity
 _atom_site_fract_x
 _atom_site_fract_y
 _atom_site_fract_z
 _atom_site_occupancy
  Sr  Sr0  1  0.99288459  0.25000000  0.24288459  1
  Sr  Sr1  1  0.00711541  0.75000000  0.75711541  1
  Sn  Sn2  1  0.50000000  -0.00000000  0.50000000  1
  Sn  Sn3  1  0.50000000  0.50000000  -0.00000000  1
  O  O4  1  0.50000000  0.79021724  0.79021724  1
  O  O5  1  0.00000000  0.70978276  0.20978276  1
  O  O6  1  0.50000000  0.20978276  0.20978276  1
  O  O7  1  -0.00000000  0.29021724  0.79021724  1
  O  O8  1  0.57290920  0.75000000  0.32290920  1
  O  O9  1  0.42709080  0.25000000  0.67709080  1
