# generated using pymatgen
data_Mg14CrSnO16
_symmetry_space_group_name_H-M   'P 1'
_cell_length_a   8.76972540
_cell_length_b   8.66107133
_cell_length_c   4.36215442
_cell_angle_alpha   90.00000000
_cell_angle_beta   90.00000000
_cell_angle_gamma   90.00000000
_symmetry_Int_Tables_number   1
_chemical_formula_structural   Mg14CrSnO16
_chemical_formula_sum   'Mg14 Cr1 Sn1 O16'
_cell_volume   331.32838658
_cell_formula_units_Z   1
loop_
 _symmetry_equiv_pos_site_id
 _symmetry_equiv_pos_as_xyz
  1  'x, y, z'
loop_
 _atom_site_type_symbol
 _atom_site_label
 _atom_site_symmetry_multiplicity
 _atom_site_fract_x
 _atom_site_fract_y
 _atom_site_fract_z
 _atom_site_occupancy
  Mg  Mg0  1  0.50000000  0.00000000  0.00000000  1
  Mg  Mg1  1  0.50000000  0.50000000  0.00000000  1
  Mg  Mg2  1  0.00000000  0.25803627  0.50000000  1
  Mg  Mg3  1  0.00000000  0.74196373  0.50000000  1
  Mg  Mg4  1  0.50000000  0.25146272  0.50000000  1
  Mg  Mg5  1  0.50000000  0.74853728  0.50000000  1
  Mg  Mg6  1  0.26017697  0.00000000  0.50000000  1
  Mg  Mg7  1  0.25456504  0.50000000  0.50000000  1
  Mg  Mg8  1  0.73982303  0.00000000  0.50000000  1
  Mg  Mg9  1  0.74543496  0.50000000  0.50000000  1
  Mg  Mg10  1  0.25748766  0.25477093  0.00000000  1
  Mg  Mg11  1  0.25748766  0.74522907  0.00000000  1
  Mg  Mg12  1  0.74251234  0.25477093  0.00000000  1
  Mg  Mg13  1  0.74251234  0.74522907  0.00000000  1
  Cr  Cr14  1  0.00000000  0.50000000  0.00000000  1
  Sn  Sn15  1  0.00000000  0.00000000  0.00000000  1
  O  O16  1  0.27191648  0.00000000  0.00000000  1
  O  O17  1  0.26634386  0.50000000  0.00000000  1
  O  O18  1  0.72808352  0.00000000  0.00000000  1
  O  O19  1  0.73365614  0.50000000  0.00000000  1
  O  O20  1  0.24941777  0.25013411  0.50000000  1
  O  O21  1  0.24941777  0.74986589  0.50000000  1
  O  O22  1  0.75058223  0.25013411  0.50000000  1
  O  O23  1  0.75058223  0.74986589  0.50000000  1
  O  O24  1  0.00000000  0.00000000  0.50000000  1
  O  O25  1  0.00000000  0.50000000  0.50000000  1
  O  O26  1  0.50000000  0.00000000  0.50000000  1
  O  O27  1  0.50000000  0.50000000  0.50000000  1
  O  O28  1  0.00000000  0.26800774  0.00000000  1
  O  O29  1  0.00000000  0.73199226  0.00000000  1
  O  O30  1  0.50000000  0.25153739  0.00000000  1
  O  O31  1  0.50000000  0.74846261  0.00000000  1
