# generated using pymatgen
data_LiNbO3
_symmetry_space_group_name_H-M   'P 1'
_cell_length_a   6.18667861
_cell_length_b   8.26576876
_cell_length_c   9.50933925
_cell_angle_alpha   90.00000000
_cell_angle_beta   89.94088038
_cell_angle_gamma   90.00000000
_symmetry_Int_Tables_number   1
_chemical_formula_structural   LiNbO3
_chemical_formula_sum   'Li8 Nb8 O24'
_cell_volume   486.28504938
_cell_formula_units_Z   8
loop_
 _symmetry_equiv_pos_site_id
 _symmetry_equiv_pos_as_xyz
  1  'x, y, z'
loop_
 _atom_site_type_symbol
 _atom_site_label
 _atom_site_symmetry_multiplicity
 _atom_site_fract_x
 _atom_site_fract_y
 _atom_site_fract_z
 _atom_site_occupancy
  Li  Li0  1  0.51902243  0.18462597  0.51967704  1
  Li  Li1  1  0.48097757  0.68462597  0.98032296  1
  Li  Li2  1  0.48097757  0.81537403  0.48032296  1
  Li  Li3  1  0.51902243  0.31537403  0.01967704  1
  Li  Li4  1  0.77702099  0.38299184  0.77005591  1
  Li  Li5  1  0.22297901  0.88299184  0.72994409  1
  Li  Li6  1  0.22297901  0.61700816  0.22994409  1
  Li  Li7  1  0.77702099  0.11700816  0.27005591  1
  Nb  Nb8  1  0.99747417  0.69777683  0.50153049  1
  Nb  Nb9  1  0.00252583  0.19777683  0.99846951  1
  Nb  Nb10  1  0.00252583  0.30222317  0.49846951  1
  Nb  Nb11  1  0.99747417  0.80222317  0.00153049  1
  Nb  Nb12  1  0.73371043  0.49915087  0.25723903  1
  Nb  Nb13  1  0.26628957  0.99915087  0.24276097  1
  Nb  Nb14  1  0.26628957  0.50084913  0.74276097  1
  Nb  Nb15  1  0.73371043  0.00084913  0.75723903  1
  O  O16  1  0.93209997  0.63099707  0.12533160  1
  O  O17  1  0.06790003  0.13099707  0.37466840  1
  O  O18  1  0.06790003  0.36900293  0.87466840  1
  O  O19  1  0.93209997  0.86900293  0.62533160  1
  O  O20  1  0.81681931  0.30637190  0.13504937  1
  O  O21  1  0.18318069  0.80637190  0.36495063  1
  O  O22  1  0.18318069  0.69362810  0.86495063  1
  O  O23  1  0.81681931  0.19362810  0.63504937  1
  O  O24  1  0.69570110  0.33893201  0.40247163  1
  O  O25  1  0.30429890  0.83893201  0.09752837  1
  O  O26  1  0.30429890  0.66106799  0.59752837  1
  O  O27  1  0.69570110  0.16106799  0.90247163  1
  O  O28  1  0.72575254  0.68674443  0.39563234  1
  O  O29  1  0.27424746  0.18674443  0.10436766  1
  O  O30  1  0.27424746  0.31325557  0.60436766  1
  O  O31  1  0.72575254  0.81325557  0.89563234  1
  O  O32  1  0.06338009  0.48718634  0.36905693  1
  O  O33  1  0.93661991  0.98718634  0.13094307  1
  O  O34  1  0.93661991  0.51281366  0.63094307  1
  O  O35  1  0.06338009  0.01281366  0.86905693  1
  O  O36  1  0.48421516  0.52941767  0.15795298  1
  O  O37  1  0.51578484  0.02941767  0.34204702  1
  O  O38  1  0.51578484  0.47058233  0.84204702  1
  O  O39  1  0.48421516  0.97058233  0.65795298  1
