# generated using pymatgen
data_Na2UF8
_symmetry_space_group_name_H-M   'P 1'
_cell_length_a   6.48259401
_cell_length_b   6.48259401
_cell_length_c   6.48259401
_cell_angle_alpha   130.18253977
_cell_angle_beta   130.18253977
_cell_angle_gamma   73.11511323
_symmetry_Int_Tables_number   1
_chemical_formula_structural   Na2UF8
_chemical_formula_sum   'Na2 U1 F8'
_cell_volume   155.26914332
_cell_formula_units_Z   1
loop_
 _symmetry_equiv_pos_site_id
 _symmetry_equiv_pos_as_xyz
  1  'x, y, z'
loop_
 _atom_site_type_symbol
 _atom_site_label
 _atom_site_symmetry_multiplicity
 _atom_site_fract_x
 _atom_site_fract_y
 _atom_site_fract_z
 _atom_site_occupancy
  Na  Na0  1  0.75000000  0.25000000  0.50000000  1
  Na  Na1  1  0.25000000  0.75000000  0.50000000  1
  U  U2  1  0.00000000  0.00000000  0.00000000  1
  F  F3  1  0.10416981  0.10416981  0.44571298  1
  F  F4  1  0.65845483  0.65845483  0.55428702  1
  F  F5  1  0.10416981  0.65845483  -0.00000000  1
  F  F6  1  0.65845483  0.10416981  -0.00000000  1
  F  F7  1  0.89583019  0.89583019  0.55428702  1
  F  F8  1  0.34154517  0.34154517  0.44571298  1
  F  F9  1  0.89583019  0.34154517  -0.00000000  1
  F  F10  1  0.34154517  0.89583019  -0.00000000  1
