# generated using pymatgen
data_FeOF
_symmetry_space_group_name_H-M   'P 1'
_cell_length_a   3.00845977
_cell_length_b   4.90753574
_cell_length_c   9.56093506
_cell_angle_alpha   90.00006629
_cell_angle_beta   90.00000000
_cell_angle_gamma   90.00000000
_symmetry_Int_Tables_number   1
_chemical_formula_structural   FeOF
_chemical_formula_sum   'Fe4 O4 F4'
_cell_volume   141.15882929
_cell_formula_units_Z   4
loop_
 _symmetry_equiv_pos_site_id
 _symmetry_equiv_pos_as_xyz
  1  'x, y, z'
loop_
 _atom_site_type_symbol
 _atom_site_label
 _atom_site_symmetry_multiplicity
 _atom_site_fract_x
 _atom_site_fract_y
 _atom_site_fract_z
 _atom_site_occupancy
  Fe  Fe0  1  0.75000000  0.47420902  0.34313033  1
  Fe  Fe1  1  0.75000000  0.02579098  0.84313233  1
  Fe  Fe2  1  0.25000000  0.97420771  0.15686688  1
  Fe  Fe3  1  0.24999900  0.52579129  0.65686888  1
  O  O4  1  0.75000000  0.17169390  0.22795503  1
  O  O5  1  0.25000000  0.67169410  0.27204395  1
  O  O6  1  0.75000000  0.32830510  0.72795503  1
  O  O7  1  0.25000000  0.82830690  0.77204395  1
  F  F8  1  0.75000000  0.80276549  0.03077532  1
  F  F9  1  0.25000000  0.30277371  0.46922448  1
  F  F10  1  0.75000000  0.69723551  0.53077532  1
  F  F11  1  0.25000000  0.19722829  0.96922448  1
