# generated using pymatgen
data_RbSi
_symmetry_space_group_name_H-M   'P 1'
_cell_length_a   10.97482996
_cell_length_b   10.97482996
_cell_length_c   11.83208391
_cell_angle_alpha   117.63092056
_cell_angle_beta   117.63092056
_cell_angle_gamma   90.00000000
_symmetry_Int_Tables_number   1
_chemical_formula_structural   RbSi
_chemical_formula_sum   'Rb16 Si16'
_cell_volume   1075.79205186
_cell_formula_units_Z   16
loop_
 _symmetry_equiv_pos_site_id
 _symmetry_equiv_pos_as_xyz
  1  'x, y, z'
loop_
 _atom_site_type_symbol
 _atom_site_label
 _atom_site_symmetry_multiplicity
 _atom_site_fract_x
 _atom_site_fract_y
 _atom_site_fract_z
 _atom_site_occupancy
  Rb  Rb0  1  0.25000000  0.39317484  0.00000000  1
  Rb  Rb1  1  0.25000000  0.89317484  0.00000000  1
  Rb  Rb2  1  0.10682516  0.75000000  0.50000000  1
  Rb  Rb3  1  0.89317484  0.25000000  0.50000000  1
  Rb  Rb4  1  0.75000000  0.60682516  -0.00000000  1
  Rb  Rb5  1  0.75000000  0.10682516  -0.00000000  1
  Rb  Rb6  1  0.60682516  0.75000000  0.50000000  1
  Rb  Rb7  1  0.39317484  0.25000000  0.50000000  1
  Rb  Rb8  1  0.75409471  0.24590529  0.75000000  1
  Rb  Rb9  1  0.49590529  0.74590529  0.75000000  1
  Rb  Rb10  1  0.00409471  0.99590529  0.25000000  1
  Rb  Rb11  1  0.74590529  0.49590529  0.25000000  1
  Rb  Rb12  1  0.24590529  0.75409471  0.25000000  1
  Rb  Rb13  1  0.50409471  0.25409471  0.25000000  1
  Rb  Rb14  1  0.99590529  0.00409471  0.75000000  1
  Rb  Rb15  1  0.25409471  0.50409471  0.75000000  1
  Si  Si16  1  0.26617146  0.48113529  0.34504017  1
  Si  Si17  1  0.57886970  0.98113529  0.34504017  1
  Si  Si18  1  0.36390587  0.07886970  0.84504017  1
  Si  Si19  1  0.98113529  0.57886970  0.84504017  1
  Si  Si20  1  0.73382854  0.51886471  0.65495983  1
  Si  Si21  1  0.42113030  0.01886471  0.65495983  1
  Si  Si22  1  0.63609413  0.92113030  0.15495983  1
  Si  Si23  1  0.01886471  0.42113030  0.15495983  1
  Si  Si24  1  0.76617146  0.86390587  0.34504017  1
  Si  Si25  1  0.07886970  0.36390587  0.34504017  1
  Si  Si26  1  0.86390587  0.76617146  0.84504017  1
  Si  Si27  1  0.48113529  0.26617146  0.84504017  1
  Si  Si28  1  0.23382854  0.13609413  0.65495983  1
  Si  Si29  1  0.92113030  0.63609413  0.65495983  1
  Si  Si30  1  0.13609413  0.23382854  0.15495983  1
  Si  Si31  1  0.51886471  0.73382854  0.15495983  1
