# generated using pymatgen
data_Ba5Li2U3O15
_symmetry_space_group_name_H-M   'P 1'
_cell_length_a   10.47800593
_cell_length_b   10.47800593
_cell_length_c   10.47800593
_cell_angle_alpha   99.54696523
_cell_angle_beta   99.54696523
_cell_angle_gamma   131.93506793
_symmetry_Int_Tables_number   1
_chemical_formula_structural   Ba5Li2U3O15
_chemical_formula_sum   'Ba10 Li4 U6 O30'
_cell_volume   781.57839219
_cell_formula_units_Z   2
loop_
 _symmetry_equiv_pos_site_id
 _symmetry_equiv_pos_as_xyz
  1  'x, y, z'
loop_
 _atom_site_type_symbol
 _atom_site_label
 _atom_site_symmetry_multiplicity
 _atom_site_fract_x
 _atom_site_fract_y
 _atom_site_fract_z
 _atom_site_occupancy
  Ba  Ba0  1  0.75000000  0.25000000  0.50000000  1
  Ba  Ba1  1  0.52643335  0.63288209  0.68260906  1
  Ba  Ba2  1  0.95027303  0.84382429  0.31739094  1
  Ba  Ba3  1  0.15617571  0.47356665  0.10644974  1
  Ba  Ba4  1  0.36711791  0.04972697  0.89355026  1
  Ba  Ba5  1  0.84382429  0.52643335  0.89355026  1
  Ba  Ba6  1  0.63288209  0.95027303  0.10644974  1
  Ba  Ba7  1  0.04972697  0.15617571  0.68260906  1
  Ba  Ba8  1  0.25000000  0.75000000  0.50000000  1
  Ba  Ba9  1  0.47356665  0.36711791  0.31739094  1
  Li  Li10  1  0.40623417  0.19350941  0.59974357  1
  Li  Li11  1  0.80649059  0.40623417  0.21272476  1
  Li  Li12  1  0.19350941  0.59376583  0.78727524  1
  Li  Li13  1  0.59376583  0.80649059  0.40025643  1
  U  U14  1  0.30186325  0.90326250  0.20512575  1
  U  U15  1  0.09673750  0.30186325  0.39860075  1
  U  U16  1  0.50000000  0.50000000  0.00000000  1
  U  U17  1  0.69813675  0.09673750  0.79487425  1
  U  U18  1  0.90326250  0.69813675  0.60139925  1
  U  U19  1  0.00000000  -0.00000000  0.00000000  1
  O  O20  1  0.53779016  0.14013068  0.20078890  1
  O  O21  1  0.33700026  0.53779016  0.39765848  1
  O  O22  1  0.76103551  0.76103551  -0.00000000  1
  O  O23  1  0.93934178  0.33700026  0.79921110  1
  O  O24  1  0.14013068  0.93934178  0.60234152  1
  O  O25  1  0.25329490  0.76027989  0.01357479  1
  O  O26  1  0.04610482  0.14441471  0.19052054  1
  O  O27  1  0.45071642  0.36066321  0.81137963  1
  O  O28  1  0.65470501  0.95323728  0.60794229  1
  O  O29  1  0.85140205  0.55196976  0.40337181  1
  O  O30  1  0.14441471  0.95389518  0.09830989  1
  O  O31  1  0.95323728  0.34529499  0.29853327  1
  O  O32  1  0.36066321  0.54928358  0.90994579  1
  O  O33  1  0.55196976  0.14859795  0.70056771  1
  O  O34  1  0.76027989  0.74670510  0.50698499  1
  O  O35  1  0.06065822  0.66299974  0.20078890  1
  O  O36  1  0.85986932  0.06065822  0.39765848  1
  O  O37  1  0.23896449  0.23896449  0.00000000  1
  O  O38  1  0.46220984  0.85986932  0.79921110  1
  O  O39  1  0.66299974  0.46220984  0.60234152  1
  O  O40  1  0.34529499  0.04676272  0.39205771  1
  O  O41  1  0.14859795  0.44803024  0.59662819  1
  O  O42  1  0.54928358  0.63933679  0.18862037  1
  O  O43  1  0.74670510  0.23972011  0.98642521  1
  O  O44  1  0.95389518  0.85558529  0.80947946  1
  O  O45  1  0.44803024  0.85140205  0.29943229  1
  O  O46  1  0.23972011  0.25329490  0.49301501  1
  O  O47  1  0.63933679  0.45071642  0.09005421  1
  O  O48  1  0.85558529  0.04610482  0.90169011  1
  O  O49  1  0.04676272  0.65470501  0.70146673  1
