# generated using pymatgen
data_LiMg6SbO8
_symmetry_space_group_name_H-M   'P 1'
_cell_length_a   8.80113278
_cell_length_b   4.36025664
_cell_length_c   4.36025664
_cell_angle_alpha   90.00000000
_cell_angle_beta   90.00000000
_cell_angle_gamma   90.00000000
_symmetry_Int_Tables_number   1
_chemical_formula_structural   LiMg6SbO8
_chemical_formula_sum   'Li1 Mg6 Sb1 O8'
_cell_volume   167.32571034
_cell_formula_units_Z   1
loop_
 _symmetry_equiv_pos_site_id
 _symmetry_equiv_pos_as_xyz
  1  'x, y, z'
loop_
 _atom_site_type_symbol
 _atom_site_label
 _atom_site_symmetry_multiplicity
 _atom_site_fract_x
 _atom_site_fract_y
 _atom_site_fract_z
 _atom_site_occupancy
  Li  Li0  1  -0.00000000  0.00000000  0.00000000  1
  Mg  Mg1  1  0.50000000  0.00000000  0.00000000  1
  Mg  Mg2  1  0.50000000  0.50000000  0.50000000  1
  Mg  Mg3  1  0.25918738  -0.00000000  0.50000000  1
  Mg  Mg4  1  0.74081262  0.00000000  0.50000000  1
  Mg  Mg5  1  0.25918738  0.50000000  -0.00000000  1
  Mg  Mg6  1  0.74081262  0.50000000  0.00000000  1
  Sb  Sb7  1  -0.00000000  0.50000000  0.50000000  1
  O  O8  1  0.26038208  -0.00000000  -0.00000000  1
  O  O9  1  0.73961792  0.00000000  0.00000000  1
  O  O10  1  0.26499771  0.50000000  0.50000000  1
  O  O11  1  0.73500229  0.50000000  0.50000000  1
  O  O12  1  -0.00000000  0.00000000  0.50000000  1
  O  O13  1  0.50000000  0.00000000  0.50000000  1
  O  O14  1  -0.00000000  0.50000000  0.00000000  1
  O  O15  1  0.50000000  0.50000000  0.00000000  1
