# generated using pymatgen
data_MgZn3Cu2H14(SO9)2
_symmetry_space_group_name_H-M   'P 1'
_cell_length_a   5.45471422
_cell_length_b   6.51454441
_cell_length_c   12.03118192
_cell_angle_alpha   99.86321662
_cell_angle_beta   97.86800949
_cell_angle_gamma   85.29817811
_symmetry_Int_Tables_number   1
_chemical_formula_structural   MgZn3Cu2H14(SO9)2
_chemical_formula_sum   'Mg1 Zn3 Cu2 H14 S2 O18'
_cell_volume   416.49267046
_cell_formula_units_Z   1
loop_
 _symmetry_equiv_pos_site_id
 _symmetry_equiv_pos_as_xyz
  1  'x, y, z'
loop_
 _atom_site_type_symbol
 _atom_site_label
 _atom_site_symmetry_multiplicity
 _atom_site_fract_x
 _atom_site_fract_y
 _atom_site_fract_z
 _atom_site_occupancy
  Mg  Mg0  1  0.48210760  0.74830825  0.68982088  1
  Zn  Zn1  1  0.00578235  0.00369074  0.01346846  1
  Zn  Zn2  1  0.65053787  0.83575962  0.44666132  1
  Zn  Zn3  1  0.56609980  0.34496071  0.46805755  1
  Cu  Cu4  1  0.10807744  0.01741339  0.50519980  1
  Cu  Cu5  1  0.06472133  0.52618348  0.50401160  1
  H  H6  1  0.76208984  0.34688770  0.05773408  1
  H  H7  1  0.16747412  0.61516255  0.95724868  1
  H  H8  1  0.59839149  0.23658655  0.94225387  1
  H  H9  1  0.35033862  0.71971768  0.06933832  1
  H  H10  1  0.72347039  0.61887019  0.86498100  1
  H  H11  1  0.19240490  0.33178611  0.13894479  1
  H  H12  1  0.48420408  0.74948798  0.91082971  1
  H  H13  1  0.42378813  0.19199763  0.09135213  1
  H  H14  1  0.94264333  0.23048103  0.35727204  1
  H  H15  1  0.99263503  0.82679019  0.63225342  1
  H  H16  1  0.37069855  0.06011494  0.32302111  1
  H  H17  1  0.72343415  0.05593189  0.64737772  1
  H  H18  1  0.41268625  0.57803147  0.31684945  1
  H  H19  1  0.74362406  0.39851304  0.66665385  1
  S  S20  1  0.12711807  0.25347139  0.81900767  1
  S  S21  1  0.79340525  0.71666156  0.19497678  1
  O  O22  1  0.01649391  0.24481012  0.69853825  1
  O  O23  1  0.88123997  0.78364581  0.31914773  1
  O  O24  1  0.39825511  0.27302283  0.83044335  1
  O  O25  1  0.52348028  0.67866155  0.18177495  1
  O  O26  1  0.00552149  0.43540256  0.89075728  1
  O  O27  1  0.93433243  0.52069539  0.15176866  1
  O  O28  1  0.07638380  0.05298116  0.85712715  1
  O  O29  1  0.83169604  0.88761789  0.13261392  1
  O  O30  1  0.42265562  0.07657944  0.40492597  1
  O  O31  1  0.67822800  0.91297187  0.61681894  1
  O  O32  1  0.44472008  0.59122030  0.39981118  1
  O  O33  1  0.59780245  0.46692236  0.62665344  1
  O  O34  1  0.93628565  0.26403135  0.43911624  1
  O  O35  1  0.14893326  0.78527516  0.59689499  1
  O  O36  1  0.25686664  0.74631547  0.99373659  1
  O  O37  1  0.69001237  0.21280376  0.01828792  1
  O  O38  1  0.61010888  0.74387840  0.85645792  1
  O  O39  1  0.26601337  0.18718949  0.12406028  1
