# generated using pymatgen
data_CeSe2
_symmetry_space_group_name_H-M   'P 1'
_cell_length_a   17.54714959
_cell_length_b   18.33975728
_cell_length_c   18.33975728
_cell_angle_alpha   103.22984239
_cell_angle_beta   118.58036674
_cell_angle_gamma   61.41963326
_symmetry_Int_Tables_number   1
_chemical_formula_structural   CeSe2
_chemical_formula_sum   'Ce16 Se32'
_cell_volume   4551.22330820
_cell_formula_units_Z   16
loop_
 _symmetry_equiv_pos_site_id
 _symmetry_equiv_pos_as_xyz
  1  'x, y, z'
loop_
 _atom_site_type_symbol
 _atom_site_label
 _atom_site_symmetry_multiplicity
 _atom_site_fract_x
 _atom_site_fract_y
 _atom_site_fract_z
 _atom_site_occupancy
  Ce  Ce0  1  0.04662525  0.12156921  0.50002824  1
  Ce  Ce1  1  0.66816622  0.87843079  0.49997176  1
  Ce  Ce2  1  0.16819446  0.49997176  0.12156921  1
  Ce  Ce3  1  0.54659702  0.50002824  0.87843079  1
  Ce  Ce4  1  0.95337475  0.87843079  0.49997176  1
  Ce  Ce5  1  0.33183378  0.12156921  0.50002824  1
  Ce  Ce6  1  0.83180554  0.50002824  0.87843079  1
  Ce  Ce7  1  0.45340298  0.49997176  0.12156921  1
  Ce  Ce8  1  0.89521403  0.35478552  0.64522071  1
  Ce  Ce9  1  0.60477883  0.64521448  0.35477929  1
  Ce  Ce10  1  0.24999954  0.35477929  0.35478552  1
  Ce  Ce11  1  0.24999332  0.64522071  0.64521448  1
  Ce  Ce12  1  0.10478597  0.64521448  0.35477929  1
  Ce  Ce13  1  0.39522117  0.35478552  0.64522071  1
  Ce  Ce14  1  0.75000046  0.64522071  0.64521448  1
  Ce  Ce15  1  0.75000668  0.35477929  0.35478552  1
  Se  Se16  1  0.77667927  0.94571286  0.49907140  1
  Se  Se17  1  0.22332073  0.05428714  0.50092860  1
  Se  Se18  1  0.72239213  0.50092860  0.94571286  1
  Se  Se19  1  0.27760787  0.49907140  0.05428714  1
  Se  Se20  1  0.50000000  0.00000000  0.50000000  1
  Se  Se21  1  -0.00000000  0.00000000  0.50000000  1
  Se  Se22  1  0.50000000  0.50000000  0.00000000  1
  Se  Se23  1  -0.00000000  0.50000000  0.00000000  1
  Se  Se24  1  0.76855839  0.78229074  0.63821643  1
  Se  Se25  1  0.91263269  0.21770926  0.36178357  1
  Se  Se26  1  0.55084912  0.36178357  0.78229074  1
  Se  Se27  1  0.13034196  0.63821643  0.21770926  1
  Se  Se28  1  0.23144161  0.21770926  0.36178357  1
  Se  Se29  1  0.08736731  0.78229074  0.63821643  1
  Se  Se30  1  0.44915088  0.63821643  0.21770926  1
  Se  Se31  1  0.86965804  0.36178357  0.78229074  1
  Se  Se32  1  0.63031657  0.78228337  0.36177558  1
  Se  Se33  1  0.05082437  0.21771663  0.63822442  1
  Se  Se34  1  0.41259995  0.63822442  0.78228337  1
  Se  Se35  1  0.26854099  0.36177558  0.21771663  1
  Se  Se36  1  0.36968343  0.21771663  0.63822442  1
  Se  Se37  1  0.94917563  0.78228337  0.36177558  1
  Se  Se38  1  0.58740005  0.36177558  0.21771663  1
  Se  Se39  1  0.73145901  0.63822442  0.78228337  1
  Se  Se40  1  0.59483104  0.65023986  0.49999956  1
  Se  Se41  1  0.74507133  0.34976014  0.50000044  1
  Se  Se42  1  0.24507089  0.50000044  0.65023986  1
  Se  Se43  1  0.09483147  0.49999956  0.34976014  1
  Se  Se44  1  0.40516896  0.34976014  0.50000044  1
  Se  Se45  1  0.25492867  0.65023986  0.49999956  1
  Se  Se46  1  0.75492911  0.49999956  0.34976014  1
  Se  Se47  1  0.90516853  0.50000044  0.65023986  1
