# generated using pymatgen
data_Cs2CoBr4
_symmetry_space_group_name_H-M   'P 1'
_cell_length_a   7.74277366
_cell_length_b   10.26227841
_cell_length_c   13.56963721
_cell_angle_alpha   90.00000000
_cell_angle_beta   90.00000000
_cell_angle_gamma   90.00000000
_symmetry_Int_Tables_number   1
_chemical_formula_structural   Cs2CoBr4
_chemical_formula_sum   'Cs8 Co4 Br16'
_cell_volume   1078.22300420
_cell_formula_units_Z   4
loop_
 _symmetry_equiv_pos_site_id
 _symmetry_equiv_pos_as_xyz
  1  'x, y, z'
loop_
 _atom_site_type_symbol
 _atom_site_label
 _atom_site_symmetry_multiplicity
 _atom_site_fract_x
 _atom_site_fract_y
 _atom_site_fract_z
 _atom_site_occupancy
  Cs  Cs0  1  0.25000000  0.98191631  0.17035718  1
  Cs  Cs1  1  0.75000000  0.01808369  0.82964282  1
  Cs  Cs2  1  0.75000000  0.51808369  0.67035718  1
  Cs  Cs3  1  0.25000000  0.48191631  0.32964282  1
  Cs  Cs4  1  0.25000000  0.63303396  0.90633269  1
  Cs  Cs5  1  0.75000000  0.36696604  0.09366731  1
  Cs  Cs6  1  0.75000000  0.86696604  0.40633269  1
  Cs  Cs7  1  0.25000000  0.13303396  0.59366731  1
  Co  Co8  1  0.25000000  0.73413138  0.57898662  1
  Co  Co9  1  0.75000000  0.26586862  0.42101338  1
  Co  Co10  1  0.75000000  0.76586862  0.07898662  1
  Co  Co11  1  0.25000000  0.23413138  0.92101338  1
  Br  Br12  1  0.99733660  0.82232752  0.65449640  1
  Br  Br13  1  0.00266340  0.17767248  0.34550360  1
  Br  Br14  1  0.00266340  0.67767248  0.15449640  1
  Br  Br15  1  0.49733660  0.17767248  0.34550360  1
  Br  Br16  1  0.99733660  0.32232752  0.84550360  1
  Br  Br17  1  0.50266340  0.82232752  0.65449640  1
  Br  Br18  1  0.50266340  0.32232752  0.84550360  1
  Br  Br19  1  0.49733660  0.67767248  0.15449640  1
  Br  Br20  1  0.25000000  0.50182255  0.59924463  1
  Br  Br21  1  0.75000000  0.49817745  0.40075537  1
  Br  Br22  1  0.75000000  -0.00182255  0.09924463  1
  Br  Br23  1  0.25000000  0.00182255  0.90075537  1
  Br  Br24  1  0.25000000  0.31668777  0.08676222  1
  Br  Br25  1  0.75000000  0.68331223  0.91323778  1
  Br  Br26  1  0.75000000  0.18331223  0.58676222  1
  Br  Br27  1  0.25000000  0.81668777  0.41323778  1
