# generated using pymatgen
data_Tb3TaO7
_symmetry_space_group_name_H-M   'P 1'
_cell_length_a   6.47015615
_cell_length_b   6.47015615
_cell_length_c   7.45982022
_cell_angle_alpha   90.00000000
_cell_angle_beta   90.00000000
_cell_angle_gamma   108.87107442
_symmetry_Int_Tables_number   1
_chemical_formula_structural   Tb3TaO7
_chemical_formula_sum   'Tb6 Ta2 O14'
_cell_volume   295.50389635
_cell_formula_units_Z   2
loop_
 _symmetry_equiv_pos_site_id
 _symmetry_equiv_pos_as_xyz
  1  'x, y, z'
loop_
 _atom_site_type_symbol
 _atom_site_label
 _atom_site_symmetry_multiplicity
 _atom_site_fract_x
 _atom_site_fract_y
 _atom_site_fract_z
 _atom_site_occupancy
  Tb  Tb0  1  0.46491789  0.00037108  0.25786336  1
  Tb  Tb1  1  0.99962892  0.53508211  0.24213664  1
  Tb  Tb2  1  0.46722405  0.46722405  0.00000000  1
  Tb  Tb3  1  0.53277595  0.53277595  0.50000000  1
  Tb  Tb4  1  0.53508211  0.99962892  0.75786336  1
  Tb  Tb5  1  0.00037108  0.46491789  0.74213664  1
  Ta  Ta6  1  0.00192937  0.00192937  0.50000000  1
  Ta  Ta7  1  0.99807063  0.99807063  0.00000000  1
  O  O8  1  0.93331713  0.06668287  0.75000000  1
  O  O9  1  0.63882400  0.36117600  0.75000000  1
  O  O10  1  0.30853690  0.05226337  0.54239348  1
  O  O11  1  0.94773663  0.69146310  0.95760652  1
  O  O12  1  0.62890472  0.37109528  0.25000000  1
  O  O13  1  0.91811422  0.67306640  0.52473462  1
  O  O14  1  0.32693360  0.08188578  0.97526538  1
  O  O15  1  0.08188578  0.32693360  0.02473462  1
  O  O16  1  0.67306640  0.91811422  0.47526538  1
  O  O17  1  0.37109528  0.62890472  0.75000000  1
  O  O18  1  0.69146310  0.94773663  0.04239348  1
  O  O19  1  0.05226337  0.30853690  0.45760652  1
  O  O20  1  0.36117600  0.63882400  0.25000000  1
  O  O21  1  0.06668287  0.93331713  0.25000000  1
