# generated using pymatgen
data_Y4Te3N2
_symmetry_space_group_name_H-M   'P 1'
_cell_length_a   7.18449284
_cell_length_b   11.00590215
_cell_length_c   11.64344326
_cell_angle_alpha   90.00000000
_cell_angle_beta   90.00000000
_cell_angle_gamma   90.00000000
_symmetry_Int_Tables_number   1
_chemical_formula_structural   Y4Te3N2
_chemical_formula_sum   'Y16 Te12 N8'
_cell_volume   920.66831012
_cell_formula_units_Z   4
loop_
 _symmetry_equiv_pos_site_id
 _symmetry_equiv_pos_as_xyz
  1  'x, y, z'
loop_
 _atom_site_type_symbol
 _atom_site_label
 _atom_site_symmetry_multiplicity
 _atom_site_fract_x
 _atom_site_fract_y
 _atom_site_fract_z
 _atom_site_occupancy
  Y  Y0  1  0.59590536  0.85503363  0.25000000  1
  Y  Y1  1  0.09590536  0.64496637  0.25000000  1
  Y  Y2  1  0.40409464  0.14496637  0.75000000  1
  Y  Y3  1  0.90409464  0.35503363  0.75000000  1
  Y  Y4  1  0.74257677  0.46025284  0.25000000  1
  Y  Y5  1  0.24257677  0.03974716  0.25000000  1
  Y  Y6  1  0.25742323  0.53974716  0.75000000  1
  Y  Y7  1  0.75742323  0.96025284  0.75000000  1
  Y  Y8  1  0.64528631  0.10774324  0.46057815  1
  Y  Y9  1  0.14528631  0.39225676  0.03942185  1
  Y  Y10  1  0.35471369  0.89225676  0.96057815  1
  Y  Y11  1  0.85471369  0.60774324  0.53942185  1
  Y  Y12  1  0.35471369  0.89225676  0.53942185  1
  Y  Y13  1  0.85471369  0.60774324  0.96057815  1
  Y  Y14  1  0.64528631  0.10774324  0.03942185  1
  Y  Y15  1  0.14528631  0.39225676  0.46057815  1
  Te  Te16  1  0.88654959  0.20098440  0.25000000  1
  Te  Te17  1  0.38654959  0.29901560  0.25000000  1
  Te  Te18  1  0.11345041  0.79901560  0.75000000  1
  Te  Te19  1  0.61345041  0.70098440  0.75000000  1
  Te  Te20  1  0.55656547  0.35788964  0.58279740  1
  Te  Te21  1  0.05656547  0.14211036  0.91720260  1
  Te  Te22  1  0.44343453  0.64211036  0.08279740  1
  Te  Te23  1  0.94343453  0.85788964  0.41720260  1
  Te  Te24  1  0.44343453  0.64211036  0.41720260  1
  Te  Te25  1  0.94343453  0.85788964  0.08279740  1
  Te  Te26  1  0.55656547  0.35788964  0.91720260  1
  Te  Te27  1  0.05656547  0.14211036  0.58279740  1
  N  N28  1  0.54994333  0.02349752  0.62327230  1
  N  N29  1  0.04994333  0.47650248  0.87672770  1
  N  N30  1  0.45005667  0.97650248  0.12327230  1
  N  N31  1  0.95005667  0.52349752  0.37672770  1
  N  N32  1  0.45005667  0.97650248  0.37672770  1
  N  N33  1  0.95005667  0.52349752  0.12327230  1
  N  N34  1  0.54994333  0.02349752  0.87672770  1
  N  N35  1  0.04994333  0.47650248  0.62327230  1
