# generated using pymatgen
data_MgH4(CO)4
_symmetry_space_group_name_H-M   'P 1'
_cell_length_a   10.16138358
_cell_length_b   11.52977442
_cell_length_c   15.27086058
_cell_angle_alpha   91.19856622
_cell_angle_beta   90.00000000
_cell_angle_gamma   90.00000000
_symmetry_Int_Tables_number   1
_chemical_formula_structural   MgH4(CO)4
_chemical_formula_sum   'Mg12 H48 C48 O48'
_cell_volume   1788.71907110
_cell_formula_units_Z   12
loop_
 _symmetry_equiv_pos_site_id
 _symmetry_equiv_pos_as_xyz
  1  'x, y, z'
loop_
 _atom_site_type_symbol
 _atom_site_label
 _atom_site_symmetry_multiplicity
 _atom_site_fract_x
 _atom_site_fract_y
 _atom_site_fract_z
 _atom_site_occupancy
  Mg  Mg0  1  0.07051663  0.75495920  0.13563419  1
  Mg  Mg1  1  0.42948337  0.25495920  0.63563419  1
  Mg  Mg2  1  0.92948337  0.24504080  0.86436581  1
  Mg  Mg3  1  0.57051663  0.74504080  0.36436581  1
  Mg  Mg4  1  0.00000000  0.50000000  0.00000000  1
  Mg  Mg5  1  0.50000000  0.00000000  0.50000000  1
  Mg  Mg6  1  0.37399966  0.76012396  0.19805001  1
  Mg  Mg7  1  0.12600034  0.26012396  0.69805001  1
  Mg  Mg8  1  0.62600034  0.23987604  0.80194999  1
  Mg  Mg9  1  0.87399966  0.73987604  0.30194999  1
  Mg  Mg10  1  0.00000000  0.00000000  0.00000000  1
  Mg  Mg11  1  0.50000000  0.50000000  0.50000000  1
  H  H12  1  0.93548149  0.47183325  0.26289603  1
  H  H13  1  0.56451851  0.97183325  0.76289603  1
  H  H14  1  0.06451851  0.52816675  0.73710397  1
  H  H15  1  0.43548149  0.02816675  0.23710397  1
  H  H16  1  0.38229750  0.53857605  0.07525627  1
  H  H17  1  0.11770250  0.03857605  0.57525627  1
  H  H18  1  0.61770250  0.46142395  0.92474373  1
  H  H19  1  0.88229750  0.96142395  0.42474373  1
  H  H20  1  0.28536863  0.01059736  0.02661525  1
  H  H21  1  0.21463137  0.51059736  0.52661525  1
  H  H22  1  0.71463137  0.98940264  0.97338475  1
  H  H23  1  0.78536863  0.48940264  0.47338475  1
  H  H24  1  0.72864738  0.63877125  0.12660966  1
  H  H25  1  0.77135262  0.13877125  0.62660966  1
  H  H26  1  0.27135262  0.36122875  0.87339034  1
  H  H27  1  0.22864738  0.86122875  0.37339034  1
  H  H28  1  0.86247061  0.68697789  0.91500275  1
  H  H29  1  0.63752939  0.18697789  0.41500275  1
  H  H30  1  0.13752939  0.31302211  0.08499725  1
  H  H31  1  0.36247061  0.81302211  0.58499725  1
  H  H32  1  0.76049604  0.96451602  0.21220833  1
  H  H33  1  0.73950396  0.46451602  0.71220833  1
  H  H34  1  0.23950396  0.03548398  0.78779167  1
  H  H35  1  0.26049604  0.53548398  0.28779167  1
  H  H36  1  0.73482258  0.38244268  0.16210010  1
  H  H37  1  0.76517742  0.88244268  0.66210010  1
  H  H38  1  0.26517742  0.61755732  0.83789990  1
  H  H39  1  0.23482258  0.11755732  0.33789990  1
  H  H40  1  0.57471003  0.41338043  0.28533538  1
  H  H41  1  0.92528997  0.91338043  0.78533538  1
  H  H42  1  0.42528997  0.58661957  0.71466462  1
  H  H43  1  0.07471003  0.08661957  0.21466462  1
  H  H44  1  0.35796981  0.31416208  0.28166033  1
  H  H45  1  0.14203019  0.81416208  0.78166033  1
  H  H46  1  0.64203019  0.68583792  0.71833967  1
  H  H47  1  0.85796981  0.18583792  0.21833967  1
  H  H48  1  0.29668724  0.18741497  0.15356685  1
  H  H49  1  0.20331276  0.68741497  0.65356685  1
  H  H50  1  0.70331276  0.81258503  0.84643315  1
  H  H51  1  0.79668724  0.31258503  0.34643315  1
  H  H52  1  0.45754497  0.15680587  0.03081490  1
  H  H53  1  0.04245503  0.65680587  0.53081490  1
  H  H54  1  0.54245503  0.84319413  0.96918510  1
  H  H55  1  0.95754497  0.34319413  0.46918510  1
  H  H56  1  0.67525336  0.25246436  0.03675773  1
  H  H57  1  0.82474664  0.75246436  0.53675773  1
  H  H58  1  0.32474664  0.74753564  0.96324227  1
  H  H59  1  0.17525336  0.24753564  0.46324227  1
  C  C60  1  0.63883013  0.33977187  0.16092198  1
  C  C61  1  0.86116987  0.83977187  0.66092198  1
  C  C62  1  0.36116987  0.66022813  0.83907802  1
  C  C63  1  0.13883013  0.16022813  0.33907802  1
  C  C64  1  0.54929038  0.35713678  0.22951076  1
  C  C65  1  0.95070962  0.85713678  0.72951076  1
  C  C66  1  0.45070962  0.64286322  0.77048924  1
  C  C67  1  0.04929038  0.14286322  0.27048924  1
  C  C68  1  0.42671704  0.30163862  0.22730404  1
  C  C69  1  0.07328296  0.80163862  0.72730404  1
  C  C70  1  0.57328296  0.69836138  0.77269596  1
  C  C71  1  0.92671704  0.19836138  0.27269596  1
  C  C72  1  0.39296931  0.22976586  0.15580358  1
  C  C73  1  0.10703069  0.72976586  0.65580358  1
  C  C74  1  0.60703069  0.77023414  0.84419642  1
  C  C75  1  0.89296931  0.27023414  0.34419642  1
  C  C76  1  0.48250368  0.21241644  0.08711289  1
  C  C77  1  0.01749632  0.71241644  0.58711289  1
  C  C78  1  0.51749632  0.78758356  0.91288711  1
  C  C79  1  0.98250368  0.28758356  0.41288711  1
  C  C80  1  0.60541032  0.26684146  0.09005924  1
  C  C81  1  0.89458968  0.76684146  0.59005924  1
  C  C82  1  0.39458968  0.73315854  0.90994076  1
  C  C83  1  0.10541032  0.23315854  0.40994076  1
  C  C84  1  0.96227376  0.52052382  0.20372403  1
  C  C85  1  0.53772624  0.02052382  0.70372403  1
  C  C86  1  0.03772624  0.47947618  0.79627597  1
  C  C87  1  0.46227376  0.97947618  0.29627597  1
  C  C88  1  0.27807495  0.56585689  0.07179551  1
  C  C89  1  0.22192505  0.06585689  0.57179551  1
  C  C90  1  0.72192505  0.43414311  0.92820449  1
  C  C91  1  0.77807495  0.93414311  0.42820449  1
  C  C92  1  0.26504792  0.93557171  0.06834689  1
  C  C93  1  0.23495208  0.43557171  0.56834689  1
  C  C94  1  0.73495208  0.06442829  0.93165311  1
  C  C95  1  0.76504792  0.56442829  0.43165311  1
  C  C96  1  0.65153234  0.67264077  0.17158007  1
  C  C97  1  0.84846766  0.17264077  0.67158007  1
  C  C98  1  0.34846766  0.32735923  0.82841993  1
  C  C99  1  0.15153234  0.82735923  0.32841993  1
  C  C100  1  0.91647793  0.74071203  0.96368076  1
  C  C101  1  0.58352207  0.24071203  0.46368076  1
  C  C102  1  0.08352207  0.25928797  0.03631924  1
  C  C103  1  0.41647793  0.75928797  0.53631924  1
  C  C104  1  0.84475505  0.93994082  0.16951792  1
  C  C105  1  0.65524495  0.43994082  0.66951792  1
  C  C106  1  0.15524495  0.06005918  0.83048208  1
  C  C107  1  0.34475505  0.56005918  0.33048208  1
  O  O108  1  0.97936979  0.63060161  0.21473286  1
  O  O109  1  0.52063021  0.13060161  0.71473286  1
  O  O110  1  0.02063021  0.36939839  0.78526714  1
  O  O111  1  0.47936979  0.86939839  0.28526714  1
  O  O112  1  0.97334185  0.46583162  0.13248613  1
  O  O113  1  0.52665815  0.96583162  0.63248613  1
  O  O114  1  0.02665815  0.53416838  0.86751387  1
  O  O115  1  0.47334185  0.03416838  0.36751387  1
  O  O116  1  0.24602246  0.65410204  0.12103146  1
  O  O117  1  0.25397754  0.15410204  0.62103146  1
  O  O118  1  0.75397754  0.34589796  0.87896854  1
  O  O119  1  0.74602246  0.84589796  0.37896854  1
  O  O120  1  0.20184374  0.51060329  0.02197493  1
  O  O121  1  0.29815626  0.01060329  0.52197493  1
  O  O122  1  0.79815626  0.48939671  0.97802507  1
  O  O123  1  0.70184374  0.98939671  0.47802507  1
  O  O124  1  0.14443879  0.90096895  0.07014856  1
  O  O125  1  0.35556121  0.40096895  0.57014856  1
  O  O126  1  0.85556121  0.09903105  0.92985144  1
  O  O127  1  0.64443879  0.59903105  0.42985144  1
  O  O128  1  0.35912685  0.89153639  0.10921024  1
  O  O129  1  0.14087315  0.39153639  0.60921024  1
  O  O130  1  0.64087315  0.10846361  0.89078976  1
  O  O131  1  0.85912685  0.60846361  0.39078976  1
  O  O132  1  0.18576031  0.80721119  0.24839222  1
  O  O133  1  0.31423969  0.30721119  0.74839222  1
  O  O134  1  0.81423969  0.19278881  0.75160778  1
  O  O135  1  0.68576031  0.69278881  0.25160778  1
  O  O136  1  0.53858922  0.68834423  0.14076113  1
  O  O137  1  0.96141078  0.18834423  0.64076113  1
  O  O138  1  0.46141078  0.31165577  0.85923887  1
  O  O139  1  0.03858922  0.81165577  0.35923887  1
  O  O140  1  0.98012253  0.68469784  0.02254263  1
  O  O141  1  0.51987747  0.18469784  0.52254263  1
  O  O142  1  0.01987747  0.31530216  0.97745737  1
  O  O143  1  0.48012253  0.81530216  0.47745737  1
  O  O144  1  0.91054368  0.84864481  0.95787879  1
  O  O145  1  0.58945632  0.34864481  0.45787879  1
  O  O146  1  0.08945632  0.15135519  0.04212121  1
  O  O147  1  0.41054368  0.65135519  0.54212121  1
  O  O148  1  0.90588575  0.84649214  0.18999881  1
  O  O149  1  0.59411425  0.34649214  0.68999881  1
  O  O150  1  0.09411425  0.15350786  0.81000119  1
  O  O151  1  0.40588575  0.65350786  0.31000119  1
  O  O152  1  0.87174346  0.00377165  0.10684808  1
  O  O153  1  0.62825654  0.50377165  0.60684808  1
  O  O154  1  0.12825654  0.99622835  0.89315192  1
  O  O155  1  0.37174346  0.49622835  0.39315192  1
