# generated using pymatgen
data_K3NaCr2O8
_symmetry_space_group_name_H-M   'P 1'
_cell_length_a   5.78394498
_cell_length_b   5.78394390
_cell_length_c   14.92555254
_cell_angle_alpha   90.23238066
_cell_angle_beta   90.23238150
_cell_angle_gamma   60.13422629
_symmetry_Int_Tables_number   1
_chemical_formula_structural   K3NaCr2O8
_chemical_formula_sum   'K6 Na2 Cr4 O16'
_cell_volume   433.00241991
_cell_formula_units_Z   2
loop_
 _symmetry_equiv_pos_site_id
 _symmetry_equiv_pos_as_xyz
  1  'x, y, z'
loop_
 _atom_site_type_symbol
 _atom_site_label
 _atom_site_symmetry_multiplicity
 _atom_site_fract_x
 _atom_site_fract_y
 _atom_site_fract_z
 _atom_site_occupancy
  K  K0  1  0.05733169  0.94266831  0.75000000  1
  K  K1  1  0.94266831  0.05733169  0.25000000  1
  K  K2  1  0.30632615  0.34953532  0.08636250  1
  K  K3  1  0.65046468  0.69367385  0.41363750  1
  K  K4  1  0.34953432  0.30632815  0.58636250  1
  K  K5  1  0.69367385  0.65046468  0.91363750  1
  Na  Na6  1  0.00000100  0.99999900  0.50000000  1
  Na  Na7  1  -0.00000000  0.00000000  -0.00000000  1
  Cr  Cr8  1  0.31996373  0.35495518  0.36515483  1
  Cr  Cr9  1  0.64504482  0.68003527  0.13484517  1
  Cr  Cr10  1  0.68003627  0.64504482  0.63484517  1
  Cr  Cr11  1  0.35495518  0.31996473  0.86515583  1
  O  O12  1  0.15144135  0.22028120  0.40799533  1
  O  O13  1  0.77971780  0.84855765  0.09200467  1
  O  O14  1  0.84855765  0.77971880  0.59200467  1
  O  O15  1  0.22028220  0.15144235  0.90799533  1
  O  O16  1  0.15405520  0.67941641  0.38362230  1
  O  O17  1  0.32058359  0.84594380  0.11637770  1
  O  O18  1  0.84594380  0.32058359  0.61637770  1
  O  O19  1  0.67941641  0.15405520  0.88362230  1
  O  O20  1  0.61081003  0.22498005  0.41741090  1
  O  O21  1  0.77502095  0.38918997  0.08258910  1
  O  O22  1  0.38918997  0.77501995  0.58258910  1
  O  O23  1  0.22498105  0.61081003  0.91741190  1
  O  O24  1  0.28641569  0.37270665  0.75860480  1
  O  O25  1  0.62729435  0.71358331  0.74139520  1
  O  O26  1  0.37270565  0.28641669  0.25860580  1
  O  O27  1  0.71358431  0.62729335  0.24139420  1
