# generated using pymatgen
data_Ba2CaAl2(Fe4O7)2
_symmetry_space_group_name_H-M   'P 1'
_cell_length_a   6.47300087
_cell_length_b   6.27143206
_cell_length_c   10.06275724
_cell_angle_alpha   89.61861384
_cell_angle_beta   88.73339095
_cell_angle_gamma   119.70806326
_symmetry_Int_Tables_number   1
_chemical_formula_structural   Ba2CaAl2(Fe4O7)2
_chemical_formula_sum   'Ba2 Ca1 Al2 Fe8 O14'
_cell_volume   354.64564726
_cell_formula_units_Z   1
loop_
 _symmetry_equiv_pos_site_id
 _symmetry_equiv_pos_as_xyz
  1  'x, y, z'
loop_
 _atom_site_type_symbol
 _atom_site_label
 _atom_site_symmetry_multiplicity
 _atom_site_fract_x
 _atom_site_fract_y
 _atom_site_fract_z
 _atom_site_occupancy
  Ba  Ba0  1  0.51983900  0.26087100  0.44216500  1
  Ba  Ba1  1  0.29154200  0.64841100  0.03195800  1
  Ca  Ca2  1  0.93272200  0.48044900  0.62936400  1
  Al  Al3  1  0.65946300  0.32374000  0.89942100  1
  Al  Al4  1  0.29555300  0.65170500  0.37798400  1
  Fe  Fe5  1  0.79526400  0.15487700  0.20290600  1
  Fe  Fe6  1  0.69473300  0.84767600  0.69010000  1
  Fe  Fe7  1  0.28297100  0.37014400  0.69902500  1
  Fe  Fe8  1  0.79438100  0.63578000  0.19769100  1
  Fe  Fe9  1  0.29758600  0.14911300  0.16285500  1
  Fe  Fe10  1  0.29448200  0.93565300  0.72152000  1
  Fe  Fe11  1  0.94473300  0.96530500  0.45481000  1
  Fe  Fe12  1  0.95215000  0.97434900  0.94237700  1
  O  O13  1  0.80907900  0.17943900  0.99744200  1
  O  O14  1  0.59245300  0.80403000  0.48908700  1
  O  O15  1  0.15766000  0.35189100  0.50188100  1
  O  O16  1  0.80469600  0.61766400  0.99449500  1
  O  O17  1  0.35045800  0.15526500  0.96752900  1
  O  O18  1  0.16461300  0.81956400  0.49901800  1
  O  O19  1  0.04050100  0.01726400  0.74035300  1
  O  O20  1  0.98119300  0.98797700  0.25212800  1
  O  O21  1  0.44306200  0.49729900  0.25150900  1
  O  O22  1  0.18368400  0.59179100  0.78581900  1
  O  O23  1  0.64056800  0.12047500  0.74716000  1
  O  O24  1  0.44307800  0.94837800  0.25300400  1
  O  O25  1  0.62360800  0.50988800  0.74451400  1
  O  O26  1  0.99951700  0.50100800  0.27313300  1
