# generated using pymatgen
data_KEu2Cl5
_symmetry_space_group_name_H-M   'P 1'
_cell_length_a   7.82502241
_cell_length_b   8.79975137
_cell_length_c   12.61020527
_cell_angle_alpha   90.05246330
_cell_angle_beta   90.00000000
_cell_angle_gamma   90.00000000
_symmetry_Int_Tables_number   1
_chemical_formula_structural   KEu2Cl5
_chemical_formula_sum   'K4 Eu8 Cl20'
_cell_volume   868.31632404
_cell_formula_units_Z   4
loop_
 _symmetry_equiv_pos_site_id
 _symmetry_equiv_pos_as_xyz
  1  'x, y, z'
loop_
 _atom_site_type_symbol
 _atom_site_label
 _atom_site_symmetry_multiplicity
 _atom_site_fract_x
 _atom_site_fract_y
 _atom_site_fract_z
 _atom_site_occupancy
  K  K0  1  0.03795005  0.50676945  0.32939764  1
  K  K1  1  0.96204995  0.49323055  0.67060236  1
  K  K2  1  0.53795005  0.49323055  0.17060236  1
  K  K3  1  0.46204995  0.50676945  0.82939764  1
  Eu  Eu4  1  0.02237557  0.00110058  0.32223514  1
  Eu  Eu5  1  0.97762443  -0.00110058  0.67776486  1
  Eu  Eu6  1  0.52237557  -0.00110058  0.17776486  1
  Eu  Eu7  1  0.47762443  0.00110058  0.82223514  1
  Eu  Eu8  1  0.07034136  0.25014186  0.00646073  1
  Eu  Eu9  1  0.92965864  0.74985814  0.99353927  1
  Eu  Eu10  1  0.57034136  0.74985814  0.49353927  1
  Eu  Eu11  1  0.42965864  0.25014186  0.50646073  1
  Cl  Cl12  1  0.16605621  0.53723742  0.09145369  1
  Cl  Cl13  1  0.83394379  0.46276258  0.90854631  1
  Cl  Cl14  1  0.66605621  0.46276258  0.40854631  1
  Cl  Cl15  1  0.33394379  0.53723742  0.59145369  1
  Cl  Cl16  1  0.82964494  0.21707074  0.18279485  1
  Cl  Cl17  1  0.17035506  0.78292926  0.81720515  1
  Cl  Cl18  1  0.32964494  0.78292926  0.31720515  1
  Cl  Cl19  1  0.67035506  0.21707074  0.68279485  1
  Cl  Cl20  1  0.30486321  0.23029857  0.28343837  1
  Cl  Cl21  1  0.69513679  0.76970143  0.71656163  1
  Cl  Cl22  1  0.80486321  0.76970143  0.21656163  1
  Cl  Cl23  1  0.19513679  0.23029857  0.78343837  1
  Cl  Cl24  1  0.45395201  0.21910412  0.00238700  1
  Cl  Cl25  1  0.54604799  0.78089588  0.99761300  1
  Cl  Cl26  1  0.95395201  0.78089588  0.49761300  1
  Cl  Cl27  1  0.04604799  0.21910412  0.50238700  1
  Cl  Cl28  1  0.66048141  0.03939998  0.39939480  1
  Cl  Cl29  1  0.33951859  0.96060002  0.60060520  1
  Cl  Cl30  1  0.16048141  0.96060002  0.10060520  1
  Cl  Cl31  1  0.83951859  0.03939998  0.89939480  1
