# generated using pymatgen
data_Fe2C2O7
_symmetry_space_group_name_H-M   'P 1'
_cell_length_a   4.96273239
_cell_length_b   4.96273239
_cell_length_c   16.01251806
_cell_angle_alpha   89.69067727
_cell_angle_beta   89.69067727
_cell_angle_gamma   120.12877012
_symmetry_Int_Tables_number   1
_chemical_formula_structural   Fe2C2O7
_chemical_formula_sum   'Fe4 C4 O14'
_cell_volume   341.06846800
_cell_formula_units_Z   2
loop_
 _symmetry_equiv_pos_site_id
 _symmetry_equiv_pos_as_xyz
  1  'x, y, z'
loop_
 _atom_site_type_symbol
 _atom_site_label
 _atom_site_symmetry_multiplicity
 _atom_site_fract_x
 _atom_site_fract_y
 _atom_site_fract_z
 _atom_site_occupancy
  Fe  Fe0  1  0.66251500  0.33493400  0.63627500  1
  Fe  Fe1  1  0.66506600  0.33748500  0.86372500  1
  Fe  Fe2  1  0.33493400  0.66251500  0.13627500  1
  Fe  Fe3  1  0.33748500  0.66506600  0.36372500  1
  C  C4  1  0.33180900  0.66773200  0.59631400  1
  C  C5  1  0.33226800  0.66819100  0.90368600  1
  C  C6  1  0.66773200  0.33180900  0.09631400  1
  C  C7  1  0.66819100  0.33226800  0.40368600  1
  O  O8  1  0.58597000  0.65574800  0.90608200  1
  O  O9  1  0.93189100  0.34378300  0.40470000  1
  O  O10  1  0.58682400  0.93399400  0.59760000  1
  O  O11  1  0.65621700  0.06810900  0.09530000  1
  O  O12  1  0.34425200  0.41403000  0.59391800  1
  O  O13  1  0.93399400  0.58682400  0.09760000  1
  O  O14  1  0.33704300  0.66295700  0.25000000  1
  O  O15  1  0.66295700  0.33704300  0.75000000  1
  O  O16  1  0.06600600  0.41317600  0.90240000  1
  O  O17  1  0.65574800  0.58597000  0.40608200  1
  O  O18  1  0.34378300  0.93189100  0.90470000  1
  O  O19  1  0.41317600  0.06600600  0.40240000  1
  O  O20  1  0.06810900  0.65621700  0.59530000  1
  O  O21  1  0.41403000  0.34425200  0.09391800  1
