# generated using pymatgen
data_KIn7S8
_symmetry_space_group_name_H-M   'P 1'
_cell_length_a   3.93809435
_cell_length_b   17.68003604
_cell_length_c   19.07184166
_cell_angle_alpha   67.71991440
_cell_angle_beta   90.00000000
_cell_angle_gamma   90.00000000
_symmetry_Int_Tables_number   1
_chemical_formula_structural   KIn7S8
_chemical_formula_sum   'K3 In21 S24'
_cell_volume   1228.75121120
_cell_formula_units_Z   3
loop_
 _symmetry_equiv_pos_site_id
 _symmetry_equiv_pos_as_xyz
  1  'x, y, z'
loop_
 _atom_site_type_symbol
 _atom_site_label
 _atom_site_symmetry_multiplicity
 _atom_site_fract_x
 _atom_site_fract_y
 _atom_site_fract_z
 _atom_site_occupancy
  K  K0  1  0.50000000  0.29859679  0.78378275  1
  K  K1  1  0.00000000  0.20132667  0.21583266  1
  K  K2  1  0.00000000  0.70140953  0.21566689  1
  In  In3  1  0.50000000  0.50168781  0.11193715  1
  In  In4  1  0.50000000  0.00219813  0.11164068  1
  In  In5  1  0.00000000  0.49959102  0.88661466  1
  In  In6  1  0.00000000  0.99957836  0.88683370  1
  In  In7  1  0.50000000  0.60031593  0.45610537  1
  In  In8  1  0.50000000  0.10060363  0.45614142  1
  In  In9  1  -0.00000000  0.39911479  0.54346084  1
  In  In10  1  -0.00000000  0.89918576  0.54616652  1
  In  In11  1  0.50000000  0.20965417  0.61764884  1
  In  In12  1  0.50000000  0.70897522  0.61839299  1
  In  In13  1  0.00000000  0.78980266  0.38235076  1
  In  In14  1  -0.00000000  0.29011484  0.38199279  1
  In  In15  1  0.50000000  0.54102211  0.68551697  1
  In  In16  1  0.50000000  0.04158898  0.68676175  1
  In  In17  1  0.00000000  0.45826179  0.31401179  1
  In  In18  1  0.00000000  0.95798836  0.31531404  1
  In  In19  1  0.50000000  0.15660017  0.99441271  1
  In  In20  1  0.50000000  0.65656918  0.99556865  1
  In  In21  1  -0.00000000  0.84609622  0.00485964  1
  In  In22  1  -0.00000000  0.34492626  0.00460451  1
  In  In23  1  0.50000000  0.78983743  0.78752969  1
  S  S24  1  0.50000000  0.53651046  0.23460600  1
  S  S25  1  0.50000000  0.03533373  0.23527311  1
  S  S26  1  0.00000000  0.46312113  0.76499203  1
  S  S27  1  0.00000000  0.96557385  0.76524631  1
  S  S28  1  0.50000000  0.33379187  0.49433256  1
  S  S29  1  0.50000000  0.83387454  0.49661877  1
  S  S30  1  0.00000000  0.66617390  0.50519934  1
  S  S31  1  0.00000000  0.16650728  0.50481328  1
  S  S32  1  0.50000000  0.73037406  0.33231372  1
  S  S33  1  0.50000000  0.23053754  0.33207521  1
  S  S34  1  -0.00000000  0.27002721  0.66727464  1
  S  S35  1  -0.00000000  0.76708018  0.67047890  1
  S  S36  1  0.50000000  0.47370385  0.58673575  1
  S  S37  1  0.50000000  0.97451101  0.58726172  1
  S  S38  1  -0.00000000  0.52627409  0.41252550  1
  S  S39  1  -0.00000000  0.02569672  0.41345037  1
  S  S40  1  0.50000000  0.09106889  0.87077495  1
  S  S41  1  0.50000000  0.59250491  0.86652209  1
  S  S42  1  0.00000000  0.91006079  0.12952649  1
  S  S43  1  0.00000000  0.41002138  0.13030190  1
  S  S44  1  0.50000000  0.76004177  0.07386381  1
  S  S45  1  0.50000000  0.26081997  0.07462734  1
  S  S46  1  0.00000000  0.24146414  0.92479682  1
  S  S47  1  0.00000000  0.73988195  0.92324062  1
