# generated using pymatgen
data_Sr(YSe2)2
_symmetry_space_group_name_H-M   'P 1'
_cell_length_a   4.14021165
_cell_length_b   12.63259380
_cell_length_c   14.95552715
_cell_angle_alpha   90.00000000
_cell_angle_beta   90.00000000
_cell_angle_gamma   90.00000000
_symmetry_Int_Tables_number   1
_chemical_formula_structural   Sr(YSe2)2
_chemical_formula_sum   'Sr4 Y8 Se16'
_cell_volume   782.19817856
_cell_formula_units_Z   4
loop_
 _symmetry_equiv_pos_site_id
 _symmetry_equiv_pos_as_xyz
  1  'x, y, z'
loop_
 _atom_site_type_symbol
 _atom_site_label
 _atom_site_symmetry_multiplicity
 _atom_site_fract_x
 _atom_site_fract_y
 _atom_site_fract_z
 _atom_site_occupancy
  Sr  Sr0  1  0.75000000  0.73971897  0.16528585  1
  Sr  Sr1  1  0.75000000  0.23971897  0.33471415  1
  Sr  Sr2  1  0.25000000  0.26028103  0.83471415  1
  Sr  Sr3  1  0.25000000  0.76028103  0.66528585  1
  Y  Y4  1  0.75000000  0.06078170  0.11125625  1
  Y  Y5  1  0.75000000  0.56078170  0.38874375  1
  Y  Y6  1  0.25000000  0.93921830  0.88874375  1
  Y  Y7  1  0.25000000  0.43921830  0.61125625  1
  Y  Y8  1  0.75000000  0.08482003  0.59784986  1
  Y  Y9  1  0.75000000  0.58482003  0.90215014  1
  Y  Y10  1  0.25000000  0.91517997  0.40215014  1
  Y  Y11  1  0.25000000  0.41517997  0.09784986  1
  Se  Se12  1  0.75000000  0.29652074  0.67185820  1
  Se  Se13  1  0.75000000  0.79652074  0.82814180  1
  Se  Se14  1  0.25000000  0.70347926  0.32814180  1
  Se  Se15  1  0.25000000  0.20347926  0.17185820  1
  Se  Se16  1  0.75000000  0.37171670  0.96880112  1
  Se  Se17  1  0.75000000  0.87171670  0.53119888  1
  Se  Se18  1  0.25000000  0.62828330  0.03119888  1
  Se  Se19  1  0.25000000  0.12828330  0.46880112  1
  Se  Se20  1  0.75000000  0.47013076  0.21582489  1
  Se  Se21  1  0.75000000  0.97013076  0.28417511  1
  Se  Se22  1  0.25000000  0.52986924  0.78417511  1
  Se  Se23  1  0.25000000  0.02986924  0.71582489  1
  Se  Se24  1  0.75000000  0.09153718  0.92335943  1
  Se  Se25  1  0.75000000  0.59153718  0.57664057  1
  Se  Se26  1  0.25000000  0.90846282  0.07664057  1
  Se  Se27  1  0.25000000  0.40846282  0.42335943  1
