# generated using pymatgen
data_CrO2
_symmetry_space_group_name_H-M   'P 1'
_cell_length_a   2.97900842
_cell_length_b   2.97900842
_cell_length_c   9.55146899
_cell_angle_alpha   81.41095745
_cell_angle_beta   81.41095745
_cell_angle_gamma   57.34958089
_symmetry_Int_Tables_number   1
_chemical_formula_structural   CrO2
_chemical_formula_sum   'Cr2 O4'
_cell_volume   70.32818049
_cell_formula_units_Z   2
loop_
 _symmetry_equiv_pos_site_id
 _symmetry_equiv_pos_as_xyz
  1  'x, y, z'
loop_
 _atom_site_type_symbol
 _atom_site_label
 _atom_site_symmetry_multiplicity
 _atom_site_fract_x
 _atom_site_fract_y
 _atom_site_fract_z
 _atom_site_occupancy
  Cr  Cr0  1  0.26064600  0.26064600  0.24735900  1
  Cr  Cr1  1  0.73935400  0.73935400  0.75264100  1
  O  O2  1  0.11717800  0.11717800  0.65040900  1
  O  O3  1  0.62633800  0.62633800  0.14626300  1
  O  O4  1  0.37366200  0.37366200  0.85373700  1
  O  O5  1  0.88282200  0.88282200  0.34959100  1
