# generated using pymatgen
data_CsMg14BiO16
_symmetry_space_group_name_H-M   'P 1'
_cell_length_a   8.85973599
_cell_length_b   9.18252594
_cell_length_c   4.56522536
_cell_angle_alpha   90.00000000
_cell_angle_beta   90.00000000
_cell_angle_gamma   90.00000000
_symmetry_Int_Tables_number   1
_chemical_formula_structural   CsMg14BiO16
_chemical_formula_sum   'Cs1 Mg14 Bi1 O16'
_cell_volume   371.40279319
_cell_formula_units_Z   1
loop_
 _symmetry_equiv_pos_site_id
 _symmetry_equiv_pos_as_xyz
  1  'x, y, z'
loop_
 _atom_site_type_symbol
 _atom_site_label
 _atom_site_symmetry_multiplicity
 _atom_site_fract_x
 _atom_site_fract_y
 _atom_site_fract_z
 _atom_site_occupancy
  Cs  Cs0  1  -0.00000000  0.00000000  0.00000000  1
  Mg  Mg1  1  0.50000000  0.00000000  0.00000000  1
  Mg  Mg2  1  0.50000000  0.50000000  0.00000000  1
  Mg  Mg3  1  -0.00000000  0.24186670  0.50000000  1
  Mg  Mg4  1  -0.00000000  0.75813330  0.50000000  1
  Mg  Mg5  1  0.50000000  0.24849348  0.50000000  1
  Mg  Mg6  1  0.50000000  0.75150652  0.50000000  1
  Mg  Mg7  1  0.26386670  0.00000000  0.50000000  1
  Mg  Mg8  1  0.26573624  0.50000000  0.50000000  1
  Mg  Mg9  1  0.73613330  0.00000000  0.50000000  1
  Mg  Mg10  1  0.73426376  0.50000000  0.50000000  1
  Mg  Mg11  1  0.26414098  0.24380545  -0.00000000  1
  Mg  Mg12  1  0.26414098  0.75619455  0.00000000  1
  Mg  Mg13  1  0.73585902  0.24380545  -0.00000000  1
  Mg  Mg14  1  0.73585902  0.75619455  0.00000000  1
  Bi  Bi15  1  -0.00000000  0.50000000  0.00000000  1
  O  O16  1  0.28802791  0.00000000  -0.00000000  1
  O  O17  1  0.27001758  0.50000000  -0.00000000  1
  O  O18  1  0.71197209  0.00000000  0.00000000  1
  O  O19  1  0.72998242  0.50000000  0.00000000  1
  O  O20  1  0.25117542  0.25059340  0.50000000  1
  O  O21  1  0.25117542  0.74940660  0.50000000  1
  O  O22  1  0.74882458  0.25059340  0.50000000  1
  O  O23  1  0.74882458  0.74940660  0.50000000  1
  O  O24  1  -0.00000000  0.00000000  0.50000000  1
  O  O25  1  -0.00000000  0.50000000  0.50000000  1
  O  O26  1  0.50000000  0.00000000  0.50000000  1
  O  O27  1  0.50000000  0.50000000  0.50000000  1
  O  O28  1  -0.00000000  0.26478471  -0.00000000  1
  O  O29  1  -0.00000000  0.73521529  0.00000000  1
  O  O30  1  0.50000000  0.25749227  0.00000000  1
  O  O31  1  0.50000000  0.74250773  0.00000000  1
