# generated using pymatgen
data_K2NaNb(OF2)2
_symmetry_space_group_name_H-M   'P 1'
_cell_length_a   6.08342800
_cell_length_b   6.07810100
_cell_length_c   8.63949536
_cell_angle_alpha   89.94245549
_cell_angle_beta   90.00000000
_cell_angle_gamma   90.00000000
_symmetry_Int_Tables_number   1
_chemical_formula_structural   K2NaNb(OF2)2
_chemical_formula_sum   'K4 Na2 Nb2 O4 F8'
_cell_volume   319.45113933
_cell_formula_units_Z   2
loop_
 _symmetry_equiv_pos_site_id
 _symmetry_equiv_pos_as_xyz
  1  'x, y, z'
loop_
 _atom_site_type_symbol
 _atom_site_label
 _atom_site_symmetry_multiplicity
 _atom_site_fract_x
 _atom_site_fract_y
 _atom_site_fract_z
 _atom_site_occupancy
  K  K0  1  0.49739900  0.24952800  0.50278900  1
  K  K1  1  0.99739900  0.75047200  0.49721100  1
  K  K2  1  0.00126100  0.74547600  0.00386600  1
  K  K3  1  0.50126100  0.25452400  0.99613400  1
  Na  Na4  1  0.50484000  0.75036400  0.74865600  1
  Na  Na5  1  0.00484000  0.24963600  0.25134400  1
  Nb  Nb6  1  0.00363300  0.25038600  0.75129100  1
  Nb  Nb7  1  0.50363300  0.74961400  0.24870900  1
  O  O8  1  0.22349600  0.02782700  0.74807100  1
  O  O9  1  0.72349600  0.97217300  0.25192900  1
  O  O10  1  0.27801800  0.53374500  0.25209000  1
  O  O11  1  0.77801800  0.46625500  0.74791000  1
  F  F12  1  0.73757200  0.51354200  0.25346500  1
  F  F13  1  0.00651100  0.24799200  0.98614600  1
  F  F14  1  0.00169500  0.25174500  0.51502400  1
  F  F15  1  0.76448400  0.01650900  0.74802600  1
  F  F16  1  0.50169500  0.74825500  0.48497600  1
  F  F17  1  0.50651100  0.75200800  0.01385400  1
  F  F18  1  0.23757200  0.48645800  0.74653500  1
  F  F19  1  0.26448400  0.98349100  0.25197400  1
