# generated using pymatgen
data_MgV4(PO5)4
_symmetry_space_group_name_H-M   'P 1'
_cell_length_a   5.17737700
_cell_length_b   10.23231412
_cell_length_c   7.42148282
_cell_angle_alpha   70.32824845
_cell_angle_beta   69.83789215
_cell_angle_gamma   78.60111167
_symmetry_Int_Tables_number   1
_chemical_formula_structural   MgV4(PO5)4
_chemical_formula_sum   'Mg1 V4 P4 O20'
_cell_volume   346.04726823
_cell_formula_units_Z   1
loop_
 _symmetry_equiv_pos_site_id
 _symmetry_equiv_pos_as_xyz
  1  'x, y, z'
loop_
 _atom_site_type_symbol
 _atom_site_label
 _atom_site_symmetry_multiplicity
 _atom_site_fract_x
 _atom_site_fract_y
 _atom_site_fract_z
 _atom_site_occupancy
  Mg  Mg0  1  0.25942800  0.69512300  0.56931300  1
  V  V1  1  0.01656300  0.50279300  0.03254700  1
  V  V2  1  0.98556100  0.76099600  0.24637800  1
  V  V3  1  0.46571200  0.25456600  0.77165500  1
  V  V4  1  0.95017000  0.02416400  0.48974700  1
  P  P5  1  0.59582900  0.05115200  0.18733600  1
  P  P6  1  0.37312900  0.44768600  0.32039800  1
  P  P7  1  0.34570700  0.94394200  0.78742900  1
  P  P8  1  0.68499800  0.54468300  0.70391800  1
  O  O9  1  0.28715700  0.08091700  0.29784000  1
  O  O10  1  0.15908600  0.40151900  0.25754700  1
  O  O11  1  0.05859000  0.83874000  0.39752000  1
  O  O12  1  0.27169100  0.84676500  0.00060300  1
  O  O13  1  0.27835200  0.59723600  0.34354300  1
  O  O14  1  0.29453600  0.09853600  0.78847000  1
  O  O15  1  0.38519300  0.34852700  0.52925200  1
  O  O16  1  0.20422400  0.32691800  0.92187000  1
  O  O17  1  0.77032400  0.09680700  0.28442800  1
  O  O18  1  0.17800400  0.91090000  0.66992300  1
  O  O19  1  0.65717700  0.43523900  0.16557900  1
  O  O20  1  0.38596400  0.58206100  0.82897900  1
  O  O21  1  0.84045600  0.15687500  0.58197100  1
  O  O22  1  0.64546600  0.13996300  0.96647500  1
  O  O23  1  0.91843800  0.57649300  0.76496400  1
  O  O24  1  0.67177100  0.89563100  0.20113800  1
  O  O25  1  0.69001700  0.64612500  0.49172800  1
  O  O26  1  0.92452200  0.65470500  0.09461900  1
  O  O27  1  0.65584100  0.91346800  0.67560200  1
  O  O28  1  0.72109900  0.38996900  0.70958900  1
