# generated using pymatgen
data_Ba3Cr2O8
_symmetry_space_group_name_H-M   'P 1'
_cell_length_a   5.76723129
_cell_length_b   5.76466130
_cell_length_c   14.71472447
_cell_angle_alpha   78.67917232
_cell_angle_beta   90.10992301
_cell_angle_gamma   120.00933601
_symmetry_Int_Tables_number   1
_chemical_formula_structural   Ba3Cr2O8
_chemical_formula_sum   'Ba6 Cr4 O16'
_cell_volume   412.70613708
_cell_formula_units_Z   2
loop_
 _symmetry_equiv_pos_site_id
 _symmetry_equiv_pos_as_xyz
  1  'x, y, z'
loop_
 _atom_site_type_symbol
 _atom_site_label
 _atom_site_symmetry_multiplicity
 _atom_site_fract_x
 _atom_site_fract_y
 _atom_site_fract_z
 _atom_site_occupancy
  Ba  Ba0  1  0.99312213  0.01775518  0.00002545  1
  Ba  Ba1  1  0.50174178  0.02311549  0.50004908  1
  Ba  Ba2  1  0.60267323  0.20816888  0.19087077  1
  Ba  Ba3  1  0.10274902  0.20763943  0.69083376  1
  Ba  Ba4  1  0.89711145  0.79618634  0.30918586  1
  Ba  Ba5  1  0.39677851  0.79539186  0.80906130  1
  Cr  Cr6  1  0.20333230  0.40810718  0.38927077  1
  Cr  Cr7  1  0.29656823  0.59420699  0.11079541  1
  Cr  Cr8  1  0.70465618  0.40901258  0.88912401  1
  Cr  Cr9  1  0.79531333  0.59299162  0.61081289  1
  O  O10  1  0.67091608  0.30459158  0.00629677  1
  O  O11  1  0.15697546  0.29482266  0.50636305  1
  O  O12  1  0.83546789  0.64044353  0.49374903  1
  O  O13  1  0.34873903  0.64930982  0.99369973  1
  O  O14  1  0.10433515  0.73296901  0.65103924  1
  O  O15  1  0.60328430  0.73311916  0.15289726  1
  O  O16  1  0.61536177  0.24507096  0.65468336  1
  O  O17  1  0.11614579  0.24572528  0.15347605  1
  O  O18  1  0.62368452  0.73008666  0.65034072  1
  O  O19  1  0.12296546  0.73022115  0.14969451  1
  O  O20  1  0.87561752  0.75730951  0.84872819  1
  O  O21  1  0.37603527  0.75678312  0.35022723  1
  O  O22  1  0.39443935  0.27890176  0.84971630  1
  O  O23  1  0.89552255  0.28111377  0.34792510  1
  O  O24  1  0.88329388  0.28367273  0.84523280  1
  O  O25  1  0.38316980  0.28328874  0.34590335  1
