# generated using pymatgen
data_Tb3S3N
_symmetry_space_group_name_H-M   'P 1'
_cell_length_a   3.84090993
_cell_length_b   11.97909123
_cell_length_c   12.89910936
_cell_angle_alpha   90.00000000
_cell_angle_beta   90.00000000
_cell_angle_gamma   90.00000000
_symmetry_Int_Tables_number   1
_chemical_formula_structural   Tb3S3N
_chemical_formula_sum   'Tb12 S12 N4'
_cell_volume   593.49589601
_cell_formula_units_Z   4
loop_
 _symmetry_equiv_pos_site_id
 _symmetry_equiv_pos_as_xyz
  1  'x, y, z'
loop_
 _atom_site_type_symbol
 _atom_site_label
 _atom_site_symmetry_multiplicity
 _atom_site_fract_x
 _atom_site_fract_y
 _atom_site_fract_z
 _atom_site_occupancy
  Tb  Tb0  1  0.25000000  0.54782713  0.64324298  1
  Tb  Tb1  1  0.75000000  0.45217287  0.35675702  1
  Tb  Tb2  1  0.25000000  0.04782713  0.85675702  1
  Tb  Tb3  1  0.75000000  0.95217287  0.14324298  1
  Tb  Tb4  1  0.25000000  0.71134817  0.35996025  1
  Tb  Tb5  1  0.75000000  0.28865183  0.64003975  1
  Tb  Tb6  1  0.25000000  0.21134817  0.14003975  1
  Tb  Tb7  1  0.75000000  0.78865183  0.85996025  1
  Tb  Tb8  1  0.25000000  0.06626602  0.36785889  1
  Tb  Tb9  1  0.75000000  0.93373398  0.63214111  1
  Tb  Tb10  1  0.25000000  0.56626602  0.13214111  1
  Tb  Tb11  1  0.75000000  0.43373398  0.86785889  1
  S  S12  1  0.75000000  0.72411803  0.19162531  1
  S  S13  1  0.75000000  0.90685094  0.39984261  1
  S  S14  1  0.25000000  0.59314906  0.89984261  1
  S  S15  1  0.25000000  0.09314906  0.60015739  1
  S  S16  1  0.25000000  0.86689707  0.99066347  1
  S  S17  1  0.75000000  0.13310293  0.00933653  1
  S  S18  1  0.25000000  0.36689707  0.50933653  1
  S  S19  1  0.75000000  0.63310293  0.49066347  1
  S  S20  1  0.25000000  0.27588197  0.80837469  1
  S  S21  1  0.75000000  0.22411803  0.30837469  1
  S  S22  1  0.25000000  0.77588197  0.69162531  1
  S  S23  1  0.75000000  0.40685094  0.10015739  1
  N  N24  1  0.75000000  0.96503650  0.79841801  1
  N  N25  1  0.25000000  0.53496350  0.29841801  1
  N  N26  1  0.75000000  0.46503650  0.70158199  1
  N  N27  1  0.25000000  0.03496350  0.20158199  1
