# generated using pymatgen
data_Si
_symmetry_space_group_name_H-M   'P 1'
_cell_length_a   3.82886495
_cell_length_b   5.68473769
_cell_length_c   12.67273019
_cell_angle_alpha   90.00000000
_cell_angle_beta   90.00000000
_cell_angle_gamma   109.68003941
_symmetry_Int_Tables_number   1
_chemical_formula_structural   Si
_chemical_formula_sum   Si12
_cell_volume   259.72367947
_cell_formula_units_Z   12
loop_
 _symmetry_equiv_pos_site_id
 _symmetry_equiv_pos_as_xyz
  1  'x, y, z'
loop_
 _atom_site_type_symbol
 _atom_site_label
 _atom_site_symmetry_multiplicity
 _atom_site_fract_x
 _atom_site_fract_y
 _atom_site_fract_z
 _atom_site_occupancy
  Si  Si0  1  0.24273283  0.48546665  0.94510656  1
  Si  Si1  1  0.75726717  0.51453335  0.05489344  1
  Si  Si2  1  0.24273283  0.48546665  0.55489344  1
  Si  Si3  1  0.75726717  0.51453335  0.44510656  1
  Si  Si4  1  0.57131495  0.14262890  0.15727091  1
  Si  Si5  1  0.42868505  0.85737110  0.84272909  1
  Si  Si6  1  0.57131495  0.14262890  0.34272909  1
  Si  Si7  1  0.42868505  0.85737110  0.65727091  1
  Si  Si8  1  0.02872941  0.05745783  0.90937010  1
  Si  Si9  1  0.97127059  0.94254217  0.09062990  1
  Si  Si10  1  0.02872941  0.05745783  0.59062990  1
  Si  Si11  1  0.97127059  0.94254217  0.40937010  1
