# generated using pymatgen
data_MnSb2F12
_symmetry_space_group_name_H-M   'P 1'
_cell_length_a   5.35394400
_cell_length_b   5.65621083
_cell_length_c   9.25184130
_cell_angle_alpha   106.18226911
_cell_angle_beta   88.75038315
_cell_angle_gamma   117.76550041
_symmetry_Int_Tables_number   1
_chemical_formula_structural   MnSb2F12
_chemical_formula_sum   'Mn1 Sb2 F12'
_cell_volume   236.16128530
_cell_formula_units_Z   1
loop_
 _symmetry_equiv_pos_site_id
 _symmetry_equiv_pos_as_xyz
  1  'x, y, z'
loop_
 _atom_site_type_symbol
 _atom_site_label
 _atom_site_symmetry_multiplicity
 _atom_site_fract_x
 _atom_site_fract_y
 _atom_site_fract_z
 _atom_site_occupancy
  Mn  Mn0  1  0.50000000  0.00000000  0.50000000  1
  Sb  Sb1  1  0.22591600  0.24535300  0.75925500  1
  Sb  Sb2  1  0.77408400  0.75464700  0.24074500  1
  F  F3  1  0.05103900  0.44192200  0.79269900  1
  F  F4  1  0.94896100  0.55807800  0.20730100  1
  F  F5  1  0.97888400  0.89552700  0.86053200  1
  F  F6  1  0.53972800  0.40628400  0.37287300  1
  F  F7  1  0.46027200  0.59371600  0.62712700  1
  F  F8  1  0.05188200  0.81328900  0.42621100  1
  F  F9  1  0.94811800  0.18671100  0.57378900  1
  F  F10  1  0.59855600  0.91905300  0.31768600  1
  F  F11  1  0.40144400  0.08094700  0.68231400  1
  F  F12  1  0.48151800  0.69757900  0.07745500  1
  F  F13  1  0.51848200  0.30242100  0.92254500  1
  F  F14  1  0.02111600  0.10447300  0.13946800  1
