# generated using pymatgen
data_VO
_symmetry_space_group_name_H-M   'P 1'
_cell_length_a   3.09580386
_cell_length_b   5.34439421
_cell_length_c   3.09580372
_cell_angle_alpha   106.83586387
_cell_angle_beta   60.00000609
_cell_angle_gamma   106.83585188
_symmetry_Int_Tables_number   1
_chemical_formula_structural   VO
_chemical_formula_sum   'V2 O2'
_cell_volume   41.80417270
_cell_formula_units_Z   2
loop_
 _symmetry_equiv_pos_site_id
 _symmetry_equiv_pos_as_xyz
  1  'x, y, z'
loop_
 _atom_site_type_symbol
 _atom_site_label
 _atom_site_symmetry_multiplicity
 _atom_site_fract_x
 _atom_site_fract_y
 _atom_site_fract_z
 _atom_site_occupancy
  V  V0  1  0.00000000  0.00000000  -0.00000000  1
  V  V1  1  0.50000000  0.50000000  0.50000000  1
  O  O2  1  0.75000100  0.25000100  0.75000100  1
  O  O3  1  0.24999900  0.74999900  0.24999900  1
