# generated using pymatgen
data_Cs3VS4
_symmetry_space_group_name_H-M   'P 1'
_cell_length_a   9.81626332
_cell_length_b   9.81314985
_cell_length_c   11.59973533
_cell_angle_alpha   90.00000000
_cell_angle_beta   90.00000000
_cell_angle_gamma   90.00000000
_symmetry_Int_Tables_number   1
_chemical_formula_structural   Cs3VS4
_chemical_formula_sum   'Cs12 V4 S16'
_cell_volume   1117.38467469
_cell_formula_units_Z   4
loop_
 _symmetry_equiv_pos_site_id
 _symmetry_equiv_pos_as_xyz
  1  'x, y, z'
loop_
 _atom_site_type_symbol
 _atom_site_label
 _atom_site_symmetry_multiplicity
 _atom_site_fract_x
 _atom_site_fract_y
 _atom_site_fract_z
 _atom_site_occupancy
  Cs  Cs0  1  0.54427168  0.20816030  0.04017163  1
  Cs  Cs1  1  0.04427168  0.29183970  0.45982837  1
  Cs  Cs2  1  0.45572832  0.79183970  0.54017163  1
  Cs  Cs3  1  0.95572832  0.70816030  0.95982837  1
  Cs  Cs4  1  0.45572832  0.79183970  0.95982837  1
  Cs  Cs5  1  0.95572832  0.70816030  0.54017163  1
  Cs  Cs6  1  0.54427168  0.20816030  0.45982837  1
  Cs  Cs7  1  0.04427168  0.29183970  0.04017163  1
  Cs  Cs8  1  0.65080366  0.41153371  0.75000000  1
  Cs  Cs9  1  0.15080366  0.08846629  0.75000000  1
  Cs  Cs10  1  0.34919634  0.58846629  0.25000000  1
  Cs  Cs11  1  0.84919634  0.91153371  0.25000000  1
  V  V12  1  0.72263193  0.98214982  0.75000000  1
  V  V13  1  0.22263193  0.51785018  0.75000000  1
  V  V14  1  0.27736807  0.01785018  0.25000000  1
  V  V15  1  0.77736807  0.48214982  0.25000000  1
  S  S16  1  0.82782290  0.04671855  0.59669147  1
  S  S17  1  0.32782290  0.45328145  0.90330853  1
  S  S18  1  0.17217710  0.95328145  0.09669147  1
  S  S19  1  0.67217710  0.54671855  0.40330853  1
  S  S20  1  0.17217710  0.95328145  0.40330853  1
  S  S21  1  0.67217710  0.54671855  0.09669147  1
  S  S22  1  0.82782290  0.04671855  0.90330853  1
  S  S23  1  0.32782290  0.45328145  0.59669147  1
  S  S24  1  0.51868619  0.06526195  0.75000000  1
  S  S25  1  0.01868619  0.43473805  0.75000000  1
  S  S26  1  0.48131381  0.93473805  0.25000000  1
  S  S27  1  0.98131381  0.56526195  0.25000000  1
  S  S28  1  0.71066006  0.76313866  0.75000000  1
  S  S29  1  0.21066006  0.73686134  0.75000000  1
  S  S30  1  0.28933994  0.23686134  0.25000000  1
  S  S31  1  0.78933994  0.26313866  0.25000000  1
