# generated using pymatgen
data_Li6Zn3(PS4)4
_symmetry_space_group_name_H-M   'P 1'
_cell_length_a   9.31773450
_cell_length_b   11.59480808
_cell_length_c   23.12481400
_cell_angle_alpha   89.97474793
_cell_angle_beta   90.02503958
_cell_angle_gamma   90.08508889
_symmetry_Int_Tables_number   1
_chemical_formula_structural   Li6Zn3(PS4)4
_chemical_formula_sum   'Li24 Zn12 P16 S64'
_cell_volume   2498.34023129
_cell_formula_units_Z   4
loop_
 _symmetry_equiv_pos_site_id
 _symmetry_equiv_pos_as_xyz
  1  'x, y, z'
loop_
 _atom_site_type_symbol
 _atom_site_label
 _atom_site_symmetry_multiplicity
 _atom_site_fract_x
 _atom_site_fract_y
 _atom_site_fract_z
 _atom_site_occupancy
  Li  Li0  1  0.74237763  0.49581010  0.87263687  1
  Li  Li1  1  0.74941495  0.00141785  0.87706195  1
  Li  Li2  1  0.24472726  0.74600927  0.75225210  1
  Li  Li3  1  0.25111319  0.75462552  0.99624977  1
  Li  Li4  1  0.50179470  0.49930356  0.25011496  1
  Li  Li5  1  0.50390475  0.99833259  0.25122751  1
  Li  Li6  1  0.50432658  0.50142617  0.49926705  1
  Li  Li7  1  0.50434455  0.00237563  0.49859791  1
  Li  Li8  1  0.00154049  0.75009709  0.37520740  1
  Li  Li9  1  0.00114165  0.24975507  0.37497560  1
  Li  Li10  1  0.49504981  0.49807383  0.74900151  1
  Li  Li11  1  0.99708782  0.74866486  0.62232936  1
  Li  Li12  1  0.00285119  0.25216437  0.62554752  1
  Li  Li13  1  0.49674842  0.49705844  0.00086786  1
  Li  Li14  1  0.50321779  0.00094547  0.00277965  1
  Li  Li15  1  0.99477432  0.75076422  0.87522746  1
  Li  Li16  1  0.00820969  0.25036361  0.87448708  1
  Li  Li17  1  0.99658637  0.75037323  0.12801020  1
  Li  Li18  1  0.00441341  0.24728538  0.12447354  1
  Li  Li19  1  0.48332898  0.25031661  0.87486298  1
  Li  Li20  1  0.50092477  0.75146189  0.87505402  1
  Li  Li21  1  0.99465459  0.49687817  0.74944825  1
  Li  Li22  1  0.99944843  0.00247439  0.74891489  1
  Li  Li23  1  0.00190827  0.00195668  0.99942834  1
  Zn  Zn24  1  0.49752864  0.00142412  0.74885623  1
  Zn  Zn25  1  0.50067697  0.24907786  0.12470963  1
  Zn  Zn26  1  0.50517322  0.74922409  0.12598176  1
  Zn  Zn27  1  0.49943434  0.25026043  0.37481858  1
  Zn  Zn28  1  0.49846881  0.74992742  0.37503840  1
  Zn  Zn29  1  0.99913119  0.50045163  0.25077827  1
  Zn  Zn30  1  0.99969980  0.99962817  0.24956015  1
  Zn  Zn31  1  0.50392198  0.25205909  0.62479964  1
  Zn  Zn32  1  0.50239188  0.75016630  0.62390152  1
  Zn  Zn33  1  0.99988328  0.50048318  0.50024970  1
  Zn  Zn34  1  0.00116669  0.00068423  0.50026604  1
  Zn  Zn35  1  0.99913660  0.49715127  0.00022385  1
  P  P36  1  0.75040120  0.24985215  0.24992404  1
  P  P37  1  0.75024686  0.74953576  0.25063222  1
  P  P38  1  0.75086015  0.25059333  0.50018818  1
  P  P39  1  0.75080056  0.75085620  0.49976943  1
  P  P40  1  0.24990913  0.49992378  0.37506669  1
  P  P41  1  0.24972975  0.00028442  0.37508924  1
  P  P42  1  0.74963246  0.24431628  0.74803566  1
  P  P43  1  0.75019197  0.74827577  0.75220824  1
  P  P44  1  0.24813369  0.49606217  0.62439012  1
  P  P45  1  0.25243180  0.99063013  0.62465292  1
  P  P46  1  0.74936286  0.25587712  0.99733383  1
  P  P47  1  0.75060592  0.75253840  0.00206761  1
  P  P48  1  0.24897303  0.50892747  0.87573540  1
  P  P49  1  0.24949569  0.00020195  0.87445879  1
  P  P50  1  0.25217189  0.50105016  0.12543600  1
  P  P51  1  0.24876064  0.00317146  0.12561755  1
  S  S52  1  0.86769842  0.36026572  0.05216699  1
  S  S53  1  0.87573012  0.85335528  0.05213789  1
  S  S54  1  0.86494167  0.36104692  0.30239194  1
  S  S55  1  0.86509682  0.86100882  0.30257375  1
  S  S56  1  0.36500282  0.61262516  0.17773982  1
  S  S57  1  0.37414090  0.10702087  0.17773061  1
  S  S58  1  0.86447847  0.36208382  0.55249896  1
  S  S59  1  0.86313365  0.86344721  0.55203122  1
  S  S60  1  0.36412383  0.61139447  0.42737880  1
  S  S61  1  0.36369303  0.11227554  0.42727473  1
  S  S62  1  0.86173568  0.35110487  0.80290404  1
  S  S63  1  0.86508424  0.85969386  0.80361064  1
  S  S64  1  0.36897123  0.61108866  0.67611287  1
  S  S65  1  0.36519014  0.10701231  0.67767377  1
  S  S66  1  0.37052071  0.61219877  0.92965601  1
  S  S67  1  0.37619151  0.09656561  0.92652845  1
  S  S68  1  0.63463260  0.64573625  0.30621640  1
  S  S69  1  0.63667616  0.14592311  0.30621416  1
  S  S70  1  0.63947935  0.64561563  0.55620190  1
  S  S71  1  0.63646368  0.14577361  0.55578936  1
  S  S72  1  0.13605023  0.89594488  0.43117445  1
  S  S73  1  0.13493461  0.39595274  0.43071056  1
  S  S74  1  0.62409852  0.64368322  0.80299292  1
  S  S75  1  0.62392691  0.13949366  0.80289850  1
  S  S76  1  0.13273493  0.88947843  0.67844952  1
  S  S77  1  0.13896723  0.39502081  0.67964614  1
  S  S78  1  0.62916653  0.64513393  0.05428470  1
  S  S79  1  0.63597414  0.15086143  0.05365533  1
  S  S80  1  0.13058917  0.89076361  0.92650650  1
  S  S81  1  0.12943117  0.40072308  0.92877111  1
  S  S82  1  0.13840411  0.89570594  0.18170526  1
  S  S83  1  0.13338510  0.39854472  0.18010408  1
  S  S84  1  0.86425508  0.13852880  0.19765524  1
  S  S85  1  0.86213609  0.63683937  0.19844133  1
  S  S86  1  0.86602665  0.13906805  0.44829469  1
  S  S87  1  0.86472118  0.63917933  0.44774540  1
  S  S88  1  0.36379676  0.38861658  0.32268009  1
  S  S89  1  0.36360564  0.88852543  0.32300194  1
  S  S90  1  0.86514405  0.14184420  0.69562384  1
  S  S91  1  0.86767793  0.64916433  0.69839515  1
  S  S92  1  0.37192438  0.39138422  0.57210331  1
  S  S93  1  0.37226541  0.88784251  0.57082300  1
  S  S94  1  0.86864282  0.14675208  0.94654193  1
  S  S95  1  0.86572114  0.63855351  0.94825313  1
  S  S96  1  0.36555346  0.40272773  0.82469097  1
  S  S97  1  0.37072304  0.89158100  0.81843222  1
  S  S98  1  0.36225351  0.38867190  0.07317334  1
  S  S99  1  0.36911819  0.88809426  0.07406758  1
  S  S100  1  0.63621691  0.35417975  0.19417713  1
  S  S101  1  0.63815394  0.85463925  0.19461791  1
  S  S102  1  0.63701935  0.35410476  0.44386421  1
  S  S103  1  0.63553257  0.85405540  0.44386283  1
  S  S104  1  0.13637526  0.60478271  0.31924335  1
  S  S105  1  0.13515346  0.10399861  0.31926168  1
  S  S106  1  0.62741745  0.35265343  0.69688402  1
  S  S107  1  0.62936097  0.85740798  0.69676763  1
  S  S108  1  0.13862694  0.60392108  0.56836810  1
  S  S109  1  0.13921219  0.10014656  0.57130995  1
  S  S110  1  0.62554175  0.35782891  0.94486046  1
  S  S111  1  0.63111206  0.85517171  0.94778386  1
  S  S112  1  0.12267554  0.60962468  0.82235326  1
  S  S113  1  0.13051773  0.10240513  0.82244221  1
  S  S114  1  0.13097026  0.60595717  0.07017672  1
  S  S115  1  0.13968902  0.10463926  0.07055769  1
