# generated using pymatgen
data_Rb2SiO3
_symmetry_space_group_name_H-M   'P 1'
_cell_length_a   13.34671866
_cell_length_b   6.52964022
_cell_length_c   16.35244221
_cell_angle_alpha   72.14702016
_cell_angle_beta   90.00000000
_cell_angle_gamma   90.00000000
_symmetry_Int_Tables_number   1
_chemical_formula_structural   Rb2SiO3
_chemical_formula_sum   'Rb24 Si12 O36'
_cell_volume   1356.47944089
_cell_formula_units_Z   12
loop_
 _symmetry_equiv_pos_site_id
 _symmetry_equiv_pos_as_xyz
  1  'x, y, z'
loop_
 _atom_site_type_symbol
 _atom_site_label
 _atom_site_symmetry_multiplicity
 _atom_site_fract_x
 _atom_site_fract_y
 _atom_site_fract_z
 _atom_site_occupancy
  Rb  Rb0  1  0.37666543  0.10472816  0.13647379  1
  Rb  Rb1  1  0.15669786  0.55910136  0.99175049  1
  Rb  Rb2  1  0.34330214  0.55910136  0.49175049  1
  Rb  Rb3  1  0.84330214  0.44089864  0.00824951  1
  Rb  Rb4  1  0.62333457  0.89527184  0.86352621  1
  Rb  Rb5  1  0.12333457  0.10472816  0.63647379  1
  Rb  Rb6  1  0.65669786  0.44089864  0.50824951  1
  Rb  Rb7  1  0.87666543  0.89527184  0.36352621  1
  Rb  Rb8  1  0.31030754  0.87095225  0.80258025  1
  Rb  Rb9  1  0.81030754  0.12904775  0.69741975  1
  Rb  Rb10  1  0.68969246  0.12904775  0.19741975  1
  Rb  Rb11  1  0.18969246  0.87095225  0.30258025  1
  Rb  Rb12  1  0.01298108  0.65150963  0.78082155  1
  Rb  Rb13  1  0.51298108  0.34849037  0.71917845  1
  Rb  Rb14  1  0.98701892  0.34849037  0.21917845  1
  Rb  Rb15  1  0.48701892  0.65150963  0.28082155  1
  Rb  Rb16  1  0.08588223  0.72031078  0.52957118  1
  Rb  Rb17  1  0.58588223  0.27968922  0.97042882  1
  Rb  Rb18  1  0.91411777  0.27968922  0.47042882  1
  Rb  Rb19  1  0.41411777  0.72031078  0.02957118  1
  Rb  Rb20  1  0.10759763  0.00426231  0.08296031  1
  Rb  Rb21  1  0.60759763  -0.00426231  0.41703969  1
  Rb  Rb22  1  0.89240237  -0.00426231  0.91703969  1
  Rb  Rb23  1  0.39240237  0.00426231  0.58296031  1
  Si  Si24  1  0.84999922  0.72964559  0.60555856  1
  Si  Si25  1  0.34999922  0.27035441  0.89444144  1
  Si  Si26  1  0.15000078  0.27035441  0.39444144  1
  Si  Si27  1  0.65000078  0.72964559  0.10555856  1
  Si  Si28  1  0.63052641  0.83468326  0.63682271  1
  Si  Si29  1  0.13052641  0.16531674  0.86317729  1
  Si  Si30  1  0.36947359  0.16531674  0.36317729  1
  Si  Si31  1  0.86947359  0.83468326  0.13682271  1
  Si  Si32  1  0.75791248  0.54567422  0.78495001  1
  Si  Si33  1  0.25791248  0.45432578  0.71504999  1
  Si  Si34  1  0.24208752  0.45432578  0.21504999  1
  Si  Si35  1  0.74208752  0.54567422  0.28495001  1
  O  O36  1  0.93741728  0.89406488  0.61200883  1
  O  O37  1  0.43741728  0.10593512  0.88799117  1
  O  O38  1  0.06258272  0.10593512  0.38799117  1
  O  O39  1  0.56258272  0.89406488  0.11200883  1
  O  O40  1  0.86657343  0.60213324  0.53709058  1
  O  O41  1  0.36657343  0.39786676  0.96290942  1
  O  O42  1  0.13342657  0.39786676  0.46290942  1
  O  O43  1  0.63342657  0.60213324  0.03709058  1
  O  O44  1  0.09719890  0.93749044  0.85387813  1
  O  O45  1  0.59719890  0.06250956  0.64612187  1
  O  O46  1  0.90280110  0.06250956  0.14612187  1
  O  O47  1  0.40280110  0.93749044  0.35387813  1
  O  O48  1  0.55493853  0.72498086  0.58627313  1
  O  O49  1  0.05493853  0.27501914  0.91372687  1
  O  O50  1  0.44506147  0.27501914  0.41372687  1
  O  O51  1  0.94506147  0.72498086  0.08627313  1
  O  O52  1  0.80591008  0.69508809  0.83688287  1
  O  O53  1  0.84648693  0.66583265  0.23548950  1
  O  O54  1  0.19408992  0.30491191  0.16311713  1
  O  O55  1  0.69408992  0.69508809  0.33688287  1
  O  O56  1  0.73357373  0.29994013  0.83811827  1
  O  O57  1  0.23357373  0.70005987  0.66188173  1
  O  O58  1  0.26642627  0.70005987  0.16188173  1
  O  O59  1  0.76642627  0.29994013  0.33811827  1
  O  O60  1  0.83255720  0.54811701  0.70225991  1
  O  O61  1  0.33255720  0.45188299  0.79774009  1
  O  O62  1  0.16744280  0.45188299  0.29774009  1
  O  O63  1  0.66744280  0.54811701  0.20225991  1
  O  O64  1  0.74227158  0.86885985  0.58668834  1
  O  O65  1  0.24227158  0.13114015  0.91331166  1
  O  O66  1  0.25772842  0.13114015  0.41331166  1
  O  O67  1  0.75772842  0.86885985  0.08668834  1
  O  O68  1  0.65351307  0.66583265  0.73548950  1
  O  O69  1  0.15351307  0.33416735  0.76451050  1
  O  O70  1  0.34648693  0.33416735  0.26451050  1
  O  O71  1  0.30591008  0.30491191  0.66311713  1
