# generated using pymatgen
data_KNaP6(PbO3)8
_symmetry_space_group_name_H-M   'P 1'
_cell_length_a   9.77618128
_cell_length_b   9.77618128
_cell_length_c   7.22366196
_cell_angle_alpha   90.00000000
_cell_angle_beta   90.00000000
_cell_angle_gamma   119.99999742
_symmetry_Int_Tables_number   1
_chemical_formula_structural   KNaP6(PbO3)8
_chemical_formula_sum   'K1 Na1 P6 Pb8 O24'
_cell_volume   597.89724128
_cell_formula_units_Z   1
loop_
 _symmetry_equiv_pos_site_id
 _symmetry_equiv_pos_as_xyz
  1  'x, y, z'
loop_
 _atom_site_type_symbol
 _atom_site_label
 _atom_site_symmetry_multiplicity
 _atom_site_fract_x
 _atom_site_fract_y
 _atom_site_fract_z
 _atom_site_occupancy
  K  K0  1  0.66666700  0.33333300  0.51694334  1
  Na  Na1  1  0.00000000  0.00000000  0.99825846  1
  P  P2  1  0.34669516  0.28627511  0.75479666  1
  P  P3  1  0.93957996  0.65330484  0.75479666  1
  P  P4  1  0.71372489  0.06042004  0.75479666  1
  P  P5  1  0.30862315  0.04073955  0.24112709  1
  P  P6  1  0.73211640  0.69137685  0.24112709  1
  P  P7  1  0.95926045  0.26788360  0.24112709  1
  Pb  Pb8  1  0.33454562  0.40807705  0.24673423  1
  Pb  Pb9  1  0.07353142  0.66545438  0.24673423  1
  Pb  Pb10  1  0.59192295  0.92646858  0.24673423  1
  Pb  Pb11  1  0.32742936  0.91537923  0.75186038  1
  Pb  Pb12  1  0.58794987  0.67257064  0.75186038  1
  Pb  Pb13  1  0.08462077  0.41205013  0.75186038  1
  Pb  Pb14  1  0.66666700  0.33333300  0.01421824  1
  Pb  Pb15  1  0.00000000  0.00000000  0.51211810  1
  O  O16  1  0.16539619  0.18986852  0.76008580  1
  O  O17  1  0.02447333  0.83460381  0.76008580  1
  O  O18  1  0.81013148  0.97552667  0.76008580  1
  O  O19  1  0.48832943  0.14622019  0.24446863  1
  O  O20  1  0.65788976  0.51167057  0.24446863  1
  O  O21  1  0.85377981  0.34211024  0.24446863  1
  O  O22  1  0.41715797  0.17530986  0.76409425  1
  O  O23  1  0.75815189  0.58284203  0.76409425  1
  O  O24  1  0.82469014  0.24184811  0.76409425  1
  O  O25  1  0.22738778  0.14142952  0.21897200  1
  O  O26  1  0.91404274  0.77261222  0.21897200  1
  O  O27  1  0.85857048  0.08595726  0.21897200  1
  O  O28  1  0.41388068  0.40085041  0.92152868  1
  O  O29  1  0.98696973  0.58611932  0.92152868  1
  O  O30  1  0.59914959  0.01303027  0.92152868  1
  O  O31  1  0.24538698  0.94281034  0.42094998  1
  O  O32  1  0.69742336  0.75461302  0.42094998  1
  O  O33  1  0.05718966  0.30257664  0.42094998  1
  O  O34  1  0.25653167  0.91998300  0.08125763  1
  O  O35  1  0.66345133  0.74346833  0.08125763  1
  O  O36  1  0.08001700  0.33654867  0.08125763  1
  O  O37  1  0.40698366  0.38924602  0.58027396  1
  O  O38  1  0.98226236  0.59301634  0.58027396  1
  O  O39  1  0.61075398  0.01773764  0.58027396  1
