# generated using pymatgen
data_Mg14VZnO16
_symmetry_space_group_name_H-M   'P 1'
_cell_length_a   8.54939068
_cell_length_b   8.55459130
_cell_length_c   4.28083621
_cell_angle_alpha   90.00000000
_cell_angle_beta   90.00000000
_cell_angle_gamma   90.00000000
_symmetry_Int_Tables_number   1
_chemical_formula_structural   Mg14VZnO16
_chemical_formula_sum   'Mg14 V1 Zn1 O16'
_cell_volume   313.08556211
_cell_formula_units_Z   1
loop_
 _symmetry_equiv_pos_site_id
 _symmetry_equiv_pos_as_xyz
  1  'x, y, z'
loop_
 _atom_site_type_symbol
 _atom_site_label
 _atom_site_symmetry_multiplicity
 _atom_site_fract_x
 _atom_site_fract_y
 _atom_site_fract_z
 _atom_site_occupancy
  Mg  Mg0  1  0.50000000  -0.00000000  -0.00000000  1
  Mg  Mg1  1  0.50000000  0.50000000  -0.00000000  1
  Mg  Mg2  1  0.00000000  0.24899988  0.50000000  1
  Mg  Mg3  1  0.00000000  0.75100012  0.50000000  1
  Mg  Mg4  1  0.50000000  0.24996727  0.50000000  1
  Mg  Mg5  1  0.50000000  0.75003273  0.50000000  1
  Mg  Mg6  1  0.24981552  -0.00000000  0.50000000  1
  Mg  Mg7  1  0.25078324  0.50000000  0.50000000  1
  Mg  Mg8  1  0.75018448  -0.00000000  0.50000000  1
  Mg  Mg9  1  0.74921676  0.50000000  0.50000000  1
  Mg  Mg10  1  0.25033125  0.24946166  -0.00000000  1
  Mg  Mg11  1  0.25033125  0.75053834  -0.00000000  1
  Mg  Mg12  1  0.74966875  0.24946166  0.00000000  1
  Mg  Mg13  1  0.74966875  0.75053834  -0.00000000  1
  V  V14  1  0.00000000  0.50000000  -0.00000000  1
  Zn  Zn15  1  0.00000000  -0.00000000  -0.00000000  1
  O  O16  1  0.25413801  -0.00000000  -0.00000000  1
  O  O17  1  0.25510533  0.50000000  0.00000000  1
  O  O18  1  0.74586199  -0.00000000  0.00000000  1
  O  O19  1  0.74489467  0.50000000  -0.00000000  1
  O  O20  1  0.24915221  0.25004755  0.50000000  1
  O  O21  1  0.24915221  0.74995245  0.50000000  1
  O  O22  1  0.75084779  0.25004755  0.50000000  1
  O  O23  1  0.75084779  0.74995245  0.50000000  1
  O  O24  1  0.00000000  -0.00000000  0.50000000  1
  O  O25  1  0.00000000  0.50000000  0.50000000  1
  O  O26  1  0.50000000  -0.00000000  0.50000000  1
  O  O27  1  0.50000000  0.50000000  0.50000000  1
  O  O28  1  0.00000000  0.24778118  -0.00000000  1
  O  O29  1  0.00000000  0.75221882  0.00000000  1
  O  O30  1  0.50000000  0.24984350  -0.00000000  1
  O  O31  1  0.50000000  0.75015650  -0.00000000  1
