# generated using pymatgen
data_TaBr5
_symmetry_space_group_name_H-M   'P 1'
_cell_length_a   6.35839716
_cell_length_b   13.80374394
_cell_length_c   13.80374394
_cell_angle_alpha   87.34217915
_cell_angle_beta   89.46090997
_cell_angle_gamma   89.46090997
_symmetry_Int_Tables_number   1
_chemical_formula_structural   TaBr5
_chemical_formula_sum   'Ta6 Br30'
_cell_volume   1210.14459743
_cell_formula_units_Z   6
loop_
 _symmetry_equiv_pos_site_id
 _symmetry_equiv_pos_as_xyz
  1  'x, y, z'
loop_
 _atom_site_type_symbol
 _atom_site_label
 _atom_site_symmetry_multiplicity
 _atom_site_fract_x
 _atom_site_fract_y
 _atom_site_fract_z
 _atom_site_occupancy
  Ta  Ta0  1  0.50000000  0.39040254  0.60959746  1
  Ta  Ta1  1  0.50000000  0.60959746  0.39040254  1
  Ta  Ta2  1  0.02077292  0.05730405  0.27642064  1
  Ta  Ta3  1  0.02077292  0.27642064  0.05730405  1
  Ta  Ta4  1  0.97922708  0.94269595  0.72357936  1
  Ta  Ta5  1  0.97922708  0.72357936  0.94269595  1
  Br  Br6  1  0.80237699  0.11572419  0.11572419  1
  Br  Br7  1  0.19762301  0.88427581  0.88427581  1
  Br  Br8  1  0.78385402  0.92201485  0.30187185  1
  Br  Br9  1  0.78385402  0.30187185  0.92201485  1
  Br  Br10  1  0.21614598  0.07798515  0.69812815  1
  Br  Br11  1  0.21614598  0.69812815  0.07798515  1
  Br  Br12  1  0.25188590  0.96833820  0.16500409  1
  Br  Br13  1  0.25188590  0.16500409  0.96833820  1
  Br  Br14  1  0.74811410  0.03166180  0.83499591  1
  Br  Br15  1  0.74811410  0.83499591  0.03166180  1
  Br  Br16  1  0.25687125  0.03202813  0.41201639  1
  Br  Br17  1  0.25687125  0.41201639  0.03202813  1
  Br  Br18  1  0.74312875  0.96797187  0.58798361  1
  Br  Br19  1  0.74312875  0.58798361  0.96797187  1
  Br  Br20  1  0.24055617  0.21769613  0.21769613  1
  Br  Br21  1  0.75944383  0.78230387  0.78230387  1
  Br  Br22  1  0.27603807  0.30187160  0.49831503  1
  Br  Br23  1  0.27603807  0.49831503  0.30187160  1
  Br  Br24  1  0.72396193  0.69812840  0.50168497  1
  Br  Br25  1  0.72396193  0.50168497  0.69812840  1
  Br  Br26  1  0.78890829  0.16888487  0.36477061  1
  Br  Br27  1  0.78890829  0.36477061  0.16888487  1
  Br  Br28  1  0.21109171  0.83111513  0.63522939  1
  Br  Br29  1  0.21109171  0.63522939  0.83111513  1
  Br  Br30  1  0.26000043  0.36491073  0.74537804  1
  Br  Br31  1  0.26000043  0.74537804  0.36491073  1
  Br  Br32  1  0.73999957  0.63508927  0.25462196  1
  Br  Br33  1  0.73999957  0.25462196  0.63508927  1
  Br  Br34  1  0.27682248  0.55094025  0.55094025  1
  Br  Br35  1  0.72317852  0.44905975  0.44905975  1
