# generated using pymatgen
data_TeF6
_symmetry_space_group_name_H-M   'P 1'
_cell_length_a   4.97821264
_cell_length_b   8.57633732
_cell_length_c   9.46662783
_cell_angle_alpha   90.00000000
_cell_angle_beta   90.00000000
_cell_angle_gamma   90.00000000
_symmetry_Int_Tables_number   1
_chemical_formula_structural   TeF6
_chemical_formula_sum   'Te4 F24'
_cell_volume   404.17607393
_cell_formula_units_Z   4
loop_
 _symmetry_equiv_pos_site_id
 _symmetry_equiv_pos_as_xyz
  1  'x, y, z'
loop_
 _atom_site_type_symbol
 _atom_site_label
 _atom_site_symmetry_multiplicity
 _atom_site_fract_x
 _atom_site_fract_y
 _atom_site_fract_z
 _atom_site_occupancy
  Te  Te0  1  0.59299427  0.75000000  0.37260064  1
  Te  Te1  1  0.09299427  0.25000000  0.12739936  1
  Te  Te2  1  0.40700573  0.25000000  0.62739936  1
  Te  Te3  1  0.90700573  0.75000000  0.87260064  1
  F  F4  1  0.56322708  0.40103475  0.73737601  1
  F  F5  1  0.06322708  0.59896525  0.76262399  1
  F  F6  1  0.43677292  0.90103475  0.26262399  1
  F  F7  1  0.93677292  0.09896525  0.23737601  1
  F  F8  1  0.20150572  0.75000000  0.98935600  1
  F  F9  1  0.70150572  0.25000000  0.51064400  1
  F  F10  1  0.79849428  0.25000000  0.01064400  1
  F  F11  1  0.29849428  0.75000000  0.48935600  1
  F  F12  1  0.61094083  0.75000000  0.75663058  1
  F  F13  1  0.11094083  0.25000000  0.74336942  1
  F  F14  1  0.38905917  0.25000000  0.24336942  1
  F  F15  1  0.88905917  0.75000000  0.25663058  1
  F  F16  1  0.74991655  0.90152247  0.98190864  1
  F  F17  1  0.24991655  0.09847753  0.51809136  1
  F  F18  1  0.25008345  0.40152247  0.01809136  1
  F  F19  1  0.75008345  0.59847753  0.48190864  1
  F  F20  1  0.25008345  0.09847753  0.01809136  1
  F  F21  1  0.75008345  0.90152247  0.48190864  1
  F  F22  1  0.74991655  0.59847753  0.98190864  1
  F  F23  1  0.24991655  0.40152247  0.51809136  1
  F  F24  1  0.06322708  0.90103475  0.76262399  1
  F  F25  1  0.56322708  0.09896525  0.73737601  1
  F  F26  1  0.93677292  0.40103475  0.23737601  1
  F  F27  1  0.43677292  0.59896525  0.26262399  1
