# generated using pymatgen
data_KMg14CrO16
_symmetry_space_group_name_H-M   'P 1'
_cell_length_a   8.61213773
_cell_length_b   8.62381927
_cell_length_c   4.36218975
_cell_angle_alpha   90.00000000
_cell_angle_beta   90.00000000
_cell_angle_gamma   90.00000000
_symmetry_Int_Tables_number   1
_chemical_formula_structural   KMg14CrO16
_chemical_formula_sum   'K1 Mg14 Cr1 O16'
_cell_volume   323.97773588
_cell_formula_units_Z   1
loop_
 _symmetry_equiv_pos_site_id
 _symmetry_equiv_pos_as_xyz
  1  'x, y, z'
loop_
 _atom_site_type_symbol
 _atom_site_label
 _atom_site_symmetry_multiplicity
 _atom_site_fract_x
 _atom_site_fract_y
 _atom_site_fract_z
 _atom_site_occupancy
  K  K0  1  0.00000000  0.00000000  0.00000000  1
  Mg  Mg1  1  0.50000000  0.00000000  0.00000000  1
  Mg  Mg2  1  0.50000000  0.50000000  0.00000000  1
  Mg  Mg3  1  0.00000000  0.24449696  0.50000000  1
  Mg  Mg4  1  0.00000000  0.75550304  0.50000000  1
  Mg  Mg5  1  0.50000000  0.24819213  0.50000000  1
  Mg  Mg6  1  0.50000000  0.75180787  0.50000000  1
  Mg  Mg7  1  0.25182202  0.00000000  0.50000000  1
  Mg  Mg8  1  0.25148397  0.50000000  0.50000000  1
  Mg  Mg9  1  0.74817798  0.00000000  0.50000000  1
  Mg  Mg10  1  0.74851603  0.50000000  0.50000000  1
  Mg  Mg11  1  0.25323022  0.24660117  0.00000000  1
  Mg  Mg12  1  0.25323022  0.75339883  0.00000000  1
  Mg  Mg13  1  0.74676978  0.24660117  0.00000000  1
  Mg  Mg14  1  0.74676978  0.75339883  0.00000000  1
  Cr  Cr15  1  0.00000000  0.50000000  0.00000000  1
  O  O16  1  0.27503383  0.00000000  0.00000000  1
  O  O17  1  0.24248123  0.50000000  0.00000000  1
  O  O18  1  0.72496617  0.00000000  0.00000000  1
  O  O19  1  0.75751877  0.50000000  0.00000000  1
  O  O20  1  0.24916251  0.25185001  0.50000000  1
  O  O21  1  0.24916251  0.74814999  0.50000000  1
  O  O22  1  0.75083749  0.25185001  0.50000000  1
  O  O23  1  0.75083749  0.74814999  0.50000000  1
  O  O24  1  0.00000000  0.00000000  0.50000000  1
  O  O25  1  0.00000000  0.50000000  0.50000000  1
  O  O26  1  0.50000000  0.00000000  0.50000000  1
  O  O27  1  0.50000000  0.50000000  0.50000000  1
  O  O28  1  0.00000000  0.27610272  0.00000000  1
  O  O29  1  0.00000000  0.72389728  0.00000000  1
  O  O30  1  0.50000000  0.25926398  0.00000000  1
  O  O31  1  0.50000000  0.74073602  0.00000000  1
