# generated using pymatgen
data_Mg14VCoO16
_symmetry_space_group_name_H-M   'P 1'
_cell_length_a   8.51980507
_cell_length_b   8.56929481
_cell_length_c   4.27323439
_cell_angle_alpha   90.00000000
_cell_angle_beta   90.00000000
_cell_angle_gamma   90.00000000
_symmetry_Int_Tables_number   1
_chemical_formula_structural   Mg14VCoO16
_chemical_formula_sum   'Mg14 V1 Co1 O16'
_cell_volume   311.98337892
_cell_formula_units_Z   1
loop_
 _symmetry_equiv_pos_site_id
 _symmetry_equiv_pos_as_xyz
  1  'x, y, z'
loop_
 _atom_site_type_symbol
 _atom_site_label
 _atom_site_symmetry_multiplicity
 _atom_site_fract_x
 _atom_site_fract_y
 _atom_site_fract_z
 _atom_site_occupancy
  Mg  Mg0  1  0.50000000  0.00000000  0.00000000  1
  Mg  Mg1  1  0.50000000  0.50000000  0.00000000  1
  Mg  Mg2  1  0.00000000  0.24892209  0.50000000  1
  Mg  Mg3  1  0.00000000  0.75107791  0.50000000  1
  Mg  Mg4  1  0.50000000  0.25028847  0.50000000  1
  Mg  Mg5  1  0.50000000  0.74971153  0.50000000  1
  Mg  Mg6  1  0.25043371  0.00000000  0.50000000  1
  Mg  Mg7  1  0.25063345  0.50000000  0.50000000  1
  Mg  Mg8  1  0.74956629  0.00000000  0.50000000  1
  Mg  Mg9  1  0.74936655  0.50000000  0.50000000  1
  Mg  Mg10  1  0.24921189  0.24964929  0.00000000  1
  Mg  Mg11  1  0.24921189  0.75035071  0.00000000  1
  Mg  Mg12  1  0.75078811  0.24964929  0.00000000  1
  Mg  Mg13  1  0.75078811  0.75035071  0.00000000  1
  V  V14  1  0.00000000  0.50000000  0.00000000  1
  Co  Co15  1  0.00000000  0.00000000  0.00000000  1
  O  O16  1  0.25088122  0.00000000  0.00000000  1
  O  O17  1  0.25590150  0.50000000  0.00000000  1
  O  O18  1  0.74911878  0.00000000  0.00000000  1
  O  O19  1  0.74409850  0.50000000  0.00000000  1
  O  O20  1  0.24953976  0.24946963  0.50000000  1
  O  O21  1  0.24953976  0.75053037  0.50000000  1
  O  O22  1  0.75046024  0.24946963  0.50000000  1
  O  O23  1  0.75046024  0.75053037  0.50000000  1
  O  O24  1  0.00000000  0.00000000  0.50000000  1
  O  O25  1  0.00000000  0.50000000  0.50000000  1
  O  O26  1  0.50000000  0.00000000  0.50000000  1
  O  O27  1  0.50000000  0.50000000  0.50000000  1
  O  O28  1  0.00000000  0.24919318  0.00000000  1
  O  O29  1  0.00000000  0.75080682  0.00000000  1
  O  O30  1  0.50000000  0.24874922  0.00000000  1
  O  O31  1  0.50000000  0.75125078  0.00000000  1
