# generated using pymatgen
data_Sr2MgV2(Si2O7)2
_symmetry_space_group_name_H-M   'P 1'
_cell_length_a   5.60585284
_cell_length_b   7.32678600
_cell_length_c   7.97705567
_cell_angle_alpha   90.00000000
_cell_angle_beta   113.19135893
_cell_angle_gamma   90.00000000
_symmetry_Int_Tables_number   1
_chemical_formula_structural   Sr2MgV2(Si2O7)2
_chemical_formula_sum   'Sr2 Mg1 V2 Si4 O14'
_cell_volume   301.16559296
_cell_formula_units_Z   1
loop_
 _symmetry_equiv_pos_site_id
 _symmetry_equiv_pos_as_xyz
  1  'x, y, z'
loop_
 _atom_site_type_symbol
 _atom_site_label
 _atom_site_symmetry_multiplicity
 _atom_site_fract_x
 _atom_site_fract_y
 _atom_site_fract_z
 _atom_site_occupancy
  Sr  Sr0  1  0.18637500  0.75000000  0.36289800  1
  Sr  Sr1  1  0.77696900  0.25000000  0.61450500  1
  Mg  Mg2  1  0.67257700  0.75000000  0.95015100  1
  V  V3  1  0.92321200  0.75000000  0.75101000  1
  V  V4  1  0.09883700  0.25000000  0.21759800  1
  Si  Si5  1  0.37856200  0.46926800  0.77893200  1
  Si  Si6  1  0.59847900  0.52374200  0.22290900  1
  Si  Si7  1  0.59847900  0.97625800  0.22290900  1
  Si  Si8  1  0.37856200  0.03073200  0.77893200  1
  O  O9  1  0.64645500  0.75000000  0.28125300  1
  O  O10  1  0.41086500  0.25000000  0.75797700  1
  O  O11  1  0.47382400  0.53152000  0.99764800  1
  O  O12  1  0.47382400  0.96848000  0.99764800  1
  O  O13  1  0.59090800  0.56673300  0.71936700  1
  O  O14  1  0.88727400  0.43546100  0.28768800  1
  O  O15  1  0.40836000  0.06425900  0.31104600  1
  O  O16  1  0.08197300  0.97395900  0.66855500  1
  O  O17  1  0.00075500  0.25000000  0.99488500  1
  O  O18  1  0.03269600  0.75000000  0.03909800  1
  O  O19  1  0.88727400  0.06453900  0.28768800  1
  O  O20  1  0.59090800  0.93326700  0.71936700  1
  O  O21  1  0.08197300  0.52604100  0.66855500  1
  O  O22  1  0.40836000  0.43574100  0.31104600  1
