# generated using pymatgen
data_Li2TeO4
_symmetry_space_group_name_H-M   'P 1'
_cell_length_a   6.02607640
_cell_length_b   6.02607640
_cell_length_c   8.25292853
_cell_angle_alpha   90.00000000
_cell_angle_beta   90.00000000
_cell_angle_gamma   90.00000000
_symmetry_Int_Tables_number   1
_chemical_formula_structural   Li2TeO4
_chemical_formula_sum   'Li8 Te4 O16'
_cell_volume   299.69351888
_cell_formula_units_Z   4
loop_
 _symmetry_equiv_pos_site_id
 _symmetry_equiv_pos_as_xyz
  1  'x, y, z'
loop_
 _atom_site_type_symbol
 _atom_site_label
 _atom_site_symmetry_multiplicity
 _atom_site_fract_x
 _atom_site_fract_y
 _atom_site_fract_z
 _atom_site_occupancy
  Li  Li0  1  0.74603733  0.74603733  0.87500000  1
  Li  Li1  1  0.25396267  0.74603733  0.12500000  1
  Li  Li2  1  0.74603733  0.25396267  0.62500000  1
  Li  Li3  1  0.25396267  0.25396267  0.37500000  1
  Li  Li4  1  0.70644815  0.50000000  0.25000000  1
  Li  Li5  1  0.50000000  0.29355185  0.00000000  1
  Li  Li6  1  0.50000000  0.70644815  0.50000000  1
  Li  Li7  1  0.29355185  0.50000000  0.75000000  1
  Te  Te8  1  -0.00000000  0.72939468  0.50000000  1
  Te  Te9  1  0.27060532  -0.00000000  0.75000000  1
  Te  Te10  1  0.72939468  -0.00000000  0.25000000  1
  Te  Te11  1  -0.00000000  0.27060532  0.00000000  1
  O  O12  1  0.22478961  0.98009515  0.51500057  1
  O  O13  1  0.77521039  0.98009515  0.48499943  1
  O  O14  1  0.01990485  0.22478961  0.76500057  1
  O  O15  1  0.77521039  0.01990485  0.01500057  1
  O  O16  1  0.23179578  0.47022843  0.00521457  1
  O  O17  1  0.52977157  0.23179578  0.25521457  1
  O  O18  1  0.47022843  0.76820422  0.75521457  1
  O  O19  1  0.23179578  0.52977157  0.49478543  1
  O  O20  1  0.76820422  0.47022843  0.99478543  1
  O  O21  1  0.76820422  0.52977157  0.50521457  1
  O  O22  1  0.47022843  0.23179578  0.74478543  1
  O  O23  1  0.52977157  0.76820422  0.24478543  1
  O  O24  1  0.98009515  0.22478961  0.23499943  1
  O  O25  1  0.22478961  0.01990485  0.98499943  1
  O  O26  1  0.98009515  0.77521039  0.26500057  1
  O  O27  1  0.01990485  0.77521039  0.73499943  1
