# generated using pymatgen
data_Na5GeAs3
_symmetry_space_group_name_H-M   'P 1'
_cell_length_a   7.51781232
_cell_length_b   8.27162510
_cell_length_c   15.72520543
_cell_angle_alpha   58.44910192
_cell_angle_beta   90.00000000
_cell_angle_gamma   90.00000000
_symmetry_Int_Tables_number   1
_chemical_formula_structural   Na5GeAs3
_chemical_formula_sum   'Na20 Ge4 As12'
_cell_volume   833.31227890
_cell_formula_units_Z   4
loop_
 _symmetry_equiv_pos_site_id
 _symmetry_equiv_pos_as_xyz
  1  'x, y, z'
loop_
 _atom_site_type_symbol
 _atom_site_label
 _atom_site_symmetry_multiplicity
 _atom_site_fract_x
 _atom_site_fract_y
 _atom_site_fract_z
 _atom_site_occupancy
  Na  Na0  1  0.49555507  0.08015012  0.24279491  1
  Na  Na1  1  0.99555507  0.91984988  0.25720509  1
  Na  Na2  1  0.50444493  0.91984988  0.75720509  1
  Na  Na3  1  0.00444493  0.08015012  0.74279491  1
  Na  Na4  1  0.03563648  0.41387280  0.41448172  1
  Na  Na5  1  0.53563648  0.58612720  0.08551828  1
  Na  Na6  1  0.96436352  0.58612720  0.58551828  1
  Na  Na7  1  0.46436352  0.41387280  0.91448172  1
  Na  Na8  1  0.51917407  0.26088052  0.41407327  1
  Na  Na9  1  0.01917407  0.73911948  0.08592673  1
  Na  Na10  1  0.48082593  0.73911948  0.58592673  1
  Na  Na11  1  0.98082593  0.26088052  0.91407327  1
  Na  Na12  1  0.66156742  0.99646300  0.08121024  1
  Na  Na13  1  0.16156742  0.00353700  0.41878976  1
  Na  Na14  1  0.33843258  0.00353700  0.91878976  1
  Na  Na15  1  0.83843258  0.99646300  0.58121024  1
  Na  Na16  1  0.85523700  0.31573433  0.25731234  1
  Na  Na17  1  0.35523700  0.68426567  0.24268766  1
  Na  Na18  1  0.14476300  0.68426567  0.74268766  1
  Na  Na19  1  0.64476300  0.31573433  0.75731234  1
  Ge  Ge20  1  0.85583530  0.65890174  0.91196976  1
  Ge  Ge21  1  0.35583530  0.34109826  0.58803024  1
  Ge  Ge22  1  0.14416470  0.34109826  0.08803024  1
  Ge  Ge23  1  0.64416470  0.65890174  0.41196976  1
  As  As24  1  0.76502838  0.92889776  0.41786023  1
  As  As25  1  0.26502838  0.07110224  0.08213977  1
  As  As26  1  0.23497162  0.07110224  0.58213977  1
  As  As27  1  0.73497162  0.92889776  0.91786023  1
  As  As28  1  0.74019733  0.64039703  0.26920089  1
  As  As29  1  0.24019733  0.35960297  0.23079911  1
  As  As30  1  0.25980267  0.35960297  0.73079911  1
  As  As31  1  0.75980267  0.64039703  0.76920089  1
  As  As32  1  0.80905719  0.34248801  0.06713808  1
  As  As33  1  0.30905719  0.65751199  0.43286192  1
  As  As34  1  0.19094281  0.65751199  0.93286192  1
  As  As35  1  0.69094281  0.34248801  0.56713808  1
