# generated using pymatgen
data_La2TiO5
_symmetry_space_group_name_H-M   'P 1'
_cell_length_a   3.92346982
_cell_length_b   11.01649247
_cell_length_c   11.44093194
_cell_angle_alpha   90.00169505
_cell_angle_beta   89.99997463
_cell_angle_gamma   89.99991578
_symmetry_Int_Tables_number   1
_chemical_formula_structural   La2TiO5
_chemical_formula_sum   'La8 Ti4 O20'
_cell_volume   494.50997935
_cell_formula_units_Z   4
loop_
 _symmetry_equiv_pos_site_id
 _symmetry_equiv_pos_as_xyz
  1  'x, y, z'
loop_
 _atom_site_type_symbol
 _atom_site_label
 _atom_site_symmetry_multiplicity
 _atom_site_fract_x
 _atom_site_fract_y
 _atom_site_fract_z
 _atom_site_occupancy
  La  La0  1  0.74999821  0.09680087  0.71580135  1
  La  La1  1  0.25001575  0.90309054  0.28411016  1
  La  La2  1  0.74999943  0.59683062  0.78423025  1
  La  La3  1  0.24999890  0.40318839  0.21584396  1
  La  La4  1  0.24999990  0.36379441  0.56071290  1
  La  La5  1  0.74999937  0.63620686  0.43932470  1
  La  La6  1  0.24999914  0.86381697  0.93929789  1
  La  La7  1  0.74999905  0.13622868  0.06068721  1
  Ti  Ti8  1  0.25000449  0.30768247  0.87288594  1
  Ti  Ti9  1  0.75000274  0.69230653  0.12710416  1
  Ti  Ti10  1  0.25000346  0.80768472  0.62710589  1
  Ti  Ti11  1  0.75000449  0.19231573  0.37289393  1
  O  O12  1  0.25000037  0.46414055  0.83135121  1
  O  O13  1  0.75000038  0.53587433  0.16865448  1
  O  O14  1  0.24999931  0.96413006  0.66864682  1
  O  O15  1  0.75000078  0.03586342  0.33135162  1
  O  O16  1  0.24999766  0.22047001  0.72990100  1
  O  O17  1  0.74999875  0.77951334  0.27009226  1
  O  O18  1  0.24999885  0.72048103  0.77010431  1
  O  O19  1  0.74999815  0.27955209  0.22990836  1
  O  O20  1  0.74999785  0.26283156  0.87641306  1
  O  O21  1  0.24999830  0.73715772  0.12357593  1
  O  O22  1  0.74999614  0.76283868  0.62358385  1
  O  O23  1  0.24999868  0.23717655  0.37643007  1
  O  O24  1  0.24999942  0.00810298  0.10199740  1
  O  O25  1  0.74999834  0.99188139  0.89798034  1
  O  O26  1  0.24999902  0.50813111  0.39799056  1
  O  O27  1  0.74999903  0.49190691  0.60201515  1
  O  O28  1  0.24999834  0.27331062  0.03456986  1
  O  O29  1  0.74999863  0.72669265  0.96542986  1
  O  O30  1  0.24999894  0.77330061  0.46543433  1
  O  O31  1  0.74999814  0.22669858  0.53457120  1
