# generated using pymatgen
data_MgFe3Ni2Sb(PO4)6
_symmetry_space_group_name_H-M   'P 1'
_cell_length_a   8.68056360
_cell_length_b   8.68129901
_cell_length_c   8.67852099
_cell_angle_alpha   60.34275978
_cell_angle_beta   60.33321802
_cell_angle_gamma   60.30507987
_symmetry_Int_Tables_number   1
_chemical_formula_structural   MgFe3Ni2Sb(PO4)6
_chemical_formula_sum   'Mg1 Fe3 Ni2 Sb1 P6 O24'
_cell_volume   465.86998558
_cell_formula_units_Z   1
loop_
 _symmetry_equiv_pos_site_id
 _symmetry_equiv_pos_as_xyz
  1  'x, y, z'
loop_
 _atom_site_type_symbol
 _atom_site_label
 _atom_site_symmetry_multiplicity
 _atom_site_fract_x
 _atom_site_fract_y
 _atom_site_fract_z
 _atom_site_occupancy
  Mg  Mg0  1  0.37480300  0.37531500  0.37717700  1
  Fe  Fe1  1  0.13377900  0.13381600  0.13336900  1
  Fe  Fe2  1  0.25400400  0.25420400  0.25323900  1
  Fe  Fe3  1  0.65222600  0.65198900  0.65197400  1
  Ni  Ni4  1  0.00492400  0.00575400  0.00580800  1
  Ni  Ni5  1  0.50932100  0.50899900  0.50903900  1
  Sb  Sb6  1  0.85834600  0.85857700  0.85922100  1
  P  P7  1  0.05027400  0.74756200  0.46155800  1
  P  P8  1  0.46175300  0.05069800  0.74782100  1
  P  P9  1  0.74706200  0.46236100  0.05172700  1
  P  P10  1  0.25837300  0.55502500  0.94790400  1
  P  P11  1  0.55502500  0.94860100  0.25824200  1
  P  P12  1  0.94848700  0.25773400  0.55478800  1
  O  O13  1  0.11777300  0.30509400  0.51186600  1
  O  O14  1  0.30599000  0.51173700  0.11722100  1
  O  O15  1  0.04849400  0.90051500  0.26677600  1
  O  O16  1  0.51165900  0.11784200  0.30595000  1
  O  O17  1  0.99355000  0.84562500  0.60466200  1
  O  O18  1  0.24907200  0.60582800  0.45681800  1
  O  O19  1  0.26695100  0.04806200  0.90040000  1
  O  O20  1  0.45577900  0.24975700  0.60647700  1
  O  O21  1  0.20027000  0.39305500  0.99264900  1
  O  O22  1  0.60482400  0.45580800  0.25062300  1
  O  O23  1  0.08903600  0.75289900  0.93572500  1
  O  O24  1  0.39297700  0.99378700  0.19985900  1
  O  O25  1  0.60376500  0.99592000  0.84628500  1
  O  O26  1  0.90009400  0.26778800  0.04851300  1
  O  O27  1  0.41155700  0.58398800  0.75318500  1
  O  O28  1  0.84422900  0.60451500  0.99941700  1
  O  O29  1  0.58423000  0.75361800  0.41086300  1
  O  O30  1  0.75284000  0.93701600  0.08871000  1
  O  O31  1  0.75362000  0.41079900  0.58389600  1
  O  O32  1  0.99384100  0.19969200  0.39245300  1
  O  O33  1  0.53257500  0.90664700  0.65657800  1
  O  O34  1  0.93635700  0.08845100  0.75251600  1
  O  O35  1  0.65728300  0.53397900  0.90625800  1
  O  O36  1  0.90673300  0.65663400  0.53012400  1
