# generated using pymatgen
data_SrLiAlO3
_symmetry_space_group_name_H-M   'P 1'
_cell_length_a   3.69972531
_cell_length_b   5.20251681
_cell_length_c   3.69972531
_cell_angle_alpha   74.91256007
_cell_angle_beta   90.23314477
_cell_angle_gamma   74.91256007
_symmetry_Int_Tables_number   1
_chemical_formula_structural   SrLiAlO3
_chemical_formula_sum   'Sr1 Li1 Al1 O3'
_cell_volume   66.18979781
_cell_formula_units_Z   1
loop_
 _symmetry_equiv_pos_site_id
 _symmetry_equiv_pos_as_xyz
  1  'x, y, z'
loop_
 _atom_site_type_symbol
 _atom_site_label
 _atom_site_symmetry_multiplicity
 _atom_site_fract_x
 _atom_site_fract_y
 _atom_site_fract_z
 _atom_site_occupancy
  Sr  Sr0  1  0.91696900  0.91882700  0.91696900  1
  Li  Li1  1  0.17908000  0.32944300  0.17908000  1
  Al  Al2  1  0.55316900  0.57182900  0.55316900  1
  O  O3  1  0.59553900  0.49353600  0.08313400  1
  O  O4  1  0.40544400  0.94283100  0.40544400  1
  O  O5  1  0.08313400  0.49353600  0.59553900  1
