# generated using pymatgen
data_Cs2SbF5
_symmetry_space_group_name_H-M   'P 1'
_cell_length_a   7.83693045
_cell_length_b   7.83693045
_cell_length_c   7.16008162
_cell_angle_alpha   90.00000000
_cell_angle_beta   90.00000000
_cell_angle_gamma   129.90692069
_symmetry_Int_Tables_number   1
_chemical_formula_structural   Cs2SbF5
_chemical_formula_sum   'Cs4 Sb2 F10'
_cell_volume   337.32999383
_cell_formula_units_Z   2
loop_
 _symmetry_equiv_pos_site_id
 _symmetry_equiv_pos_as_xyz
  1  'x, y, z'
loop_
 _atom_site_type_symbol
 _atom_site_label
 _atom_site_symmetry_multiplicity
 _atom_site_fract_x
 _atom_site_fract_y
 _atom_site_fract_z
 _atom_site_occupancy
  Cs  Cs0  1  0.23954576  0.76045424  0.25000000  1
  Cs  Cs1  1  0.76045424  0.23954576  0.75000000  1
  Cs  Cs2  1  0.55841875  0.44158125  0.25000000  1
  Cs  Cs3  1  0.44158125  0.55841875  0.75000000  1
  Sb  Sb4  1  0.91187317  0.08812683  0.25000000  1
  Sb  Sb5  1  0.08812683  0.91187317  0.75000000  1
  F  F6  1  0.10756267  0.33771866  0.05151518  1
  F  F7  1  0.89243733  0.66228134  0.94848482  1
  F  F8  1  0.89243733  0.66228134  0.55151518  1
  F  F9  1  0.66228134  0.89243733  0.44848482  1
  F  F10  1  0.10756267  0.33771866  0.44848482  1
  F  F11  1  0.33771866  0.10756267  0.55151518  1
  F  F12  1  0.33771866  0.10756267  0.94848482  1
  F  F13  1  0.66228134  0.89243733  0.05151518  1
  F  F14  1  0.77325229  0.22674771  0.25000000  1
  F  F15  1  0.22674771  0.77325229  0.75000000  1
