# generated using pymatgen
data_YNbO4
_symmetry_space_group_name_H-M   'P 1'
_cell_length_a   5.21705318
_cell_length_b   5.21705318
_cell_length_c   6.61882195
_cell_angle_alpha   113.21031543
_cell_angle_beta   113.21031543
_cell_angle_gamma   90.00000000
_symmetry_Int_Tables_number   1
_chemical_formula_structural   YNbO4
_chemical_formula_sum   'Y2 Nb2 O8'
_cell_volume   149.57322929
_cell_formula_units_Z   2
loop_
 _symmetry_equiv_pos_site_id
 _symmetry_equiv_pos_as_xyz
  1  'x, y, z'
loop_
 _atom_site_type_symbol
 _atom_site_label
 _atom_site_symmetry_multiplicity
 _atom_site_fract_x
 _atom_site_fract_y
 _atom_site_fract_z
 _atom_site_occupancy
  Y  Y0  1  0.62500000  0.87500000  0.25000000  1
  Y  Y1  1  0.37500000  0.12500000  0.75000000  1
  Nb  Nb2  1  0.12500000  0.37500000  0.25000000  1
  Nb  Nb3  1  0.87500000  0.62500000  0.75000000  1
  O  O4  1  0.78338346  0.46453037  0.06811268  1
  O  O5  1  0.28473021  0.10358331  0.06811268  1
  O  O6  1  0.96453037  0.78473021  0.56811268  1
  O  O7  1  0.60358331  0.28338346  0.56811268  1
  O  O8  1  0.21661654  0.53546963  0.93188732  1
  O  O9  1  0.71526979  0.89641669  0.93188732  1
  O  O10  1  0.03546963  0.21526979  0.43188732  1
  O  O11  1  0.39641669  0.71661654  0.43188732  1
