# generated using pymatgen
data_TlAgPSe3
_symmetry_space_group_name_H-M   'P 1'
_cell_length_a   12.70690513
_cell_length_b   9.73810964
_cell_length_c   10.36898666
_cell_angle_alpha   83.18239441
_cell_angle_beta   90.00000000
_cell_angle_gamma   90.00000000
_symmetry_Int_Tables_number   1
_chemical_formula_structural   TlAgPSe3
_chemical_formula_sum   'Tl8 Ag8 P8 Se24'
_cell_volume   1273.99872375
_cell_formula_units_Z   8
loop_
 _symmetry_equiv_pos_site_id
 _symmetry_equiv_pos_as_xyz
  1  'x, y, z'
loop_
 _atom_site_type_symbol
 _atom_site_label
 _atom_site_symmetry_multiplicity
 _atom_site_fract_x
 _atom_site_fract_y
 _atom_site_fract_z
 _atom_site_occupancy
  Tl  Tl0  1  0.61676538  0.38186037  0.08040659  1
  Tl  Tl1  1  0.11676538  0.11813963  0.91959341  1
  Tl  Tl2  1  0.38323462  0.61813963  0.91959341  1
  Tl  Tl3  1  0.88323462  0.88186037  0.08040659  1
  Tl  Tl4  1  0.82577418  0.39035547  0.67845246  1
  Tl  Tl5  1  0.32577418  0.10964453  0.32154754  1
  Tl  Tl6  1  0.17422582  0.60964453  0.32154754  1
  Tl  Tl7  1  0.67422582  0.89035547  0.67845246  1
  Ag  Ag8  1  0.05301395  0.20943553  0.21085028  1
  Ag  Ag9  1  0.55301395  0.29056447  0.78914972  1
  Ag  Ag10  1  0.94698605  0.79056447  0.78914972  1
  Ag  Ag11  1  0.44698605  0.70943553  0.21085028  1
  Ag  Ag12  1  0.81653108  0.23383034  0.32777670  1
  Ag  Ag13  1  0.31653108  0.26616966  0.67222330  1
  Ag  Ag14  1  0.18346892  0.76616966  0.67222330  1
  Ag  Ag15  1  0.68346892  0.73383034  0.32777670  1
  P  P16  1  0.52295984  0.41517068  0.43550213  1
  P  P17  1  0.02295984  0.08482932  0.56449787  1
  P  P18  1  0.47704016  0.58482932  0.56449787  1
  P  P19  1  0.97704016  0.91517068  0.43550213  1
  P  P20  1  0.91902545  0.49633892  0.04605493  1
  P  P21  1  0.41902545  0.00366108  0.95394507  1
  P  P22  1  0.08097455  0.50366108  0.95394507  1
  P  P23  1  0.58097455  0.99633892  0.04605493  1
  Se  Se24  1  0.57199499  0.08964893  0.22591796  1
  Se  Se25  1  0.07199499  0.41035107  0.77408204  1
  Se  Se26  1  0.42800501  0.91035107  0.77408204  1
  Se  Se27  1  0.92800501  0.58964893  0.22591796  1
  Se  Se28  1  0.18588888  0.39629424  0.10103050  1
  Se  Se29  1  0.68588888  0.10370576  0.89896950  1
  Se  Se30  1  0.81411112  0.60370576  0.89896950  1
  Se  Se31  1  0.31411112  0.89629424  0.10103050  1
  Se  Se32  1  0.08790588  0.94431369  0.27154614  1
  Se  Se33  1  0.58790588  0.55568631  0.72845386  1
  Se  Se34  1  0.91209412  0.05568631  0.72845386  1
  Se  Se35  1  0.41209412  0.44431369  0.27154614  1
  Se  Se36  1  0.69009839  0.45479733  0.37939250  1
  Se  Se37  1  0.19009839  0.04520267  0.62060750  1
  Se  Se38  1  0.30990161  0.54520267  0.62060750  1
  Se  Se39  1  0.80990161  0.95479733  0.37939250  1
  Se  Se40  1  0.50109207  0.21160278  0.54748454  1
  Se  Se41  1  0.00109207  0.28839722  0.45251546  1
  Se  Se42  1  0.49890793  0.78839722  0.45251546  1
  Se  Se43  1  0.99890793  0.71160278  0.54748454  1
  Se  Se44  1  0.87443021  0.27635100  0.07037401  1
  Se  Se45  1  0.37443021  0.22364900  0.92962599  1
  Se  Se46  1  0.12556979  0.72364900  0.92962599  1
  Se  Se47  1  0.62556979  0.77635100  0.07037401  1
