# generated using pymatgen
data_Na4UC3O11
_symmetry_space_group_name_H-M   'P 1'
_cell_length_a   6.36439812
_cell_length_b   9.19260820
_cell_length_c   9.19163112
_cell_angle_alpha   59.99648357
_cell_angle_beta   88.84085073
_cell_angle_gamma   87.68147329
_symmetry_Int_Tables_number   1
_chemical_formula_structural   Na4UC3O11
_chemical_formula_sum   'Na8 U2 C6 O22'
_cell_volume   465.31627700
_cell_formula_units_Z   2
loop_
 _symmetry_equiv_pos_site_id
 _symmetry_equiv_pos_as_xyz
  1  'x, y, z'
loop_
 _atom_site_type_symbol
 _atom_site_label
 _atom_site_symmetry_multiplicity
 _atom_site_fract_x
 _atom_site_fract_y
 _atom_site_fract_z
 _atom_site_occupancy
  Na  Na0  1  0.57631551  0.56789054  0.99083021  1
  Na  Na1  1  0.07631551  0.55872075  0.00916979  1
  Na  Na2  1  0.36741442  0.99955428  0.69457355  1
  Na  Na3  1  0.86741442  0.69412783  0.30542645  1
  Na  Na4  1  0.28514628  0.43256896  0.43793039  1
  Na  Na5  1  0.78514628  0.87049935  0.56206961  1
  Na  Na6  1  0.28286706  0.25616517  0.87264578  1
  Na  Na7  1  0.78286706  0.12880995  0.12735422  1
  U  U8  1  0.82117488  0.23051845  0.66811990  1
  U  U9  1  0.32117488  0.89863835  0.33188010  1
  C  C10  1  0.35806111  0.23738306  0.25357800  1
  C  C11  1  0.85806111  0.49096106  0.74642200  1
  C  C12  1  0.33858151  0.63609940  0.67204415  1
  C  C13  1  0.83858151  0.30814355  0.32795585  1
  C  C14  1  0.28422551  0.82007261  0.07078962  1
  C  C15  1  0.78422551  0.89086123  0.92921038  1
  O  O16  1  0.38598866  0.18880510  0.14239028  1
  O  O17  1  0.88598866  0.33119637  0.85760972  1
  O  O18  1  0.37949673  0.79207226  0.62400425  1
  O  O19  1  0.87949673  0.41607752  0.37599575  1
  O  O20  1  0.35375929  0.38880313  0.21532095  1
  O  O21  1  0.85375929  0.60412308  0.78467905  1
  O  O22  1  0.34351086  0.52197888  0.82277787  1
  O  O23  1  0.84351086  0.34475674  0.17722113  1
  O  O24  1  0.24768128  0.71192269  0.22896370  1
  O  O25  1  0.74768028  0.94088739  0.77103630  1
  O  O26  1  0.33321954  0.11442023  0.40566778  1
  O  O27  1  0.83321954  0.52008801  0.59433222  1
  O  O28  1  0.32047438  0.96997516  0.04264167  1
  O  O29  1  0.82047438  0.01261683  0.95735833  1
  O  O30  1  0.28655822  0.78130508  0.95819436  1
  O  O31  1  0.78655822  0.73949744  0.04180564  1
  O  O32  1  0.29156697  0.61164433  0.54919452  1
  O  O33  1  0.79156697  0.16083885  0.45080548  1
  O  O34  1  0.10904660  0.19787840  0.67202106  1
  O  O35  1  0.60904660  0.86989947  0.32797894  1
  O  O36  1  0.53293018  0.26208083  0.66559584  1
  O  O37  1  0.03293018  0.92767667  0.33440416  1
