# generated using pymatgen
data_RbIn3F10
_symmetry_space_group_name_H-M   'P 1'
_cell_length_a   6.59866118
_cell_length_b   7.82713423
_cell_length_c   8.02790613
_cell_angle_alpha   90.00000000
_cell_angle_beta   90.00000000
_cell_angle_gamma   90.00000000
_symmetry_Int_Tables_number   1
_chemical_formula_structural   RbIn3F10
_chemical_formula_sum   'Rb2 In6 F20'
_cell_volume   414.63016709
_cell_formula_units_Z   2
loop_
 _symmetry_equiv_pos_site_id
 _symmetry_equiv_pos_as_xyz
  1  'x, y, z'
loop_
 _atom_site_type_symbol
 _atom_site_label
 _atom_site_symmetry_multiplicity
 _atom_site_fract_x
 _atom_site_fract_y
 _atom_site_fract_z
 _atom_site_occupancy
  Rb  Rb0  1  0.01544108  0.50000000  0.25000000  1
  Rb  Rb1  1  0.98455892  0.50000000  0.75000000  1
  In  In2  1  0.50000000  0.27060922  0.50000000  1
  In  In3  1  0.50000000  0.72939078  0.00000000  1
  In  In4  1  0.00000000  0.00000000  0.50000000  1
  In  In5  1  0.00000000  0.00000000  0.00000000  1
  In  In6  1  0.50000000  0.27060922  0.00000000  1
  In  In7  1  0.50000000  0.72939078  0.50000000  1
  F  F8  1  0.19361861  0.19917655  0.93759043  1
  F  F9  1  0.19361861  0.80082345  0.56240957  1
  F  F10  1  0.80638139  0.19917655  0.06240957  1
  F  F11  1  0.80638139  0.80082345  0.43759043  1
  F  F12  1  0.19361861  0.19917655  0.56240957  1
  F  F13  1  0.19361861  0.80082345  0.93759043  1
  F  F14  1  0.80638139  0.19917655  0.43759043  1
  F  F15  1  0.80638139  0.80082345  0.06240957  1
  F  F16  1  0.50000000  0.00000000  0.00000000  1
  F  F17  1  0.50000000  0.00000000  0.50000000  1
  F  F18  1  0.09802133  0.00000000  0.25000000  1
  F  F19  1  0.90197867  0.00000000  0.75000000  1
  F  F20  1  0.68273904  0.50000000  0.02457076  1
  F  F21  1  0.68273904  0.50000000  0.47542924  1
  F  F22  1  0.31726096  0.50000000  0.97542924  1
  F  F23  1  0.31726096  0.50000000  0.52457076  1
  F  F24  1  0.41440982  0.71738135  0.25000000  1
  F  F25  1  0.41440982  0.28261865  0.25000000  1
  F  F26  1  0.58559018  0.71738135  0.75000000  1
  F  F27  1  0.58559018  0.28261865  0.75000000  1
