# generated using pymatgen
data_Ba6MgCo2(Sb2O9)2
_symmetry_space_group_name_H-M   'P 1'
_cell_length_a   5.95292107
_cell_length_b   5.92666814
_cell_length_c   16.03836145
_cell_angle_alpha   95.32492874
_cell_angle_beta   85.11474641
_cell_angle_gamma   119.49231576
_symmetry_Int_Tables_number   1
_chemical_formula_structural   Ba6MgCo2(Sb2O9)2
_chemical_formula_sum   'Ba6 Mg1 Co2 Sb4 O18'
_cell_volume   489.89302031
_cell_formula_units_Z   1
loop_
 _symmetry_equiv_pos_site_id
 _symmetry_equiv_pos_as_xyz
  1  'x, y, z'
loop_
 _atom_site_type_symbol
 _atom_site_label
 _atom_site_symmetry_multiplicity
 _atom_site_fract_x
 _atom_site_fract_y
 _atom_site_fract_z
 _atom_site_occupancy
  Ba  Ba0  1  0.35747200  0.62484600  0.59044400  1
  Ba  Ba1  1  0.64530100  0.37446600  0.06912800  1
  Ba  Ba2  1  0.73996100  0.25963400  0.45953800  1
  Ba  Ba3  1  0.33576300  0.66419300  0.90539100  1
  Ba  Ba4  1  0.02025400  0.97476500  0.75492400  1
  Ba  Ba5  1  0.98005500  0.09224100  0.21170300  1
  Mg  Mg6  1  0.56046400  0.56044400  0.33350900  1
  Co  Co7  1  0.98671400  0.00810300  0.98843600  1
  Co  Co8  1  0.95877500  0.88514600  0.52318400  1
  Sb  Sb9  1  0.32664100  0.73312400  0.13187600  1
  Sb  Sb10  1  0.69008500  0.29671600  0.67105000  1
  Sb  Sb11  1  0.68090800  0.32009200  0.85082100  1
  Sb  Sb12  1  0.25949200  0.86122800  0.34240900  1
  O  O13  1  0.10444000  0.84290700  0.07909200  1
  O  O14  1  0.11849000  0.38096300  0.07832000  1
  O  O15  1  0.62442500  0.85671500  0.05334500  1
  O  O16  1  0.38885500  0.13131800  0.60208600  1
  O  O17  1  0.84777700  0.66197800  0.91101900  1
  O  O18  1  0.88297000  0.14659700  0.59861300  1
  O  O19  1  0.85466100  0.62447500  0.61542900  1
  O  O20  1  0.14803600  0.73321800  0.46008300  1
  O  O21  1  0.67064800  0.74781500  0.44868700  1
  O  O22  1  0.36016500  0.16948100  0.92270000  1
  O  O23  1  0.85845800  0.17217600  0.90550000  1
  O  O24  1  0.26742400  0.20412600  0.36672000  1
  O  O25  1  0.44352000  0.05058400  0.20519600  1
  O  O26  1  0.52538000  0.44500900  0.76673100  1
  O  O27  1  0.97647100  0.45199900  0.75695400  1
  O  O28  1  0.53961400  0.00783500  0.75813300  1
  O  O29  1  0.44200000  0.57713900  0.21312500  1
  O  O30  1  0.92562000  0.64067500  0.28746300  1
