# generated using pymatgen
data_RbLiMg14O15
_symmetry_space_group_name_H-M   'P 1'
_cell_length_a   10.12123814
_cell_length_b   8.28953404
_cell_length_c   4.13633323
_cell_angle_alpha   90.00000000
_cell_angle_beta   90.00000000
_cell_angle_gamma   90.00000000
_symmetry_Int_Tables_number   1
_chemical_formula_structural   RbLiMg14O15
_chemical_formula_sum   'Rb1 Li1 Mg14 O15'
_cell_volume   347.03979781
_cell_formula_units_Z   1
loop_
 _symmetry_equiv_pos_site_id
 _symmetry_equiv_pos_as_xyz
  1  'x, y, z'
loop_
 _atom_site_type_symbol
 _atom_site_label
 _atom_site_symmetry_multiplicity
 _atom_site_fract_x
 _atom_site_fract_y
 _atom_site_fract_z
 _atom_site_occupancy
  Rb  Rb0  1  0.94412789  0.50000000  0.00000000  1
  Li  Li1  1  0.97144877  0.00000000  0.00000000  1
  Mg  Mg2  1  0.54140613  0.00000000  0.00000000  1
  Mg  Mg3  1  0.48902225  0.50000000  0.00000000  1
  Mg  Mg4  1  0.00342033  0.25129997  0.50000000  1
  Mg  Mg5  1  0.00342033  0.74870003  0.50000000  1
  Mg  Mg6  1  0.47248667  0.22955412  0.50000000  1
  Mg  Mg7  1  0.47248667  0.77044588  0.50000000  1
  Mg  Mg8  1  0.17311503  0.00000000  0.50000000  1
  Mg  Mg9  1  0.26367170  0.50000000  0.50000000  1
  Mg  Mg10  1  0.77353016  0.00000000  0.50000000  1
  Mg  Mg11  1  0.69530388  0.50000000  0.50000000  1
  Mg  Mg12  1  0.24328778  0.26900270  0.00000000  1
  Mg  Mg13  1  0.24328778  0.73099730  0.00000000  1
  Mg  Mg14  1  0.71768243  0.25211668  0.00000000  1
  Mg  Mg15  1  0.71768243  0.74788332  0.00000000  1
  O  O16  1  0.29051351  0.50000000  0.00000000  1
  O  O17  1  0.74407440  0.00000000  0.00000000  1
  O  O18  1  0.68767918  0.50000000  0.00000000  1
  O  O19  1  0.27246261  0.21234372  0.50000000  1
  O  O20  1  0.27246261  0.78765628  0.50000000  1
  O  O21  1  0.77725135  0.26989814  0.50000000  1
  O  O22  1  0.77725135  0.73010186  0.50000000  1
  O  O23  1  0.97757355  0.00000000  0.50000000  1
  O  O24  1  0.07210132  0.50000000  0.50000000  1
  O  O25  1  0.54253663  0.00000000  0.50000000  1
  O  O26  1  0.48676019  0.50000000  0.50000000  1
  O  O27  1  0.05999134  0.20649437  0.00000000  1
  O  O28  1  0.05999134  0.79350563  0.00000000  1
  O  O29  1  0.50198520  0.23840724  0.00000000  1
  O  O30  1  0.50198520  0.76159276  0.00000000  1
