# generated using pymatgen
data_Te2Mo
_symmetry_space_group_name_H-M   'P 1'
_cell_length_a   3.56039158
_cell_length_b   3.56039190
_cell_length_c   24.81126240
_cell_angle_alpha   90.00000000
_cell_angle_beta   90.00000000
_cell_angle_gamma   119.99998725
_symmetry_Int_Tables_number   1
_chemical_formula_structural   Te2Mo
_chemical_formula_sum   'Te4 Mo2'
_cell_volume   272.37993904
_cell_formula_units_Z   2
loop_
 _symmetry_equiv_pos_site_id
 _symmetry_equiv_pos_as_xyz
  1  'x, y, z'
loop_
 _atom_site_type_symbol
 _atom_site_label
 _atom_site_symmetry_multiplicity
 _atom_site_fract_x
 _atom_site_fract_y
 _atom_site_fract_z
 _atom_site_occupancy
  Te  Te0  1  0.33333300  0.66666700  0.38210664  1
  Te  Te1  1  0.66666700  0.33333300  0.07909602  1
  Te  Te2  1  0.66666700  0.33333300  0.22336436  1
  Te  Te3  1  0.33333300  0.66666700  0.52637398  1
  Mo  Mo4  1  0.33333300  0.66666700  0.15119401  1
  Mo  Mo5  1  0.66666700  0.33333300  0.45427699  1
