# generated using pymatgen
data_K2WS4
_symmetry_space_group_name_H-M   'P 1'
_cell_length_a   6.96599643
_cell_length_b   9.35552292
_cell_length_c   12.35209709
_cell_angle_alpha   90.00000000
_cell_angle_beta   90.00000000
_cell_angle_gamma   90.00000000
_symmetry_Int_Tables_number   1
_chemical_formula_structural   K2WS4
_chemical_formula_sum   'K8 W4 S16'
_cell_volume   804.99282837
_cell_formula_units_Z   4
loop_
 _symmetry_equiv_pos_site_id
 _symmetry_equiv_pos_as_xyz
  1  'x, y, z'
loop_
 _atom_site_type_symbol
 _atom_site_label
 _atom_site_symmetry_multiplicity
 _atom_site_fract_x
 _atom_site_fract_y
 _atom_site_fract_z
 _atom_site_occupancy
  K  K0  1  0.75000000  0.53722330  0.33111994  1
  K  K1  1  0.25000000  0.46277670  0.66888006  1
  K  K2  1  0.25000000  0.96277670  0.83111994  1
  K  K3  1  0.75000000  0.03722330  0.16888006  1
  K  K4  1  0.75000000  0.85013321  0.60048251  1
  K  K5  1  0.25000000  0.14986679  0.39951749  1
  K  K6  1  0.25000000  0.64986679  0.10048251  1
  K  K7  1  0.75000000  0.35013321  0.89951749  1
  W  W8  1  0.75000000  0.75950177  0.92747969  1
  W  W9  1  0.25000000  0.24049823  0.07252031  1
  W  W10  1  0.25000000  0.74049823  0.42747969  1
  W  W11  1  0.75000000  0.25950177  0.57252031  1
  S  S12  1  0.00342228  0.66167311  0.85376103  1
  S  S13  1  0.99657772  0.33832689  0.14623897  1
  S  S14  1  0.99657772  0.83832689  0.35376103  1
  S  S15  1  0.50342228  0.33832689  0.14623897  1
  S  S16  1  0.00342228  0.16167311  0.64623897  1
  S  S17  1  0.49657772  0.66167311  0.85376103  1
  S  S18  1  0.49657772  0.16167311  0.64623897  1
  S  S19  1  0.50342228  0.83832689  0.35376103  1
  S  S20  1  0.75000000  0.99143887  0.89809254  1
  S  S21  1  0.25000000  0.00856113  0.10190746  1
  S  S22  1  0.25000000  0.50856113  0.39809254  1
  S  S23  1  0.75000000  0.49143887  0.60190746  1
  S  S24  1  0.75000000  0.21077366  0.39875071  1
  S  S25  1  0.25000000  0.78922634  0.60124929  1
  S  S26  1  0.25000000  0.28922634  0.89875071  1
  S  S27  1  0.75000000  0.71077366  0.10124929  1
