# generated using pymatgen
data_Na2CuP4H18N4O15
_symmetry_space_group_name_H-M   'P 1'
_cell_length_a   6.44583584
_cell_length_b   14.72362573
_cell_length_c   19.05499378
_cell_angle_alpha   90.00000000
_cell_angle_beta   90.00000000
_cell_angle_gamma   90.00000000
_symmetry_Int_Tables_number   1
_chemical_formula_structural   Na2CuP4H18N4O15
_chemical_formula_sum   'Na8 Cu4 P16 H72 N16 O60'
_cell_volume   1808.43465786
_cell_formula_units_Z   4
loop_
 _symmetry_equiv_pos_site_id
 _symmetry_equiv_pos_as_xyz
  1  'x, y, z'
loop_
 _atom_site_type_symbol
 _atom_site_label
 _atom_site_symmetry_multiplicity
 _atom_site_fract_x
 _atom_site_fract_y
 _atom_site_fract_z
 _atom_site_occupancy
  Na  Na0  1  0.70427948  0.25000000  0.74816015  1
  Na  Na1  1  0.20427948  0.25000000  0.75183985  1
  Na  Na2  1  0.29572052  0.75000000  0.25183985  1
  Na  Na3  1  0.79572052  0.75000000  0.24816015  1
  Na  Na4  1  0.67104584  0.25000000  0.33679595  1
  Na  Na5  1  0.17104584  0.25000000  0.16320405  1
  Na  Na6  1  0.32895416  0.75000000  0.66320405  1
  Na  Na7  1  0.82895416  0.75000000  0.83679595  1
  Cu  Cu8  1  0.49958021  0.25000000  0.02784099  1
  Cu  Cu9  1  -0.00041979  0.25000000  0.47215901  1
  Cu  Cu10  1  0.50041979  0.75000000  0.97215901  1
  Cu  Cu11  1  0.00041979  0.75000000  0.52784099  1
  P  P12  1  0.54887394  0.06076904  0.10709812  1
  P  P13  1  0.04887394  0.43923096  0.39290188  1
  P  P14  1  0.45112606  0.56076904  0.89290188  1
  P  P15  1  0.95112606  0.93923096  0.60709812  1
  P  P16  1  0.45112606  0.93923096  0.89290188  1
  P  P17  1  0.95112606  0.56076904  0.60709812  1
  P  P18  1  0.54887394  0.43923096  0.10709812  1
  P  P19  1  0.04887394  0.06076904  0.39290188  1
  P  P20  1  0.72482798  0.08124658  0.96167206  1
  P  P21  1  0.22482798  0.41875342  0.53832794  1
  P  P22  1  0.27517202  0.58124658  0.03832794  1
  P  P23  1  0.77517202  0.91875342  0.46167206  1
  P  P24  1  0.27517202  0.91875342  0.03832794  1
  P  P25  1  0.77517202  0.58124658  0.46167206  1
  P  P26  1  0.72482798  0.41875342  0.96167206  1
  P  P27  1  0.22482798  0.08124658  0.53832794  1
  H  H28  1  0.81722361  0.51566383  0.05230527  1
  H  H29  1  0.31722361  0.98433617  0.44769473  1
  H  H30  1  0.18277639  0.01566383  0.94769473  1
  H  H31  1  0.68277639  0.48433617  0.55230527  1
  H  H32  1  0.18277639  0.48433617  0.94769473  1
  H  H33  1  0.68277639  0.01566383  0.55230527  1
  H  H34  1  0.81722361  0.98433617  0.05230527  1
  H  H35  1  0.31722361  0.51566383  0.44769473  1
  H  H36  1  0.71304671  0.02177382  0.37098429  1
  H  H37  1  0.21304671  0.47822618  0.12901571  1
  H  H38  1  0.28695329  0.52177382  0.62901571  1
  H  H39  1  0.78695329  0.97822618  0.87098429  1
  H  H40  1  0.28695329  0.97822618  0.62901571  1
  H  H41  1  0.78695329  0.52177382  0.87098429  1
  H  H42  1  0.71304671  0.47822618  0.37098429  1
  H  H43  1  0.21304671  0.02177382  0.12901571  1
  H  H44  1  0.57898661  0.58653624  0.19360240  1
  H  H45  1  0.07898661  0.91346376  0.30639760  1
  H  H46  1  0.42101339  0.08653624  0.80639760  1
  H  H47  1  0.92101339  0.41346376  0.69360240  1
  H  H48  1  0.42101339  0.41346376  0.80639760  1
  H  H49  1  0.92101339  0.08653624  0.69360240  1
  H  H50  1  0.57898661  0.91346376  0.19360240  1
  H  H51  1  0.07898661  0.58653624  0.30639760  1
  H  H52  1  0.52409905  0.66328175  0.14169445  1
  H  H53  1  0.02409905  0.83671825  0.35830555  1
  H  H54  1  0.47590095  0.16328175  0.85830555  1
  H  H55  1  0.97590095  0.33671825  0.64169445  1
  H  H56  1  0.47590095  0.33671825  0.85830555  1
  H  H57  1  0.97590095  0.16328175  0.64169445  1
  H  H58  1  0.52409905  0.83671825  0.14169445  1
  H  H59  1  0.02409905  0.66328175  0.35830555  1
  H  H60  1  0.54487444  0.69710448  0.37620379  1
  H  H61  1  0.04487444  0.80289552  0.12379621  1
  H  H62  1  0.45512556  0.19710448  0.62379621  1
  H  H63  1  0.95512556  0.30289552  0.87620379  1
  H  H64  1  0.45512556  0.30289552  0.62379621  1
  H  H65  1  0.95512556  0.19710448  0.87620379  1
  H  H66  1  0.54487444  0.80289552  0.37620379  1
  H  H67  1  0.04487444  0.69710448  0.12379621  1
  H  H68  1  0.57580189  0.19689813  0.49499635  1
  H  H69  1  0.07580189  0.30310187  0.00500365  1
  H  H70  1  0.42419811  0.69689813  0.50500365  1
  H  H71  1  0.92419811  0.80310187  0.99499635  1
  H  H72  1  0.42419811  0.80310187  0.50500365  1
  H  H73  1  0.92419811  0.69689813  0.99499635  1
  H  H74  1  0.57580189  0.30310187  0.49499635  1
  H  H75  1  0.07580189  0.19689813  0.00500365  1
  H  H76  1  0.59306509  0.06687119  0.26155413  1
  H  H77  1  0.09306509  0.43312881  0.23844587  1
  H  H78  1  0.40693491  0.56687119  0.73844587  1
  H  H79  1  0.90693491  0.93312881  0.76155413  1
  H  H80  1  0.40693491  0.93312881  0.73844587  1
  H  H81  1  0.90693491  0.56687119  0.76155413  1
  H  H82  1  0.59306509  0.43312881  0.26155413  1
  H  H83  1  0.09306509  0.06687119  0.23844587  1
  H  H84  1  0.91734130  0.06493406  0.18207157  1
  H  H85  1  0.41734130  0.43506594  0.31792843  1
  H  H86  1  0.08265870  0.56493406  0.81792843  1
  H  H87  1  0.58265870  0.93506594  0.68207157  1
  H  H88  1  0.08265870  0.93506594  0.81792843  1
  H  H89  1  0.58265870  0.56493406  0.68207157  1
  H  H90  1  0.91734130  0.43506594  0.18207157  1
  H  H91  1  0.41734130  0.06493406  0.31792843  1
  H  H92  1  0.71882647  0.19854434  0.18967772  1
  H  H93  1  0.21882647  0.30145566  0.31032228  1
  H  H94  1  0.28117353  0.69854434  0.81032228  1
  H  H95  1  0.78117353  0.80145566  0.68967772  1
  H  H96  1  0.28117353  0.80145566  0.81032228  1
  H  H97  1  0.78117353  0.69854434  0.68967772  1
  H  H98  1  0.71882647  0.30145566  0.18967772  1
  H  H99  1  0.21882647  0.19854434  0.31032228  1
  N  N100  1  0.71152643  0.03540807  0.04248445  1
  N  N101  1  0.21152643  0.46459193  0.45751555  1
  N  N102  1  0.28847357  0.53540807  0.95751555  1
  N  N103  1  0.78847357  0.96459193  0.54248445  1
  N  N104  1  0.28847357  0.96459193  0.95751555  1
  N  N105  1  0.78847357  0.53540807  0.54248445  1
  N  N106  1  0.71152643  0.46459193  0.04248445  1
  N  N107  1  0.21152643  0.03540807  0.45751555  1
  N  N108  1  0.83137039  0.00116766  0.40514393  1
  N  N109  1  0.33137039  0.49883234  0.09485607  1
  N  N110  1  0.16862961  0.50116766  0.59485607  1
  N  N111  1  0.66862961  0.99883234  0.90514393  1
  N  N112  1  0.16862961  0.99883234  0.59485607  1
  N  N113  1  0.66862961  0.50116766  0.90514393  1
  N  N114  1  0.83137039  0.49883234  0.40514393  1
  N  N115  1  0.33137039  0.00116766  0.09485607  1
  O  O116  1  0.65151953  0.03259974  0.17581629  1
  O  O117  1  0.15151953  0.46740026  0.32418371  1
  O  O118  1  0.34848047  0.53259974  0.82418371  1
  O  O119  1  0.84848047  0.96740026  0.67581629  1
  O  O120  1  0.34848047  0.96740026  0.82418371  1
  O  O121  1  0.84848047  0.53259974  0.67581629  1
  O  O122  1  0.65151953  0.46740026  0.17581629  1
  O  O123  1  0.15151953  0.03259974  0.32418371  1
  O  O124  1  0.99282215  0.16168508  0.39382344  1
  O  O125  1  0.49282215  0.33831492  0.10617656  1
  O  O126  1  0.00717785  0.66168508  0.60617656  1
  O  O127  1  0.50717785  0.83831492  0.89382344  1
  O  O128  1  0.00717785  0.83831492  0.60617656  1
  O  O129  1  0.50717785  0.66168508  0.89382344  1
  O  O130  1  0.99282215  0.33831492  0.39382344  1
  O  O131  1  0.49282215  0.16168508  0.10617656  1
  O  O132  1  0.55386766  0.15375634  0.95781801  1
  O  O133  1  0.05386766  0.34624366  0.54218199  1
  O  O134  1  0.44613234  0.65375634  0.04218199  1
  O  O135  1  0.94613234  0.84624366  0.45781801  1
  O  O136  1  0.44613234  0.84624366  0.04218199  1
  O  O137  1  0.94613234  0.65375634  0.45781801  1
  O  O138  1  0.55386766  0.34624366  0.95781801  1
  O  O139  1  0.05386766  0.15375634  0.54218199  1
  O  O140  1  0.55373304  0.60986469  0.44661166  1
  O  O141  1  0.05373304  0.89013531  0.05338834  1
  O  O142  1  0.44626696  0.10986469  0.55338834  1
  O  O143  1  0.94626696  0.39013531  0.94661166  1
  O  O144  1  0.44626696  0.39013531  0.55338834  1
  O  O145  1  0.94626696  0.10986469  0.94661166  1
  O  O146  1  0.55373304  0.89013531  0.44661166  1
  O  O147  1  0.05373304  0.60986469  0.05338834  1
  O  O148  1  0.54749406  0.65216056  0.19198622  1
  O  O149  1  0.04749406  0.84783944  0.30801378  1
  O  O150  1  0.45250594  0.15216056  0.80801378  1
  O  O151  1  0.95250594  0.34783944  0.69198622  1
  O  O152  1  0.45250594  0.34783944  0.80801378  1
  O  O153  1  0.95250594  0.15216056  0.69198622  1
  O  O154  1  0.54749406  0.84783944  0.19198622  1
  O  O155  1  0.04749406  0.65216056  0.30801378  1
  O  O156  1  0.95455982  0.25000000  0.84425207  1
  O  O157  1  0.45455982  0.25000000  0.65574793  1
  O  O158  1  0.04544018  0.75000000  0.15574793  1
  O  O159  1  0.54544018  0.75000000  0.34425207  1
  O  O160  1  0.63270561  0.25000000  0.46956233  1
  O  O161  1  0.13270561  0.25000000  0.03043767  1
  O  O162  1  0.36729439  0.75000000  0.53043767  1
  O  O163  1  0.86729439  0.75000000  0.96956233  1
  O  O164  1  0.56346487  0.08393535  0.31097574  1
  O  O165  1  0.06346487  0.41606465  0.18902426  1
  O  O166  1  0.43653513  0.58393535  0.68902426  1
  O  O167  1  0.93653513  0.91606465  0.81097574  1
  O  O168  1  0.43653513  0.91606465  0.68902426  1
  O  O169  1  0.93653513  0.58393535  0.81097574  1
  O  O170  1  0.56346487  0.41606465  0.31097574  1
  O  O171  1  0.06346487  0.08393535  0.18902426  1
  O  O172  1  0.78887398  0.25000000  0.21194996  1
  O  O173  1  0.28887398  0.25000000  0.28805004  1
  O  O174  1  0.21112602  0.75000000  0.78805004  1
  O  O175  1  0.71112602  0.75000000  0.71194996  1
