# generated using pymatgen
data_SrHN
_symmetry_space_group_name_H-M   'P 1'
_cell_length_a   3.95267920
_cell_length_b   5.59960362
_cell_length_c   7.54225214
_cell_angle_alpha   90.00000000
_cell_angle_beta   90.00000000
_cell_angle_gamma   90.00000000
_symmetry_Int_Tables_number   1
_chemical_formula_structural   SrHN
_chemical_formula_sum   'Sr4 H4 N4'
_cell_volume   166.93596075
_cell_formula_units_Z   4
loop_
 _symmetry_equiv_pos_site_id
 _symmetry_equiv_pos_as_xyz
  1  'x, y, z'
loop_
 _atom_site_type_symbol
 _atom_site_label
 _atom_site_symmetry_multiplicity
 _atom_site_fract_x
 _atom_site_fract_y
 _atom_site_fract_z
 _atom_site_occupancy
  Sr  Sr0  1  0.75000000  0.19279368  0.35282551  1
  Sr  Sr1  1  0.75000000  0.30720632  0.85282551  1
  Sr  Sr2  1  0.25000000  0.69279368  0.14717449  1
  Sr  Sr3  1  0.25000000  0.80720632  0.64717449  1
  H  H4  1  0.25000000  0.10941290  0.01801347  1
  H  H5  1  0.25000000  0.39058710  0.51801347  1
  H  H6  1  0.75000000  0.60941290  0.48198653  1
  H  H7  1  0.75000000  0.89058710  0.98198653  1
  N  N8  1  0.25000000  0.23703292  0.11664212  1
  N  N9  1  0.25000000  0.26296708  0.61664212  1
  N  N10  1  0.75000000  0.73703292  0.38335788  1
  N  N11  1  0.75000000  0.76296708  0.88335788  1
