# generated using pymatgen
data_SnHgP14
_symmetry_space_group_name_H-M   'P 1'
_cell_length_a   9.83601125
_cell_length_b   11.01616965
_cell_length_c   13.18742127
_cell_angle_alpha   90.00000000
_cell_angle_beta   90.00000000
_cell_angle_gamma   90.00000000
_symmetry_Int_Tables_number   1
_chemical_formula_structural   SnHgP14
_chemical_formula_sum   'Sn4 Hg4 P56'
_cell_volume   1428.92525523
_cell_formula_units_Z   4
loop_
 _symmetry_equiv_pos_site_id
 _symmetry_equiv_pos_as_xyz
  1  'x, y, z'
loop_
 _atom_site_type_symbol
 _atom_site_label
 _atom_site_symmetry_multiplicity
 _atom_site_fract_x
 _atom_site_fract_y
 _atom_site_fract_z
 _atom_site_occupancy
  Sn  Sn0  1  0.25000000  0.89998851  0.16932809  1
  Sn  Sn1  1  0.75000000  0.10001149  0.83067191  1
  Sn  Sn2  1  0.75000000  0.39998851  0.33067191  1
  Sn  Sn3  1  0.25000000  0.60001149  0.66932809  1
  Hg  Hg4  1  0.25000000  0.00162326  0.81486553  1
  Hg  Hg5  1  0.75000000  0.99837674  0.18513447  1
  Hg  Hg6  1  0.75000000  0.50162326  0.68513447  1
  Hg  Hg7  1  0.25000000  0.49837674  0.31486553  1
  P  P8  1  0.25000000  0.83903556  0.97279225  1
  P  P9  1  0.75000000  0.16096444  0.02720775  1
  P  P10  1  0.75000000  0.33903556  0.52720775  1
  P  P11  1  0.25000000  0.66096444  0.47279225  1
  P  P12  1  0.25000000  0.39298474  0.91112411  1
  P  P13  1  0.75000000  0.60701526  0.08887589  1
  P  P14  1  0.75000000  0.89298474  0.58887589  1
  P  P15  1  0.25000000  0.10701526  0.41112411  1
  P  P16  1  0.07627434  0.15189919  0.02520640  1
  P  P17  1  0.57627434  0.84810081  0.97479360  1
  P  P18  1  0.92372566  0.65189919  0.47479360  1
  P  P19  1  0.42372566  0.34810081  0.52520640  1
  P  P20  1  0.92372566  0.84810081  0.97479360  1
  P  P21  1  0.42372566  0.15189919  0.02520640  1
  P  P22  1  0.07627434  0.34810081  0.52520640  1
  P  P23  1  0.57627434  0.65189919  0.47479360  1
  P  P24  1  0.58262833  0.28678430  0.06019249  1
  P  P25  1  0.08262833  0.71321570  0.93980751  1
  P  P26  1  0.41737167  0.78678430  0.43980751  1
  P  P27  1  0.91737167  0.21321570  0.56019249  1
  P  P28  1  0.41737167  0.71321570  0.93980751  1
  P  P29  1  0.91737167  0.28678430  0.06019249  1
  P  P30  1  0.58262833  0.21321570  0.56019249  1
  P  P31  1  0.08262833  0.78678430  0.43980751  1
  P  P32  1  0.07810680  0.58955455  0.07941839  1
  P  P33  1  0.57810680  0.41044545  0.92058161  1
  P  P34  1  0.92189320  0.08955455  0.42058161  1
  P  P35  1  0.42189320  0.91044545  0.57941839  1
  P  P36  1  0.92189320  0.41044545  0.92058161  1
  P  P37  1  0.42189320  0.58955455  0.07941839  1
  P  P38  1  0.07810680  0.91044545  0.57941839  1
  P  P39  1  0.57810680  0.08955455  0.42058161  1
  P  P40  1  0.07667487  0.17386054  0.32110668  1
  P  P41  1  0.57667487  0.82613946  0.67889332  1
  P  P42  1  0.92332513  0.67386054  0.17889332  1
  P  P43  1  0.42332513  0.32613946  0.82110668  1
  P  P44  1  0.92332513  0.82613946  0.67889332  1
  P  P45  1  0.42332513  0.17386054  0.32110668  1
  P  P46  1  0.07667487  0.32613946  0.82110668  1
  P  P47  1  0.57667487  0.67386054  0.17889332  1
  P  P48  1  0.04563725  0.36397008  0.36165217  1
  P  P49  1  0.54563725  0.63602992  0.63834783  1
  P  P50  1  0.95436275  0.86397008  0.13834783  1
  P  P51  1  0.45436275  0.13602992  0.86165217  1
  P  P52  1  0.95436275  0.63602992  0.63834783  1
  P  P53  1  0.45436275  0.36397008  0.36165217  1
  P  P54  1  0.04563725  0.13602992  0.86165217  1
  P  P55  1  0.54563725  0.86397008  0.13834783  1
  P  P56  1  0.25000000  0.27555843  0.04945033  1
  P  P57  1  0.75000000  0.72444157  0.95054967  1
  P  P58  1  0.75000000  0.77555843  0.45054967  1
  P  P59  1  0.25000000  0.22444157  0.54945033  1
  P  P60  1  0.25000000  0.65411976  0.17145009  1
  P  P61  1  0.75000000  0.34588024  0.82854991  1
  P  P62  1  0.75000000  0.15411976  0.32854991  1
  P  P63  1  0.25000000  0.84588024  0.67145009  1
