# generated using pymatgen
data_MgMn2O3
_symmetry_space_group_name_H-M   'P 1'
_cell_length_a   3.08247875
_cell_length_b   5.26056130
_cell_length_c   7.60841277
_cell_angle_alpha   89.57504232
_cell_angle_beta   90.00000000
_cell_angle_gamma   90.00000000
_symmetry_Int_Tables_number   1
_chemical_formula_structural   MgMn2O3
_chemical_formula_sum   'Mg2 Mn4 O6'
_cell_volume   123.37134451
_cell_formula_units_Z   2
loop_
 _symmetry_equiv_pos_site_id
 _symmetry_equiv_pos_as_xyz
  1  'x, y, z'
loop_
 _atom_site_type_symbol
 _atom_site_label
 _atom_site_symmetry_multiplicity
 _atom_site_fract_x
 _atom_site_fract_y
 _atom_site_fract_z
 _atom_site_occupancy
  Mg  Mg0  1  -0.00000000  -0.00000908  0.00000418  1
  Mg  Mg1  1  0.50000000  0.50000585  0.99999872  1
  Mn  Mn2  1  0.00000000  0.66105221  0.32899501  1
  Mn  Mn3  1  0.50000000  0.83895159  0.67100323  1
  Mn  Mn4  1  0.50000000  0.16105101  0.32899451  1
  Mn  Mn5  1  0.00000000  0.33895106  0.67100734  1
  O  O6  1  -0.00000000  0.00000149  0.49999652  1
  O  O7  1  0.50000000  0.50000015  0.50000465  1
  O  O8  1  0.50000000  0.16920171  0.84543790  1
  O  O9  1  -0.00000000  0.66919994  0.84542946  1
  O  O10  1  0.00000000  0.33079780  0.15456184  1
  O  O11  1  0.50000000  0.83079927  0.15456762  1
