# generated using pymatgen
data_Bi2O3
_symmetry_space_group_name_H-M   'P 1'
_cell_length_a   5.52257621
_cell_length_b   5.20447886
_cell_length_c   12.04469033
_cell_angle_alpha   90.00000000
_cell_angle_beta   90.00000000
_cell_angle_gamma   90.00000000
_symmetry_Int_Tables_number   1
_chemical_formula_structural   Bi2O3
_chemical_formula_sum   'Bi8 O12'
_cell_volume   346.19006898
_cell_formula_units_Z   4
loop_
 _symmetry_equiv_pos_site_id
 _symmetry_equiv_pos_as_xyz
  1  'x, y, z'
loop_
 _atom_site_type_symbol
 _atom_site_label
 _atom_site_symmetry_multiplicity
 _atom_site_fract_x
 _atom_site_fract_y
 _atom_site_fract_z
 _atom_site_occupancy
  Bi  Bi0  1  0.94918268  0.29035985  0.87536653  1
  Bi  Bi1  1  0.44918268  0.20964015  0.62463347  1
  Bi  Bi2  1  0.05081732  0.20964015  0.37536653  1
  Bi  Bi3  1  0.55081732  0.29035985  0.12463347  1
  Bi  Bi4  1  0.05081732  0.70964015  0.12463347  1
  Bi  Bi5  1  0.55081732  0.79035985  0.37536653  1
  Bi  Bi6  1  0.94918268  0.79035985  0.62463347  1
  Bi  Bi7  1  0.44918268  0.70964015  0.87536653  1
  O  O8  1  0.25000000  0.45113356  -0.00000000  1
  O  O9  1  0.75000000  0.04886644  0.50000000  1
  O  O10  1  0.75000000  0.54886644  -0.00000000  1
  O  O11  1  0.25000000  0.95113356  0.50000000  1
  O  O12  1  0.41246007  0.12528118  0.30039642  1
  O  O13  1  0.91246007  0.37471882  0.19960358  1
  O  O14  1  0.58753993  0.37471882  0.80039642  1
  O  O15  1  0.08753993  0.12528118  0.69960358  1
  O  O16  1  0.58753993  0.87471882  0.69960358  1
  O  O17  1  0.08753993  0.62528118  0.80039642  1
  O  O18  1  0.41246007  0.62528118  0.19960358  1
  O  O19  1  0.91246007  0.87471882  0.30039642  1
