# generated using pymatgen
data_NbTlCl6
_symmetry_space_group_name_H-M   'P 1'
_cell_length_a   6.71105730
_cell_length_b   6.71105730
_cell_length_c   11.98322962
_cell_angle_alpha   79.94917730
_cell_angle_beta   79.94917730
_cell_angle_gamma   55.41668882
_symmetry_Int_Tables_number   1
_chemical_formula_structural   NbTlCl6
_chemical_formula_sum   'Nb2 Tl2 Cl12'
_cell_volume   435.62053379
_cell_formula_units_Z   2
loop_
 _symmetry_equiv_pos_site_id
 _symmetry_equiv_pos_as_xyz
  1  'x, y, z'
loop_
 _atom_site_type_symbol
 _atom_site_label
 _atom_site_symmetry_multiplicity
 _atom_site_fract_x
 _atom_site_fract_y
 _atom_site_fract_z
 _atom_site_occupancy
  Nb  Nb0  1  0.50000000  -0.00000000  0.50000000  1
  Nb  Nb1  1  -0.00000000  0.50000000  -0.00000000  1
  Tl  Tl2  1  0.92013801  0.07986199  0.75000000  1
  Tl  Tl3  1  0.07986199  0.92013801  0.25000000  1
  Cl  Cl4  1  0.47937173  0.67744020  0.60629384  1
  Cl  Cl5  1  0.52062827  0.32255980  0.39370616  1
  Cl  Cl6  1  0.32255980  0.52062827  0.89370616  1
  Cl  Cl7  1  0.67744020  0.47937173  0.10629384  1
  Cl  Cl8  1  0.38318316  0.19303878  0.66994387  1
  Cl  Cl9  1  0.61681684  0.80696122  0.33005613  1
  Cl  Cl10  1  0.80696122  0.61681684  0.83005613  1
  Cl  Cl11  1  0.19303878  0.38318316  0.16994387  1
  Cl  Cl12  1  0.79269523  0.91632507  0.03095762  1
  Cl  Cl13  1  0.20730477  0.08367493  0.96904238  1
  Cl  Cl14  1  0.08367493  0.20730477  0.46904238  1
  Cl  Cl15  1  0.91632507  0.79269523  0.53095762  1
