# generated using pymatgen
data_HgSeO3
_symmetry_space_group_name_H-M   'P 1'
_cell_length_a   9.14933303
_cell_length_b   4.82283304
_cell_length_c   7.16844361
_cell_angle_alpha   88.81265267
_cell_angle_beta   90.00000000
_cell_angle_gamma   90.00000000
_symmetry_Int_Tables_number   1
_chemical_formula_structural   HgSeO3
_chemical_formula_sum   'Hg4 Se4 O12'
_cell_volume   316.24471549
_cell_formula_units_Z   4
loop_
 _symmetry_equiv_pos_site_id
 _symmetry_equiv_pos_as_xyz
  1  'x, y, z'
loop_
 _atom_site_type_symbol
 _atom_site_label
 _atom_site_symmetry_multiplicity
 _atom_site_fract_x
 _atom_site_fract_y
 _atom_site_fract_z
 _atom_site_occupancy
  Hg  Hg0  1  0.67676519  0.21929639  0.02776002  1
  Hg  Hg1  1  0.17676519  0.78070361  0.47223998  1
  Hg  Hg2  1  0.32323481  0.78070361  0.97223998  1
  Hg  Hg3  1  0.82323481  0.21929639  0.52776002  1
  Se  Se4  1  0.06460689  0.25051922  0.18183509  1
  Se  Se5  1  0.56460689  0.74948078  0.31816491  1
  Se  Se6  1  0.93539311  0.74948078  0.81816491  1
  Se  Se7  1  0.43539311  0.25051922  0.68183509  1
  O  O8  1  0.12989619  0.29597479  0.40207105  1
  O  O9  1  0.62989619  0.70402521  0.09792895  1
  O  O10  1  0.87010381  0.70402521  0.59792895  1
  O  O11  1  0.37010381  0.29597479  0.90207105  1
  O  O12  1  0.87937691  0.27316738  0.23026413  1
  O  O13  1  0.37937691  0.72683262  0.26973587  1
  O  O14  1  0.12062309  0.72683262  0.76973587  1
  O  O15  1  0.62062309  0.27316738  0.73026413  1
  O  O16  1  0.90628587  0.09988811  0.82816770  1
  O  O17  1  0.40628587  0.90011189  0.67183230  1
  O  O18  1  0.09371413  0.90011189  0.17183230  1
  O  O19  1  0.59371413  0.09988811  0.32816770  1
