# generated using pymatgen
data_Sr6Mg(W2O9)2
_symmetry_space_group_name_H-M   'P 1'
_cell_length_a   7.59335114
_cell_length_b   7.59335114
_cell_length_c   7.59335017
_cell_angle_alpha   83.66316653
_cell_angle_beta   83.66316653
_cell_angle_gamma   83.66317335
_symmetry_Int_Tables_number   1
_chemical_formula_structural   Sr6Mg(W2O9)2
_chemical_formula_sum   'Sr6 Mg1 W4 O18'
_cell_volume   430.34917504
_cell_formula_units_Z   1
loop_
 _symmetry_equiv_pos_site_id
 _symmetry_equiv_pos_as_xyz
  1  'x, y, z'
loop_
 _atom_site_type_symbol
 _atom_site_label
 _atom_site_symmetry_multiplicity
 _atom_site_fract_x
 _atom_site_fract_y
 _atom_site_fract_z
 _atom_site_occupancy
  Sr  Sr0  1  0.25000000  0.90736400  0.59263600  1
  Sr  Sr1  1  0.04185400  0.45814600  0.75000000  1
  Sr  Sr2  1  0.45814600  0.75000000  0.04185400  1
  Sr  Sr3  1  0.59263600  0.25000000  0.90736400  1
  Sr  Sr4  1  0.90736400  0.59263600  0.25000000  1
  Sr  Sr5  1  0.75000000  0.04185400  0.45814600  1
  Mg  Mg6  1  0.75000000  0.75000000  0.75000000  1
  W  W7  1  0.97085400  0.97085400  0.97085400  1
  W  W8  1  0.34400700  0.34400700  0.34400700  1
  W  W9  1  0.15599300  0.15599300  0.15599300  1
  W  W10  1  0.52914600  0.52914600  0.52914600  1
  O  O11  1  0.10931600  0.90581300  0.20681800  1
  O  O12  1  0.08564200  0.76256400  0.89689000  1
  O  O13  1  0.55785800  0.94214200  0.75000000  1
  O  O14  1  0.29318200  0.59418700  0.39068400  1
  O  O15  1  0.09637700  0.25000000  0.40362300  1
  O  O16  1  0.25000000  0.40362300  0.09637700  1
  O  O17  1  0.41435800  0.60311000  0.73743600  1
  O  O18  1  0.60311000  0.73743600  0.41435800  1
  O  O19  1  0.76256400  0.89689000  0.08564200  1
  O  O20  1  0.20681800  0.10931600  0.90581300  1
  O  O21  1  0.39068400  0.29318200  0.59418700  1
  O  O22  1  0.94214200  0.75000000  0.55785800  1
  O  O23  1  0.59418700  0.39068400  0.29318200  1
  O  O24  1  0.75000000  0.55785800  0.94214200  1
  O  O25  1  0.73743600  0.41435800  0.60311000  1
  O  O26  1  0.40362300  0.09637700  0.25000000  1
  O  O27  1  0.90581300  0.20681800  0.10931600  1
  O  O28  1  0.89689000  0.08564200  0.76256400  1
