# generated using pymatgen
data_Y2Cr3O12
_symmetry_space_group_name_H-M   'P 1'
_cell_length_a   15.87722169
_cell_length_b   15.37186556
_cell_length_c   5.92838601
_cell_angle_alpha   83.90163067
_cell_angle_beta   74.29763166
_cell_angle_gamma   21.79291788
_symmetry_Int_Tables_number   1
_chemical_formula_structural   Y2Cr3O12
_chemical_formula_sum   'Y4 Cr6 O24'
_cell_volume   472.60696741
_cell_formula_units_Z   2
loop_
 _symmetry_equiv_pos_site_id
 _symmetry_equiv_pos_as_xyz
  1  'x, y, z'
loop_
 _atom_site_type_symbol
 _atom_site_label
 _atom_site_symmetry_multiplicity
 _atom_site_fract_x
 _atom_site_fract_y
 _atom_site_fract_z
 _atom_site_occupancy
  Y  Y0  1  0.66983603  0.66974597  0.33014365  1
  Y  Y1  1  0.33014911  0.33030623  0.66983190  1
  Y  Y2  1  0.91976305  0.91978416  0.58021802  1
  Y  Y3  1  0.58027965  0.58012102  0.91977216  1
  Cr  Cr4  1  0.75002572  0.75001399  0.74992653  1
  Cr  Cr5  1  0.41445693  0.41466379  0.08541905  1
  Cr  Cr6  1  0.08552906  0.08537427  0.41455130  1
  Cr  Cr7  1  0.16467353  0.16438843  0.83553424  1
  Cr  Cr8  1  0.83530595  0.83560370  0.16458310  1
  Cr  Cr9  1  0.50000252  0.49997078  0.50005981  1
  O  O10  1  0.12272939  0.26657095  0.05504244  1
  O  O11  1  0.78657941  0.94503270  0.39605371  1
  O  O12  1  0.47600459  0.58752580  0.71278553  1
  O  O13  1  0.66266007  0.77376947  0.02608390  1
  O  O14  1  0.30500447  0.46340550  0.37760225  1
  O  O15  1  0.98328351  0.12738116  0.69430261  1
  O  O16  1  0.53733451  0.02628585  0.77397239  1
  O  O17  1  0.19506518  0.69433053  0.12726779  1
  O  O18  1  0.85409604  0.37750399  0.46312428  1
  O  O19  1  0.87248493  0.39588590  0.94484241  1
  O  O20  1  0.55559168  0.05507827  0.26666785  1
  O  O21  1  0.22381856  0.71255703  0.58739485  1
  O  O22  1  0.26673081  0.12259972  0.55584505  1
  O  O23  1  0.94481131  0.78681069  0.87240742  1
  O  O24  1  0.58749438  0.47606053  0.22381419  1
  O  O25  1  0.77378052  0.66270087  0.53727607  1
  O  O26  1  0.46311725  0.30529840  0.85399618  1
  O  O27  1  0.12737662  0.98324707  0.19519014  1
  O  O28  1  0.02630568  0.53728873  0.66244839  1
  O  O29  1  0.69420952  0.19513712  0.98323789  1
  O  O30  1  0.37774998  0.85384776  0.30502257  1
  O  O31  1  0.39623989  0.87213345  0.78666848  1
  O  O32  1  0.05478154  0.55588370  0.12273270  1
  O  O33  1  0.71273162  0.22369450  0.47618015  1
