# generated using pymatgen
data_Mg6ZnCoO8
_symmetry_space_group_name_H-M   'P 1'
_cell_length_a   8.54230368
_cell_length_b   4.26781326
_cell_length_c   4.26781326
_cell_angle_alpha   90.00000000
_cell_angle_beta   90.00000000
_cell_angle_gamma   90.00000000
_symmetry_Int_Tables_number   1
_chemical_formula_structural   Mg6ZnCoO8
_chemical_formula_sum   'Mg6 Zn1 Co1 O8'
_cell_volume   155.59148415
_cell_formula_units_Z   1
loop_
 _symmetry_equiv_pos_site_id
 _symmetry_equiv_pos_as_xyz
  1  'x, y, z'
loop_
 _atom_site_type_symbol
 _atom_site_label
 _atom_site_symmetry_multiplicity
 _atom_site_fract_x
 _atom_site_fract_y
 _atom_site_fract_z
 _atom_site_occupancy
  Mg  Mg0  1  0.00000000  0.50000000  0.50000000  1
  Mg  Mg1  1  0.50000000  0.50000000  0.50000000  1
  Mg  Mg2  1  0.25081668  0.00000000  0.50000000  1
  Mg  Mg3  1  0.74918332  -0.00000000  0.50000000  1
  Mg  Mg4  1  0.25081668  0.50000000  0.00000000  1
  Mg  Mg5  1  0.74918332  0.50000000  -0.00000000  1
  Zn  Zn6  1  0.00000000  0.00000000  0.00000000  1
  Co  Co7  1  0.50000000  0.00000000  0.00000000  1
  O  O8  1  0.25145286  0.00000000  -0.00000000  1
  O  O9  1  0.74854714  0.00000000  0.00000000  1
  O  O10  1  0.24970921  0.50000000  0.50000000  1
  O  O11  1  0.75029079  0.50000000  0.50000000  1
  O  O12  1  0.00000000  0.00000000  0.50000000  1
  O  O13  1  0.50000000  0.00000000  0.50000000  1
  O  O14  1  0.00000000  0.50000000  0.00000000  1
  O  O15  1  0.50000000  0.50000000  0.00000000  1
