# generated using pymatgen
data_Na2BeSiO4
_symmetry_space_group_name_H-M   'P 1'
_cell_length_a   4.93488111
_cell_length_b   7.01030868
_cell_length_c   9.88859443
_cell_angle_alpha   90.00633299
_cell_angle_beta   90.00000000
_cell_angle_gamma   90.00000000
_symmetry_Int_Tables_number   1
_chemical_formula_structural   Na2BeSiO4
_chemical_formula_sum   'Na8 Be4 Si4 O16'
_cell_volume   342.09631655
_cell_formula_units_Z   4
loop_
 _symmetry_equiv_pos_site_id
 _symmetry_equiv_pos_as_xyz
  1  'x, y, z'
loop_
 _atom_site_type_symbol
 _atom_site_label
 _atom_site_symmetry_multiplicity
 _atom_site_fract_x
 _atom_site_fract_y
 _atom_site_fract_z
 _atom_site_occupancy
  Na  Na0  1  0.29135916  0.00202126  0.60957202  1
  Na  Na1  1  0.81686921  0.26572055  0.64079478  1
  Na  Na2  1  0.31686921  0.73427945  0.85920522  1
  Na  Na3  1  0.18313079  0.73427945  0.35920522  1
  Na  Na4  1  0.68313079  0.26572055  0.14079478  1
  Na  Na5  1  0.79135916  0.99797874  0.89042798  1
  Na  Na6  1  0.20864084  0.00202126  0.10957202  1
  Na  Na7  1  0.70864084  0.99797874  0.39042798  1
  Be  Be8  1  0.65847615  0.49869551  0.41219378  1
  Be  Be9  1  0.15847615  0.50130449  0.08780622  1
  Be  Be10  1  0.34152385  0.50130449  0.58780622  1
  Be  Be11  1  0.84152385  0.49869551  0.91219378  1
  Si  Si12  1  0.65611243  0.72337429  0.15783368  1
  Si  Si13  1  0.84388757  0.72337429  0.65783368  1
  Si  Si14  1  0.34388757  0.27662571  0.84216632  1
  Si  Si15  1  0.15611243  0.27662571  0.34216632  1
  O  O16  1  0.66770109  0.56238365  0.57461078  1
  O  O17  1  0.66326558  0.31328588  0.87956614  1
  O  O18  1  0.16326558  0.68671412  0.62043386  1
  O  O19  1  0.33673442  0.68671412  0.12043386  1
  O  O20  1  0.83673442  0.31328588  0.37956614  1
  O  O21  1  0.73575857  0.94159607  0.12454893  1
  O  O22  1  0.16770109  0.43761635  0.92538922  1
  O  O23  1  0.33229891  0.43761635  0.42538922  1
  O  O24  1  0.83229891  0.56238365  0.07461078  1
  O  O25  1  0.79328499  0.68284191  0.81918042  1
  O  O26  1  0.29328499  0.31715809  0.68081958  1
  O  O27  1  0.20671501  0.31715809  0.18081958  1
  O  O28  1  0.26424143  0.05840393  0.87545107  1
  O  O29  1  0.23575857  0.05840393  0.37545107  1
  O  O30  1  0.76424143  0.94159607  0.62454893  1
  O  O31  1  0.70671501  0.68284191  0.31918042  1
