# generated using pymatgen
data_K8MgCo2(Mo4O15)2
_symmetry_space_group_name_H-M   'P 1'
_cell_length_a   10.67634502
_cell_length_b   10.67798523
_cell_length_c   8.76336621
_cell_angle_alpha   90.01986718
_cell_angle_beta   90.00080262
_cell_angle_gamma   119.98826672
_symmetry_Int_Tables_number   1
_chemical_formula_structural   K8MgCo2(Mo4O15)2
_chemical_formula_sum   'K8 Mg1 Co2 Mo8 O30'
_cell_volume   865.29622204
_cell_formula_units_Z   1
loop_
 _symmetry_equiv_pos_site_id
 _symmetry_equiv_pos_as_xyz
  1  'x, y, z'
loop_
 _atom_site_type_symbol
 _atom_site_label
 _atom_site_symmetry_multiplicity
 _atom_site_fract_x
 _atom_site_fract_y
 _atom_site_fract_z
 _atom_site_occupancy
  K  K0  1  0.07768300  0.66141400  0.15604900  1
  K  K1  1  0.58364700  0.92224600  0.15624800  1
  K  K2  1  0.32230900  0.04189200  0.84671800  1
  K  K3  1  0.99954100  0.99976900  0.05982200  1
  K  K4  1  0.95846400  0.28022700  0.84682200  1
  K  K5  1  0.71992500  0.67748300  0.84676200  1
  K  K6  1  0.33921000  0.41658800  0.15646100  1
  K  K7  1  0.99968200  0.99975700  0.51599200  1
  Mg  Mg8  1  0.66621500  0.33325800  0.35298900  1
  Co  Co9  1  0.33293500  0.66662600  0.48288100  1
  Co  Co10  1  0.66660900  0.33339300  0.71015000  1
  Mo  Mo11  1  0.00863600  0.33093900  0.36448100  1
  Mo  Mo12  1  0.01752100  0.66756600  0.63603100  1
  Mo  Mo13  1  0.32189800  0.99103000  0.36427100  1
  Mo  Mo14  1  0.66690300  0.33312000  0.00676900  1
  Mo  Mo15  1  0.64942300  0.98242500  0.63532400  1
  Mo  Mo16  1  0.33338200  0.66664900  0.85449600  1
  Mo  Mo17  1  0.66876400  0.67786900  0.36445700  1
  Mo  Mo18  1  0.33247700  0.35012700  0.63510200  1
  O  O19  1  0.47278600  0.81483500  0.66297300  1
  O  O20  1  0.64003900  0.49786700  0.32689900  1
  O  O21  1  0.71027100  0.98247800  0.44904600  1
  O  O22  1  0.49167000  0.66299300  0.35657000  1
  O  O23  1  0.18801900  0.51443600  0.94485000  1
  O  O24  1  0.17082900  0.50811000  0.35622900  1
  O  O25  1  0.26496900  0.01118100  0.54764700  1
  O  O26  1  0.33729100  0.82909500  0.35584600  1
  O  O27  1  0.48401100  0.29714500  0.01535100  1
  O  O28  1  0.85770500  0.48799500  0.65699600  1
  O  O29  1  0.34085300  0.52645900  0.66292700  1
  O  O30  1  0.85718700  0.35955700  0.32793900  1
  O  O31  1  0.98873200  0.25358700  0.54762800  1
  O  O32  1  0.74654200  0.73484600  0.54760400  1
  O  O33  1  0.32695300  0.81229900  0.94484700  1
  O  O34  1  0.81375200  0.51594500  0.01556600  1
  O  O35  1  0.19873000  0.97930800  0.21852100  1
  O  O36  1  0.01771900  0.72772500  0.44944000  1
  O  O37  1  0.70301500  0.18632600  0.01542300  1
  O  O38  1  0.77709600  0.98791600  0.76988700  1
  O  O39  1  0.01977500  0.21952100  0.21831000  1
  O  O40  1  0.50169000  0.14255900  0.32696300  1
  O  O41  1  0.51231200  0.37024000  0.65584700  1
  O  O42  1  0.18503900  0.65856800  0.66400100  1
  O  O43  1  0.27184400  0.28920700  0.44877300  1
  O  O44  1  0.62967300  0.14234900  0.65582500  1
  O  O45  1  0.78010500  0.80049500  0.21837500  1
  O  O46  1  0.01217700  0.79009600  0.77036800  1
  O  O47  1  0.48599400  0.67330500  0.94377100  1
  O  O48  1  0.21049400  0.22242600  0.76968700  1
