# generated using pymatgen
data_YMnF5
_symmetry_space_group_name_H-M   'P 1'
_cell_length_a   5.76429531
_cell_length_b   5.76429531
_cell_length_c   5.76429531
_cell_angle_alpha   137.42118167
_cell_angle_beta   106.68427640
_cell_angle_gamma   88.65658159
_symmetry_Int_Tables_number   1
_chemical_formula_structural   YMnF5
_chemical_formula_sum   'Y1 Mn1 F5'
_cell_volume   118.80016922
_cell_formula_units_Z   1
loop_
 _symmetry_equiv_pos_site_id
 _symmetry_equiv_pos_as_xyz
  1  'x, y, z'
loop_
 _atom_site_type_symbol
 _atom_site_label
 _atom_site_symmetry_multiplicity
 _atom_site_fract_x
 _atom_site_fract_y
 _atom_site_fract_z
 _atom_site_occupancy
  Y  Y0  1  0.50000000  0.50000000  -0.00000000  1
  Mn  Mn1  1  -0.00000000  -0.00000000  -0.00000000  1
  F  F2  1  0.81518058  0.50000000  0.31518058  1
  F  F3  1  0.18481942  0.50000000  0.68481942  1
  F  F4  1  0.23583444  0.23583444  -0.00000000  1
  F  F5  1  0.76416556  0.76416556  -0.00000000  1
  F  F6  1  0.50000000  0.00000000  0.50000000  1
