# generated using pymatgen
data_Pr2ThS5
_symmetry_space_group_name_H-M   'P 1'
_cell_length_a   7.61485843
_cell_length_b   8.29156322
_cell_length_c   12.14117192
_cell_angle_alpha   90.00000000
_cell_angle_beta   90.00000000
_cell_angle_gamma   90.00000000
_symmetry_Int_Tables_number   1
_chemical_formula_structural   Pr2ThS5
_chemical_formula_sum   'Pr8 Th4 S20'
_cell_volume   766.58242617
_cell_formula_units_Z   4
loop_
 _symmetry_equiv_pos_site_id
 _symmetry_equiv_pos_as_xyz
  1  'x, y, z'
loop_
 _atom_site_type_symbol
 _atom_site_label
 _atom_site_symmetry_multiplicity
 _atom_site_fract_x
 _atom_site_fract_y
 _atom_site_fract_z
 _atom_site_occupancy
  Pr  Pr0  1  0.51993279  0.49993056  0.32238262  1
  Pr  Pr1  1  0.98006721  0.00006944  0.82238262  1
  Pr  Pr2  1  0.48006721  -0.00006944  0.67761738  1
  Pr  Pr3  1  0.01993279  0.50006944  0.17761738  1
  Pr  Pr4  1  0.48006721  0.50006944  0.67761738  1
  Pr  Pr5  1  0.01993279  -0.00006944  0.17761738  1
  Pr  Pr6  1  0.51993279  0.00006944  0.32238262  1
  Pr  Pr7  1  0.98006721  0.49993056  0.82238262  1
  Th  Th8  1  0.07408104  0.75000000  0.49140261  1
  Th  Th9  1  0.42591896  0.75000000  0.99140261  1
  Th  Th10  1  0.92591896  0.25000000  0.50859739  1
  Th  Th11  1  0.57408104  0.25000000  0.00859739  1
  S  S12  1  0.83804338  0.95848935  0.59929591  1
  S  S13  1  0.66195662  0.54151065  0.09929591  1
  S  S14  1  0.16195662  0.45848935  0.40070409  1
  S  S15  1  0.33804338  0.04151065  0.90070409  1
  S  S16  1  0.16195662  0.04151065  0.40070409  1
  S  S17  1  0.33804338  0.45848935  0.90070409  1
  S  S18  1  0.83804338  0.54151065  0.59929591  1
  S  S19  1  0.66195662  0.95848935  0.09929591  1
  S  S20  1  0.82919747  0.75000000  0.31313307  1
  S  S21  1  0.67080253  0.75000000  0.81313307  1
  S  S22  1  0.17080253  0.25000000  0.68686693  1
  S  S23  1  0.32919747  0.25000000  0.18686693  1
  S  S24  1  0.45691211  0.75000000  0.49871621  1
  S  S25  1  0.04308789  0.75000000  0.99871621  1
  S  S26  1  0.54308789  0.25000000  0.50128379  1
  S  S27  1  0.95691211  0.25000000  0.00128379  1
  S  S28  1  0.19841415  0.75000000  0.71601599  1
  S  S29  1  0.30158585  0.75000000  0.21601599  1
  S  S30  1  0.80158585  0.25000000  0.28398401  1
  S  S31  1  0.69841415  0.25000000  0.78398401  1
