# generated using pymatgen
data_BaPr2O4
_symmetry_space_group_name_H-M   'P 1'
_cell_length_a   3.65483884
_cell_length_b   10.69223598
_cell_length_c   12.61643535
_cell_angle_alpha   90.00000000
_cell_angle_beta   90.00000000
_cell_angle_gamma   90.00000000
_symmetry_Int_Tables_number   1
_chemical_formula_structural   BaPr2O4
_chemical_formula_sum   'Ba4 Pr8 O16'
_cell_volume   493.03009893
_cell_formula_units_Z   4
loop_
 _symmetry_equiv_pos_site_id
 _symmetry_equiv_pos_as_xyz
  1  'x, y, z'
loop_
 _atom_site_type_symbol
 _atom_site_label
 _atom_site_symmetry_multiplicity
 _atom_site_fract_x
 _atom_site_fract_y
 _atom_site_fract_z
 _atom_site_occupancy
  Ba  Ba0  1  0.75000000  0.74996790  0.85237870  1
  Ba  Ba1  1  0.25000000  0.25003210  0.14762130  1
  Ba  Ba2  1  0.75000000  0.24996790  0.64762130  1
  Ba  Ba3  1  0.25000000  0.75003210  0.35237870  1
  Pr  Pr4  1  0.25000000  0.41814248  0.38913056  1
  Pr  Pr5  1  0.75000000  0.58185752  0.61086944  1
  Pr  Pr6  1  0.25000000  0.91814248  0.11086944  1
  Pr  Pr7  1  0.75000000  0.08185752  0.88913056  1
  Pr  Pr8  1  0.75000000  0.07478541  0.38689047  1
  Pr  Pr9  1  0.25000000  0.92521459  0.61310953  1
  Pr  Pr10  1  0.75000000  0.57478541  0.11310953  1
  Pr  Pr11  1  0.25000000  0.42521459  0.88689047  1
  O  O12  1  0.25000000  0.43046704  0.57723369  1
  O  O13  1  0.75000000  0.56953296  0.42276631  1
  O  O14  1  0.25000000  0.93046704  0.92276631  1
  O  O15  1  0.75000000  0.06953296  0.07723369  1
  O  O16  1  0.25000000  0.51365150  0.21777841  1
  O  O17  1  0.75000000  0.48634850  0.78222159  1
  O  O18  1  0.25000000  0.01365150  0.28222159  1
  O  O19  1  0.75000000  0.98634850  0.71777841  1
  O  O20  1  0.25000000  0.12474523  0.51723186  1
  O  O21  1  0.75000000  0.87525477  0.48276814  1
  O  O22  1  0.25000000  0.62474523  0.98276814  1
  O  O23  1  0.75000000  0.37525477  0.01723186  1
  O  O24  1  0.75000000  0.28701623  0.32654648  1
  O  O25  1  0.25000000  0.71298377  0.67345352  1
  O  O26  1  0.75000000  0.78701623  0.17345352  1
  O  O27  1  0.25000000  0.21298377  0.82654648  1
