# generated using pymatgen
data_Ca(Fe2O3)4
_symmetry_space_group_name_H-M   'P 1'
_cell_length_a   5.34451833
_cell_length_b   5.58052511
_cell_length_c   8.93758261
_cell_angle_alpha   82.18544792
_cell_angle_beta   80.50984489
_cell_angle_gamma   77.52164174
_symmetry_Int_Tables_number   1
_chemical_formula_structural   Ca(Fe2O3)4
_chemical_formula_sum   'Ca1 Fe8 O12'
_cell_volume   255.30912288
_cell_formula_units_Z   1
loop_
 _symmetry_equiv_pos_site_id
 _symmetry_equiv_pos_as_xyz
  1  'x, y, z'
loop_
 _atom_site_type_symbol
 _atom_site_label
 _atom_site_symmetry_multiplicity
 _atom_site_fract_x
 _atom_site_fract_y
 _atom_site_fract_z
 _atom_site_occupancy
  Ca  Ca0  1  0.56736600  0.39954300  0.70594100  1
  Fe  Fe1  1  0.28203600  0.44649400  0.10114200  1
  Fe  Fe2  1  0.22750600  0.00357000  0.40366400  1
  Fe  Fe3  1  0.13969100  0.47014800  0.49774600  1
  Fe  Fe4  1  0.32862800  0.94313000  0.99541400  1
  Fe  Fe5  1  0.85270300  0.63110800  0.90695700  1
  Fe  Fe6  1  0.73215600  0.92832000  0.56568900  1
  Fe  Fe7  1  0.73134500  0.62888300  0.27832500  1
  Fe  Fe8  1  0.77570800  0.10978900  0.06896200  1
  O  O9  1  0.44729800  0.63803400  0.90533400  1
  O  O10  1  0.93705600  0.15665600  0.57715800  1
  O  O11  1  0.08314600  0.35721500  0.30834300  1
  O  O12  1  0.46508800  0.93458600  0.19656400  1
  O  O13  1  0.62907700  0.39823000  0.17352300  1
  O  O14  1  0.94631000  0.81032500  0.38411500  1
  O  O15  1  0.90483400  0.62066900  0.67670400  1
  O  O16  1  0.63044500  0.06973000  0.89032400  1
  O  O17  1  0.97606700  0.76902600  0.07919100  1
  O  O18  1  0.41880300  0.16427900  0.53296000  1
  O  O19  1  0.07981500  0.25499200  0.97338500  1
  O  O20  1  0.44492200  0.66527200  0.47498800  1
