# generated using pymatgen
data_BeTlPO4
_symmetry_space_group_name_H-M   'P 1'
_cell_length_a   4.83742666
_cell_length_b   8.06981089
_cell_length_c   9.35815203
_cell_angle_alpha   90.00000000
_cell_angle_beta   90.00000000
_cell_angle_gamma   90.00000000
_symmetry_Int_Tables_number   1
_chemical_formula_structural   BeTlPO4
_chemical_formula_sum   'Be4 Tl4 P4 O16'
_cell_volume   365.31528824
_cell_formula_units_Z   4
loop_
 _symmetry_equiv_pos_site_id
 _symmetry_equiv_pos_as_xyz
  1  'x, y, z'
loop_
 _atom_site_type_symbol
 _atom_site_label
 _atom_site_symmetry_multiplicity
 _atom_site_fract_x
 _atom_site_fract_y
 _atom_site_fract_z
 _atom_site_occupancy
  Be  Be0  1  0.96570089  0.11659831  0.14773593  1
  Be  Be1  1  0.46570089  0.88340169  0.85226407  1
  Be  Be2  1  0.46570089  0.61659831  0.35226407  1
  Be  Be3  1  0.96570089  0.38340169  0.64773593  1
  Tl  Tl4  1  0.97307103  0.84551820  0.46825135  1
  Tl  Tl5  1  0.47307103  0.15448180  0.53174865  1
  Tl  Tl6  1  0.47307103  0.34551820  0.03174865  1
  Tl  Tl7  1  0.97307103  0.65448180  0.96825135  1
  P  P8  1  0.46586782  0.92034261  0.17118038  1
  P  P9  1  0.96586782  0.07965739  0.82881962  1
  P  P10  1  0.96586782  0.42034261  0.32881962  1
  P  P11  1  0.46586782  0.57965739  0.67118038  1
  O  O12  1  0.55643147  0.79266551  0.28209897  1
  O  O13  1  0.05643147  0.20733449  0.71790103  1
  O  O14  1  0.05643147  0.29266551  0.21790103  1
  O  O15  1  0.55643147  0.70733449  0.78209897  1
  O  O16  1  0.50194854  0.84461971  0.02210914  1
  O  O17  1  0.00194854  0.15538029  0.97789086  1
  O  O18  1  0.00194854  0.34461971  0.47789086  1
  O  O19  1  0.50194854  0.65538029  0.52210914  1
  O  O20  1  0.16255835  0.96598488  0.19784990  1
  O  O21  1  0.66255835  0.03401512  0.80215010  1
  O  O22  1  0.66255835  0.46598488  0.30215010  1
  O  O23  1  0.16255835  0.53401512  0.69784990  1
  O  O24  1  0.64542290  0.07680103  0.18631330  1
  O  O25  1  0.14542290  0.92319897  0.81368670  1
  O  O26  1  0.14542290  0.57680103  0.31368670  1
  O  O27  1  0.64542290  0.42319897  0.68631330  1
