# generated using pymatgen
data_KTaW2O9
_symmetry_space_group_name_H-M   'P 1'
_cell_length_a   3.92991464
_cell_length_b   12.80825973
_cell_length_c   12.83577593
_cell_angle_alpha   60.08705456
_cell_angle_beta   89.99983330
_cell_angle_gamma   90.05416076
_symmetry_Int_Tables_number   1
_chemical_formula_structural   KTaW2O9
_chemical_formula_sum   'K3 Ta3 W6 O27'
_cell_volume   560.02323487
_cell_formula_units_Z   3
loop_
 _symmetry_equiv_pos_site_id
 _symmetry_equiv_pos_as_xyz
  1  'x, y, z'
loop_
 _atom_site_type_symbol
 _atom_site_label
 _atom_site_symmetry_multiplicity
 _atom_site_fract_x
 _atom_site_fract_y
 _atom_site_fract_z
 _atom_site_occupancy
  K  K0  1  -0.01818917  0.83417295  0.78797184  1
  K  K1  1  0.97057904  0.20379914  0.18424244  1
  K  K2  1  0.75372655  0.50020346  0.50006714  1
  Ta  Ta3  1  0.43088291  0.66571043  0.66478411  1
  Ta  Ta4  1  0.43366590  0.33515667  0.33579085  1
  Ta  Ta5  1  0.42953335  0.16525136  0.66703620  1
  W  W6  1  0.52377380  0.00173026  0.49791503  1
  W  W7  1  0.52503162  0.50249576  0.99909544  1
  W  W8  1  0.52985159  0.00159498  -0.00003948  1
  W  W9  1  0.39769499  0.83306910  0.33326092  1
  W  W10  1  0.40200808  0.33164491  0.83673077  1
  W  W11  1  0.39903450  0.66892992  0.16477034  1
  O  O12  1  0.46479708  0.83641090  0.61834379  1
  O  O13  1  0.46516577  0.16145579  0.37419410  1
  O  O14  1  0.46607956  0.38087134  0.16015761  1
  O  O15  1  0.46382992  0.62398417  0.83672609  1
  O  O16  1  0.95695631  0.15599152  0.67294399  1
  O  O17  1  0.94786730  0.83208334  0.33244338  1
  O  O18  1  0.95219864  0.32780952  0.84410332  1
  O  O19  1  0.94965703  0.66971560  0.16306020  1
  O  O20  1  0.97582301  0.99919237  0.49586129  1
  O  O21  1  0.97637172  0.50288653  0.99879382  1
  O  O22  1  0.46713678  0.03740226  0.62111155  1
  O  O23  1  0.46038682  0.95139967  0.37797241  1
  O  O24  1  0.46639843  0.37925916  0.95673447  1
  O  O25  1  0.46325578  0.62372597  0.04451906  1
  O  O26  1  0.95484073  0.66459943  0.66742952  1
  O  O27  1  0.95704885  0.32973889  0.32889675  1
  O  O28  1  0.45808899  0.70720477  0.49414577  1
  O  O29  1  0.46233837  0.29484731  0.50212750  1
  O  O30  1  0.46125452  0.50678851  0.28627495  1
  O  O31  1  0.46015019  0.49113855  0.71504051  1
  O  O32  1  0.46073540  0.28487222  0.72134975  1
  O  O33  1  0.45547769  0.71080402  0.28734974  1
  O  O34  1  0.47024108  0.03740630  0.84312067  1
  O  O35  1  0.46315537  0.95047241  0.16945003  1
  O  O36  1  0.46750813  0.16370241  0.96195315  1
  O  O37  1  0.46610358  0.83319914  0.04876277  1
  O  O38  1  0.97933979  0.99927896  0.00551021  1
