# generated using pymatgen
data_Ga2Se3
_symmetry_space_group_name_H-M   'P 1'
_cell_length_a   6.75707348
_cell_length_b   6.75707348
_cell_length_c   6.75707348
_cell_angle_alpha   146.82988913
_cell_angle_beta   130.82074111
_cell_angle_gamma   60.61047697
_symmetry_Int_Tables_number   1
_chemical_formula_structural   Ga2Se3
_chemical_formula_sum   'Ga2 Se3'
_cell_volume   126.54632814
_cell_formula_units_Z   1
loop_
 _symmetry_equiv_pos_site_id
 _symmetry_equiv_pos_as_xyz
  1  'x, y, z'
loop_
 _atom_site_type_symbol
 _atom_site_label
 _atom_site_symmetry_multiplicity
 _atom_site_fract_x
 _atom_site_fract_y
 _atom_site_fract_z
 _atom_site_occupancy
  Ga  Ga0  1  0.33088288  0.33990097  0.99098192  1
  Ga  Ga1  1  0.65108195  0.66009903  0.99098192  1
  Se  Se2  1  0.60236620  0.83879181  0.76357539  1
  Se  Se3  1  0.92478357  0.16120819  0.76357539  1
  Se  Se4  1  0.24088639  0.50000000  0.74088639  1
