# generated using pymatgen
data_Ce4ThO10
_symmetry_space_group_name_H-M   'P 1'
_cell_length_a   13.94370191
_cell_length_b   13.94370191
_cell_length_c   13.94370191
_cell_angle_alpha   164.05125349
_cell_angle_beta   164.05125349
_cell_angle_gamma   22.62897446
_symmetry_Int_Tables_number   1
_chemical_formula_structural   Ce4ThO10
_chemical_formula_sum   'Ce4 Th1 O10'
_cell_volume   204.65036065
_cell_formula_units_Z   1
loop_
 _symmetry_equiv_pos_site_id
 _symmetry_equiv_pos_as_xyz
  1  'x, y, z'
loop_
 _atom_site_type_symbol
 _atom_site_label
 _atom_site_symmetry_multiplicity
 _atom_site_fract_x
 _atom_site_fract_y
 _atom_site_fract_z
 _atom_site_occupancy
  Ce  Ce0  1  0.39847534  0.39847534  0.00000000  1
  Ce  Ce1  1  0.79950079  0.79950079  0.00000000  1
  Ce  Ce2  1  0.20049921  0.20049921  -0.00000000  1
  Ce  Ce3  1  0.60152466  0.60152466  0.00000000  1
  Th  Th4  1  -0.00000000  -0.00000000  0.00000000  1
  O  O5  1  0.15099109  0.65099109  0.50000000  1
  O  O6  1  0.55166337  0.05166337  0.50000000  1
  O  O7  1  0.94833663  0.44833663  0.50000000  1
  O  O8  1  0.34900891  0.84900891  0.50000000  1
  O  O9  1  0.75000000  0.25000000  0.50000000  1
  O  O10  1  0.05166337  0.55166337  0.50000000  1
  O  O11  1  0.44833663  0.94833663  0.50000000  1
  O  O12  1  0.84900891  0.34900891  0.50000000  1
  O  O13  1  0.25000000  0.75000000  0.50000000  1
  O  O14  1  0.65099109  0.15099109  0.50000000  1
