# generated using pymatgen
data_NaNi2H3(SO5)2
_symmetry_space_group_name_H-M   'P 1'
_cell_length_a   5.26744345
_cell_length_b   5.26747521
_cell_length_c   7.26956667
_cell_angle_alpha   69.94016186
_cell_angle_beta   69.94030491
_cell_angle_gamma   71.21797147
_symmetry_Int_Tables_number   1
_chemical_formula_structural   NaNi2H3(SO5)2
_chemical_formula_sum   'Na1 Ni2 H3 S2 O10'
_cell_volume   173.13493264
_cell_formula_units_Z   1
loop_
 _symmetry_equiv_pos_site_id
 _symmetry_equiv_pos_as_xyz
  1  'x, y, z'
loop_
 _atom_site_type_symbol
 _atom_site_label
 _atom_site_symmetry_multiplicity
 _atom_site_fract_x
 _atom_site_fract_y
 _atom_site_fract_z
 _atom_site_occupancy
  Na  Na0  1  0.49701889  0.49701974  0.50088588  1
  Ni  Ni1  1  0.99654181  0.49683629  0.00147400  1
  Ni  Ni2  1  0.49683692  0.99654177  0.00147445  1
  H  H3  1  0.30376002  0.30375945  0.23754434  1
  H  H4  1  0.68817599  0.68817769  0.76753837  1
  H  H5  1  0.49453242  0.49453426  0.00399514  1
  S  S6  1  0.90540210  0.90540015  0.29497264  1
  S  S7  1  0.08855085  0.08855272  0.70836020  1
  O  O8  1  0.34309032  0.34308866  0.08994572  1
  O  O9  1  0.64963739  0.64964058  0.91484557  1
  O  O10  1  0.21172264  0.81533203  0.25130438  1
  O  O11  1  0.81533595  0.21171906  0.25130278  1
  O  O12  1  0.78235366  0.17872521  0.75204727  1
  O  O13  1  0.17871977  0.78235675  0.75204842  1
  O  O14  1  0.77612216  0.77612291  0.50249586  1
  O  O15  1  0.21789784  0.21789580  0.50076916  1
  O  O16  1  0.81113635  0.81113514  0.15877687  1
  O  O17  1  0.18316292  0.18316277  0.84421994  1
