# generated using pymatgen
data_Ho2HfS5
_symmetry_space_group_name_H-M   'P 1'
_cell_length_a   7.21924739
_cell_length_b   7.68646244
_cell_length_c   11.48895259
_cell_angle_alpha   90.00000000
_cell_angle_beta   90.00000000
_cell_angle_gamma   90.00000000
_symmetry_Int_Tables_number   1
_chemical_formula_structural   Ho2HfS5
_chemical_formula_sum   'Ho8 Hf4 S20'
_cell_volume   637.52742393
_cell_formula_units_Z   4
loop_
 _symmetry_equiv_pos_site_id
 _symmetry_equiv_pos_as_xyz
  1  'x, y, z'
loop_
 _atom_site_type_symbol
 _atom_site_label
 _atom_site_symmetry_multiplicity
 _atom_site_fract_x
 _atom_site_fract_y
 _atom_site_fract_z
 _atom_site_occupancy
  Ho  Ho0  1  0.52096123  0.49723328  0.32096355  1
  Ho  Ho1  1  0.97903877  0.00276672  0.82096355  1
  Ho  Ho2  1  0.47903877  0.99723328  0.67903645  1
  Ho  Ho3  1  0.02096123  0.50276672  0.17903645  1
  Ho  Ho4  1  0.47903877  0.50276672  0.67903645  1
  Ho  Ho5  1  0.02096123  0.99723328  0.17903645  1
  Ho  Ho6  1  0.52096123  0.00276672  0.32096355  1
  Ho  Ho7  1  0.97903877  0.49723328  0.82096355  1
  Hf  Hf8  1  0.07547381  0.75000000  0.49474199  1
  Hf  Hf9  1  0.42452619  0.75000000  0.99474199  1
  Hf  Hf10  1  0.92452619  0.25000000  0.50525801  1
  Hf  Hf11  1  0.57547381  0.25000000  0.00525801  1
  S  S12  1  0.83950816  0.96413859  0.59395216  1
  S  S13  1  0.66049184  0.53586141  0.09395216  1
  S  S14  1  0.16049184  0.46413859  0.40604784  1
  S  S15  1  0.33950816  0.03586141  0.90604784  1
  S  S16  1  0.16049184  0.03586141  0.40604784  1
  S  S17  1  0.33950816  0.46413859  0.90604784  1
  S  S18  1  0.83950816  0.53586141  0.59395216  1
  S  S19  1  0.66049184  0.96413859  0.09395216  1
  S  S20  1  0.83264304  0.75000000  0.31892255  1
  S  S21  1  0.66735696  0.75000000  0.81892255  1
  S  S22  1  0.16735696  0.25000000  0.68107745  1
  S  S23  1  0.33264304  0.25000000  0.18107745  1
  S  S24  1  0.44753369  0.75000000  0.49676396  1
  S  S25  1  0.05246631  0.75000000  0.99676396  1
  S  S26  1  0.55246631  0.25000000  0.50323604  1
  S  S27  1  0.94753369  0.25000000  0.00323604  1
  S  S28  1  0.18970130  0.75000000  0.70721175  1
  S  S29  1  0.31029870  0.75000000  0.20721175  1
  S  S30  1  0.81029870  0.25000000  0.29278825  1
  S  S31  1  0.68970130  0.25000000  0.79278825  1
