# generated using pymatgen
data_Gd4(SiS4)3
_symmetry_space_group_name_H-M   'P 1'
_cell_length_a   7.76713793
_cell_length_b   11.25165473
_cell_length_c   11.25167912
_cell_angle_alpha   114.88085528
_cell_angle_beta   103.30734945
_cell_angle_gamma   103.30628062
_symmetry_Int_Tables_number   1
_chemical_formula_structural   Gd4(SiS4)3
_chemical_formula_sum   'Gd8 Si6 S24'
_cell_volume   806.35460108
_cell_formula_units_Z   2
loop_
 _symmetry_equiv_pos_site_id
 _symmetry_equiv_pos_as_xyz
  1  'x, y, z'
loop_
 _atom_site_type_symbol
 _atom_site_label
 _atom_site_symmetry_multiplicity
 _atom_site_fract_x
 _atom_site_fract_y
 _atom_site_fract_z
 _atom_site_occupancy
  Gd  Gd0  1  0.50868548  0.00005507  0.00008528  1
  Gd  Gd1  1  0.00868573  0.00008427  0.00005657  1
  Gd  Gd2  1  0.06388595  0.53754750  0.77832246  1
  Gd  Gd3  1  0.28659969  0.22200914  0.75932545  1
  Gd  Gd4  1  0.52611848  0.24045222  0.46262409  1
  Gd  Gd5  1  0.56388609  0.77832293  0.53754920  1
  Gd  Gd6  1  0.02612088  0.46262329  0.24045164  1
  Gd  Gd7  1  0.78659881  0.75932429  0.22200973  1
  Si  Si8  1  0.35801124  0.82720070  0.21207239  1
  Si  Si9  1  0.14570566  0.78781020  0.61514585  1
  Si  Si10  1  0.53044295  0.38491886  0.17278701  1
  Si  Si11  1  0.85801426  0.21207294  0.82720306  1
  Si  Si12  1  0.03044155  0.17278867  0.38491819  1
  Si  Si13  1  0.64570255  0.61514369  0.78780849  1
  S  S14  1  0.11042627  0.39049684  0.92178709  1
  S  S15  1  0.18817313  0.07797987  0.46857022  1
  S  S16  1  0.71977310  0.53127604  0.60946067  1
  S  S17  1  0.61042465  0.92178609  0.39049588  1
  S  S18  1  0.21976953  0.60945804  0.53127490  1
  S  S19  1  0.68817791  0.46856937  0.07798068  1
  S  S20  1  0.32207409  0.00100202  0.18718717  1
  S  S21  1  0.13478389  0.81293877  0.81393637  1
  S  S22  1  0.32096767  0.18611622  0.99889369  1
  S  S23  1  0.82207567  0.18718523  0.00100125  1
  S  S24  1  0.82096573  0.99889396  0.18611713  1
  S  S25  1  0.63478397  0.81393707  0.81293829  1
  S  S26  1  0.41137143  0.71121883  0.03151054  1
  S  S27  1  0.37971214  0.96845339  0.67968669  1
  S  S28  1  0.69986785  0.32026700  0.28870568  1
  S  S29  1  0.91137085  0.03151155  0.71121600  1
  S  S30  1  0.19986906  0.28870444  0.32026630  1
  S  S31  1  0.87971155  0.67969040  0.96845467  1
  S  S32  1  0.64746482  0.26913927  0.73238805  1
  S  S33  1  0.91471711  0.26768911  0.53668926  1
  S  S34  1  0.37822202  0.46331160  0.73094320  1
  S  S35  1  0.14746176  0.73238592  0.26913571  1
  S  S36  1  0.87822186  0.73094456  0.46331326  1
  S  S37  1  0.41472064  0.53669163  0.26768791  1
