# generated using pymatgen
data_BaMnO3
_symmetry_space_group_name_H-M   'P 1'
_cell_length_a   9.93015546
_cell_length_b   9.93014143
_cell_length_c   4.90105618
_cell_angle_alpha   89.99987452
_cell_angle_beta   90.00029651
_cell_angle_gamma   120.00013374
_symmetry_Int_Tables_number   1
_chemical_formula_structural   BaMnO3
_chemical_formula_sum   'Ba6 Mn6 O18'
_cell_volume   418.53444768
_cell_formula_units_Z   6
loop_
 _symmetry_equiv_pos_site_id
 _symmetry_equiv_pos_as_xyz
  1  'x, y, z'
loop_
 _atom_site_type_symbol
 _atom_site_label
 _atom_site_symmetry_multiplicity
 _atom_site_fract_x
 _atom_site_fract_y
 _atom_site_fract_z
 _atom_site_occupancy
  Ba  Ba0  1  0.66613231  0.66613150  0.72455825  1
  Ba  Ba1  1  -0.00000190  0.66613550  0.22456019  1
  Ba  Ba2  1  0.66613695  0.00000118  0.22455813  1
  Ba  Ba3  1  0.33386783  0.00000007  0.72455846  1
  Ba  Ba4  1  -0.00000111  0.33386765  0.72456051  1
  Ba  Ba5  1  0.33386537  0.33386348  0.22456070  1
  Mn  Mn6  1  0.33333307  0.66666787  0.93376336  1
  Mn  Mn7  1  0.66666810  0.33333116  0.43384465  1
  Mn  Mn8  1  0.33333314  0.66666823  0.43377684  1
  Mn  Mn9  1  0.66666801  0.33332759  0.93384596  1
  Mn  Mn10  1  0.00000008  -0.00000097  0.53703915  1
  Mn  Mn11  1  0.00000036  0.00000413  0.03701818  1
  O  O12  1  0.33315387  0.81369067  0.18225049  1
  O  O13  1  0.18630623  0.51946253  0.18224911  1
  O  O14  1  0.48053627  0.66684259  0.18225317  1
  O  O15  1  0.51945543  0.33314729  0.68233122  1
  O  O16  1  0.66685194  0.18630948  0.68233660  1
  O  O17  1  0.81369166  0.48054393  0.68233250  1
  O  O18  1  0.33315554  0.51946446  0.68225092  1
  O  O19  1  0.81369614  0.33316150  0.18233800  1
  O  O20  1  0.51946594  0.18629889  0.18233005  1
  O  O21  1  0.48053507  0.81369082  0.68224838  1
  O  O22  1  0.18630964  0.66684452  0.68224812  1
  O  O23  1  0.66683577  0.48053506  0.18233573  1
  O  O24  1  -0.00000031  0.14701687  0.28864201  1
  O  O25  1  0.85298673  0.00000068  0.78864022  1
  O  O26  1  0.14701560  0.14701786  0.78864297  1
  O  O27  1  0.85298504  0.85298477  0.28864332  1
  O  O28  1  0.14701567  0.00000173  0.28864426  1
  O  O29  1  0.00000158  0.85298893  0.78864352  1
