# generated using pymatgen
data_Ni2Te3O8
_symmetry_space_group_name_H-M   'P 1'
_cell_length_a   6.71470873
_cell_length_b   6.71498805
_cell_length_c   11.43402175
_cell_angle_alpha   82.13532941
_cell_angle_beta   82.13390435
_cell_angle_gamma   45.40925064
_symmetry_Int_Tables_number   1
_chemical_formula_structural   Ni2Te3O8
_chemical_formula_sum   'Ni4 Te6 O16'
_cell_volume   363.08200392
_cell_formula_units_Z   2
loop_
 _symmetry_equiv_pos_site_id
 _symmetry_equiv_pos_as_xyz
  1  'x, y, z'
loop_
 _atom_site_type_symbol
 _atom_site_label
 _atom_site_symmetry_multiplicity
 _atom_site_fract_x
 _atom_site_fract_y
 _atom_site_fract_z
 _atom_site_occupancy
  Ni  Ni0  1  0.05600613  0.41492564  0.14403258  1
  Ni  Ni1  1  0.58508612  0.94399256  0.35597110  1
  Ni  Ni2  1  0.94399232  0.58505648  0.85597066  1
  Ni  Ni3  1  0.41493173  0.05600636  0.64402594  1
  Te  Te4  1  0.81596795  0.18401840  0.75000193  1
  Te  Te5  1  0.18404347  0.81597208  0.24999709  1
  Te  Te6  1  0.94868026  0.31971751  0.44355473  1
  Te  Te7  1  0.68028722  0.05132891  0.05644396  1
  Te  Te8  1  0.05132743  0.68027916  0.55644550  1
  Te  Te9  1  0.31969591  0.94868686  0.94355472  1
  O  O10  1  0.27515230  0.25686907  0.97394598  1
  O  O11  1  0.74313545  0.72483926  0.52604914  1
  O  O12  1  0.72484376  0.74312760  0.02605298  1
  O  O13  1  0.25687498  0.27516091  0.47395022  1
  O  O14  1  0.54630100  0.85574141  0.80262129  1
  O  O15  1  0.14427311  0.45367111  0.69738182  1
  O  O16  1  0.45369696  0.14426118  0.19737739  1
  O  O17  1  0.85572611  0.54633088  0.30261719  1
  O  O18  1  0.96378179  0.26157137  0.86867566  1
  O  O19  1  0.73844161  0.03618521  0.63132302  1
  O  O20  1  0.03440146  0.13022465  0.14564769  1
  O  O21  1  0.86981774  0.96556369  0.35435424  1
  O  O22  1  0.96559737  0.86977813  0.85435321  1
  O  O23  1  0.13017111  0.03443444  0.64564943  1
  O  O24  1  0.26155470  0.96381898  0.36867781  1
  O  O25  1  0.03621100  0.73843613  0.13132271  1
