# generated using pymatgen
data_Na2Ca17Al12O36
_symmetry_space_group_name_H-M   'P 1'
_cell_length_a   10.87151700
_cell_length_b   10.96490780
_cell_length_c   15.35955110
_cell_angle_alpha   90.00000000
_cell_angle_beta   90.00000000
_cell_angle_gamma   89.84409110
_symmetry_Int_Tables_number   1
_chemical_formula_structural   Na2Ca17Al12O36
_chemical_formula_sum   'Na4 Ca34 Al24 O72'
_cell_volume   1830.93129897
_cell_formula_units_Z   2
loop_
 _symmetry_equiv_pos_site_id
 _symmetry_equiv_pos_as_xyz
  1  'x, y, z'
loop_
 _atom_site_type_symbol
 _atom_site_label
 _atom_site_symmetry_multiplicity
 _atom_site_fract_x
 _atom_site_fract_y
 _atom_site_fract_z
 _atom_site_occupancy
  Na  Na0  1  0.00051302  0.49943576  0.49927082  1
  Na  Na1  1  0.50102597  0.00022293  0.49934850  1
  Na  Na2  1  0.49897403  0.49977707  0.99934850  1
  Na  Na3  1  0.99948698  0.00056424  0.99927082  1
  Ca  Ca4  1  0.71061937  0.48763255  0.62808404  1
  Ca  Ca5  1  0.77565763  0.98821992  0.36655684  1
  Ca  Ca6  1  0.22434237  0.51178008  0.86655684  1
  Ca  Ca7  1  0.28938063  0.01236745  0.12808404  1
  Ca  Ca8  1  0.28793866  0.51237422  0.37261422  1
  Ca  Ca9  1  0.23432549  0.01199916  0.63568011  1
  Ca  Ca10  1  0.76567451  0.48800084  0.13568011  1
  Ca  Ca11  1  0.71206134  0.98762578  0.87261422  1
  Ca  Ca12  1  0.97378854  0.50707791  0.74067702  1
  Ca  Ca13  1  0.52029827  0.00433603  0.25873638  1
  Ca  Ca14  1  0.47970173  0.49566397  0.75873638  1
  Ca  Ca15  1  0.02621146  0.99292209  0.24067702  1
  Ca  Ca16  1  0.02519923  0.49178620  0.25997898  1
  Ca  Ca17  1  0.48152718  0.99582110  0.74370886  1
  Ca  Ca18  1  0.51847282  0.50417890  0.24370886  1
  Ca  Ca19  1  0.97480077  0.00821380  0.75997898  1
  Ca  Ca20  1  0.75114291  0.22991416  0.99762480  1
  Ca  Ca21  1  0.74118103  0.73663591  0.00367425  1
  Ca  Ca22  1  0.25881897  0.76336409  0.50367425  1
  Ca  Ca23  1  0.24885709  0.27008584  0.49762480  1
  Ca  Ca24  1  0.25067268  0.77065001  0.00272277  1
  Ca  Ca25  1  0.25832492  0.26180374  0.99585937  1
  Ca  Ca26  1  0.74167508  0.23819626  0.49585937  1
  Ca  Ca27  1  0.74932732  0.72934999  0.50272277  1
  Ca  Ca28  1  0.99800381  0.50066241  0.01921586  1
  Ca  Ca29  1  0.00199619  0.99933759  0.51921586  1
  Ca  Ca30  1  0.72720309  0.24534230  0.75425820  1
  Ca  Ca31  1  0.77142445  0.74546491  0.24649703  1
  Ca  Ca32  1  0.22857555  0.75453509  0.74649703  1
  Ca  Ca33  1  0.27279691  0.25465770  0.25425820  1
  Ca  Ca34  1  0.27260834  0.75672639  0.24708524  1
  Ca  Ca35  1  0.22558310  0.25789321  0.75389943  1
  Ca  Ca36  1  0.77441690  0.24210679  0.25389943  1
  Ca  Ca37  1  0.72739166  0.74327361  0.74708524  1
  Al  Al38  1  0.99758111  0.25404882  0.39079836  1
  Al  Al39  1  0.50460832  0.75564024  0.60876300  1
  Al  Al40  1  0.49539168  0.74435976  0.10876300  1
  Al  Al41  1  0.00241889  0.24595118  0.89079836  1
  Al  Al42  1  0.00109890  0.74394709  0.60773038  1
  Al  Al43  1  0.49564237  0.24411379  0.39206755  1
  Al  Al44  1  0.50435763  0.25588621  0.89206755  1
  Al  Al45  1  0.99890110  0.75605291  0.10773038  1
  Al  Al46  1  0.99773631  0.26278186  0.61235122  1
  Al  Al47  1  0.50038047  0.75996524  0.38847536  1
  Al  Al48  1  0.49961953  0.74003476  0.88847536  1
  Al  Al49  1  0.00226369  0.23721814  0.11235122  1
  Al  Al50  1  0.00105231  0.73940596  0.38647084  1
  Al  Al51  1  0.49911888  0.24038208  0.61236395  1
  Al  Al52  1  0.50088112  0.25961792  0.11236395  1
  Al  Al53  1  0.99894769  0.76059404  0.88647084  1
  Al  Al54  1  0.20931815  0.50517855  0.61748940  1
  Al  Al55  1  0.28681539  0.00428777  0.38441451  1
  Al  Al56  1  0.71318461  0.49571223  0.88441451  1
  Al  Al57  1  0.79068185  0.99482145  0.11748940  1
  Al  Al58  1  0.79062773  0.49566440  0.38292400  1
  Al  Al59  1  0.71139448  0.99609802  0.61704775  1
  Al  Al60  1  0.28860552  0.50390198  0.11704775  1
  Al  Al61  1  0.20937227  0.00433560  0.88292400  1
  O  O62  1  0.26728364  0.47261508  0.51487427  1
  O  O63  1  0.20717626  0.97126368  0.48310077  1
  O  O64  1  0.79282374  0.52873632  0.98310077  1
  O  O65  1  0.73271636  0.02738492  0.01487427  1
  O  O66  1  0.73142168  0.52722979  0.48549052  1
  O  O67  1  0.79289662  0.03057455  0.51930554  1
  O  O68  1  0.20710338  0.46942545  0.01930554  1
  O  O69  1  0.26857832  0.97277021  0.98549052  1
  O  O70  1  0.84145253  0.30180896  0.62481828  1
  O  O71  1  0.65692900  0.80311194  0.37262964  1
  O  O72  1  0.34307100  0.69688806  0.87262964  1
  O  O73  1  0.15854747  0.19819104  0.12481828  1
  O  O74  1  0.15773210  0.69959126  0.37576762  1
  O  O75  1  0.34228809  0.19861379  0.62790937  1
  O  O76  1  0.65771191  0.30138621  0.12790937  1
  O  O77  1  0.84226790  0.80040874  0.87576762  1
  O  O78  1  0.08735640  0.39574137  0.63119833  1
  O  O79  1  0.40999455  0.89672861  0.37585583  1
  O  O80  1  0.59000545  0.60327139  0.87585583  1
  O  O81  1  0.91264360  0.10425863  0.13119833  1
  O  O82  1  0.91303051  0.60427782  0.36822649  1
  O  O83  1  0.58753698  0.10233722  0.62557556  1
  O  O84  1  0.41246302  0.39766278  0.12557556  1
  O  O85  1  0.08696949  0.89572218  0.86822649  1
  O  O86  1  0.93370884  0.12691451  0.33751858  1
  O  O87  1  0.56962910  0.63679018  0.67012243  1
  O  O88  1  0.43037090  0.86320982  0.17012243  1
  O  O89  1  0.06629116  0.37308549  0.83751858  1
  O  O90  1  0.06043206  0.88030754  0.65264996  1
  O  O91  1  0.42952731  0.36307978  0.33130783  1
  O  O92  1  0.57047269  0.13692022  0.83130783  1
  O  O93  1  0.93956794  0.61969246  0.15264996  1
  O  O94  1  0.12839376  0.33671182  0.35711259  1
  O  O95  1  0.37065570  0.83923601  0.64229387  1
  O  O96  1  0.62934430  0.66076399  0.14229387  1
  O  O97  1  0.87160624  0.16328818  0.85711259  1
  O  O98  1  0.87091122  0.66224677  0.64252278  1
  O  O99  1  0.63006066  0.16076434  0.35847131  1
  O  O100  1  0.36993934  0.33923566  0.85847131  1
  O  O101  1  0.12908878  0.83775323  0.14252278  1
  O  O102  1  0.13506090  0.65061506  0.60637833  1
  O  O103  1  0.36410961  0.14515937  0.40109363  1
  O  O104  1  0.63589039  0.35484063  0.90109363  1
  O  O105  1  0.86493910  0.84938494  0.10637833  1
  O  O106  1  0.86561497  0.35117609  0.39353313  1
  O  O107  1  0.63598077  0.85461992  0.59957492  1
  O  O108  1  0.36401923  0.64538008  0.09957492  1
  O  O109  1  0.13438503  0.14882391  0.89353313  1
  O  O110  1  0.28148905  0.51380612  0.71951831  1
  O  O111  1  0.22075384  0.01401759  0.28077881  1
  O  O112  1  0.77924616  0.48598241  0.78077881  1
  O  O113  1  0.71851095  0.98619388  0.21951831  1
  O  O114  1  0.71764306  0.48795689  0.28137937  1
  O  O115  1  0.78009529  0.98631636  0.71977488  1
  O  O116  1  0.21990471  0.51368364  0.21977488  1
  O  O117  1  0.28235694  0.01204311  0.78137937  1
  O  O118  1  0.03046597  0.21449656  0.50206979  1
  O  O119  1  0.47036678  0.72132000  0.49856533  1
  O  O120  1  0.52963322  0.77868000  0.99856533  1
  O  O121  1  0.96953403  0.28550344  0.00206979  1
  O  O122  1  0.96541122  0.78617323  0.49656434  1
  O  O123  1  0.53017853  0.27817938  0.50226745  1
  O  O124  1  0.46982147  0.22182062  0.00226745  1
  O  O125  1  0.03458878  0.71382677  0.99656434  1
  O  O126  1  0.06777102  0.14424664  0.67185432  1
  O  O127  1  0.43033682  0.65207243  0.32050510  1
  O  O128  1  0.56966318  0.84792757  0.82050510  1
  O  O129  1  0.93222898  0.35575336  0.17185432  1
  O  O130  1  0.93067841  0.85043919  0.32062746  1
  O  O131  1  0.56864634  0.34820937  0.68062423  1
  O  O132  1  0.43135366  0.15179063  0.18062423  1
  O  O133  1  0.06932159  0.64956081  0.82062746  1
