# generated using pymatgen
data_SrTlPS4
_symmetry_space_group_name_H-M   'P 1'
_cell_length_a   6.63047161
_cell_length_b   8.70901811
_cell_length_c   12.71888910
_cell_angle_alpha   90.00000000
_cell_angle_beta   90.00000000
_cell_angle_gamma   90.00000000
_symmetry_Int_Tables_number   1
_chemical_formula_structural   SrTlPS4
_chemical_formula_sum   'Sr4 Tl4 P4 S16'
_cell_volume   734.45094522
_cell_formula_units_Z   4
loop_
 _symmetry_equiv_pos_site_id
 _symmetry_equiv_pos_as_xyz
  1  'x, y, z'
loop_
 _atom_site_type_symbol
 _atom_site_label
 _atom_site_symmetry_multiplicity
 _atom_site_fract_x
 _atom_site_fract_y
 _atom_site_fract_z
 _atom_site_occupancy
  Sr  Sr0  1  0.25000000  0.60821609  0.13569130  1
  Sr  Sr1  1  0.75000000  0.39178391  0.86430870  1
  Sr  Sr2  1  0.75000000  0.10821609  0.36430870  1
  Sr  Sr3  1  0.25000000  0.89178391  0.63569130  1
  Tl  Tl4  1  0.75000000  0.87861707  0.89079672  1
  Tl  Tl5  1  0.25000000  0.12138293  0.10920328  1
  Tl  Tl6  1  0.25000000  0.37861707  0.60920328  1
  Tl  Tl7  1  0.75000000  0.62138293  0.39079672  1
  P  P8  1  0.75000000  0.12760506  0.64867274  1
  P  P9  1  0.25000000  0.62760506  0.85132726  1
  P  P10  1  0.75000000  0.37239494  0.14867274  1
  P  P11  1  0.25000000  0.87239494  0.35132726  1
  S  S12  1  0.49545197  0.63816894  0.75389606  1
  S  S13  1  0.99545197  0.36183106  0.24610394  1
  S  S14  1  0.50454803  0.13816894  0.74610394  1
  S  S15  1  0.00454803  0.86183106  0.25389606  1
  S  S16  1  0.99545197  0.13816894  0.74610394  1
  S  S17  1  0.50454803  0.36183106  0.24610394  1
  S  S18  1  0.49545197  0.86183106  0.25389606  1
  S  S19  1  0.00454803  0.63816894  0.75389606  1
  S  S20  1  0.25000000  0.68620215  0.44755295  1
  S  S21  1  0.75000000  0.31379785  0.55244705  1
  S  S22  1  0.75000000  0.18620215  0.05244705  1
  S  S23  1  0.25000000  0.81379785  0.94755295  1
  S  S24  1  0.25000000  0.07494787  0.43163085  1
  S  S25  1  0.75000000  0.92505213  0.56836915  1
  S  S26  1  0.75000000  0.57494787  0.06836915  1
  S  S27  1  0.25000000  0.42505213  0.93163085  1
