# generated using pymatgen
data_Th(As4O9)2
_symmetry_space_group_name_H-M   'P 1'
_cell_length_a   9.50233319
_cell_length_b   9.50233319
_cell_length_c   17.39201119
_cell_angle_alpha   81.30545665
_cell_angle_beta   81.30545665
_cell_angle_gamma   31.90114611
_symmetry_Int_Tables_number   1
_chemical_formula_structural   Th(As4O9)2
_chemical_formula_sum   'Th2 As16 O36'
_cell_volume   819.56551847
_cell_formula_units_Z   2
loop_
 _symmetry_equiv_pos_site_id
 _symmetry_equiv_pos_as_xyz
  1  'x, y, z'
loop_
 _atom_site_type_symbol
 _atom_site_label
 _atom_site_symmetry_multiplicity
 _atom_site_fract_x
 _atom_site_fract_y
 _atom_site_fract_z
 _atom_site_occupancy
  Th  Th0  1  0.27944440  0.72055560  0.25000000  1
  Th  Th1  1  0.72055560  0.27944440  0.75000000  1
  As  As2  1  0.69539309  0.05703723  0.98047777  1
  As  As3  1  0.94296277  0.30460691  0.51952223  1
  As  As4  1  0.30460691  0.94296277  0.01952223  1
  As  As5  1  0.05703723  0.69539309  0.48047777  1
  As  As6  1  0.95211317  0.66950365  0.13720146  1
  As  As7  1  0.33049635  0.04788683  0.36279854  1
  As  As8  1  0.04788683  0.33049635  0.86279854  1
  As  As9  1  0.66950365  0.95211317  0.63720146  1
  As  As10  1  0.93410856  0.36708891  0.22310051  1
  As  As11  1  0.63291109  0.06589144  0.27689949  1
  As  As12  1  0.06589144  0.63291109  0.77689949  1
  As  As13  1  0.36708891  0.93410856  0.72310051  1
  As  As14  1  0.77163859  0.22466265  0.09204206  1
  As  As15  1  0.77533735  0.22836141  0.40795794  1
  As  As16  1  0.22836141  0.77533735  0.90795794  1
  As  As17  1  0.22466265  0.77163859  0.59204206  1
  O  O18  1  0.91051120  0.51296628  0.14090218  1
  O  O19  1  0.48703372  0.08948880  0.35909782  1
  O  O20  1  0.08948880  0.48703372  0.85909782  1
  O  O21  1  0.51296628  0.91051120  0.64090218  1
  O  O22  1  0.11303880  0.30443983  0.28424235  1
  O  O23  1  0.69556017  0.88696120  0.21575765  1
  O  O24  1  0.88696120  0.69556017  0.71575765  1
  O  O25  1  0.30443983  0.11303880  0.78424235  1
  O  O26  1  0.95520099  0.18450053  0.02274315  1
  O  O27  1  0.81549947  0.04479901  0.47725685  1
  O  O28  1  0.04479901  0.81549947  0.97725685  1
  O  O29  1  0.18450053  0.95520099  0.52274315  1
  O  O30  1  0.63559290  0.57799223  0.26584829  1
  O  O31  1  0.42200777  0.36440710  0.23415171  1
  O  O32  1  0.36440710  0.42200777  0.73415171  1
  O  O33  1  0.57799223  0.63559290  0.76584829  1
  O  O34  1  0.55763676  0.50725349  0.13485742  1
  O  O35  1  0.49274651  0.44236324  0.36514258  1
  O  O36  1  0.44236324  0.49274651  0.86514258  1
  O  O37  1  0.50725349  0.55763676  0.63485742  1
  O  O38  1  0.58142673  0.28850136  0.03809553  1
  O  O39  1  0.71149864  0.41857327  0.46190447  1
  O  O40  1  0.41857327  0.71149864  0.96190447  1
  O  O41  1  0.28850136  0.58142673  0.53809553  1
  O  O42  1  0.73104724  0.88464535  0.05818365  1
  O  O43  1  0.11535465  0.26895276  0.44181635  1
  O  O44  1  0.26895276  0.11535465  0.94181635  1
  O  O45  1  0.88464535  0.73104724  0.55818365  1
  O  O46  1  0.10688279  0.08845268  0.19145977  1
  O  O47  1  0.91154732  0.89311721  0.30854023  1
  O  O48  1  0.89311721  0.91154732  0.80854023  1
  O  O49  1  0.08845268  0.10688279  0.69145977  1
  O  O50  1  0.96492241  0.94822678  0.14848239  1
  O  O51  1  0.05177322  0.03507759  0.35151761  1
  O  O52  1  0.03507759  0.05177322  0.85151761  1
  O  O53  1  0.94822678  0.96492241  0.64848239  1
