# generated using pymatgen
data_CaSeO4
_symmetry_space_group_name_H-M   'P 1'
_cell_length_a   7.09449655
_cell_length_b   6.69768018
_cell_length_c   8.31861649
_cell_angle_alpha   53.02990657
_cell_angle_beta   90.00000000
_cell_angle_gamma   90.00000000
_symmetry_Int_Tables_number   1
_chemical_formula_structural   CaSeO4
_chemical_formula_sum   'Ca4 Se4 O16'
_cell_volume   315.80313420
_cell_formula_units_Z   4
loop_
 _symmetry_equiv_pos_site_id
 _symmetry_equiv_pos_as_xyz
  1  'x, y, z'
loop_
 _atom_site_type_symbol
 _atom_site_label
 _atom_site_symmetry_multiplicity
 _atom_site_fract_x
 _atom_site_fract_y
 _atom_site_fract_z
 _atom_site_occupancy
  Ca  Ca0  1  0.35025787  0.81305971  0.77892323  1
  Ca  Ca1  1  0.14974213  0.81305971  0.27892323  1
  Ca  Ca2  1  0.64974213  0.18694029  0.22107677  1
  Ca  Ca3  1  0.85025787  0.18694029  0.72107677  1
  Se  Se4  1  0.33790536  0.30967061  0.80529799  1
  Se  Se5  1  0.16209464  0.30967061  0.30529799  1
  Se  Se6  1  0.66209464  0.69032939  0.19470201  1
  Se  Se7  1  0.83790536  0.69032939  0.69470201  1
  O  O8  1  0.49993529  0.17692834  0.75521192  1
  O  O9  1  0.00006471  0.17692834  0.25521192  1
  O  O10  1  0.50006471  0.82307166  0.24478808  1
  O  O11  1  -0.00006471  0.82307166  0.74478808  1
  O  O12  1  0.15499314  0.11684783  0.89318029  1
  O  O13  1  0.34500686  0.11684783  0.39318029  1
  O  O14  1  0.84500686  0.88315217  0.10681971  1
  O  O15  1  0.65499314  0.88315217  0.60681971  1
  O  O16  1  0.39796730  0.34233859  0.98023892  1
  O  O17  1  0.10203270  0.34233859  0.48023892  1
  O  O18  1  0.60203270  0.65766141  0.01976108  1
  O  O19  1  0.89796730  0.65766141  0.51976108  1
  O  O20  1  0.28974314  0.60011363  0.61391135  1
  O  O21  1  0.21025686  0.60011363  0.11391135  1
  O  O22  1  0.71025686  0.39988637  0.38608865  1
  O  O23  1  0.78974314  0.39988637  0.88608865  1
