# generated using pymatgen
data_GdIn2Cl5
_symmetry_space_group_name_H-M   'P 1'
_cell_length_a   8.11936952
_cell_length_b   8.62437518
_cell_length_c   12.82914074
_cell_angle_alpha   90.00000000
_cell_angle_beta   90.00000000
_cell_angle_gamma   90.00000000
_symmetry_Int_Tables_number   1
_chemical_formula_structural   GdIn2Cl5
_chemical_formula_sum   'Gd4 In8 Cl20'
_cell_volume   898.35402419
_cell_formula_units_Z   4
loop_
 _symmetry_equiv_pos_site_id
 _symmetry_equiv_pos_as_xyz
  1  'x, y, z'
loop_
 _atom_site_type_symbol
 _atom_site_label
 _atom_site_symmetry_multiplicity
 _atom_site_fract_x
 _atom_site_fract_y
 _atom_site_fract_z
 _atom_site_occupancy
  Gd  Gd0  1  0.92590514  0.75000000  0.50439891  1
  Gd  Gd1  1  0.07409486  0.25000000  0.49560109  1
  Gd  Gd2  1  0.42590514  0.25000000  0.99560109  1
  Gd  Gd3  1  0.57409486  0.75000000  0.00439891  1
  In  In4  1  0.94886187  0.00495165  0.82819400  1
  In  In5  1  0.05113813  0.99504835  0.17180600  1
  In  In6  1  0.44886187  0.99504835  0.67180600  1
  In  In7  1  0.05113813  0.50495165  0.17180600  1
  In  In8  1  0.55113813  0.00495165  0.32819400  1
  In  In9  1  0.94886187  0.49504835  0.82819400  1
  In  In10  1  0.55113813  0.49504835  0.32819400  1
  In  In11  1  0.44886187  0.50495165  0.67180600  1
  Cl  Cl12  1  0.10502164  0.75000000  0.68161073  1
  Cl  Cl13  1  0.89497836  0.25000000  0.31838927  1
  Cl  Cl14  1  0.60502164  0.25000000  0.81838927  1
  Cl  Cl15  1  0.39497836  0.75000000  0.18161073  1
  Cl  Cl16  1  0.83528000  0.04526085  0.57100730  1
  Cl  Cl17  1  0.16472000  0.95473915  0.42899270  1
  Cl  Cl18  1  0.33528000  0.95473915  0.92899270  1
  Cl  Cl19  1  0.16472000  0.54526085  0.42899270  1
  Cl  Cl20  1  0.66472000  0.04526085  0.07100730  1
  Cl  Cl21  1  0.83528000  0.45473915  0.57100730  1
  Cl  Cl22  1  0.66472000  0.45473915  0.07100730  1
  Cl  Cl23  1  0.33528000  0.54526085  0.92899270  1
  Cl  Cl24  1  0.58718172  0.75000000  0.50855257  1
  Cl  Cl25  1  0.41281828  0.25000000  0.49144743  1
  Cl  Cl26  1  0.08718172  0.25000000  0.99144743  1
  Cl  Cl27  1  0.91281828  0.75000000  0.00855257  1
  Cl  Cl28  1  0.65643280  0.75000000  0.79900424  1
  Cl  Cl29  1  0.34356720  0.25000000  0.20099576  1
  Cl  Cl30  1  0.15643280  0.25000000  0.70099576  1
  Cl  Cl31  1  0.84356720  0.75000000  0.29900424  1
