# generated using pymatgen
data_Rb3TaS4
_symmetry_space_group_name_H-M   'P 1'
_cell_length_a   9.64756284
_cell_length_b   9.74009694
_cell_length_c   11.12781562
_cell_angle_alpha   90.00000000
_cell_angle_beta   90.00000000
_cell_angle_gamma   90.00000000
_symmetry_Int_Tables_number   1
_chemical_formula_structural   Rb3TaS4
_chemical_formula_sum   'Rb12 Ta4 S16'
_cell_volume   1045.66077366
_cell_formula_units_Z   4
loop_
 _symmetry_equiv_pos_site_id
 _symmetry_equiv_pos_as_xyz
  1  'x, y, z'
loop_
 _atom_site_type_symbol
 _atom_site_label
 _atom_site_symmetry_multiplicity
 _atom_site_fract_x
 _atom_site_fract_y
 _atom_site_fract_z
 _atom_site_occupancy
  Rb  Rb0  1  0.05346397  0.28884221  0.54252655  1
  Rb  Rb1  1  0.85890690  0.92023978  0.75000000  1
  Rb  Rb2  1  0.14109310  0.07976022  0.25000000  1
  Rb  Rb3  1  0.64109310  0.42023978  0.25000000  1
  Rb  Rb4  1  0.94653603  0.71115779  0.45747345  1
  Rb  Rb5  1  0.44653603  0.78884221  0.04252655  1
  Rb  Rb6  1  0.55346397  0.21115779  0.54252655  1
  Rb  Rb7  1  0.05346397  0.28884221  0.95747345  1
  Rb  Rb8  1  0.94653603  0.71115779  0.04252655  1
  Rb  Rb9  1  0.55346397  0.21115779  0.95747345  1
  Rb  Rb10  1  0.44653603  0.78884221  0.45747345  1
  Rb  Rb11  1  0.35890690  0.57976022  0.75000000  1
  Ta  Ta12  1  0.28248278  0.01383710  0.75000000  1
  Ta  Ta13  1  0.78248278  0.48616290  0.75000000  1
  Ta  Ta14  1  0.21751722  0.51383710  0.25000000  1
  Ta  Ta15  1  0.71751722  0.98616290  0.25000000  1
  S  S16  1  0.30256765  0.24660115  0.75000000  1
  S  S17  1  0.80256765  0.25339885  0.75000000  1
  S  S18  1  0.19743235  0.74660115  0.25000000  1
  S  S19  1  0.69743235  0.75339885  0.25000000  1
  S  S20  1  -0.00095892  0.58025591  0.75000000  1
  S  S21  1  0.49904108  0.91974409  0.75000000  1
  S  S22  1  0.50095892  0.08025591  0.25000000  1
  S  S23  1  0.00095892  0.41974409  0.25000000  1
  S  S24  1  0.83265565  0.05086770  0.08101203  1
  S  S25  1  0.33265565  0.44913230  0.41898797  1
  S  S26  1  0.66734435  0.55086770  0.91898797  1
  S  S27  1  0.16734435  0.94913230  0.58101203  1
  S  S28  1  0.16734435  0.94913230  0.91898797  1
  S  S29  1  0.83265565  0.05086770  0.41898797  1
  S  S30  1  0.33265565  0.44913230  0.08101203  1
  S  S31  1  0.66734435  0.55086770  0.58101203  1
