# generated using pymatgen
data_Ba6La2Fe4O15
_symmetry_space_group_name_H-M   'P 1'
_cell_length_a   11.88480550
_cell_length_b   11.88480550
_cell_length_c   7.15574892
_cell_angle_alpha   89.79915523
_cell_angle_beta   89.79915523
_cell_angle_gamma   119.35687539
_symmetry_Int_Tables_number   1
_chemical_formula_structural   Ba6La2Fe4O15
_chemical_formula_sum   'Ba12 La4 Fe8 O30'
_cell_volume   880.92220817
_cell_formula_units_Z   2
loop_
 _symmetry_equiv_pos_site_id
 _symmetry_equiv_pos_as_xyz
  1  'x, y, z'
loop_
 _atom_site_type_symbol
 _atom_site_label
 _atom_site_symmetry_multiplicity
 _atom_site_fract_x
 _atom_site_fract_y
 _atom_site_fract_z
 _atom_site_occupancy
  Ba  Ba0  1  0.33441310  0.66641367  0.01823478  1
  Ba  Ba1  1  0.66641367  0.33441310  0.51823478  1
  Ba  Ba2  1  0.82922495  0.65665097  0.82883746  1
  Ba  Ba3  1  0.34885826  0.17665966  0.84014889  1
  Ba  Ba4  1  0.82489912  0.17120232  0.84218401  1
  Ba  Ba5  1  0.17665966  0.34885826  0.34014889  1
  Ba  Ba6  1  0.65665097  0.82922495  0.32883746  1
  Ba  Ba7  1  0.17120232  0.82489912  0.34218401  1
  Ba  Ba8  1  0.52129689  0.04791309  0.17275256  1
  Ba  Ba9  1  0.04791309  0.52129689  0.67275256  1
  Ba  Ba10  1  0.99719504  0.00401693  0.50226196  1
  Ba  Ba11  1  0.00401693  0.99719504  0.00226196  1
  La  La12  1  0.95711352  0.47897940  0.17068362  1
  La  La13  1  0.52260940  0.47898120  0.16787942  1
  La  La14  1  0.47897940  0.95711352  0.67068362  1
  La  La15  1  0.47898120  0.52260940  0.66787942  1
  Fe  Fe16  1  0.17578082  0.81884769  0.83595204  1
  Fe  Fe17  1  0.18132437  0.35632489  0.84806241  1
  Fe  Fe18  1  0.64351601  0.81794732  0.83088326  1
  Fe  Fe19  1  0.81884769  0.17578082  0.33595204  1
  Fe  Fe20  1  0.81794732  0.64351601  0.33088326  1
  Fe  Fe21  1  0.35632489  0.18132537  0.34806241  1
  Fe  Fe22  1  0.66618336  0.33518666  0.97029238  1
  Fe  Fe23  1  0.33518666  0.66618336  0.47029238  1
  O  O24  1  0.10012531  0.19304221  0.74611043  1
  O  O25  1  0.80994121  0.89399517  0.74097769  1
  O  O26  1  0.07900172  0.88121972  0.71775161  1
  O  O27  1  0.89399517  0.80994121  0.24097769  1
  O  O28  1  0.19304221  0.10012531  0.24611043  1
  O  O29  1  0.88121972  0.07900172  0.21775161  1
  O  O30  1  0.75835077  0.26125564  0.16740148  1
  O  O31  1  0.74896267  0.50842226  0.15106212  1
  O  O32  1  0.49410682  0.25990241  0.16831276  1
  O  O33  1  0.26125564  0.75835077  0.66740148  1
  O  O34  1  0.25990241  0.49410682  0.66831276  1
  O  O35  1  0.50842226  0.74896267  0.65106212  1
  O  O36  1  0.94199244  0.32095340  0.45720205  1
  O  O37  1  0.66764804  0.59835035  0.47339819  1
  O  O38  1  0.39088003  0.07090322  0.49536837  1
  O  O39  1  0.93055538  0.60058562  0.44775008  1
  O  O40  1  0.67866323  0.06994635  0.49519496  1
  O  O41  1  0.39558109  0.33155581  0.48257685  1
  O  O42  1  0.06994635  0.67866323  0.99519496  1
  O  O43  1  0.33155581  0.39558109  0.98257685  1
  O  O44  1  0.60058562  0.93055538  0.94775008  1
  O  O45  1  0.07090322  0.39088003  0.99536837  1
  O  O46  1  0.32095340  0.94199244  0.95720205  1
  O  O47  1  0.59835035  0.66764804  0.97339819  1
  O  O48  1  0.41730459  0.58173030  0.33547410  1
  O  O49  1  0.41466498  0.82580831  0.34018493  1
  O  O50  1  0.17630505  0.58670824  0.32826158  1
  O  O51  1  0.58173030  0.41730459  0.83547410  1
  O  O52  1  0.58670824  0.17630505  0.82826158  1
  O  O53  1  0.82580831  0.41466498  0.84018493  1
