# generated using pymatgen
data_K3SmGa3B12S12I
_symmetry_space_group_name_H-M   'P 1'
_cell_length_a   9.37809699
_cell_length_b   12.99925452
_cell_length_c   12.99926213
_cell_angle_alpha   119.99998175
_cell_angle_beta   89.99984872
_cell_angle_gamma   90.00000001
_symmetry_Int_Tables_number   1
_chemical_formula_structural   K3SmGa3B12S12I
_chemical_formula_sum   'K6 Sm2 Ga6 B24 S24 I2'
_cell_volume   1372.40591146
_cell_formula_units_Z   2
loop_
 _symmetry_equiv_pos_site_id
 _symmetry_equiv_pos_as_xyz
  1  'x, y, z'
loop_
 _atom_site_type_symbol
 _atom_site_label
 _atom_site_symmetry_multiplicity
 _atom_site_fract_x
 _atom_site_fract_y
 _atom_site_fract_z
 _atom_site_occupancy
  K  K0  1  0.00000134  -0.00000100  0.78433576  1
  K  K1  1  0.00000000  0.78433444  1.00000000  1
  K  K2  1  0.99999866  0.21566324  0.21566424  1
  K  K3  1  0.50000146  -0.00000064  0.21566553  1
  K  K4  1  0.50000000  0.21566602  0.00000000  1
  K  K5  1  0.49999854  0.78433383  0.78433447  1
  Sm  Sm6  1  0.74999873  0.66668419  0.33331852  1
  Sm  Sm7  1  0.25000127  0.33336567  0.66668148  1
  Ga  Ga8  1  0.00000300  0.00000463  0.46104648  1
  Ga  Ga9  1  0.00000000  0.46104044  1.00000000  1
  Ga  Ga10  1  0.99999700  0.53895815  0.53895352  1
  Ga  Ga11  1  0.49999660  0.00000759  0.53896067  1
  Ga  Ga12  1  0.50000000  0.53895646  0.00000000  1
  Ga  Ga13  1  0.50000340  0.46104692  0.46103933  1
  B  B14  1  0.21582238  0.79551078  0.33190182  1
  B  B15  1  0.21582204  0.53639228  0.20449039  1
  B  B16  1  0.21582303  0.66809764  0.46360819  1
  B  B17  1  0.78417762  0.46360896  0.66809818  1
  B  B18  1  0.78417796  0.33190189  0.79550961  1
  B  B19  1  0.78417697  0.20448945  0.53639181  1
  B  B20  1  0.71582276  0.20448994  0.66809818  1
  B  B21  1  0.71582246  0.46360899  0.79551073  1
  B  B22  1  0.71582224  0.33190222  0.53639191  1
  B  B23  1  0.28417724  0.53639177  0.33190182  1
  B  B24  1  0.28417754  0.66809826  0.20448927  1
  B  B25  1  0.28417776  0.79551031  0.46360809  1
  B  B26  1  0.10682998  0.74715034  0.41105388  1
  B  B27  1  0.10683077  0.66390399  0.25285074  1
  B  B28  1  0.10682882  0.58894579  0.33609654  1
  B  B29  1  0.89317002  0.33609645  0.58894612  1
  B  B30  1  0.89316923  0.41105325  0.74714926  1
  B  B31  1  0.89317118  0.25284925  0.66390346  1
  B  B32  1  0.60682919  0.25284961  0.58894629  1
  B  B33  1  0.60683073  0.33609649  0.74715032  1
  B  B34  1  0.60683086  0.41105382  0.66390361  1
  B  B35  1  0.39317081  0.66390332  0.41105371  1
  B  B36  1  0.39316927  0.58894617  0.25284968  1
  B  B37  1  0.39316914  0.74715021  0.33609639  1
  S  S38  1  0.17997755  0.93350947  0.32778991  1
  S  S39  1  0.17997757  0.39428264  0.06649156  1
  S  S40  1  0.17997798  0.67220861  0.60571735  1
  S  S41  1  0.82002245  0.60571956  0.67221009  1
  S  S42  1  0.82002243  0.32779107  0.93350844  1
  S  S43  1  0.82002202  0.06649126  0.39428265  1
  S  S44  1  0.67997717  0.06649031  0.67220899  1
  S  S45  1  0.67997766  0.60571878  0.93350904  1
  S  S46  1  0.67997709  0.32779004  0.39428190  1
  S  S47  1  0.32002283  0.39428131  0.32779101  1
  S  S48  1  0.32002234  0.67220974  0.06649096  1
  S  S49  1  0.32002291  0.93350814  0.60571810  1
  S  S50  1  0.94759093  0.83978344  0.49262011  1
  S  S51  1  0.94759706  0.65283822  0.16021282  1
  S  S52  1  0.94758263  0.50738616  0.34716178  1
  S  S53  1  0.05240907  0.34716333  0.50737989  1
  S  S54  1  0.05240294  0.49262539  0.83978718  1
  S  S55  1  0.05241737  0.16022437  0.65283822  1
  S  S56  1  0.44758366  0.16022289  0.50738520  1
  S  S57  1  0.44759208  0.34716324  0.83978443  1
  S  S58  1  0.44759828  0.49262594  0.65283797  1
  S  S59  1  0.55241634  0.65283769  0.49261480  1
  S  S60  1  0.55240792  0.50737881  0.16021557  1
  S  S61  1  0.55240172  0.83978796  0.34716203  1
  I  I62  1  0.25000024  0.00000023  -0.00000006  1
  I  I63  1  0.74999976  0.00000029  0.00000006  1
