# generated using pymatgen
data_Ba2TeO
_symmetry_space_group_name_H-M   'P 1'
_cell_length_a   5.09666846
_cell_length_b   5.09666846
_cell_length_c   10.13480055
_cell_angle_alpha   90.00000000
_cell_angle_beta   90.00000000
_cell_angle_gamma   90.00000000
_symmetry_Int_Tables_number   1
_chemical_formula_structural   Ba2TeO
_chemical_formula_sum   'Ba4 Te2 O2'
_cell_volume   263.26187696
_cell_formula_units_Z   2
loop_
 _symmetry_equiv_pos_site_id
 _symmetry_equiv_pos_as_xyz
  1  'x, y, z'
loop_
 _atom_site_type_symbol
 _atom_site_label
 _atom_site_symmetry_multiplicity
 _atom_site_fract_x
 _atom_site_fract_y
 _atom_site_fract_z
 _atom_site_occupancy
  Ba  Ba0  1  0.50000000  0.00000000  0.83379236  1
  Ba  Ba1  1  0.00000000  0.50000000  0.16620764  1
  Ba  Ba2  1  0.50000000  0.50000000  0.50000000  1
  Ba  Ba3  1  -0.00000000  0.00000000  0.50000000  1
  Te  Te4  1  0.00000000  0.50000000  0.79954019  1
  Te  Te5  1  0.50000000  -0.00000000  0.20045981  1
  O  O6  1  0.50000000  -0.00000000  0.58851196  1
  O  O7  1  -0.00000000  0.50000000  0.41148804  1
