# generated using pymatgen
data_Rb4Mn(AsS4)2
_symmetry_space_group_name_H-M   'P 1'
_cell_length_a   9.12099525
_cell_length_b   9.25424215
_cell_length_c   11.23344187
_cell_angle_alpha   105.71085686
_cell_angle_beta   104.14455462
_cell_angle_gamma   92.77873261
_symmetry_Int_Tables_number   1
_chemical_formula_structural   Rb4Mn(AsS4)2
_chemical_formula_sum   'Rb8 Mn2 As4 S16'
_cell_volume   878.39277566
_cell_formula_units_Z   2
loop_
 _symmetry_equiv_pos_site_id
 _symmetry_equiv_pos_as_xyz
  1  'x, y, z'
loop_
 _atom_site_type_symbol
 _atom_site_label
 _atom_site_symmetry_multiplicity
 _atom_site_fract_x
 _atom_site_fract_y
 _atom_site_fract_z
 _atom_site_occupancy
  Rb  Rb0  1  0.43344445  0.51674989  0.75022706  1
  Rb  Rb1  1  0.56655555  0.48325011  0.24977294  1
  Rb  Rb2  1  0.26405129  0.98334637  0.95941575  1
  Rb  Rb3  1  0.73594871  0.01665363  0.04058425  1
  Rb  Rb4  1  0.10204142  0.74045530  0.51926603  1
  Rb  Rb5  1  0.89795858  0.25954470  0.48073397  1
  Rb  Rb6  1  0.88092453  0.31851189  0.87969426  1
  Rb  Rb7  1  0.11907547  0.68148811  0.12030574  1
  Mn  Mn8  1  0.64921895  0.86266213  0.57419866  1
  Mn  Mn9  1  0.35078105  0.13733787  0.42580134  1
  As  As10  1  0.45314254  0.11137456  0.72662153  1
  As  As11  1  0.54685746  0.88862544  0.27337847  1
  As  As12  1  0.86634222  0.68741868  0.75552494  1
  As  As13  1  0.13365778  0.31258132  0.24447506  1
  S  S14  1  0.51429262  0.25894901  0.91768583  1
  S  S15  1  0.48570738  0.74105099  0.08231417  1
  S  S16  1  0.47320366  0.87902488  0.72716858  1
  S  S17  1  0.52679634  0.12097512  0.27283142  1
  S  S18  1  0.23045668  0.13250443  0.61204361  1
  S  S19  1  0.76954332  0.86749557  0.38795639  1
  S  S20  1  0.90453502  0.92353022  0.75409697  1
  S  S21  1  0.09546498  0.07646978  0.24590303  1
  S  S22  1  0.07143541  0.57931527  0.75916028  1
  S  S23  1  0.92856459  0.42068473  0.24083972  1
  S  S24  1  0.60346815  0.16515233  0.61505623  1
  S  S25  1  0.39653185  0.83484767  0.38494377  1
  S  S26  1  0.78521960  0.66913972  0.91522714  1
  S  S27  1  0.21478040  0.33086028  0.08477286  1
  S  S28  1  0.69027391  0.58749872  0.57601586  1
  S  S29  1  0.30972609  0.41250128  0.42398414  1
