# generated using pymatgen
data_DyNbO4
_symmetry_space_group_name_H-M   'P 1'
_cell_length_a   6.68789964
_cell_length_b   6.68789964
_cell_length_c   6.68789964
_cell_angle_alpha   133.75454945
_cell_angle_beta   133.75454945
_cell_angle_gamma   67.47163133
_symmetry_Int_Tables_number   1
_chemical_formula_structural   DyNbO4
_chemical_formula_sum   'Dy2 Nb2 O8'
_cell_volume   153.45232580
_cell_formula_units_Z   2
loop_
 _symmetry_equiv_pos_site_id
 _symmetry_equiv_pos_as_xyz
  1  'x, y, z'
loop_
 _atom_site_type_symbol
 _atom_site_label
 _atom_site_symmetry_multiplicity
 _atom_site_fract_x
 _atom_site_fract_y
 _atom_site_fract_z
 _atom_site_occupancy
  Dy  Dy0  1  0.00000000  0.00000000  0.00000000  1
  Dy  Dy1  1  0.75000000  0.25000000  0.50000000  1
  Nb  Nb2  1  0.49361900  0.49361900  0.00000000  1
  Nb  Nb3  1  0.24361900  0.74361900  0.50000000  1
  O  O4  1  0.98672100  0.40671300  0.07653400  1
  O  O5  1  0.33017900  0.91018700  0.92346600  1
  O  O6  1  0.76327900  0.84328700  0.42346600  1
  O  O7  1  0.41982100  0.33981300  0.57653400  1
  O  O8  1  0.66018700  0.23672100  0.08000800  1
  O  O9  1  0.15671300  0.58017900  0.91999200  1
  O  O10  1  0.08981300  0.01327900  0.41999200  1
  O  O11  1  0.59328700  0.66982100  0.58000800  1
