# generated using pymatgen
data_RbSn2(PO4)3
_symmetry_space_group_name_H-M   'P 1'
_cell_length_a   9.36760141
_cell_length_b   9.36760140
_cell_length_c   9.36760114
_cell_angle_alpha   52.83347371
_cell_angle_beta   52.83347375
_cell_angle_gamma   52.83347656
_symmetry_Int_Tables_number   1
_chemical_formula_structural   RbSn2(PO4)3
_chemical_formula_sum   'Rb2 Sn4 P6 O24'
_cell_volume   483.57028874
_cell_formula_units_Z   2
loop_
 _symmetry_equiv_pos_site_id
 _symmetry_equiv_pos_as_xyz
  1  'x, y, z'
loop_
 _atom_site_type_symbol
 _atom_site_label
 _atom_site_symmetry_multiplicity
 _atom_site_fract_x
 _atom_site_fract_y
 _atom_site_fract_z
 _atom_site_occupancy
  Rb  Rb0  1  0.50000000  0.50000000  0.50000000  1
  Rb  Rb1  1  -0.00000000  -0.00000000  0.00000000  1
  Sn  Sn2  1  0.35063469  0.35063469  0.35063469  1
  Sn  Sn3  1  0.64936531  0.64936531  0.64936531  1
  Sn  Sn4  1  0.84447905  0.84447905  0.84447905  1
  Sn  Sn5  1  0.15552095  0.15552095  0.15552095  1
  P  P6  1  0.24800036  0.96197712  0.53871448  1
  P  P7  1  0.53871448  0.24800036  0.96197712  1
  P  P8  1  0.96197712  0.53871448  0.24800036  1
  P  P9  1  0.75199964  0.03802288  0.46128552  1
  P  P10  1  0.46128552  0.75199964  0.03802288  1
  P  P11  1  0.03802288  0.46128552  0.75199964  1
  O  O12  1  0.04222250  0.96913955  0.67823885  1
  O  O13  1  0.67823885  0.04222250  0.96913955  1
  O  O14  1  0.96913955  0.67823885  0.04222250  1
  O  O15  1  0.95777750  0.03086045  0.32176115  1
  O  O16  1  0.32176115  0.95777750  0.03086045  1
  O  O17  1  0.03086045  0.32176115  0.95777750  1
  O  O18  1  0.26311709  0.12616627  0.52035498  1
  O  O19  1  0.52035498  0.26311709  0.12616627  1
  O  O20  1  0.12616627  0.52035498  0.26311709  1
  O  O21  1  0.73688291  0.87383373  0.47964502  1
  O  O22  1  0.47964502  0.73688291  0.87383373  1
  O  O23  1  0.87383373  0.47964502  0.73688291  1
  O  O24  1  0.39313678  0.77047833  0.62365518  1
  O  O25  1  0.62365518  0.39313678  0.77047833  1
  O  O26  1  0.77047833  0.62365518  0.39313678  1
  O  O27  1  0.60686322  0.22952167  0.37634482  1
  O  O28  1  0.37634482  0.60686322  0.22952167  1
  O  O29  1  0.22952167  0.37634482  0.60686322  1
  O  O30  1  0.29277151  0.97410309  0.34548053  1
  O  O31  1  0.34548053  0.29277151  0.97410309  1
  O  O32  1  0.97410309  0.34548053  0.29277151  1
  O  O33  1  0.70722849  0.02589691  0.65451947  1
  O  O34  1  0.65451947  0.70722849  0.02589691  1
  O  O35  1  0.02589691  0.65451947  0.70722849  1
