# generated using pymatgen
data_O2
_symmetry_space_group_name_H-M   'P 1'
_cell_length_a   5.54861342
_cell_length_b   5.54861383
_cell_length_c   5.54861329
_cell_angle_alpha   54.91014125
_cell_angle_beta   54.91013936
_cell_angle_gamma   54.91014979
_symmetry_Int_Tables_number   1
_chemical_formula_structural   O2
_chemical_formula_sum   O6
_cell_volume   106.48195432
_cell_formula_units_Z   3
loop_
 _symmetry_equiv_pos_site_id
 _symmetry_equiv_pos_as_xyz
  1  'x, y, z'
loop_
 _atom_site_type_symbol
 _atom_site_label
 _atom_site_symmetry_multiplicity
 _atom_site_fract_x
 _atom_site_fract_y
 _atom_site_fract_z
 _atom_site_occupancy
  O  O0  1  0.06750293  0.92856196  0.74406511  1
  O  O1  1  0.92856196  0.74406511  0.06750293  1
  O  O2  1  0.74406511  0.06750293  0.92856196  1
  O  O3  1  0.24406511  0.42856196  0.56750293  1
  O  O4  1  0.56750293  0.24406511  0.42856196  1
  O  O5  1  0.42856196  0.56750293  0.24406511  1
