# generated using pymatgen
data_KNaCaTh(Si2O5)4
_symmetry_space_group_name_H-M   'P 1'
_cell_length_a   7.57922865
_cell_length_b   7.57922865
_cell_length_c   14.72544399
_cell_angle_alpha   90.00000000
_cell_angle_beta   90.00000000
_cell_angle_gamma   90.00000000
_symmetry_Int_Tables_number   1
_chemical_formula_structural   KNaCaTh(Si2O5)4
_chemical_formula_sum   'K2 Na2 Ca2 Th2 Si16 O40'
_cell_volume   845.89881440
_cell_formula_units_Z   2
loop_
 _symmetry_equiv_pos_site_id
 _symmetry_equiv_pos_as_xyz
  1  'x, y, z'
loop_
 _atom_site_type_symbol
 _atom_site_label
 _atom_site_symmetry_multiplicity
 _atom_site_fract_x
 _atom_site_fract_y
 _atom_site_fract_z
 _atom_site_occupancy
  K  K0  1  -0.00000000  -0.00000000  0.50000000  1
  K  K1  1  -0.00000000  -0.00000000  0.00000000  1
  Na  Na2  1  -0.00000000  0.50000000  0.25000000  1
  Na  Na3  1  0.50000000  -0.00000000  0.75000000  1
  Ca  Ca4  1  0.50000000  -0.00000000  0.25000000  1
  Ca  Ca5  1  -0.00000000  0.50000000  0.75000000  1
  Th  Th6  1  -0.00000000  -0.00000000  0.25000000  1
  Th  Th7  1  -0.00000000  -0.00000000  0.75000000  1
  Si  Si8  1  0.25736916  0.33495076  0.39156942  1
  Si  Si9  1  0.74263084  0.66504924  0.39156942  1
  Si  Si10  1  0.66182008  0.26380551  0.39017942  1
  Si  Si11  1  0.33817992  0.73619449  0.39017942  1
  Si  Si12  1  0.73619449  0.33817992  0.89017942  1
  Si  Si13  1  0.26380551  0.66182008  0.89017942  1
  Si  Si14  1  0.33495076  0.25736916  0.89156942  1
  Si  Si15  1  0.66504924  0.74263084  0.89156942  1
  Si  Si16  1  0.73619449  0.66182008  0.60982058  1
  Si  Si17  1  0.26380551  0.33817992  0.60982058  1
  Si  Si18  1  0.33495076  0.74263084  0.60843058  1
  Si  Si19  1  0.66504924  0.25736916  0.60843058  1
  Si  Si20  1  0.25736916  0.66504924  0.10843058  1
  Si  Si21  1  0.74263084  0.33495076  0.10843058  1
  Si  Si22  1  0.66182008  0.73619449  0.10982058  1
  Si  Si23  1  0.33817992  0.26380551  0.10982058  1
  O  O24  1  0.09931443  0.23992614  0.34174683  1
  O  O25  1  0.90068557  0.76007386  0.34174683  1
  O  O26  1  0.74570241  0.10569611  0.33427237  1
  O  O27  1  0.25429759  0.89430389  0.33427237  1
  O  O28  1  0.89430389  0.25429759  0.83427237  1
  O  O29  1  0.10569611  0.74570241  0.83427237  1
  O  O30  1  0.23992614  0.09931443  0.84174683  1
  O  O31  1  0.76007386  0.90068557  0.84174683  1
  O  O32  1  0.89430389  0.74570241  0.66572763  1
  O  O33  1  0.10569611  0.25429759  0.66572763  1
  O  O34  1  0.23992614  0.90068557  0.65825317  1
  O  O35  1  0.76007386  0.09931443  0.65825317  1
  O  O36  1  0.09931443  0.76007386  0.15825317  1
  O  O37  1  0.90068557  0.23992614  0.15825317  1
  O  O38  1  0.74570241  0.89430389  0.16572763  1
  O  O39  1  0.25429759  0.10569611  0.16572763  1
  O  O40  1  0.23825447  0.31531538  0.50119306  1
  O  O41  1  0.76174553  0.68468462  0.50119306  1
  O  O42  1  0.68468462  0.23825447  0.49880694  1
  O  O43  1  0.31531538  0.76174553  0.49880694  1
  O  O44  1  0.76174553  0.31531538  0.99880694  1
  O  O45  1  0.23825447  0.68468462  0.99880694  1
  O  O46  1  0.31531538  0.23825447  0.00119306  1
  O  O47  1  0.68468462  0.76174553  0.00119306  1
  O  O48  1  0.45108934  0.25499388  0.36309424  1
  O  O49  1  0.54891066  0.74500612  0.36309424  1
  O  O50  1  0.74053676  0.45638613  0.36360812  1
  O  O51  1  0.25946324  0.54361387  0.36360812  1
  O  O52  1  0.54361387  0.25946324  0.86360812  1
  O  O53  1  0.45638613  0.74053676  0.86360812  1
  O  O54  1  0.25499388  0.45108934  0.86309424  1
  O  O55  1  0.74500612  0.54891066  0.86309424  1
  O  O56  1  0.54361387  0.74053676  0.63639188  1
  O  O57  1  0.45638613  0.25946324  0.63639188  1
  O  O58  1  0.25499388  0.54891066  0.63690576  1
  O  O59  1  0.74500612  0.45108934  0.63690576  1
  O  O60  1  0.45108934  0.74500612  0.13690576  1
  O  O61  1  0.54891066  0.25499388  0.13690576  1
  O  O62  1  0.74053676  0.54361387  0.13639188  1
  O  O63  1  0.25946324  0.45638613  0.13639188  1
