# generated using pymatgen
data_RhF6
_symmetry_space_group_name_H-M   'P 1'
_cell_length_a   4.86487498
_cell_length_b   8.42400876
_cell_length_c   9.18266997
_cell_angle_alpha   90.00043358
_cell_angle_beta   90.00056186
_cell_angle_gamma   89.99899147
_symmetry_Int_Tables_number   1
_chemical_formula_structural   RhF6
_chemical_formula_sum   'Rh4 F24'
_cell_volume   376.32187993
_cell_formula_units_Z   4
loop_
 _symmetry_equiv_pos_site_id
 _symmetry_equiv_pos_as_xyz
  1  'x, y, z'
loop_
 _atom_site_type_symbol
 _atom_site_label
 _atom_site_symmetry_multiplicity
 _atom_site_fract_x
 _atom_site_fract_y
 _atom_site_fract_z
 _atom_site_occupancy
  Rh  Rh0  1  0.91750494  0.75000704  0.62939937  1
  Rh  Rh1  1  0.08249506  0.24999296  0.37060063  1
  Rh  Rh2  1  0.41750218  0.24999392  0.87065285  1
  Rh  Rh3  1  0.58249782  0.75000608  0.12934715  1
  F  F4  1  0.22201507  0.75000778  0.51127986  1
  F  F5  1  0.77798493  0.24999222  0.48872014  1
  F  F6  1  0.72201221  0.24999358  0.98873151  1
  F  F7  1  0.27798779  0.75000642  0.01126849  1
  F  F8  1  0.61197530  0.75003063  0.74713041  1
  F  F9  1  0.38802470  0.24996937  0.25286959  1
  F  F10  1  0.11195783  0.24999097  0.75286902  1
  F  F11  1  0.88804217  0.75000903  0.24713098  1
  F  F12  1  0.75946846  0.59603773  0.51521981  1
  F  F13  1  0.24053154  0.40396227  0.48478019  1
  F  F14  1  0.25946566  0.40395880  0.98477669  1
  F  F15  1  0.24050956  0.09600634  0.48477850  1
  F  F16  1  0.74053434  0.59604120  0.01522331  1
  F  F17  1  0.75949044  0.90399366  0.51522150  1
  F  F18  1  0.74054616  0.90399001  0.01521269  1
  F  F19  1  0.25945384  0.09600999  0.98478731  1
  F  F20  1  0.07423779  0.59591007  0.74362609  1
  F  F21  1  0.92576221  0.40408993  0.25637391  1
  F  F22  1  0.57425639  0.40410381  0.75638926  1
  F  F23  1  0.92574367  0.09587555  0.25636163  1
  F  F24  1  0.42574361  0.59589619  0.24361074  1
  F  F25  1  0.07425633  0.90412445  0.74363837  1
  F  F26  1  0.42572992  0.90412964  0.24362048  1
  F  F27  1  0.57427008  0.09587036  0.75637952  1
