# generated using pymatgen
data_TlBi3F10
_symmetry_space_group_name_H-M   'P 1'
_cell_length_a   8.48437441
_cell_length_b   8.48437364
_cell_length_c   8.48437405
_cell_angle_alpha   59.99998136
_cell_angle_beta   59.99998426
_cell_angle_gamma   59.99998200
_symmetry_Int_Tables_number   1
_chemical_formula_structural   TlBi3F10
_chemical_formula_sum   'Tl2 Bi6 F20'
_cell_volume   431.86126113
_cell_formula_units_Z   2
loop_
 _symmetry_equiv_pos_site_id
 _symmetry_equiv_pos_as_xyz
  1  'x, y, z'
loop_
 _atom_site_type_symbol
 _atom_site_label
 _atom_site_symmetry_multiplicity
 _atom_site_fract_x
 _atom_site_fract_y
 _atom_site_fract_z
 _atom_site_occupancy
  Tl  Tl0  1  0.24999984  0.24999996  0.24999994  1
  Tl  Tl1  1  0.75000004  0.75000005  0.75000009  1
  Bi  Bi2  1  0.75933663  0.24066313  0.24066320  1
  Bi  Bi3  1  0.24066338  0.75933683  0.75933683  1
  Bi  Bi4  1  0.24066311  0.75933669  0.24066321  1
  Bi  Bi5  1  0.75933679  0.24066337  0.75933691  1
  Bi  Bi6  1  0.24066321  0.24066318  0.75933661  1
  Bi  Bi7  1  0.75933681  0.75933683  0.24066338  1
  F  F8  1  0.82889148  0.49999986  0.49999988  1
  F  F9  1  0.17110845  0.50000008  0.50000016  1
  F  F10  1  0.50000004  0.82889066  0.17110923  1
  F  F11  1  0.49999992  0.17110931  0.82889075  1
  F  F12  1  0.49999993  0.82889148  0.49999990  1
  F  F13  1  0.17110921  0.49999999  0.82889080  1
  F  F14  1  0.50000007  0.17110852  0.50000013  1
  F  F15  1  0.82889075  0.50000001  0.17110923  1
  F  F16  1  0.49999989  0.49999985  0.82889154  1
  F  F17  1  0.50000016  0.50000012  0.17110847  1
  F  F18  1  0.17110915  0.82889075  0.50000002  1
  F  F19  1  0.82889080  0.17110923  0.49999998  1
  F  F20  1  0.11329875  0.11329893  0.11329863  1
  F  F21  1  0.88670142  0.88670110  0.88670122  1
  F  F22  1  0.11329897  0.11329903  0.66010300  1
  F  F23  1  0.11329895  0.66010296  0.11329891  1
  F  F24  1  0.88670103  0.88670094  0.33989705  1
  F  F25  1  0.88670117  0.33989707  0.88670100  1
  F  F26  1  0.66010298  0.11329902  0.11329899  1
  F  F27  1  0.33989708  0.88670105  0.88670095  1
