# generated using pymatgen
data_MnZnF6
_symmetry_space_group_name_H-M   'P 1'
_cell_length_a   5.26130837
_cell_length_b   5.26128125
_cell_length_c   5.26134037
_cell_angle_alpha   55.53799399
_cell_angle_beta   55.53691664
_cell_angle_gamma   55.53714866
_symmetry_Int_Tables_number   1
_chemical_formula_structural   MnZnF6
_chemical_formula_sum   'Mn1 Zn1 F6'
_cell_volume   92.31441317
_cell_formula_units_Z   1
loop_
 _symmetry_equiv_pos_site_id
 _symmetry_equiv_pos_as_xyz
  1  'x, y, z'
loop_
 _atom_site_type_symbol
 _atom_site_label
 _atom_site_symmetry_multiplicity
 _atom_site_fract_x
 _atom_site_fract_y
 _atom_site_fract_z
 _atom_site_occupancy
  Mn  Mn0  1  -0.00000000  -0.00000000  -0.00000000  1
  Zn  Zn1  1  0.50000000  0.50000000  0.50000000  1
  F  F2  1  0.63130102  0.89886937  0.23322470  1
  F  F3  1  0.89888676  0.23328470  0.63121800  1
  F  F4  1  0.76676647  0.36865943  0.10112728  1
  F  F5  1  0.10111324  0.76671530  0.36878200  1
  F  F6  1  0.36869898  0.10113063  0.76677530  1
  F  F7  1  0.23323353  0.63134057  0.89887272  1
