# generated using pymatgen
data_Cd3PI3
_symmetry_space_group_name_H-M   'P 1'
_cell_length_a   4.46299462
_cell_length_b   7.37374914
_cell_length_c   7.80997803
_cell_angle_alpha   89.49382030
_cell_angle_beta   90.00000000
_cell_angle_gamma   90.00000000
_symmetry_Int_Tables_number   1
_chemical_formula_structural   Cd3PI3
_chemical_formula_sum   'Cd3 P1 I3'
_cell_volume   257.00855882
_cell_formula_units_Z   1
loop_
 _symmetry_equiv_pos_site_id
 _symmetry_equiv_pos_as_xyz
  1  'x, y, z'
loop_
 _atom_site_type_symbol
 _atom_site_label
 _atom_site_symmetry_multiplicity
 _atom_site_fract_x
 _atom_site_fract_y
 _atom_site_fract_z
 _atom_site_occupancy
  Cd  Cd0  1  -0.00000000  0.46971279  0.70810146  1
  Cd  Cd1  1  0.50000000  0.49397173  0.11852043  1
  Cd  Cd2  1  0.50000000  0.03910471  0.85030214  1
  P  P3  1  0.50000000  0.37586497  0.82176789  1
  I  I4  1  0.00000000  0.87538871  0.65801808  1
  I  I5  1  0.50000000  0.87257352  0.17742605  1
  I  I6  1  0.00000000  0.36538657  0.33252896  1
