# generated using pymatgen
data_TaAsO5
_symmetry_space_group_name_H-M   'P 1'
_cell_length_a   5.51991689
_cell_length_b   11.68113377
_cell_length_c   6.88135014
_cell_angle_alpha   90.00000000
_cell_angle_beta   90.00000000
_cell_angle_gamma   90.00000000
_symmetry_Int_Tables_number   1
_chemical_formula_structural   TaAsO5
_chemical_formula_sum   'Ta4 As4 O20'
_cell_volume   443.70180215
_cell_formula_units_Z   4
loop_
 _symmetry_equiv_pos_site_id
 _symmetry_equiv_pos_as_xyz
  1  'x, y, z'
loop_
 _atom_site_type_symbol
 _atom_site_label
 _atom_site_symmetry_multiplicity
 _atom_site_fract_x
 _atom_site_fract_y
 _atom_site_fract_z
 _atom_site_occupancy
  Ta  Ta0  1  0.75000000  0.94116600  0.83907012  1
  Ta  Ta1  1  0.25000000  0.05883400  0.16092988  1
  Ta  Ta2  1  0.25000000  0.55883400  0.33907012  1
  Ta  Ta3  1  0.75000000  0.44116600  0.66092988  1
  As  As4  1  0.75000000  0.15406557  0.47229118  1
  As  As5  1  0.25000000  0.84593443  0.52770882  1
  As  As6  1  0.25000000  0.34593443  0.97229118  1
  As  As7  1  0.75000000  0.65406557  0.02770882  1
  O  O8  1  0.75000000  0.79553956  0.98281708  1
  O  O9  1  0.25000000  0.20446044  0.01718292  1
  O  O10  1  0.25000000  0.70446044  0.48281708  1
  O  O11  1  0.75000000  0.29553956  0.51718292  1
  O  O12  1  0.50150291  0.87738430  0.65174822  1
  O  O13  1  0.49849709  0.12261570  0.34825178  1
  O  O14  1  0.49849709  0.62261570  0.15174822  1
  O  O15  1  0.00150291  0.12261570  0.34825178  1
  O  O16  1  0.50150291  0.37738430  0.84825178  1
  O  O17  1  -0.00150291  0.87738430  0.65174822  1
  O  O18  1  -0.00150291  0.37738430  0.84825178  1
  O  O19  1  0.00150291  0.62261570  0.15174822  1
  O  O20  1  0.75000000  0.58638911  0.81215359  1
  O  O21  1  0.25000000  0.41361089  0.18784641  1
  O  O22  1  0.25000000  0.91361089  0.31215359  1
  O  O23  1  0.75000000  0.08638911  0.68784641  1
  O  O24  1  0.00000000  -0.00000000  -0.00000000  1
  O  O25  1  0.00000000  0.50000000  0.50000000  1
  O  O26  1  0.50000000  -0.00000000  -0.00000000  1
  O  O27  1  0.50000000  0.50000000  0.50000000  1
