# generated using pymatgen
data_Sn(GeO3)2
_symmetry_space_group_name_H-M   'P 1'
_cell_length_a   9.07476933
_cell_length_b   5.60220918
_cell_length_c   9.67343994
_cell_angle_alpha   76.47819892
_cell_angle_beta   90.00000000
_cell_angle_gamma   90.00000000
_symmetry_Int_Tables_number   1
_chemical_formula_structural   Sn(GeO3)2
_chemical_formula_sum   'Sn4 Ge8 O24'
_cell_volume   478.15385827
_cell_formula_units_Z   4
loop_
 _symmetry_equiv_pos_site_id
 _symmetry_equiv_pos_as_xyz
  1  'x, y, z'
loop_
 _atom_site_type_symbol
 _atom_site_label
 _atom_site_symmetry_multiplicity
 _atom_site_fract_x
 _atom_site_fract_y
 _atom_site_fract_z
 _atom_site_occupancy
  Sn  Sn0  1  0.64865395  0.00574638  0.24991849  1
  Sn  Sn1  1  0.14865395  0.49425362  0.75008151  1
  Sn  Sn2  1  0.35134605  0.99425362  0.75008151  1
  Sn  Sn3  1  0.85134605  0.50574638  0.24991849  1
  Ge  Ge4  1  0.33685399  0.20169717  0.05379428  1
  Ge  Ge5  1  0.83685399  0.29830283  0.94620572  1
  Ge  Ge6  1  0.66314601  0.79830283  0.94620572  1
  Ge  Ge7  1  0.16314601  0.70169717  0.05379428  1
  Ge  Ge8  1  0.33792052  0.78947078  0.44727024  1
  Ge  Ge9  1  0.83792052  0.71052922  0.55272976  1
  Ge  Ge10  1  0.66207948  0.21052922  0.55272976  1
  Ge  Ge11  1  0.16207948  0.28947078  0.44727024  1
  O  O12  1  0.24676585  0.57061178  0.37907053  1
  O  O13  1  0.74676585  0.92938822  0.62092947  1
  O  O14  1  0.75323415  0.42938822  0.62092947  1
  O  O15  1  0.25323415  0.07061178  0.37907053  1
  O  O16  1  0.27337922  0.90345730  0.11884156  1
  O  O17  1  0.77337922  0.59654270  0.88115844  1
  O  O18  1  0.72662078  0.09654270  0.88115844  1
  O  O19  1  0.22662078  0.40345730  0.11884156  1
  O  O20  1  0.97779921  0.30632391  0.40175261  1
  O  O21  1  0.47779921  0.19367609  0.59824739  1
  O  O22  1  0.02220079  0.69367609  0.59824739  1
  O  O23  1  0.52220079  0.80632391  0.40175261  1
  O  O24  1  0.98094205  0.71040548  0.10298706  1
  O  O25  1  0.48094205  0.78959452  0.89701294  1
  O  O26  1  0.01905795  0.28959452  0.89701294  1
  O  O27  1  0.51905795  0.21040548  0.10298706  1
  O  O28  1  0.31971694  0.26809186  0.86347594  1
  O  O29  1  0.81971694  0.23190814  0.13652406  1
  O  O30  1  0.68028306  0.73190814  0.13652406  1
  O  O31  1  0.18028306  0.76809186  0.86347594  1
  O  O32  1  0.31996845  0.71976419  0.63743953  1
  O  O33  1  0.81996845  0.78023581  0.36256047  1
  O  O34  1  0.68003155  0.28023581  0.36256047  1
  O  O35  1  0.18003155  0.21976419  0.63743953  1
