# generated using pymatgen
data_Li9Mn2Co5O16
_symmetry_space_group_name_H-M   'P 1'
_cell_length_a   5.63571410
_cell_length_b   6.35265096
_cell_length_c   8.46544980
_cell_angle_alpha   82.23146052
_cell_angle_beta   109.45717427
_cell_angle_gamma   116.32923820
_symmetry_Int_Tables_number   1
_chemical_formula_structural   Li9Mn2Co5O16
_chemical_formula_sum   'Li9 Mn2 Co5 O16'
_cell_volume   256.09519514
_cell_formula_units_Z   1
loop_
 _symmetry_equiv_pos_site_id
 _symmetry_equiv_pos_as_xyz
  1  'x, y, z'
loop_
 _atom_site_type_symbol
 _atom_site_label
 _atom_site_symmetry_multiplicity
 _atom_site_fract_x
 _atom_site_fract_y
 _atom_site_fract_z
 _atom_site_occupancy
  Li  Li0  1  0.74637865  0.73451757  0.25860691  1
  Li  Li1  1  0.25869528  0.00843744  0.49169675  1
  Li  Li2  1  0.25147298  0.74185894  0.25998898  1
  Li  Li3  1  0.73740799  0.00741322  0.49182048  1
  Li  Li4  1  0.74632685  0.25635731  0.73922918  1
  Li  Li5  1  0.24547336  0.25411742  0.73997832  1
  Li  Li6  1  0.26552930  0.49833193  0.01200263  1
  Li  Li7  1  0.74630123  0.49630285  0.01157559  1
  Li  Li8  1  0.50877391  0.25717724  0.25978415  1
  Mn  Mn9  1  0.00583032  0.00204193  0.00477322  1
  Mn  Mn10  1  0.50123972  0.00208694  0.00475224  1
  Co  Co11  1  0.99659332  0.49850158  0.49761730  1
  Co  Co12  1  0.49887581  0.74932676  0.74806358  1
  Co  Co13  1  0.00126271  0.25279907  0.24937177  1
  Co  Co14  1  0.49965241  0.49848050  0.49767589  1
  Co  Co15  1  -0.00110911  0.74895992  0.74844956  1
  O  O16  1  0.10965124  0.00640466  0.23307945  1
  O  O17  1  0.63680414  0.27195095  0.50160757  1
  O  O18  1  0.63023883  0.00647325  0.23309072  1
  O  O19  1  0.12864757  0.27052016  0.48679943  1
  O  O20  1  0.13321835  0.52345509  0.74178917  1
  O  O21  1  0.63240556  0.52335480  0.74186264  1
  O  O22  1  0.63023802  0.76999896  0.98998527  1
  O  O23  1  0.13241682  0.77205505  0.99231854  1
  O  O24  1  0.36142310  0.48809905  0.25986618  1
  O  O25  1  0.87025551  0.72793334  0.51244528  1
  O  O26  1  0.88696632  0.48813588  0.25979629  1
  O  O27  1  0.37173102  0.73129956  0.51204572  1
  O  O28  1  0.37081272  0.98019789  0.76022077  1
  O  O29  1  0.86992881  0.98014215  0.76026531  1
  O  O30  1  0.86717879  0.22931483  0.00486080  1
  O  O31  1  0.35938246  0.22395275  0.99458132  1
