# generated using pymatgen
data_NaMn2Mo2H3O10
_symmetry_space_group_name_H-M   'P 1'
_cell_length_a   5.72054482
_cell_length_b   5.72054295
_cell_length_c   7.62115174
_cell_angle_alpha   68.71470359
_cell_angle_beta   68.71474308
_cell_angle_gamma   68.94924392
_symmetry_Int_Tables_number   1
_chemical_formula_structural   NaMn2Mo2H3O10
_chemical_formula_sum   'Na1 Mn2 Mo2 H3 O10'
_cell_volume   208.97394174
_cell_formula_units_Z   1
loop_
 _symmetry_equiv_pos_site_id
 _symmetry_equiv_pos_as_xyz
  1  'x, y, z'
loop_
 _atom_site_type_symbol
 _atom_site_label
 _atom_site_symmetry_multiplicity
 _atom_site_fract_x
 _atom_site_fract_y
 _atom_site_fract_z
 _atom_site_occupancy
  Na  Na0  1  0.50345189  0.49656270  0.49999848  1
  Mn  Mn1  1  0.00462767  0.49527721  0.00023011  1
  Mn  Mn2  1  0.50475002  0.99532166  0.99974170  1
  Mo  Mo3  1  0.91980616  0.91085659  0.29449028  1
  Mo  Mo4  1  0.08915309  0.08020162  0.70550518  1
  H  H5  1  0.68041329  0.67038479  0.77417639  1
  H  H6  1  0.32962502  0.31959559  0.22583514  1
  H  H7  1  0.50463218  0.49520268  0.00005757  1
  O  O8  1  0.76117446  0.75189774  0.52474212  1
  O  O9  1  0.24811013  0.23882600  0.47524228  1
  O  O10  1  0.83489025  0.82591411  0.12117975  1
  O  O11  1  0.17409826  0.16513491  0.87880812  1
  O  O12  1  0.64755601  0.63810503  0.91604555  1
  O  O13  1  0.36192184  0.35246973  0.08395609  1
  O  O14  1  0.81886763  0.25165923  0.26459876  1
  O  O15  1  0.26071625  0.81015299  0.26431637  1
  O  O16  1  0.18985412  0.73929184  0.73568455  1
  O  O17  1  0.74835374  0.18114757  0.73539256  1
