# generated using pymatgen
data_RbGe
_symmetry_space_group_name_H-M   'P 1'
_cell_length_a   11.11021974
_cell_length_b   11.11021974
_cell_length_c   11.96731132
_cell_angle_alpha   117.65782124
_cell_angle_beta   117.65782124
_cell_angle_gamma   90.00000000
_symmetry_Int_Tables_number   1
_chemical_formula_structural   RbGe
_chemical_formula_sum   'Rb16 Ge16'
_cell_volume   1114.34334986
_cell_formula_units_Z   16
loop_
 _symmetry_equiv_pos_site_id
 _symmetry_equiv_pos_as_xyz
  1  'x, y, z'
loop_
 _atom_site_type_symbol
 _atom_site_label
 _atom_site_symmetry_multiplicity
 _atom_site_fract_x
 _atom_site_fract_y
 _atom_site_fract_z
 _atom_site_occupancy
  Rb  Rb0  1  0.25000000  0.39256924  0.00000000  1
  Rb  Rb1  1  0.25000000  0.89256924  0.00000000  1
  Rb  Rb2  1  0.10743076  0.75000000  0.50000000  1
  Rb  Rb3  1  0.89256924  0.25000000  0.50000000  1
  Rb  Rb4  1  0.75000000  0.60743076  -0.00000000  1
  Rb  Rb5  1  0.75000000  0.10743076  -0.00000000  1
  Rb  Rb6  1  0.60743076  0.75000000  0.50000000  1
  Rb  Rb7  1  0.39256924  0.25000000  0.50000000  1
  Rb  Rb8  1  0.75399565  0.24600435  0.75000000  1
  Rb  Rb9  1  0.49600435  0.74600435  0.75000000  1
  Rb  Rb10  1  0.00399565  0.99600435  0.25000000  1
  Rb  Rb11  1  0.74600435  0.49600435  0.25000000  1
  Rb  Rb12  1  0.24600435  0.75399565  0.25000000  1
  Rb  Rb13  1  0.50399565  0.25399565  0.25000000  1
  Rb  Rb14  1  0.99600435  0.00399565  0.75000000  1
  Rb  Rb15  1  0.25399565  0.50399565  0.75000000  1
  Ge  Ge16  1  0.27434999  0.48517655  0.35038834  1
  Ge  Ge17  1  0.57603735  0.98517655  0.35038834  1
  Ge  Ge18  1  0.36521179  0.07603735  0.85038834  1
  Ge  Ge19  1  0.98517655  0.57603735  0.85038834  1
  Ge  Ge20  1  0.72565001  0.51482345  0.64961166  1
  Ge  Ge21  1  0.42396265  0.01482345  0.64961166  1
  Ge  Ge22  1  0.63478821  0.92396265  0.14961166  1
  Ge  Ge23  1  0.01482345  0.42396265  0.14961166  1
  Ge  Ge24  1  0.77434999  0.86521179  0.35038834  1
  Ge  Ge25  1  0.07603735  0.36521179  0.35038834  1
  Ge  Ge26  1  0.86521179  0.77434999  0.85038834  1
  Ge  Ge27  1  0.48517655  0.27434999  0.85038834  1
  Ge  Ge28  1  0.22565001  0.13478821  0.64961166  1
  Ge  Ge29  1  0.92396265  0.63478821  0.64961166  1
  Ge  Ge30  1  0.13478821  0.22565001  0.14961166  1
  Ge  Ge31  1  0.51482345  0.72565001  0.14961166  1
