# generated using pymatgen
data_Cs2LaCl5
_symmetry_space_group_name_H-M   'P 1'
_cell_length_a   8.59100865
_cell_length_b   9.23679713
_cell_length_c   13.88469198
_cell_angle_alpha   90.00000000
_cell_angle_beta   90.00000000
_cell_angle_gamma   90.00000000
_symmetry_Int_Tables_number   1
_chemical_formula_structural   Cs2LaCl5
_chemical_formula_sum   'Cs8 La4 Cl20'
_cell_volume   1101.79757269
_cell_formula_units_Z   4
loop_
 _symmetry_equiv_pos_site_id
 _symmetry_equiv_pos_as_xyz
  1  'x, y, z'
loop_
 _atom_site_type_symbol
 _atom_site_label
 _atom_site_symmetry_multiplicity
 _atom_site_fract_x
 _atom_site_fract_y
 _atom_site_fract_z
 _atom_site_occupancy
  Cs  Cs0  1  0.94646311  0.00534888  0.82912934  1
  Cs  Cs1  1  0.05353689  0.99465112  0.17087066  1
  Cs  Cs2  1  0.44646311  0.99465112  0.67087066  1
  Cs  Cs3  1  0.05353689  0.50534888  0.17087066  1
  Cs  Cs4  1  0.55353689  0.00534888  0.32912934  1
  Cs  Cs5  1  0.94646311  0.49465112  0.82912934  1
  Cs  Cs6  1  0.55353689  0.49465112  0.32912934  1
  Cs  Cs7  1  0.44646311  0.50534888  0.67087066  1
  La  La8  1  0.93346029  0.75000000  0.50359166  1
  La  La9  1  0.06653971  0.25000000  0.49640834  1
  La  La10  1  0.43346029  0.25000000  0.99640834  1
  La  La11  1  0.56653971  0.75000000  0.00359166  1
  Cl  Cl12  1  0.11661990  0.75000000  0.67077789  1
  Cl  Cl13  1  0.88338010  0.25000000  0.32922211  1
  Cl  Cl14  1  0.61661990  0.25000000  0.82922211  1
  Cl  Cl15  1  0.38338010  0.75000000  0.17077789  1
  Cl  Cl16  1  0.84337597  0.04051793  0.57090779  1
  Cl  Cl17  1  0.15662403  0.95948207  0.42909221  1
  Cl  Cl18  1  0.34337597  0.95948207  0.92909221  1
  Cl  Cl19  1  0.15662403  0.54051793  0.42909221  1
  Cl  Cl20  1  0.65662403  0.04051793  0.07090779  1
  Cl  Cl21  1  0.84337597  0.45948207  0.57090779  1
  Cl  Cl22  1  0.65662403  0.45948207  0.07090779  1
  Cl  Cl23  1  0.34337597  0.54051793  0.92909221  1
  Cl  Cl24  1  0.60501975  0.75000000  0.51235700  1
  Cl  Cl25  1  0.39498025  0.25000000  0.48764300  1
  Cl  Cl26  1  0.10501975  0.25000000  0.98764300  1
  Cl  Cl27  1  0.89498025  0.75000000  0.01235700  1
  Cl  Cl28  1  0.65212491  0.75000000  0.80767204  1
  Cl  Cl29  1  0.34787509  0.25000000  0.19232796  1
  Cl  Cl30  1  0.15212491  0.25000000  0.69232796  1
  Cl  Cl31  1  0.84787509  0.75000000  0.30767204  1
