# generated using pymatgen
data_MgGa4P6(HO3)6
_symmetry_space_group_name_H-M   'P 1'
_cell_length_a   8.49725624
_cell_length_b   8.84044004
_cell_length_c   7.08176256
_cell_angle_alpha   90.00000000
_cell_angle_beta   90.00000000
_cell_angle_gamma   121.79025955
_symmetry_Int_Tables_number   1
_chemical_formula_structural   MgGa4P6(HO3)6
_chemical_formula_sum   'Mg1 Ga4 P6 H6 O18'
_cell_volume   452.17216390
_cell_formula_units_Z   1
loop_
 _symmetry_equiv_pos_site_id
 _symmetry_equiv_pos_as_xyz
  1  'x, y, z'
loop_
 _atom_site_type_symbol
 _atom_site_label
 _atom_site_symmetry_multiplicity
 _atom_site_fract_x
 _atom_site_fract_y
 _atom_site_fract_z
 _atom_site_occupancy
  Mg  Mg0  1  0.32794384  0.38215508  0.75000000  1
  Ga  Ga1  1  0.34217920  0.69657675  0.57059626  1
  Ga  Ga2  1  0.67091776  0.33829016  0.04722669  1
  Ga  Ga3  1  0.67091776  0.33829016  0.45277331  1
  Ga  Ga4  1  0.34217920  0.69657675  0.92940374  1
  P  P5  1  0.85977824  0.19194921  0.75000000  1
  P  P6  1  0.62134477  0.97948186  0.25000000  1
  P  P7  1  0.35260500  0.40441383  0.25000000  1
  P  P8  1  0.75235940  0.63998551  0.75000000  1
  P  P9  1  0.35964700  0.08926939  0.75000000  1
  P  P10  1  0.04130208  0.65807046  0.25000000  1
  H  H11  1  0.88638835  0.82279524  0.75000000  1
  H  H12  1  0.96955844  0.76902518  0.25000000  1
  H  H13  1  0.81428106  0.06116822  0.25000000  1
  H  H14  1  0.16586066  0.00666462  0.75000000  1
  H  H15  1  0.75310670  0.00596218  0.75000000  1
  H  H16  1  0.21227507  0.22334614  0.25000000  1
  O  O17  1  0.06152579  0.24368650  0.75000000  1
  O  O18  1  0.58001772  0.13476851  0.25000000  1
  O  O19  1  0.54205154  0.41247735  0.25000000  1
  O  O20  1  0.56089372  0.61646969  0.75000000  1
  O  O21  1  0.15417342  0.70106245  0.06825788  1
  O  O22  1  0.42352819  0.21983670  0.57767857  1
  O  O23  1  0.78502983  0.56570132  0.56888372  1
  O  O24  1  0.32759949  0.48125166  0.06434728  1
  O  O25  1  0.55366146  0.86895001  0.06884674  1
  O  O26  1  0.80911908  0.25400864  0.56972154  1
  O  O27  1  0.80911908  0.25400864  0.93027846  1
  O  O28  1  0.55366146  0.86895001  0.43115326  1
  O  O29  1  0.32759949  0.48125166  0.43565272  1
  O  O30  1  0.78502983  0.56570132  0.93111628  1
  O  O31  1  0.42352819  0.21983670  0.92232143  1
  O  O32  1  0.15417342  0.70106245  0.43174212  1
  O  O33  1  0.87335432  0.45987916  0.25000000  1
  O  O34  1  0.41662244  0.95540948  0.75000000  1
