# generated using pymatgen
data_SrMg14VO16
_symmetry_space_group_name_H-M   'P 1'
_cell_length_a   8.67096477
_cell_length_b   8.67096477
_cell_length_c   4.39975943
_cell_angle_alpha   90.00000000
_cell_angle_beta   90.00000000
_cell_angle_gamma   90.00000000
_symmetry_Int_Tables_number   1
_chemical_formula_structural   SrMg14VO16
_chemical_formula_sum   'Sr1 Mg14 V1 O16'
_cell_volume   330.79868478
_cell_formula_units_Z   1
loop_
 _symmetry_equiv_pos_site_id
 _symmetry_equiv_pos_as_xyz
  1  'x, y, z'
loop_
 _atom_site_type_symbol
 _atom_site_label
 _atom_site_symmetry_multiplicity
 _atom_site_fract_x
 _atom_site_fract_y
 _atom_site_fract_z
 _atom_site_occupancy
  Sr  Sr0  1  0.50000000  0.50000000  -0.00000000  1
  Mg  Mg1  1  -0.00000000  0.50000000  -0.00000000  1
  Mg  Mg2  1  0.50000000  -0.00000000  -0.00000000  1
  Mg  Mg3  1  -0.00000000  0.25001100  0.50000000  1
  Mg  Mg4  1  -0.00000000  0.74998900  0.50000000  1
  Mg  Mg5  1  0.50000000  0.24009409  0.50000000  1
  Mg  Mg6  1  0.50000000  0.75990591  0.50000000  1
  Mg  Mg7  1  0.25001100  -0.00000000  0.50000000  1
  Mg  Mg8  1  0.24009409  0.50000000  0.50000000  1
  Mg  Mg9  1  0.74998900  -0.00000000  0.50000000  1
  Mg  Mg10  1  0.75990591  0.50000000  0.50000000  1
  Mg  Mg11  1  0.24472244  0.24472244  -0.00000000  1
  Mg  Mg12  1  0.24472244  0.75527756  -0.00000000  1
  Mg  Mg13  1  0.75527756  0.24472244  0.00000000  1
  Mg  Mg14  1  0.75527756  0.75527756  0.00000000  1
  V  V15  1  -0.00000000  -0.00000000  -0.00000000  1
  O  O16  1  0.25115671  -0.00000000  -0.00000000  1
  O  O17  1  0.22873047  0.50000000  -0.00000000  1
  O  O18  1  0.74884329  -0.00000000  -0.00000000  1
  O  O19  1  0.77126953  0.50000000  -0.00000000  1
  O  O20  1  0.24928312  0.24928312  0.50000000  1
  O  O21  1  0.24928312  0.75071688  0.50000000  1
  O  O22  1  0.75071688  0.24928312  0.50000000  1
  O  O23  1  0.75071688  0.75071688  0.50000000  1
  O  O24  1  -0.00000000  -0.00000000  0.50000000  1
  O  O25  1  -0.00000000  0.50000000  0.50000000  1
  O  O26  1  0.50000000  -0.00000000  0.50000000  1
  O  O27  1  0.50000000  0.50000000  0.50000000  1
  O  O28  1  -0.00000000  0.25115671  -0.00000000  1
  O  O29  1  -0.00000000  0.74884329  0.00000000  1
  O  O30  1  0.50000000  0.22873047  -0.00000000  1
  O  O31  1  0.50000000  0.77126953  -0.00000000  1
