# generated using pymatgen
data_Na2Zn2Se3
_symmetry_space_group_name_H-M   'P 1'
_cell_length_a   10.23537428
_cell_length_b   10.23537428
_cell_length_c   6.99793499
_cell_angle_alpha   70.19453228
_cell_angle_beta   70.19453228
_cell_angle_gamma   83.64532696
_symmetry_Int_Tables_number   1
_chemical_formula_structural   Na2Zn2Se3
_chemical_formula_sum   'Na8 Zn8 Se12'
_cell_volume   648.95112481
_cell_formula_units_Z   4
loop_
 _symmetry_equiv_pos_site_id
 _symmetry_equiv_pos_as_xyz
  1  'x, y, z'
loop_
 _atom_site_type_symbol
 _atom_site_label
 _atom_site_symmetry_multiplicity
 _atom_site_fract_x
 _atom_site_fract_y
 _atom_site_fract_z
 _atom_site_occupancy
  Na  Na0  1  0.43262481  0.56737519  0.75000000  1
  Na  Na1  1  0.56737519  0.43262481  0.25000000  1
  Na  Na2  1  0.71773204  0.28226796  0.75000000  1
  Na  Na3  1  0.28226796  0.71773204  0.25000000  1
  Na  Na4  1  0.80728518  0.97744803  0.64012731  1
  Na  Na5  1  0.02255197  0.19271482  0.85987269  1
  Na  Na6  1  0.19271482  0.02255197  0.35987269  1
  Na  Na7  1  0.97744803  0.80728518  0.14012731  1
  Zn  Zn8  1  0.36348184  0.20771147  0.79697413  1
  Zn  Zn9  1  0.79228853  0.63651816  0.70302587  1
  Zn  Zn10  1  0.63651816  0.79228853  0.20302587  1
  Zn  Zn11  1  0.20771147  0.36348184  0.29697413  1
  Zn  Zn12  1  0.08104481  0.54905098  0.76142491  1
  Zn  Zn13  1  0.45094902  0.91895519  0.73857509  1
  Zn  Zn14  1  0.91895519  0.45094902  0.23857509  1
  Zn  Zn15  1  0.54905098  0.08104481  0.26142491  1
  Se  Se16  1  0.27372189  0.42275662  0.57053357  1
  Se  Se17  1  0.57724338  0.72627811  0.92946643  1
  Se  Se18  1  0.72627811  0.57724338  0.42946643  1
  Se  Se19  1  0.42275662  0.27372189  0.07053357  1
  Se  Se20  1  0.58234726  0.14871349  0.55077196  1
  Se  Se21  1  0.85128651  0.41765274  0.94922804  1
  Se  Se22  1  0.41765274  0.85128651  0.44922804  1
  Se  Se23  1  0.14871349  0.58234726  0.05077196  1
  Se  Se24  1  0.00704732  0.77095185  0.55718415  1
  Se  Se25  1  0.22904815  0.99295268  0.94281585  1
  Se  Se26  1  0.99295268  0.22904815  0.44281585  1
  Se  Se27  1  0.77095185  0.00704732  0.05718415  1
