# generated using pymatgen
data_CaV6O11F
_symmetry_space_group_name_H-M   'P 1'
_cell_length_a   5.15480296
_cell_length_b   5.08772917
_cell_length_c   10.09151505
_cell_angle_alpha   99.52592896
_cell_angle_beta   89.60959403
_cell_angle_gamma   105.24911355
_symmetry_Int_Tables_number   1
_chemical_formula_structural   CaV6O11F
_chemical_formula_sum   'Ca1 V6 O11 F1'
_cell_volume   251.63558886
_cell_formula_units_Z   1
loop_
 _symmetry_equiv_pos_site_id
 _symmetry_equiv_pos_as_xyz
  1  'x, y, z'
loop_
 _atom_site_type_symbol
 _atom_site_label
 _atom_site_symmetry_multiplicity
 _atom_site_fract_x
 _atom_site_fract_y
 _atom_site_fract_z
 _atom_site_occupancy
  Ca  Ca0  1  0.21837000  0.76663500  0.67621800  1
  V  V1  1  0.06779100  0.90095000  0.04480000  1
  V  V2  1  0.03938100  0.06176700  0.33156000  1
  V  V3  1  0.86463300  0.10096400  0.62498600  1
  V  V4  1  0.62463800  0.38560500  0.15686600  1
  V  V5  1  0.42755300  0.45596800  0.87903100  1
  V  V6  1  0.69010700  0.55538700  0.44706600  1
  O  O7  1  0.19951400  0.81352100  0.17603800  1
  O  O8  1  0.05330800  0.87363900  0.48828100  1
  O  O9  1  0.22643300  0.74208900  0.90275100  1
  O  O10  1  0.31841900  0.24659100  0.02926900  1
  O  O11  1  0.38003100  0.28249400  0.33323700  1
  O  O12  1  0.18280600  0.25581600  0.72968600  1
  O  O13  1  0.73965800  0.64063200  0.00834200  1
  O  O14  1  0.73273500  0.71776400  0.28898200  1
  O  O15  1  0.62591300  0.73325900  0.62504400  1
  O  O16  1  0.87590200  0.15834200  0.16689500  1
  O  O17  1  0.87828100  0.28567500  0.47203600  1
  F  F18  1  0.66008500  0.21734000  0.79033700  1
