# generated using pymatgen
data_RbAlBr4
_symmetry_space_group_name_H-M   'P 1'
_cell_length_a   7.53004075
_cell_length_b   9.87716044
_cell_length_c   11.82817757
_cell_angle_alpha   90.00000000
_cell_angle_beta   90.00000000
_cell_angle_gamma   90.00000000
_symmetry_Int_Tables_number   1
_chemical_formula_structural   RbAlBr4
_chemical_formula_sum   'Rb4 Al4 Br16'
_cell_volume   879.72568179
_cell_formula_units_Z   4
loop_
 _symmetry_equiv_pos_site_id
 _symmetry_equiv_pos_as_xyz
  1  'x, y, z'
loop_
 _atom_site_type_symbol
 _atom_site_label
 _atom_site_symmetry_multiplicity
 _atom_site_fract_x
 _atom_site_fract_y
 _atom_site_fract_z
 _atom_site_occupancy
  Rb  Rb0  1  0.25000000  0.66519796  0.18094876  1
  Rb  Rb1  1  0.75000000  0.33480204  0.81905124  1
  Rb  Rb2  1  0.75000000  0.16519796  0.31905124  1
  Rb  Rb3  1  0.25000000  0.83480204  0.68094876  1
  Al  Al4  1  0.25000000  0.19046404  0.06218923  1
  Al  Al5  1  0.75000000  0.80953596  0.93781077  1
  Al  Al6  1  0.75000000  0.69046404  0.43781077  1
  Al  Al7  1  0.25000000  0.30953596  0.56218923  1
  Br  Br8  1  0.25000000  0.40610128  0.38579790  1
  Br  Br9  1  0.75000000  0.59389872  0.61420210  1
  Br  Br10  1  0.75000000  0.90610128  0.11420210  1
  Br  Br11  1  0.25000000  0.09389872  0.88579790  1
  Br  Br12  1  0.25000000  0.03466968  0.20657625  1
  Br  Br13  1  0.75000000  0.96533032  0.79342375  1
  Br  Br14  1  0.75000000  0.53466968  0.29342375  1
  Br  Br15  1  0.25000000  0.46533032  0.70657625  1
  Br  Br16  1  0.00155036  0.32693116  0.08066095  1
  Br  Br17  1  -0.00155036  0.67306884  0.91933905  1
  Br  Br18  1  -0.00155036  0.82693116  0.41933905  1
  Br  Br19  1  0.50155036  0.67306884  0.91933905  1
  Br  Br20  1  0.00155036  0.17306884  0.58066095  1
  Br  Br21  1  0.49844964  0.32693116  0.08066095  1
  Br  Br22  1  0.49844964  0.17306884  0.58066095  1
  Br  Br23  1  0.50155036  0.82693116  0.41933905  1
