# generated using pymatgen
data_MnHO2
_symmetry_space_group_name_H-M   'P 1'
_cell_length_a   6.07632000
_cell_length_b   6.10186800
_cell_length_c   9.00165200
_cell_angle_alpha   90.00000000
_cell_angle_beta   90.00000000
_cell_angle_gamma   90.00000000
_symmetry_Int_Tables_number   1
_chemical_formula_structural   MnHO2
_chemical_formula_sum   'Mn8 H8 O16'
_cell_volume   333.75337413
_cell_formula_units_Z   8
loop_
 _symmetry_equiv_pos_site_id
 _symmetry_equiv_pos_as_xyz
  1  'x, y, z'
loop_
 _atom_site_type_symbol
 _atom_site_label
 _atom_site_symmetry_multiplicity
 _atom_site_fract_x
 _atom_site_fract_y
 _atom_site_fract_z
 _atom_site_occupancy
  Mn  Mn0  1  0.71890700  0.25075600  0.50053300  1
  Mn  Mn1  1  0.28109300  0.75075600  0.99946700  1
  Mn  Mn2  1  0.21890700  0.24924400  0.49946700  1
  Mn  Mn3  1  0.78109300  0.74924400  0.00053300  1
  Mn  Mn4  1  0.49984700  0.02941200  0.25032700  1
  Mn  Mn5  1  0.99984700  0.47058800  0.74967300  1
  Mn  Mn6  1  0.50015300  0.52941200  0.24967300  1
  Mn  Mn7  1  0.00015300  0.97058800  0.75032700  1
  H  H8  1  0.54450400  0.17063300  0.98906300  1
  H  H9  1  0.95549600  0.82936700  0.48906300  1
  H  H10  1  0.07420100  0.28511700  0.23946500  1
  H  H11  1  0.42579900  0.71488300  0.73946500  1
  H  H12  1  0.45549600  0.67063300  0.51093700  1
  H  H13  1  0.04450400  0.32936700  0.01093700  1
  H  H14  1  0.92579900  0.78511700  0.26053500  1
  H  H15  1  0.57420100  0.21488300  0.76053500  1
  O  O16  1  0.47077900  0.05402500  0.47122300  1
  O  O17  1  0.02895800  0.47723200  0.97034000  1
  O  O18  1  0.47104200  0.52276800  0.47034000  1
  O  O19  1  0.02922100  0.94597500  0.97122300  1
  O  O20  1  0.69591100  0.27713500  0.27856900  1
  O  O21  1  0.27462900  0.72787100  0.77759500  1
  O  O22  1  0.22537100  0.27212900  0.27759500  1
  O  O23  1  0.80408900  0.72286500  0.77856900  1
  O  O24  1  0.52922100  0.55402500  0.02877700  1
  O  O25  1  0.97104200  0.97723200  0.52966000  1
  O  O26  1  0.52895800  0.02276800  0.02966000  1
  O  O27  1  0.97077900  0.44597500  0.52877700  1
  O  O28  1  0.77462900  0.77212900  0.22240500  1
  O  O29  1  0.19591100  0.22286500  0.72143100  1
  O  O30  1  0.30408900  0.77713500  0.22143100  1
  O  O31  1  0.72537100  0.22787100  0.72240500  1
