# generated using pymatgen
data_ZnHIO4
_symmetry_space_group_name_H-M   'P 1'
_cell_length_a   5.49062100
_cell_length_b   6.42136829
_cell_length_c   6.49405885
_cell_angle_alpha   87.42944496
_cell_angle_beta   64.99219106
_cell_angle_gamma   83.90990428
_symmetry_Int_Tables_number   1
_chemical_formula_structural   ZnHIO4
_chemical_formula_sum   'Zn2 H2 I2 O8'
_cell_volume   206.32668486
_cell_formula_units_Z   2
loop_
 _symmetry_equiv_pos_site_id
 _symmetry_equiv_pos_as_xyz
  1  'x, y, z'
loop_
 _atom_site_type_symbol
 _atom_site_label
 _atom_site_symmetry_multiplicity
 _atom_site_fract_x
 _atom_site_fract_y
 _atom_site_fract_z
 _atom_site_occupancy
  Zn  Zn0  1  0.53531200  0.36426400  0.91586800  1
  Zn  Zn1  1  0.45118100  0.86426400  0.08413200  1
  H  H2  1  0.12968600  0.60603400  0.12068700  1
  H  H3  1  0.25037400  0.10603400  0.87931300  1
  I  I4  1  0.69412800  0.13465300  0.36847600  1
  I  I5  1  0.06260400  0.63465300  0.63152400  1
  O  O6  1  0.77838000  0.23102000  0.07709700  1
  O  O7  1  0.85547700  0.73102000  0.92290300  1
  O  O8  1  0.01563800  0.99866800  0.33110100  1
  O  O9  1  0.34673900  0.49866800  0.66889900  1
  O  O10  1  0.50592600  0.91268100  0.36731000  1
  O  O11  1  0.87323600  0.41268100  0.63269000  1
  O  O12  1  0.29966500  0.58468000  0.13639000  1
  O  O13  1  0.43605500  0.08468000  0.86361000  1
