# generated using pymatgen
data_Sr10P6O25
_symmetry_space_group_name_H-M   'P 1'
_cell_length_a   9.73090617
_cell_length_b   9.73091984
_cell_length_c   7.24983611
_cell_angle_alpha   89.99998159
_cell_angle_beta   89.99995617
_cell_angle_gamma   119.99995582
_symmetry_Int_Tables_number   1
_chemical_formula_structural   Sr10P6O25
_chemical_formula_sum   'Sr10 P6 O25'
_cell_volume   594.51962288
_cell_formula_units_Z   1
loop_
 _symmetry_equiv_pos_site_id
 _symmetry_equiv_pos_as_xyz
  1  'x, y, z'
loop_
 _atom_site_type_symbol
 _atom_site_label
 _atom_site_symmetry_multiplicity
 _atom_site_fract_x
 _atom_site_fract_y
 _atom_site_fract_z
 _atom_site_occupancy
  Sr  Sr0  1  -0.00000630  -0.00000579  0.52091303  1
  Sr  Sr1  1  0.66666604  0.33333334  0.98057041  1
  Sr  Sr2  1  0.66666921  0.33333467  0.48722027  1
  Sr  Sr3  1  0.00000065  0.00000019  0.01306182  1
  Sr  Sr4  1  0.10921832  0.42999229  0.75875444  1
  Sr  Sr5  1  0.57000881  0.67922673  0.75876055  1
  Sr  Sr6  1  0.32077217  0.89078569  0.75875439  1
  Sr  Sr7  1  0.58559426  0.93463554  0.24206883  1
  Sr  Sr8  1  0.06536789  0.65095791  0.24206405  1
  Sr  Sr9  1  0.34904078  0.41440137  0.24206716  1
  P  P10  1  0.36337870  0.29205248  0.74630282  1
  P  P11  1  0.70794817  0.07132575  0.74630583  1
  P  P12  1  0.92867345  0.63662115  0.74630250  1
  P  P13  1  0.30492626  0.02853618  0.25061404  1
  P  P14  1  0.97146436  0.27639032  0.25061023  1
  P  P15  1  0.72361230  0.69507361  0.25061386  1
  O  O16  1  0.40406687  0.40843822  0.58417449  1
  O  O17  1  0.59156291  -0.00436708  0.58417455  1
  O  O18  1  0.00436885  0.59593149  0.58417055  1
  O  O19  1  0.23635576  0.93377368  0.07146593  1
  O  O20  1  0.06622985  0.30258422  0.07146840  1
  O  O21  1  0.69741058  0.76364619  0.07147580  1
  O  O22  1  0.27204099  0.90562695  0.40328268  1
  O  O23  1  0.09437224  0.36641051  0.40328335  1
  O  O24  1  0.63360164  0.72796964  0.40329731  1
  O  O25  1  0.42784446  0.38815928  0.92606070  1
  O  O26  1  0.61183755  0.03968860  0.92606435  1
  O  O27  1  0.96031423  0.57214930  0.92606510  1
  O  O28  1  0.44796052  0.19546838  0.72006393  1
  O  O29  1  0.80453448  0.25249399  0.72006637  1
  O  O30  1  0.74750339  0.55203908  0.72006713  1
  O  O31  1  0.21771345  0.12212751  0.28627442  1
  O  O32  1  0.87786982  0.09558608  0.28626919  1
  O  O33  1  0.90441760  0.78228021  0.28626361  1
  O  O34  1  0.18244508  0.18373844  0.75890935  1
  O  O35  1  0.81625721  -0.00129434  0.75891639  1
  O  O36  1  0.00129370  0.81755464  0.75891565  1
  O  O37  1  0.48464990  0.14508903  0.23743347  1
  O  O38  1  0.85491512  0.33956320  0.23743129  1
  O  O39  1  0.66043059  0.51534920  0.23743687  1
  O  O40  1  0.33333213  0.66667115  0.86801890  1
