# generated using pymatgen
data_V4(OF3)3
_symmetry_space_group_name_H-M   'P 1'
_cell_length_a   5.20746600
_cell_length_b   5.40855692
_cell_length_c   9.18582643
_cell_angle_alpha   106.97245529
_cell_angle_beta   89.66658976
_cell_angle_gamma   118.54672912
_symmetry_Int_Tables_number   1
_chemical_formula_structural   V4(OF3)3
_chemical_formula_sum   'V4 O3 F9'
_cell_volume   214.59725154
_cell_formula_units_Z   1
loop_
 _symmetry_equiv_pos_site_id
 _symmetry_equiv_pos_as_xyz
  1  'x, y, z'
loop_
 _atom_site_type_symbol
 _atom_site_label
 _atom_site_symmetry_multiplicity
 _atom_site_fract_x
 _atom_site_fract_y
 _atom_site_fract_z
 _atom_site_occupancy
  V  V0  1  0.74919400  0.25014500  0.25024800  1
  V  V1  1  0.52195300  0.48789700  0.49901400  1
  V  V2  1  0.21733500  0.73606100  0.74493900  1
  V  V3  1  0.97837800  0.01263800  0.00288200  1
  O  O4  1  0.84163800  0.15708600  0.08072800  1
  O  O5  1  0.85512300  0.58959200  0.66880000  1
  O  O6  1  0.65594800  0.34153100  0.41857000  1
  F  F7  1  0.32692100  0.07005000  0.16958100  1
  F  F8  1  0.34788100  0.67316100  0.58256400  1
  F  F9  1  0.77739600  0.61921300  0.11956600  1
  F  F10  1  0.72000200  0.87991200  0.37786200  1
  F  F11  1  0.16992000  0.42947600  0.33169400  1
  F  F12  1  0.16937100  0.83313100  0.92164300  1
  F  F13  1  0.28612600  0.12988600  0.63096100  1
  F  F14  1  0.22255400  0.37492300  0.87496300  1
  F  F15  1  0.66026100  0.91529900  0.82598400  1
