# generated using pymatgen
data_Sr(TbSe2)2
_symmetry_space_group_name_H-M   'P 1'
_cell_length_a   4.15810987
_cell_length_b   12.60598020
_cell_length_c   14.99655682
_cell_angle_alpha   89.99270802
_cell_angle_beta   90.00154225
_cell_angle_gamma   89.99922688
_symmetry_Int_Tables_number   1
_chemical_formula_structural   Sr(TbSe2)2
_chemical_formula_sum   'Sr4 Tb8 Se16'
_cell_volume   786.07527284
_cell_formula_units_Z   4
loop_
 _symmetry_equiv_pos_site_id
 _symmetry_equiv_pos_as_xyz
  1  'x, y, z'
loop_
 _atom_site_type_symbol
 _atom_site_label
 _atom_site_symmetry_multiplicity
 _atom_site_fract_x
 _atom_site_fract_y
 _atom_site_fract_z
 _atom_site_occupancy
  Sr  Sr0  1  0.75002344  0.74157358  0.16434199  1
  Sr  Sr1  1  0.74989134  0.24149119  0.33568391  1
  Sr  Sr2  1  0.25005041  0.25861720  0.83569275  1
  Sr  Sr3  1  0.24994652  0.75856428  0.66428115  1
  Tb  Tb4  1  0.74984539  0.06513833  0.11046542  1
  Tb  Tb5  1  0.75012113  0.56519909  0.38952416  1
  Tb  Tb6  1  0.25002249  0.93488493  0.88933261  1
  Tb  Tb7  1  0.25006592  0.43506263  0.61062894  1
  Tb  Tb8  1  0.74983407  0.08209961  0.59874186  1
  Tb  Tb9  1  0.75001396  0.58213360  0.90126081  1
  Tb  Tb10  1  0.25002906  0.91783851  0.40120233  1
  Tb  Tb11  1  0.25010238  0.41773445  0.09886803  1
  Se  Se12  1  0.75003730  0.29355687  0.67397018  1
  Se  Se13  1  0.75008532  0.79348935  0.82598234  1
  Se  Se14  1  0.25012006  0.70647417  0.32597136  1
  Se  Se15  1  0.24970972  0.20640501  0.17403536  1
  Se  Se16  1  0.75010740  0.36916508  0.97067622  1
  Se  Se17  1  0.74992691  0.86918230  0.52930441  1
  Se  Se18  1  0.24998752  0.63071815  0.02936335  1
  Se  Se19  1  0.24976930  0.13073570  0.47064668  1
  Se  Se20  1  0.75020017  0.47488095  0.21565337  1
  Se  Se21  1  0.75007168  0.97491520  0.28440950  1
  Se  Se22  1  0.25004848  0.52497223  0.78450530  1
  Se  Se23  1  0.24978828  0.02498372  0.71550641  1
  Se  Se24  1  0.75003849  0.08858412  0.92161356  1
  Se  Se25  1  0.75008149  0.58869431  0.57837185  1
  Se  Se26  1  0.24988376  0.91141395  0.07818976  1
  Se  Se27  1  0.25019701  0.41149051  0.42177737  1
