# generated using pymatgen
data_MgFe6Sb10(IO3)6
_symmetry_space_group_name_H-M   'P 1'
_cell_length_a   8.20327850
_cell_length_b   9.29631621
_cell_length_c   12.99351090
_cell_angle_alpha   76.71213381
_cell_angle_beta   87.40652653
_cell_angle_gamma   73.34003142
_symmetry_Int_Tables_number   1
_chemical_formula_structural   MgFe6Sb10(IO3)6
_chemical_formula_sum   'Mg1 Fe6 Sb10 I6 O18'
_cell_volume   923.65273978
_cell_formula_units_Z   1
loop_
 _symmetry_equiv_pos_site_id
 _symmetry_equiv_pos_as_xyz
  1  'x, y, z'
loop_
 _atom_site_type_symbol
 _atom_site_label
 _atom_site_symmetry_multiplicity
 _atom_site_fract_x
 _atom_site_fract_y
 _atom_site_fract_z
 _atom_site_occupancy
  Mg  Mg0  1  0.74246721  0.30485728  0.73384628  1
  Fe  Fe1  1  0.73914641  0.95873742  0.33468261  1
  Fe  Fe2  1  0.27559299  0.02173104  0.65465159  1
  Fe  Fe3  1  0.03071539  0.95006076  0.12883432  1
  Fe  Fe4  1  0.99899344  0.00899163  0.88389520  1
  Fe  Fe5  1  0.62074578  0.09321412  0.05757511  1
  Fe  Fe6  1  0.38633719  0.92709661  0.94426901  1
  Sb  Sb7  1  0.88059468  0.15090988  0.48956023  1
  Sb  Sb8  1  0.12263346  0.80048877  0.51733099  1
  Sb  Sb9  1  0.27634034  0.12228464  0.25834897  1
  Sb  Sb10  1  0.71979212  0.91648148  0.74240683  1
  Sb  Sb11  1  0.40560774  0.28231917  0.76490945  1
  Sb  Sb12  1  0.48257040  0.77484991  0.22951453  1
  Sb  Sb13  1  0.19798396  0.26203833  0.99547352  1
  Sb  Sb14  1  0.80137839  0.74872685  0.00779140  1
  Sb  Sb15  1  0.82145706  0.29518139  0.20196283  1
  Sb  Sb16  1  0.18127992  0.69761833  0.80465969  1
  I  I17  1  0.73318585  0.38254050  0.93294524  1
  I  I18  1  0.28747604  0.64797418  0.06234747  1
  I  I19  1  0.92670804  0.67658522  0.28984786  1
  I  I20  1  0.01758629  0.36632026  0.61038354  1
  I  I21  1  0.50778793  0.28190948  0.38711575  1
  I  I22  1  0.50232028  0.70891795  0.61920200  1
  O  O23  1  0.14957573  0.06246841  0.98532056  1
  O  O24  1  0.85370754  0.94665666  0.01703131  1
  O  O25  1  0.87994369  0.93849088  0.46299088  1
  O  O26  1  0.13716360  0.01265520  0.53151251  1
  O  O27  1  0.79630784  0.09118867  0.18881971  1
  O  O28  1  0.21321064  0.90679394  0.80529527  1
  O  O29  1  0.43438256  0.15612945  0.92222380  1
  O  O30  1  0.56254983  0.86566853  0.08609217  1
  O  O31  1  0.81581720  0.07969889  0.76841742  1
  O  O32  1  0.23974476  0.92589310  0.21894131  1
  O  O33  1  0.46408109  0.08158140  0.71035525  1
  O  O34  1  0.51725421  0.94097903  0.29473799  1
  O  O35  1  0.05928418  0.23600680  0.14383977  1
  O  O36  1  0.94612796  0.76994943  0.86308772  1
  O  O37  1  0.05053687  0.75899700  0.66548966  1
  O  O38  1  0.94993534  0.21422018  0.34209803  1
  O  O39  1  0.62469617  0.84554816  0.88856984  1
  O  O40  1  0.38135488  0.18723809  0.11508037  1
