# generated using pymatgen
data_LiMg14SiO16
_symmetry_space_group_name_H-M   'P 1'
_cell_length_a   8.51102606
_cell_length_b   8.49466371
_cell_length_c   4.25524619
_cell_angle_alpha   90.00000000
_cell_angle_beta   90.00000000
_cell_angle_gamma   90.00000000
_symmetry_Int_Tables_number   1
_chemical_formula_structural   LiMg14SiO16
_chemical_formula_sum   'Li1 Mg14 Si1 O16'
_cell_volume   307.64708352
_cell_formula_units_Z   1
loop_
 _symmetry_equiv_pos_site_id
 _symmetry_equiv_pos_as_xyz
  1  'x, y, z'
loop_
 _atom_site_type_symbol
 _atom_site_label
 _atom_site_symmetry_multiplicity
 _atom_site_fract_x
 _atom_site_fract_y
 _atom_site_fract_z
 _atom_site_occupancy
  Li  Li0  1  -0.00000000  -0.00000000  -0.00000000  1
  Mg  Mg1  1  0.50000000  -0.00000000  -0.00000000  1
  Mg  Mg2  1  0.50000000  0.50000000  -0.00000000  1
  Mg  Mg3  1  -0.00000000  0.24142824  0.50000000  1
  Mg  Mg4  1  -0.00000000  0.75857176  0.50000000  1
  Mg  Mg5  1  0.50000000  0.24768156  0.50000000  1
  Mg  Mg6  1  0.50000000  0.75231844  0.50000000  1
  Mg  Mg7  1  0.24443833  -0.00000000  0.50000000  1
  Mg  Mg8  1  0.25084524  0.50000000  0.50000000  1
  Mg  Mg9  1  0.75556167  -0.00000000  0.50000000  1
  Mg  Mg10  1  0.74915476  0.50000000  0.50000000  1
  Mg  Mg11  1  0.24933283  0.24395040  0.00000000  1
  Mg  Mg12  1  0.24933283  0.75604960  0.00000000  1
  Mg  Mg13  1  0.75066717  0.24395040  -0.00000000  1
  Mg  Mg14  1  0.75066717  0.75604960  -0.00000000  1
  Si  Si15  1  -0.00000000  0.50000000  -0.00000000  1
  O  O16  1  0.25514227  -0.00000000  -0.00000000  1
  O  O17  1  0.24189058  0.50000000  -0.00000000  1
  O  O18  1  0.74485773  -0.00000000  -0.00000000  1
  O  O19  1  0.75810942  0.50000000  -0.00000000  1
  O  O20  1  0.24891714  0.25166724  0.50000000  1
  O  O21  1  0.24891714  0.74833276  0.50000000  1
  O  O22  1  0.75108286  0.25166724  0.50000000  1
  O  O23  1  0.75108286  0.74833276  0.50000000  1
  O  O24  1  -0.00000000  -0.00000000  0.50000000  1
  O  O25  1  -0.00000000  0.50000000  0.50000000  1
  O  O26  1  0.50000000  -0.00000000  0.50000000  1
  O  O27  1  0.50000000  0.50000000  0.50000000  1
  O  O28  1  -0.00000000  0.27385332  0.00000000  1
  O  O29  1  -0.00000000  0.72614668  -0.00000000  1
  O  O30  1  0.50000000  0.25371771  -0.00000000  1
  O  O31  1  0.50000000  0.74628229  0.00000000  1
