# generated using pymatgen
data_RbMg14SbO16
_symmetry_space_group_name_H-M   'P 1'
_cell_length_a   8.75859605
_cell_length_b   8.89165370
_cell_length_c   4.52398517
_cell_angle_alpha   90.00000000
_cell_angle_beta   90.00000000
_cell_angle_gamma   90.00000000
_symmetry_Int_Tables_number   1
_chemical_formula_structural   RbMg14SbO16
_chemical_formula_sum   'Rb1 Mg14 Sb1 O16'
_cell_volume   352.32074012
_cell_formula_units_Z   1
loop_
 _symmetry_equiv_pos_site_id
 _symmetry_equiv_pos_as_xyz
  1  'x, y, z'
loop_
 _atom_site_type_symbol
 _atom_site_label
 _atom_site_symmetry_multiplicity
 _atom_site_fract_x
 _atom_site_fract_y
 _atom_site_fract_z
 _atom_site_occupancy
  Rb  Rb0  1  -0.00000000  0.00000000  0.00000000  1
  Mg  Mg1  1  0.50000000  0.00000000  0.00000000  1
  Mg  Mg2  1  0.50000000  0.50000000  0.00000000  1
  Mg  Mg3  1  -0.00000000  0.23868624  0.50000000  1
  Mg  Mg4  1  -0.00000000  0.76131376  0.50000000  1
  Mg  Mg5  1  0.50000000  0.24752718  0.50000000  1
  Mg  Mg6  1  0.50000000  0.75247282  0.50000000  1
  Mg  Mg7  1  0.25590823  0.00000000  0.50000000  1
  Mg  Mg8  1  0.26120222  0.50000000  0.50000000  1
  Mg  Mg9  1  0.74409177  0.00000000  0.50000000  1
  Mg  Mg10  1  0.73879778  0.50000000  0.50000000  1
  Mg  Mg11  1  0.26071496  0.24372429  0.00000000  1
  Mg  Mg12  1  0.26071496  0.75627571  0.00000000  1
  Mg  Mg13  1  0.73928504  0.24372429  0.00000000  1
  Mg  Mg14  1  0.73928504  0.75627571  -0.00000000  1
  Sb  Sb15  1  -0.00000000  0.50000000  0.00000000  1
  O  O16  1  0.28143899  0.00000000  0.00000000  1
  O  O17  1  0.26608681  0.50000000  0.00000000  1
  O  O18  1  0.71856101  0.00000000  0.00000000  1
  O  O19  1  0.73391319  0.50000000  0.00000000  1
  O  O20  1  0.24990797  0.25121614  0.50000000  1
  O  O21  1  0.24990797  0.74878386  0.50000000  1
  O  O22  1  0.75009203  0.25121614  0.50000000  1
  O  O23  1  0.75009203  0.74878386  0.50000000  1
  O  O24  1  -0.00000000  0.00000000  0.50000000  1
  O  O25  1  -0.00000000  0.50000000  0.50000000  1
  O  O26  1  0.50000000  0.00000000  0.50000000  1
  O  O27  1  0.50000000  0.50000000  0.50000000  1
  O  O28  1  -0.00000000  0.26510084  -0.00000000  1
  O  O29  1  -0.00000000  0.73489916  0.00000000  1
  O  O30  1  0.50000000  0.25589170  0.00000000  1
  O  O31  1  0.50000000  0.74410830  0.00000000  1
