# generated using pymatgen
data_K3GdF6
_symmetry_space_group_name_H-M   'P 1'
_cell_length_a   6.61069041
_cell_length_b   6.32103132
_cell_length_c   10.83350651
_cell_angle_alpha   55.99824899
_cell_angle_beta   90.00000000
_cell_angle_gamma   90.00000000
_symmetry_Int_Tables_number   1
_chemical_formula_structural   K3GdF6
_chemical_formula_sum   'K6 Gd2 F12'
_cell_volume   375.29179581
_cell_formula_units_Z   2
loop_
 _symmetry_equiv_pos_site_id
 _symmetry_equiv_pos_as_xyz
  1  'x, y, z'
loop_
 _atom_site_type_symbol
 _atom_site_label
 _atom_site_symmetry_multiplicity
 _atom_site_fract_x
 _atom_site_fract_y
 _atom_site_fract_z
 _atom_site_occupancy
  K  K0  1  0.94290969  0.72170337  0.75764984  1
  K  K1  1  0.44290969  0.27829663  0.74235016  1
  K  K2  1  0.05709031  0.27829663  0.24235016  1
  K  K3  1  0.55709031  0.72170337  0.25764984  1
  K  K4  1  0.00000000  0.50000000  0.50000000  1
  K  K5  1  0.50000000  0.50000000  -0.00000000  1
  Gd  Gd6  1  0.50000000  -0.00000000  0.50000000  1
  Gd  Gd7  1  0.00000000  -0.00000000  -0.00000000  1
  F  F8  1  0.93263957  0.89662030  0.22832914  1
  F  F9  1  0.43263957  0.10337970  0.27167086  1
  F  F10  1  0.06736043  0.10337970  0.77167086  1
  F  F11  1  0.56736043  0.89662030  0.72832914  1
  F  F12  1  0.72878685  0.25288123  0.92071673  1
  F  F13  1  0.22878685  0.74711877  0.57928327  1
  F  F14  1  0.27121315  0.74711877  0.07928327  1
  F  F15  1  0.77121315  0.25288123  0.42071673  1
  F  F16  1  0.32093188  0.33647758  0.44804602  1
  F  F17  1  0.82093188  0.66352242  0.05195398  1
  F  F18  1  0.67906812  0.66352242  0.55195398  1
  F  F19  1  0.17906812  0.33647758  0.94804602  1
