# generated using pymatgen
data_VN3O10
_symmetry_space_group_name_H-M   'P 1'
_cell_length_a   13.11066193
_cell_length_b   5.59789336
_cell_length_c   10.06542296
_cell_angle_alpha   78.12884291
_cell_angle_beta   90.00000000
_cell_angle_gamma   90.00000000
_symmetry_Int_Tables_number   1
_chemical_formula_structural   VN3O10
_chemical_formula_sum   'V4 N12 O40'
_cell_volume   722.92309795
_cell_formula_units_Z   4
loop_
 _symmetry_equiv_pos_site_id
 _symmetry_equiv_pos_as_xyz
  1  'x, y, z'
loop_
 _atom_site_type_symbol
 _atom_site_label
 _atom_site_symmetry_multiplicity
 _atom_site_fract_x
 _atom_site_fract_y
 _atom_site_fract_z
 _atom_site_occupancy
  V  V0  1  0.48577387  0.91303268  0.74310957  1
  V  V1  1  0.98577387  0.58696732  0.25689043  1
  V  V2  1  0.51422613  0.08696732  0.25689043  1
  V  V3  1  0.01422613  0.41303268  0.74310957  1
  N  N4  1  0.37601078  0.68431418  0.92778719  1
  N  N5  1  0.87601078  0.81568582  0.07221281  1
  N  N6  1  0.62398922  0.31568582  0.07221281  1
  N  N7  1  0.12398922  0.18431418  0.92778719  1
  N  N8  1  0.64367024  0.16291940  0.72797666  1
  N  N9  1  0.14367024  0.33708060  0.27202334  1
  N  N10  1  0.35632976  0.83708060  0.27202334  1
  N  N11  1  0.85632976  0.66291940  0.72797666  1
  N  N12  1  0.36847846  0.26680882  0.65413792  1
  N  N13  1  0.86847846  0.23319118  0.34586208  1
  N  N14  1  0.63152154  0.73319118  0.34586208  1
  N  N15  1  0.13152154  0.76680882  0.65413792  1
  O  O16  1  0.34476403  0.76416827  0.80548276  1
  O  O17  1  0.84476403  0.73583173  0.19451724  1
  O  O18  1  0.65523597  0.23583173  0.19451724  1
  O  O19  1  0.15523597  0.26416827  0.80548276  1
  O  O20  1  0.47005252  0.75209810  0.94072282  1
  O  O21  1  0.97005252  0.74790190  0.05927718  1
  O  O22  1  0.52994748  0.24790190  0.05927718  1
  O  O23  1  0.02994748  0.25209810  0.94072282  1
  O  O24  1  0.32687098  0.56494588  0.01745311  1
  O  O25  1  0.82687098  0.93505412  0.98254689  1
  O  O26  1  0.67312902  0.43505412  0.98254689  1
  O  O27  1  0.17312902  0.06494588  0.01745311  1
  O  O28  1  0.58070320  0.16936486  0.62916858  1
  O  O29  1  0.08070320  0.33063514  0.37083142  1
  O  O30  1  0.41929680  0.83063514  0.37083142  1
  O  O31  1  0.91929680  0.66936486  0.62916858  1
  O  O32  1  0.61040161  0.01313324  0.83618752  1
  O  O33  1  0.11040161  0.48686676  0.16381248  1
  O  O34  1  0.38959839  0.98686676  0.16381248  1
  O  O35  1  0.88959839  0.51313324  0.83618752  1
  O  O36  1  0.72122737  0.27547498  0.72263039  1
  O  O37  1  0.22122737  0.22452502  0.27736961  1
  O  O38  1  0.27877263  0.72452502  0.27736961  1
  O  O39  1  0.77877263  0.77547498  0.72263039  1
  O  O40  1  0.40503735  0.24740606  0.77319844  1
  O  O41  1  0.90503735  0.25259394  0.22680156  1
  O  O42  1  0.59496265  0.75259394  0.22680156  1
  O  O43  1  0.09496265  0.74740606  0.77319844  1
  O  O44  1  0.39561398  0.08282229  0.59722694  1
  O  O45  1  0.89561398  0.41717771  0.40277306  1
  O  O46  1  0.60438602  0.91717771  0.40277306  1
  O  O47  1  0.10438602  0.58282229  0.59722694  1
  O  O48  1  0.31583023  0.42929663  0.59479391  1
  O  O49  1  0.81583023  0.07070337  0.40520609  1
  O  O50  1  0.68416977  0.57070337  0.40520609  1
  O  O51  1  0.18416977  0.92929663  0.59479391  1
  O  O52  1  0.52413447  0.69195550  0.68035694  1
  O  O53  1  0.02413447  0.80804450  0.31964306  1
  O  O54  1  0.47586553  0.30804450  0.31964306  1
  O  O55  1  0.97586553  0.19195550  0.68035694  1
