# generated using pymatgen
data_Y2S3
_symmetry_space_group_name_H-M   'P 1'
_cell_length_a   3.86935145
_cell_length_b   10.50628676
_cell_length_c   10.63199354
_cell_angle_alpha   90.00000000
_cell_angle_beta   90.00000000
_cell_angle_gamma   90.00000000
_symmetry_Int_Tables_number   1
_chemical_formula_structural   Y2S3
_chemical_formula_sum   'Y8 S12'
_cell_volume   432.21728653
_cell_formula_units_Z   4
loop_
 _symmetry_equiv_pos_site_id
 _symmetry_equiv_pos_as_xyz
  1  'x, y, z'
loop_
 _atom_site_type_symbol
 _atom_site_label
 _atom_site_symmetry_multiplicity
 _atom_site_fract_x
 _atom_site_fract_y
 _atom_site_fract_z
 _atom_site_occupancy
  Y  Y0  1  0.25000000  0.18718055  0.49035686  1
  Y  Y1  1  0.25000000  0.31281945  0.99035686  1
  Y  Y2  1  0.75000000  0.81281945  0.50964314  1
  Y  Y3  1  0.75000000  0.68718055  0.00964314  1
  Y  Y4  1  0.75000000  0.49541432  0.69184495  1
  Y  Y5  1  0.75000000  0.00458568  0.19184495  1
  Y  Y6  1  0.25000000  0.50458568  0.30815505  1
  Y  Y7  1  0.25000000  0.99541432  0.80815505  1
  S  S8  1  0.25000000  0.62685471  0.54628661  1
  S  S9  1  0.25000000  0.87314529  0.04628661  1
  S  S10  1  0.75000000  0.37314529  0.45371339  1
  S  S11  1  0.75000000  0.12685471  0.95371339  1
  S  S12  1  0.75000000  0.05514452  0.61877254  1
  S  S13  1  0.75000000  0.44485548  0.11877254  1
  S  S14  1  0.25000000  0.94485548  0.38122746  1
  S  S15  1  0.25000000  0.55514452  0.88122746  1
  S  S16  1  0.25000000  0.30478124  0.72734083  1
  S  S17  1  0.25000000  0.19521776  0.22734083  1
  S  S18  1  0.75000000  0.69521776  0.27265917  1
  S  S19  1  0.75000000  0.80478224  0.77265917  1
