# generated using pymatgen
data_Sm2MoO6
_symmetry_space_group_name_H-M   'P 1'
_cell_length_a   10.04036930
_cell_length_b   10.04036930
_cell_length_c   5.46665005
_cell_angle_alpha   75.04624400
_cell_angle_beta   75.04624400
_cell_angle_gamma   68.33377537
_symmetry_Int_Tables_number   1
_chemical_formula_structural   Sm2MoO6
_chemical_formula_sum   'Sm8 Mo4 O24'
_cell_volume   486.61042794
_cell_formula_units_Z   4
loop_
 _symmetry_equiv_pos_site_id
 _symmetry_equiv_pos_as_xyz
  1  'x, y, z'
loop_
 _atom_site_type_symbol
 _atom_site_label
 _atom_site_symmetry_multiplicity
 _atom_site_fract_x
 _atom_site_fract_y
 _atom_site_fract_z
 _atom_site_occupancy
  Sm  Sm0  1  0.28695929  0.05364092  0.61858979  1
  Sm  Sm1  1  0.94635908  0.71304071  0.88141021  1
  Sm  Sm2  1  0.71304071  0.94635908  0.38141021  1
  Sm  Sm3  1  0.05364092  0.28695929  0.11858979  1
  Sm  Sm4  1  0.89019478  0.10980522  0.75000000  1
  Sm  Sm5  1  0.10980522  0.89019478  0.25000000  1
  Sm  Sm6  1  0.36620771  0.63379229  0.75000000  1
  Sm  Sm7  1  0.63379229  0.36620771  0.25000000  1
  Mo  Mo8  1  0.79619474  0.51136866  0.56097978  1
  Mo  Mo9  1  0.48863134  0.20380526  0.93902022  1
  Mo  Mo10  1  0.20380526  0.48863134  0.43902022  1
  Mo  Mo11  1  0.51136866  0.79619474  0.06097978  1
  O  O12  1  0.82659396  0.38574455  0.86126816  1
  O  O13  1  0.61425545  0.17340604  0.63873184  1
  O  O14  1  0.17340604  0.61425545  0.13873184  1
  O  O15  1  0.38574455  0.82659396  0.36126816  1
  O  O16  1  0.92981114  0.52566939  0.26658637  1
  O  O17  1  0.47433061  0.07018886  0.23341363  1
  O  O18  1  0.07018886  0.47433061  0.73341363  1
  O  O19  1  0.52566939  0.92981114  0.76658637  1
  O  O20  1  0.78639183  0.67815179  0.63858671  1
  O  O21  1  0.32184821  0.21360817  0.86141329  1
  O  O22  1  0.21360817  0.32184821  0.36141329  1
  O  O23  1  0.67815179  0.78639183  0.13858671  1
  O  O24  1  0.07531124  0.10943442  0.92072584  1
  O  O25  1  0.89056558  0.92468876  0.57927416  1
  O  O26  1  0.92468876  0.89056558  0.07927416  1
  O  O27  1  0.10943442  0.07531124  0.42072584  1
  O  O28  1  0.31177341  0.83654250  0.91468469  1
  O  O29  1  0.16345750  0.68822659  0.58531531  1
  O  O30  1  0.68822659  0.16345750  0.08531531  1
  O  O31  1  0.83654250  0.31177341  0.41468469  1
  O  O32  1  0.54650723  0.61517453  0.01790788  1
  O  O33  1  0.38482547  0.45349277  0.48209212  1
  O  O34  1  0.45349277  0.38482547  0.98209212  1
  O  O35  1  0.61517453  0.54650723  0.51790788  1
