# generated using pymatgen
data_Rb4GeO4
_symmetry_space_group_name_H-M   'P 1'
_cell_length_a   6.79631794
_cell_length_b   10.87837111
_cell_length_c   11.00378264
_cell_angle_alpha   67.70891135
_cell_angle_beta   90.00000000
_cell_angle_gamma   90.00000000
_symmetry_Int_Tables_number   1
_chemical_formula_structural   Rb4GeO4
_chemical_formula_sum   'Rb16 Ge4 O16'
_cell_volume   752.74424459
_cell_formula_units_Z   4
loop_
 _symmetry_equiv_pos_site_id
 _symmetry_equiv_pos_as_xyz
  1  'x, y, z'
loop_
 _atom_site_type_symbol
 _atom_site_label
 _atom_site_symmetry_multiplicity
 _atom_site_fract_x
 _atom_site_fract_y
 _atom_site_fract_z
 _atom_site_occupancy
  Rb  Rb0  1  0.68480207  0.29126887  0.07905487  1
  Rb  Rb1  1  0.18480207  0.20873113  0.92094513  1
  Rb  Rb2  1  0.31519793  0.70873113  0.92094513  1
  Rb  Rb3  1  0.81519793  0.79126887  0.07905487  1
  Rb  Rb4  1  0.91459800  0.20470634  0.43335190  1
  Rb  Rb5  1  0.41459800  0.29529366  0.56664810  1
  Rb  Rb6  1  0.08540200  0.79529366  0.56664810  1
  Rb  Rb7  1  0.58540200  0.70470634  0.43335190  1
  Rb  Rb8  1  0.17280360  0.39054746  0.12718388  1
  Rb  Rb9  1  0.67280360  0.10945254  0.87281612  1
  Rb  Rb10  1  0.82719640  0.60945254  0.87281612  1
  Rb  Rb11  1  0.32719640  0.89054746  0.12718388  1
  Rb  Rb12  1  0.88580987  0.42245010  0.65717010  1
  Rb  Rb13  1  0.38580987  0.07754990  0.34282990  1
  Rb  Rb14  1  0.11419013  0.57754990  0.34282990  1
  Rb  Rb15  1  0.61419013  0.92245010  0.65717010  1
  Ge  Ge16  1  0.87098200  0.98812006  0.26062903  1
  Ge  Ge17  1  0.37098200  0.51187994  0.73937097  1
  Ge  Ge18  1  0.12901800  0.01187994  0.73937097  1
  Ge  Ge19  1  0.62901800  0.48812006  0.26062903  1
  O  O20  1  0.00398457  0.83946186  0.28530635  1
  O  O21  1  0.50398457  0.66053814  0.71469365  1
  O  O22  1  0.99601543  0.16053814  0.71469365  1
  O  O23  1  0.49601543  0.33946186  0.28530635  1
  O  O24  1  0.73104448  0.47316160  0.41404068  1
  O  O25  1  0.23104448  0.02683840  0.58595932  1
  O  O26  1  0.26895552  0.52683840  0.58595932  1
  O  O27  1  0.76895552  0.97316160  0.41404068  1
  O  O28  1  0.02642171  0.13089680  0.19260922  1
  O  O29  1  0.52642171  0.36910320  0.80739078  1
  O  O30  1  0.97357829  0.86910320  0.80739078  1
  O  O31  1  0.47357829  0.63089680  0.19260922  1
  O  O32  1  0.67167053  0.00637647  0.14868293  1
  O  O33  1  0.17167053  0.49362353  0.85131707  1
  O  O34  1  0.32832947  0.99362353  0.85131707  1
  O  O35  1  0.82832947  0.50637647  0.14868293  1
