# generated using pymatgen
data_KNaAl6Si6(HO6)4
_symmetry_space_group_name_H-M   'P 1'
_cell_length_a   9.06048866
_cell_length_b   10.42256549
_cell_length_c   19.97598602
_cell_angle_alpha   95.50546707
_cell_angle_beta   89.93254007
_cell_angle_gamma   90.00222960
_symmetry_Int_Tables_number   1
_chemical_formula_structural   KNaAl6Si6(HO6)4
_chemical_formula_sum   'K4 Na4 Al24 Si24 H16 O96'
_cell_volume   1877.69981116
_cell_formula_units_Z   4
loop_
 _symmetry_equiv_pos_site_id
 _symmetry_equiv_pos_as_xyz
  1  'x, y, z'
loop_
 _atom_site_type_symbol
 _atom_site_label
 _atom_site_symmetry_multiplicity
 _atom_site_fract_x
 _atom_site_fract_y
 _atom_site_fract_z
 _atom_site_occupancy
  K  K0  1  0.59914697  0.74872648  0.25009255  1
  K  K1  1  0.90170810  0.00028479  0.75015891  1
  K  K2  1  0.09724669  0.50214724  0.25001804  1
  K  K3  1  0.90214070  0.50002220  0.75015998  1
  Na  Na4  1  0.42388870  0.74973532  0.75056479  1
  Na  Na5  1  0.12328868  0.99862161  0.25126858  1
  Na  Na6  1  0.56987664  0.25196741  0.24910970  1
  Na  Na7  1  0.42427225  0.25054185  0.74981202  1
  Al  Al8  1  0.08500130  0.87759231  0.49919588  1
  Al  Al9  1  0.25902090  0.77175129  0.36208088  1
  Al  Al10  1  0.08419928  0.62348902  0.00116278  1
  Al  Al11  1  0.25819700  0.73082365  0.13802660  1
  Al  Al12  1  0.91329130  0.62599865  0.50175942  1
  Al  Al13  1  0.73756480  0.73352467  0.63819952  1
  Al  Al14  1  0.91136133  0.87434375  0.99849910  1
  Al  Al15  1  0.73705298  0.76681032  0.86203556  1
  Al  Al16  1  0.58339341  0.62868606  0.50117314  1
  Al  Al17  1  0.58216434  0.87162848  0.99937899  1
  Al  Al18  1  0.41415409  0.87665298  0.49905710  1
  Al  Al19  1  0.41350271  0.62386881  0.00101167  1
  Al  Al20  1  0.08519484  0.37702019  0.49892616  1
  Al  Al21  1  0.25951803  0.27085338  0.36198984  1
  Al  Al22  1  0.08379598  0.12261569  0.00139309  1
  Al  Al23  1  0.25665059  0.22744820  0.13858395  1
  Al  Al24  1  0.91248312  0.12640746  0.50142070  1
  Al  Al25  1  0.73746125  0.23363113  0.63820894  1
  Al  Al26  1  0.91224414  0.37397292  0.99901236  1
  Al  Al27  1  0.73727773  0.26669406  0.86221335  1
  Al  Al28  1  0.58317399  0.12934207  0.50088186  1
  Al  Al29  1  0.58230944  0.37091109  0.99925069  1
  Al  Al30  1  0.41424197  0.37649693  0.49952726  1
  Al  Al31  1  0.41270636  0.12354438  0.00108624  1
  Si  Si32  1  0.92896330  0.77426506  0.36315325  1
  Si  Si33  1  0.92737598  0.72853846  0.13692611  1
  Si  Si34  1  0.06982572  0.73087318  0.63764016  1
  Si  Si35  1  0.06935159  0.76951700  0.86257994  1
  Si  Si36  1  0.43049386  0.51120752  0.36220649  1
  Si  Si37  1  0.75648662  0.52756561  0.36398931  1
  Si  Si38  1  0.42827283  0.98937398  0.13888712  1
  Si  Si39  1  0.75334884  0.97251640  0.13666546  1
  Si  Si40  1  0.56690411  0.99304456  0.63825001  1
  Si  Si41  1  0.24316500  0.97525237  0.63712286  1
  Si  Si42  1  0.56674446  0.50716982  0.86174929  1
  Si  Si43  1  0.24287959  0.52523058  0.86323497  1
  Si  Si44  1  0.92946862  0.27184093  0.36249025  1
  Si  Si45  1  0.92745083  0.22577959  0.13813912  1
  Si  Si46  1  0.06973750  0.23075256  0.63745508  1
  Si  Si47  1  0.06947597  0.26956664  0.86302157  1
  Si  Si48  1  0.42962165  0.01302914  0.36146548  1
  Si  Si49  1  0.75511589  0.02998200  0.36320433  1
  Si  Si50  1  0.42801381  0.48720885  0.13807059  1
  Si  Si51  1  0.75457442  0.47031391  0.13681665  1
  Si  Si52  1  0.56686284  0.49317470  0.63884177  1
  Si  Si53  1  0.24305064  0.47513575  0.63716764  1
  Si  Si54  1  0.56632807  0.00724800  0.86187194  1
  Si  Si55  1  0.24260741  0.02511798  0.86314196  1
  H  H56  1  0.65673567  0.82171381  0.44454600  1
  H  H57  1  0.65656493  0.67811120  0.05438704  1
  H  H58  1  0.34145240  0.68401300  0.55551374  1
  H  H59  1  0.34075574  0.81647977  0.94509829  1
  H  H60  1  0.14536925  0.56501524  0.43280194  1
  H  H61  1  0.14207427  0.93529623  0.06809003  1
  H  H62  1  0.85366277  0.93984650  0.56960703  1
  H  H63  1  0.85369793  0.56018877  0.93076084  1
  H  H64  1  0.65683609  0.32244689  0.44513978  1
  H  H65  1  0.65468506  0.17808814  0.05609837  1
  H  H66  1  0.34099281  0.18337223  0.55506141  1
  H  H67  1  0.34036983  0.31662903  0.94484284  1
  H  H68  1  0.14243816  0.06363619  0.43089843  1
  H  H69  1  0.14279393  0.43679907  0.06893646  1
  H  H70  1  0.85391904  0.43903735  0.56900959  1
  H  H71  1  0.85264128  0.06144133  0.93109986  1
  O  O72  1  0.94354403  0.77080422  0.44499155  1
  O  O73  1  0.24944949  0.81496762  0.44907661  1
  O  O74  1  0.56553695  0.77578228  0.45116650  1
  O  O75  1  0.08400416  0.80206017  0.32731159  1
  O  O76  1  0.80589150  0.88021473  0.34133726  1
  O  O77  1  0.86552010  0.63148758  0.33101640  1
  O  O78  1  0.94064268  0.72990766  0.05492321  1
  O  O79  1  0.24876508  0.68728449  0.05099566  1
  O  O80  1  0.56491127  0.72421874  0.04909952  1
  O  O81  1  0.08293171  0.70459248  0.17218173  1
  O  O82  1  0.80808340  0.61926613  0.15933364  1
  O  O83  1  0.86343702  0.87025992  0.16976466  1
  O  O84  1  0.05634916  0.73239236  0.55560478  1
  O  O85  1  0.74825562  0.68933191  0.55139158  1
  O  O86  1  0.43276423  0.72985276  0.54900520  1
  O  O87  1  0.91313133  0.70635629  0.67230471  1
  O  O88  1  0.19148962  0.62433431  0.66078434  1
  O  O89  1  0.13267053  0.87308980  0.66996075  1
  O  O90  1  0.05530662  0.76804505  0.94458290  1
  O  O91  1  0.74701456  0.81105417  0.94884172  1
  O  O92  1  0.43223045  0.77065994  0.95118874  1
  O  O93  1  0.91281345  0.79399362  0.82792794  1
  O  O94  1  0.19118818  0.87596327  0.83932940  1
  O  O95  1  0.13253241  0.62727156  0.83031986  1
  O  O96  1  0.44897201  0.51879620  0.44486282  1
  O  O97  1  0.75136595  0.55582400  0.44524191  1
  O  O98  1  0.05858151  0.52524008  0.45062252  1
  O  O99  1  0.59364616  0.54791673  0.33110413  1
  O  O100  1  0.30431155  0.60973364  0.34109651  1
  O  O101  1  0.39017103  0.86959277  0.32769235  1
  O  O102  1  0.44658238  0.98073868  0.05613805  1
  O  O103  1  0.74887345  0.94418965  0.05533194  1
  O  O104  1  0.05605633  0.97469388  0.04952508  1
  O  O105  1  0.59063521  0.95062651  0.16959556  1
  O  O106  1  0.29980147  0.89353540  0.16148005  1
  O  O107  1  0.38757533  0.63058966  0.17183712  1
  O  O108  1  0.54737750  0.98668835  0.55563783  1
  O  O109  1  0.24710970  0.94787097  0.55574951  1
  O  O110  1  0.93916315  0.97844126  0.55000769  1
  O  O111  1  0.40564477  0.95222608  0.67025884  1
  O  O112  1  0.69484629  0.89592411  0.65882018  1
  O  O113  1  0.60366610  0.63764726  0.67336686  1
  O  O114  1  0.54713367  0.51361891  0.94431856  1
  O  O115  1  0.24671287  0.55296452  0.94460007  1
  O  O116  1  0.93924125  0.52179563  0.95031032  1
  O  O117  1  0.40543853  0.54799671  0.82988435  1
  O  O118  1  0.69446957  0.60448247  0.84103640  1
  O  O119  1  0.60321314  0.86289868  0.82714115  1
  O  O120  1  0.94288748  0.27061941  0.44464871  1
  O  O121  1  0.25011122  0.31428056  0.44898347  1
  O  O122  1  0.56546387  0.27656499  0.45148362  1
  O  O123  1  0.08509439  0.29894801  0.32774149  1
  O  O124  1  0.80783707  0.37878730  0.34000953  1
  O  O125  1  0.86843038  0.12920735  0.32987523  1
  O  O126  1  0.94288857  0.22920882  0.05613959  1
  O  O127  1  0.24814156  0.18419842  0.05161509  1
  O  O128  1  0.56373164  0.22392440  0.04894996  1
  O  O129  1  0.08224315  0.19553664  0.17347220  1
  O  O130  1  0.80204901  0.12200078  0.16011582  1
  O  O131  1  0.86564175  0.36899373  0.17009578  1
  O  O132  1  0.05627394  0.23229702  0.55540746  1
  O  O133  1  0.74797471  0.18980959  0.55137701  1
  O  O134  1  0.43234907  0.22956720  0.54918284  1
  O  O135  1  0.91309108  0.20621775  0.67217007  1
  O  O136  1  0.19151758  0.12441152  0.66075575  1
  O  O137  1  0.13249896  0.37294149  0.66990789  1
  O  O138  1  0.05568708  0.26792546  0.94510117  1
  O  O139  1  0.74764969  0.31051582  0.94904387  1
  O  O140  1  0.43142274  0.27045808  0.95133535  1
  O  O141  1  0.91306764  0.29413219  0.82827639  1
  O  O142  1  0.19138262  0.37598933  0.83982439  1
  O  O143  1  0.13228781  0.12744050  0.83047254  1
  O  O144  1  0.44861190  0.02028704  0.44409811  1
  O  O145  1  0.74970433  0.05842394  0.44452121  1
  O  O146  1  0.05719001  0.02496745  0.45059756  1
  O  O147  1  0.59227461  0.05298950  0.32988297  1
  O  O148  1  0.30082474  0.10842051  0.33889650  1
  O  O149  1  0.39303369  0.36719714  0.32732020  1
  O  O150  1  0.44805972  0.48068946  0.05554044  1
  O  O151  1  0.74942993  0.44224222  0.05557102  1
  O  O152  1  0.05699762  0.47581010  0.04993897  1
  O  O153  1  0.59110104  0.44901417  0.17003175  1
  O  O154  1  0.30130385  0.38922022  0.15928228  1
  O  O155  1  0.39184154  0.13355040  0.17366516  1
  O  O156  1  0.54757624  0.48663485  0.55628349  1
  O  O157  1  0.24734270  0.44752856  0.55579423  1
  O  O158  1  0.94005421  0.47801667  0.55018886  1
  O  O159  1  0.40532510  0.45241673  0.67065669  1
  O  O160  1  0.69432324  0.39576261  0.65959375  1
  O  O161  1  0.60355528  0.13735713  0.67302338  1
  O  O162  1  0.54627833  0.01366361  0.94447187  1
  O  O163  1  0.24615512  0.05237254  0.94452238  1
  O  O164  1  0.93839590  0.02239178  0.95013947  1
  O  O165  1  0.40520557  0.04810623  0.82991389  1
  O  O166  1  0.69430880  0.10444150  0.84130580  1
  O  O167  1  0.60357278  0.36272239  0.82716204  1
