# generated using pymatgen
data_K2YCl5
_symmetry_space_group_name_H-M   'P 1'
_cell_length_a   7.92623004
_cell_length_b   8.56347054
_cell_length_c   12.64934431
_cell_angle_alpha   90.00000000
_cell_angle_beta   90.00000000
_cell_angle_gamma   90.00000000
_symmetry_Int_Tables_number   1
_chemical_formula_structural   K2YCl5
_chemical_formula_sum   'K8 Y4 Cl20'
_cell_volume   858.58736799
_cell_formula_units_Z   4
loop_
 _symmetry_equiv_pos_site_id
 _symmetry_equiv_pos_as_xyz
  1  'x, y, z'
loop_
 _atom_site_type_symbol
 _atom_site_label
 _atom_site_symmetry_multiplicity
 _atom_site_fract_x
 _atom_site_fract_y
 _atom_site_fract_z
 _atom_site_occupancy
  K  K0  1  0.55853708  0.49400711  0.82889100  1
  K  K1  1  0.44146292  0.50599289  0.17110900  1
  K  K2  1  0.05853708  0.50599289  0.67110900  1
  K  K3  1  0.44146292  -0.00599289  0.17110900  1
  K  K4  1  0.94146292  0.49400711  0.32889100  1
  K  K5  1  0.55853708  0.00599289  0.82889100  1
  K  K6  1  0.94146292  0.00599289  0.32889100  1
  K  K7  1  0.05853708  -0.00599289  0.67110900  1
  Y  Y8  1  0.57455275  0.75000000  0.50468545  1
  Y  Y9  1  0.42544725  0.25000000  0.49531455  1
  Y  Y10  1  0.07455275  0.25000000  0.99531455  1
  Y  Y11  1  0.92544725  0.75000000  0.00468545  1
  Cl  Cl12  1  0.84430905  0.75000000  0.79930478  1
  Cl  Cl13  1  0.15569095  0.25000000  0.20069522  1
  Cl  Cl14  1  0.34430905  0.25000000  0.70069522  1
  Cl  Cl15  1  0.65569095  0.75000000  0.29930478  1
  Cl  Cl16  1  0.38300069  0.75000000  0.67837712  1
  Cl  Cl17  1  0.61699931  0.25000000  0.32162288  1
  Cl  Cl18  1  0.88300069  0.25000000  0.82162288  1
  Cl  Cl19  1  0.11699931  0.75000000  0.17837712  1
  Cl  Cl20  1  0.91736101  0.75000000  0.50928244  1
  Cl  Cl21  1  0.08263899  0.25000000  0.49071756  1
  Cl  Cl22  1  0.41736101  0.25000000  0.99071756  1
  Cl  Cl23  1  0.58263899  0.75000000  0.00928244  1
  Cl  Cl24  1  0.66574664  0.04355213  0.57216144  1
  Cl  Cl25  1  0.33425336  0.95644787  0.42783856  1
  Cl  Cl26  1  0.16574664  0.95644787  0.92783856  1
  Cl  Cl27  1  0.33425336  0.54355213  0.42783856  1
  Cl  Cl28  1  0.83425336  0.04355213  0.07216144  1
  Cl  Cl29  1  0.66574664  0.45644787  0.57216144  1
  Cl  Cl30  1  0.83425336  0.45644787  0.07216144  1
  Cl  Cl31  1  0.16574664  0.54355213  0.92783856  1
