# generated using pymatgen
data_Ca4PdO6
_symmetry_space_group_name_H-M   'P 1'
_cell_length_a   6.54188412
_cell_length_b   6.54188412
_cell_length_c   6.54188380
_cell_angle_alpha   90.60076817
_cell_angle_beta   90.60076817
_cell_angle_gamma   90.60077996
_symmetry_Int_Tables_number   1
_chemical_formula_structural   Ca4PdO6
_chemical_formula_sum   'Ca8 Pd2 O12'
_cell_volume   279.92158410
_cell_formula_units_Z   2
loop_
 _symmetry_equiv_pos_site_id
 _symmetry_equiv_pos_as_xyz
  1  'x, y, z'
loop_
 _atom_site_type_symbol
 _atom_site_label
 _atom_site_symmetry_multiplicity
 _atom_site_fract_x
 _atom_site_fract_y
 _atom_site_fract_z
 _atom_site_occupancy
  Ca  Ca0  1  0.25000000  0.25000000  0.25000000  1
  Ca  Ca1  1  0.75000000  0.75000000  0.75000000  1
  Ca  Ca2  1  0.75000000  0.11652713  0.38347287  1
  Ca  Ca3  1  0.38347287  0.75000000  0.11652713  1
  Ca  Ca4  1  0.11652713  0.38347287  0.75000000  1
  Ca  Ca5  1  0.25000000  0.88347287  0.61652713  1
  Ca  Ca6  1  0.61652713  0.25000000  0.88347287  1
  Ca  Ca7  1  0.88347287  0.61652713  0.25000000  1
  Pd  Pd8  1  0.00000000  -0.00000000  0.00000000  1
  Pd  Pd9  1  0.50000000  0.50000000  0.50000000  1
  O  O10  1  0.57077223  0.79602368  0.44567622  1
  O  O11  1  0.44567622  0.57077223  0.79602368  1
  O  O12  1  0.79602368  0.44567622  0.57077223  1
  O  O13  1  0.92922777  0.05432378  0.70397632  1
  O  O14  1  0.70397632  0.92922777  0.05432378  1
  O  O15  1  0.05432378  0.70397632  0.92922777  1
  O  O16  1  0.42922777  0.20397632  0.55432378  1
  O  O17  1  0.55432378  0.42922777  0.20397632  1
  O  O18  1  0.20397632  0.55432378  0.42922777  1
  O  O19  1  0.07077223  0.94567622  0.29602368  1
  O  O20  1  0.94567622  0.29602368  0.07077223  1
  O  O21  1  0.29602368  0.07077223  0.94567622  1
