# generated using pymatgen
data_Rb2GaAs2
_symmetry_space_group_name_H-M   'P 1'
_cell_length_a   14.74004975
_cell_length_b   9.10028189
_cell_length_c   11.75848479
_cell_angle_alpha   61.72328476
_cell_angle_beta   90.00000000
_cell_angle_gamma   90.00000000
_symmetry_Int_Tables_number   1
_chemical_formula_structural   Rb2GaAs2
_chemical_formula_sum   'Rb16 Ga8 As16'
_cell_volume   1389.05145412
_cell_formula_units_Z   8
loop_
 _symmetry_equiv_pos_site_id
 _symmetry_equiv_pos_as_xyz
  1  'x, y, z'
loop_
 _atom_site_type_symbol
 _atom_site_label
 _atom_site_symmetry_multiplicity
 _atom_site_fract_x
 _atom_site_fract_y
 _atom_site_fract_z
 _atom_site_occupancy
  Rb  Rb0  1  0.61637840  0.49317632  0.56834210  1
  Rb  Rb1  1  0.11637840  0.50682368  0.93165790  1
  Rb  Rb2  1  0.38362160  0.50682368  0.43165790  1
  Rb  Rb3  1  0.88362160  0.49317632  0.06834210  1
  Rb  Rb4  1  0.61254532  0.21172688  0.97389534  1
  Rb  Rb5  1  0.11254532  0.78827312  0.52610466  1
  Rb  Rb6  1  0.38745468  0.78827312  0.02610466  1
  Rb  Rb7  1  0.88745468  0.21172688  0.47389534  1
  Rb  Rb8  1  0.86731994  0.58799667  0.59422045  1
  Rb  Rb9  1  0.36731994  0.41200333  0.90577955  1
  Rb  Rb10  1  0.13268006  0.41200333  0.40577955  1
  Rb  Rb11  1  0.63268006  0.58799667  0.09422045  1
  Rb  Rb12  1  0.87151922  0.01567357  0.96350385  1
  Rb  Rb13  1  0.37151922  0.98432643  0.53649615  1
  Rb  Rb14  1  0.12848078  0.98432643  0.03649615  1
  Rb  Rb15  1  0.62848078  0.01567357  0.46350385  1
  Ga  Ga16  1  0.94136440  -0.00049421  0.25809073  1
  Ga  Ga17  1  0.44136440  0.00049421  0.24190927  1
  Ga  Ga18  1  0.55863560  -0.00049421  0.75809073  1
  Ga  Ga19  1  0.78459597  0.85848795  0.75574232  1
  Ga  Ga20  1  0.28459597  0.14151205  0.74425768  1
  Ga  Ga21  1  0.21540403  0.14151205  0.24425768  1
  Ga  Ga22  1  0.71540403  0.85848795  0.25574232  1
  Ga  Ga23  1  0.05863560  0.00049421  0.74190927  1
  As  As24  1  0.55461921  0.80052516  0.25764970  1
  As  As25  1  0.19197085  0.37084200  0.71448190  1
  As  As26  1  0.30802915  0.37084200  0.21448190  1
  As  As27  1  0.69197085  0.62915800  0.78551810  1
  As  As28  1  0.71108079  0.10620522  0.72925621  1
  As  As29  1  0.21108079  0.89379478  0.77074379  1
  As  As30  1  0.28891921  0.89379478  0.27074379  1
  As  As31  1  0.78891921  0.10620522  0.22925621  1
  As  As32  1  0.05461921  0.19947484  0.24235030  1
  As  As33  1  0.44538079  0.19947484  0.74235030  1
  As  As34  1  0.94538079  0.80052516  0.75764970  1
  As  As35  1  0.96390042  0.72815027  0.27940729  1
  As  As36  1  0.53609958  0.72815027  0.77940729  1
  As  As37  1  0.03609958  0.27184973  0.72059271  1
  As  As38  1  0.80802915  0.62915800  0.28551810  1
  As  As39  1  0.46390042  0.27184973  0.22059271  1
