# generated using pymatgen
data_Ba2CaMnV2F14
_symmetry_space_group_name_H-M   'P 1'
_cell_length_a   7.38551001
_cell_length_b   7.38551001
_cell_length_c   14.99483327
_cell_angle_alpha   88.34880632
_cell_angle_beta   88.34880632
_cell_angle_gamma   42.83530849
_symmetry_Int_Tables_number   1
_chemical_formula_structural   Ba2CaMnV2F14
_chemical_formula_sum   'Ba4 Ca2 Mn2 V4 F28'
_cell_volume   555.82141049
_cell_formula_units_Z   2
loop_
 _symmetry_equiv_pos_site_id
 _symmetry_equiv_pos_as_xyz
  1  'x, y, z'
loop_
 _atom_site_type_symbol
 _atom_site_label
 _atom_site_symmetry_multiplicity
 _atom_site_fract_x
 _atom_site_fract_y
 _atom_site_fract_z
 _atom_site_occupancy
  Ba  Ba0  1  0.64959701  0.73447634  0.87852547  1
  Ba  Ba1  1  0.35040299  0.26552366  0.12147453  1
  Ba  Ba2  1  0.26552366  0.35040299  0.62147453  1
  Ba  Ba3  1  0.73447634  0.64959701  0.37852547  1
  Ca  Ca4  1  0.94438408  0.05561592  0.75000000  1
  Ca  Ca5  1  0.05561592  0.94438408  0.25000000  1
  Mn  Mn6  1  0.00000000  -0.00000000  0.50000000  1
  Mn  Mn7  1  0.00000000  -0.00000000  -0.00000000  1
  V  V8  1  0.62170136  0.61886232  0.62414568  1
  V  V9  1  0.37829864  0.38113768  0.37585432  1
  V  V10  1  0.38113768  0.37829864  0.87585432  1
  V  V11  1  0.61886232  0.62170136  0.12414568  1
  F  F12  1  0.40317381  0.76904813  0.51492658  1
  F  F13  1  0.59682619  0.23095187  0.48507342  1
  F  F14  1  0.23095187  0.59682619  0.98507342  1
  F  F15  1  0.76904813  0.40317381  0.01492658  1
  F  F16  1  0.69986076  0.80452616  0.58710027  1
  F  F17  1  0.30013924  0.19547384  0.41289973  1
  F  F18  1  0.19547384  0.30013924  0.91289973  1
  F  F19  1  0.80452616  0.69986076  0.08710027  1
  F  F20  1  0.66833418  0.07589159  0.95221359  1
  F  F21  1  0.33166582  0.92410841  0.04778641  1
  F  F22  1  0.92410841  0.33166582  0.54778641  1
  F  F23  1  0.07589159  0.66833418  0.45221359  1
  F  F24  1  0.55865171  0.12014808  0.77552283  1
  F  F25  1  0.44134829  0.87985192  0.22447717  1
  F  F26  1  0.87985192  0.44134829  0.72447717  1
  F  F27  1  0.12014808  0.55865171  0.27552283  1
  F  F28  1  0.85029046  0.03593098  0.12264129  1
  F  F29  1  0.14970954  0.96406902  0.87735871  1
  F  F30  1  0.96406902  0.14970954  0.37735871  1
  F  F31  1  0.03593098  0.85029046  0.62264129  1
  F  F32  1  0.34720522  0.90511797  0.70260148  1
  F  F33  1  0.65279478  0.09488203  0.29739852  1
  F  F34  1  0.09488203  0.65279478  0.79739852  1
  F  F35  1  0.90511797  0.34720522  0.20260148  1
  F  F36  1  0.58532669  0.39489604  0.65660854  1
  F  F37  1  0.41467331  0.60510396  0.34339146  1
  F  F38  1  0.60510396  0.41467331  0.84339146  1
  F  F39  1  0.39489604  0.58532669  0.15660854  1
