# generated using pymatgen
data_KNa7V7CrO20
_symmetry_space_group_name_H-M   'P 1'
_cell_length_a   10.87618200
_cell_length_b   11.18019255
_cell_length_c   16.53404295
_cell_angle_alpha   109.77621167
_cell_angle_beta   108.77460928
_cell_angle_gamma   90.00617154
_symmetry_Int_Tables_number   1
_chemical_formula_structural   KNa7V7CrO20
_chemical_formula_sum   'K4 Na28 V28 Cr4 O80'
_cell_volume   1777.80429024
_cell_formula_units_Z   4
loop_
 _symmetry_equiv_pos_site_id
 _symmetry_equiv_pos_as_xyz
  1  'x, y, z'
loop_
 _atom_site_type_symbol
 _atom_site_label
 _atom_site_symmetry_multiplicity
 _atom_site_fract_x
 _atom_site_fract_y
 _atom_site_fract_z
 _atom_site_occupancy
  K  K0  1  0.30555444  0.06330391  0.11173153  1
  K  K1  1  0.80450680  0.06382038  0.11213012  1
  K  K2  1  0.05659731  0.79568294  0.11274406  1
  K  K3  1  0.55550975  0.79714536  0.11360481  1
  Na  Na4  1  0.30402859  0.06754054  0.60751058  1
  Na  Na5  1  0.30118271  0.56600092  0.10442072  1
  Na  Na6  1  0.30377823  0.56757320  0.60763566  1
  Na  Na7  1  0.80422984  0.06769899  0.60763714  1
  Na  Na8  1  0.80313030  0.56497601  0.10443686  1
  Na  Na9  1  0.80423742  0.56746012  0.60777413  1
  Na  Na10  1  0.19775370  0.43439487  0.39399929  1
  Na  Na11  1  0.19613430  0.43338216  0.89278355  1
  Na  Na12  1  0.19776478  0.93324349  0.39508706  1
  Na  Na13  1  0.19821753  0.93311001  0.89337428  1
  Na  Na14  1  0.69796384  0.43437177  0.39414346  1
  Na  Na15  1  0.69949153  0.43439257  0.89388622  1
  Na  Na16  1  0.69779367  0.93331083  0.39513857  1
  Na  Na17  1  0.69687858  0.93327270  0.89254738  1
  Na  Na18  1  0.05374624  0.29067287  0.10510208  1
  Na  Na19  1  0.05412769  0.28996531  0.60769938  1
  Na  Na20  1  0.05429061  0.79020272  0.60783145  1
  Na  Na21  1  0.55303612  0.29015169  0.10463820  1
  Na  Na22  1  0.55433273  0.28972350  0.60746217  1
  Na  Na23  1  0.55409790  0.79025721  0.60758969  1
  Na  Na24  1  0.44790883  0.21186450  0.39515963  1
  Na  Na25  1  0.44804507  0.21027666  0.89335307  1
  Na  Na26  1  0.44774636  0.70942126  0.39376615  1
  Na  Na27  1  0.44547058  0.71038063  0.89270789  1
  Na  Na28  1  0.94785139  0.21197072  0.39522966  1
  Na  Na29  1  0.94924410  0.21162540  0.89319732  1
  Na  Na30  1  0.94789597  0.70950614  0.39393890  1
  Na  Na31  1  0.95054976  0.70910334  0.89343277  1
  V  V32  1  0.00594200  0.99889995  0.50032804  1
  V  V33  1  0.00572541  0.49973589  0.50021934  1
  V  V34  1  0.50584884  0.99876536  0.50004669  1
  V  V35  1  0.50196427  0.49716506  0.99662328  1
  V  V36  1  0.50540319  0.49933496  0.49958061  1
  V  V37  1  0.25363120  0.25001295  0.99711527  1
  V  V38  1  0.25596860  0.25141885  0.50041701  1
  V  V39  1  0.25563801  0.75047341  0.49997744  1
  V  V40  1  0.75590275  0.24915112  0.99644465  1
  V  V41  1  0.75613317  0.25146840  0.50061729  1
  V  V42  1  0.75035510  0.74496044  0.99087213  1
  V  V43  1  0.75560725  0.75037389  0.49988521  1
  V  V44  1  0.11053840  0.09592190  0.25416546  1
  V  V45  1  0.10404110  0.08983909  0.74995018  1
  V  V46  1  0.10405105  0.58652066  0.25022643  1
  V  V47  1  0.10332695  0.58757258  0.74912243  1
  V  V48  1  0.61081956  0.09608850  0.25441672  1
  V  V49  1  0.60363051  0.09050524  0.74998464  1
  V  V50  1  0.60415263  0.58652365  0.25044798  1
  V  V51  1  0.60216248  0.58638171  0.74788912  1
  V  V52  1  0.35386583  0.41314378  0.25042360  1
  V  V53  1  0.35432423  0.40918040  0.74999663  1
  V  V54  1  0.36087233  0.90932872  0.25475720  1
  V  V55  1  0.35402884  0.91123438  0.74952487  1
  V  V56  1  0.85365451  0.41335635  0.25034794  1
  V  V57  1  0.85460392  0.40984140  0.75051490  1
  V  V58  1  0.86122482  0.90928393  0.25492189  1
  V  V59  1  0.85341691  0.91132915  0.74938918  1
  Cr  Cr60  1  0.00159533  0.99863213  0.99513586  1
  Cr  Cr61  1  0.00608725  0.49852880  0.99771984  1
  Cr  Cr62  1  0.50092308  0.99763462  0.99523677  1
  Cr  Cr63  1  0.24591700  0.75197317  0.99362401  1
  O  O64  1  0.13407148  0.12904060  0.48989683  1
  O  O65  1  0.12631395  0.12821691  0.98689407  1
  O  O66  1  0.13347597  0.62856639  0.48975963  1
  O  O67  1  0.13075506  0.61658802  0.98316043  1
  O  O68  1  0.63408131  0.12902536  0.48992390  1
  O  O69  1  0.62712885  0.13240254  0.98791472  1
  O  O70  1  0.63339123  0.62849789  0.48962707  1
  O  O71  1  0.62995271  0.62159659  0.98574039  1
  O  O72  1  0.13958195  0.37244327  0.00786291  1
  O  O73  1  0.13009871  0.38797375  0.51106365  1
  O  O74  1  0.13132336  0.87255905  0.00326503  1
  O  O75  1  0.13145994  0.88801616  0.51250497  1
  O  O76  1  0.63374195  0.37992418  0.00690088  1
  O  O77  1  0.63014685  0.38801314  0.51116213  1
  O  O78  1  0.63450497  0.86668836  0.00033068  1
  O  O79  1  0.63140868  0.88807166  0.51248917  1
  O  O80  1  0.38415263  0.11094159  0.48995670  1
  O  O81  1  0.36916258  0.12544406  0.98615455  1
  O  O82  1  0.38338267  0.61118752  0.48959064  1
  O  O83  1  0.38129578  0.60590495  0.98696500  1
  O  O84  1  0.88415819  0.11101437  0.49005308  1
  O  O85  1  0.86836655  0.12702115  0.98626382  1
  O  O86  1  0.88341301  0.61115472  0.48962343  1
  O  O87  1  0.86795943  0.62137507  0.98590440  1
  O  O88  1  0.38102082  0.37288708  0.00773792  1
  O  O89  1  0.38127085  0.37440805  0.51225277  1
  O  O90  1  0.37894822  0.87023132  0.00202090  1
  O  O91  1  0.38017088  0.87316844  0.51114246  1
  O  O92  1  0.87766163  0.37492627  0.00768338  1
  O  O93  1  0.88138706  0.37447914  0.51246952  1
  O  O94  1  0.87465116  0.86998507  0.00100252  1
  O  O95  1  0.88019444  0.87317108  0.51124369  1
  O  O96  1  0.07288685  0.09510553  0.14007927  1
  O  O97  1  0.08359459  0.09991776  0.64197441  1
  O  O98  1  0.08129847  0.58350746  0.13853209  1
  O  O99  1  0.08291422  0.59959638  0.64128757  1
  O  O100  1  0.57475356  0.09439583  0.14029429  1
  O  O101  1  0.58362236  0.10011292  0.64214351  1
  O  O102  1  0.58312531  0.58387659  0.13901632  1
  O  O103  1  0.58279992  0.59943595  0.64096460  1
  O  O104  1  0.44171527  0.40062941  0.35806115  1
  O  O105  1  0.44255650  0.39800077  0.85761406  1
  O  O106  1  0.44575327  0.89515526  0.36176263  1
  O  O107  1  0.44379323  0.90291033  0.85757457  1
  O  O108  1  0.94142656  0.40042590  0.35765605  1
  O  O109  1  0.94088392  0.39946835  0.85859006  1
  O  O110  1  0.94596675  0.89530418  0.36192871  1
  O  O111  1  0.93960392  0.90279939  0.85786472  1
  O  O112  1  0.33108229  0.30225396  0.13908322  1
  O  O113  1  0.33343515  0.29168629  0.64151821  1
  O  O114  1  0.32526905  0.79620023  0.14208003  1
  O  O115  1  0.33327546  0.79176093  0.64163075  1
  O  O116  1  0.82918161  0.30352022  0.13789567  1
  O  O117  1  0.83361372  0.29180173  0.64209349  1
  O  O118  1  0.82539201  0.79709996  0.14187987  1
  O  O119  1  0.83313003  0.79173734  0.64166097  1
  O  O120  1  0.19549989  0.21626974  0.36123687  1
  O  O121  1  0.19115618  0.20913112  0.85818546  1
  O  O122  1  0.19142023  0.70726707  0.35787797  1
  O  O123  1  0.19097217  0.70654050  0.85619529  1
  O  O124  1  0.69559660  0.21653370  0.36149880  1
  O  O125  1  0.69058272  0.20973040  0.85914854  1
  O  O126  1  0.69155535  0.70735665  0.35801988  1
  O  O127  1  0.69059766  0.70516253  0.85611364  1
  O  O128  1  0.44920702  0.05869079  0.26308011  1
  O  O129  1  0.43285896  0.06057017  0.74949744  1
  O  O130  1  0.43268758  0.56292857  0.25140972  1
  O  O131  1  0.43255313  0.55897082  0.74975439  1
  O  O132  1  0.94905970  0.05875576  0.26310820  1
  O  O133  1  0.93289555  0.06042949  0.74970713  1
  O  O134  1  0.93278512  0.56295339  0.25173060  1
  O  O135  1  0.93257865  0.55894545  0.74966591  1
  O  O136  1  0.18294814  0.43786915  0.25201073  1
  O  O137  1  0.18308317  0.43888317  0.74963142  1
  O  O138  1  0.19882973  0.95552665  0.26318956  1
  O  O139  1  0.18324107  0.94092730  0.75024682  1
  O  O140  1  0.68311505  0.43793108  0.25234018  1
  O  O141  1  0.68264193  0.43918145  0.74943310  1
  O  O142  1  0.69943517  0.95587546  0.26357668  1
  O  O143  1  0.68253916  0.94155995  0.74997772  1
