# generated using pymatgen
data_Cs5GeP3
_symmetry_space_group_name_H-M   'P 1'
_cell_length_a   14.36893196
_cell_length_b   6.00897178
_cell_length_c   15.81379166
_cell_angle_alpha   90.00000000
_cell_angle_beta   90.00000000
_cell_angle_gamma   90.00000000
_symmetry_Int_Tables_number   1
_chemical_formula_structural   Cs5GeP3
_chemical_formula_sum   'Cs20 Ge4 P12'
_cell_volume   1365.40241167
_cell_formula_units_Z   4
loop_
 _symmetry_equiv_pos_site_id
 _symmetry_equiv_pos_as_xyz
  1  'x, y, z'
loop_
 _atom_site_type_symbol
 _atom_site_label
 _atom_site_symmetry_multiplicity
 _atom_site_fract_x
 _atom_site_fract_y
 _atom_site_fract_z
 _atom_site_occupancy
  Cs  Cs0  1  0.56151370  0.25000000  0.54909286  1
  Cs  Cs1  1  0.06151370  0.25000000  0.95090714  1
  Cs  Cs2  1  0.43848630  0.75000000  0.45090714  1
  Cs  Cs3  1  0.93848630  0.75000000  0.04909286  1
  Cs  Cs4  1  0.61741767  0.25000000  0.31197210  1
  Cs  Cs5  1  0.11741767  0.25000000  0.18802790  1
  Cs  Cs6  1  0.38258233  0.75000000  0.68802790  1
  Cs  Cs7  1  0.88258233  0.75000000  0.81197210  1
  Cs  Cs8  1  0.85317617  0.25000000  0.45113323  1
  Cs  Cs9  1  0.35317617  0.25000000  0.04886677  1
  Cs  Cs10  1  0.14682383  0.75000000  0.54886677  1
  Cs  Cs11  1  0.64682383  0.75000000  0.95113323  1
  Cs  Cs12  1  0.27357253  0.25000000  0.79362980  1
  Cs  Cs13  1  0.77357253  0.25000000  0.70637020  1
  Cs  Cs14  1  0.72642747  0.75000000  0.20637020  1
  Cs  Cs15  1  0.22642747  0.75000000  0.29362980  1
  Cs  Cs16  1  0.04592552  0.25000000  0.64938553  1
  Cs  Cs17  1  0.54592552  0.25000000  0.85061447  1
  Cs  Cs18  1  0.95407448  0.75000000  0.35061447  1
  Cs  Cs19  1  0.45407448  0.75000000  0.14938553  1
  Ge  Ge20  1  0.26054554  0.25000000  0.43575275  1
  Ge  Ge21  1  0.76054554  0.25000000  0.06424725  1
  Ge  Ge22  1  0.73945446  0.75000000  0.56424725  1
  Ge  Ge23  1  0.23945446  0.75000000  0.93575275  1
  P  P24  1  0.10472408  0.25000000  0.41316182  1
  P  P25  1  0.60472408  0.25000000  0.08683818  1
  P  P26  1  0.89527592  0.75000000  0.58683818  1
  P  P27  1  0.39527592  0.75000000  0.91316182  1
  P  P28  1  0.30676440  0.25000000  0.57270282  1
  P  P29  1  0.80676440  0.25000000  0.92729718  1
  P  P30  1  0.69323560  0.75000000  0.42729718  1
  P  P31  1  0.19323560  0.75000000  0.07270282  1
  P  P32  1  0.36522782  0.25000000  0.32790503  1
  P  P33  1  0.86522782  0.25000000  0.17209497  1
  P  P34  1  0.63477218  0.75000000  0.67209497  1
  P  P35  1  0.13477218  0.75000000  0.82790503  1
