# generated using pymatgen
data_Na3CuF6
_symmetry_space_group_name_H-M   'P 1'
_cell_length_a   5.38832526
_cell_length_b   5.65381396
_cell_length_c   7.75861989
_cell_angle_alpha   90.00000000
_cell_angle_beta   89.57151127
_cell_angle_gamma   90.00000000
_symmetry_Int_Tables_number   1
_chemical_formula_structural   Na3CuF6
_chemical_formula_sum   'Na6 Cu2 F12'
_cell_volume   236.35655289
_cell_formula_units_Z   2
loop_
 _symmetry_equiv_pos_site_id
 _symmetry_equiv_pos_as_xyz
  1  'x, y, z'
loop_
 _atom_site_type_symbol
 _atom_site_label
 _atom_site_symmetry_multiplicity
 _atom_site_fract_x
 _atom_site_fract_y
 _atom_site_fract_z
 _atom_site_occupancy
  Na  Na0  1  -0.00000000  0.00000000  0.50000000  1
  Na  Na1  1  0.50000000  0.50000000  0.00000000  1
  Na  Na2  1  0.01945188  0.43725564  0.25405553  1
  Na  Na3  1  0.98054812  0.56274436  0.74594447  1
  Na  Na4  1  0.48054812  0.93725564  0.24594447  1
  Na  Na5  1  0.51945188  0.06274436  0.75405553  1
  Cu  Cu6  1  -0.00000000  0.00000000  0.00000000  1
  Cu  Cu7  1  0.50000000  0.50000000  0.50000000  1
  F  F8  1  0.16778404  0.72140134  0.07093840  1
  F  F9  1  0.83221596  0.27859866  0.92906160  1
  F  F10  1  0.33221596  0.22140134  0.42906160  1
  F  F11  1  0.66778404  0.77859866  0.57093840  1
  F  F12  1  0.88193949  0.05395101  0.22705140  1
  F  F13  1  0.11806051  0.94604899  0.77294860  1
  F  F14  1  0.61806051  0.55395101  0.27294860  1
  F  F15  1  0.38193949  0.44604899  0.72705140  1
  F  F16  1  0.28622286  0.17740739  0.05235258  1
  F  F17  1  0.71377714  0.82259261  0.94764742  1
  F  F18  1  0.21377714  0.67740739  0.44764742  1
  F  F19  1  0.78622286  0.32259261  0.55235258  1
