# generated using pymatgen
data_Sn4Ge(H3C)12
_symmetry_space_group_name_H-M   'P 1'
_cell_length_a   9.75267252
_cell_length_b   10.58759205
_cell_length_c   15.43789134
_cell_angle_alpha   90.01207337
_cell_angle_beta   90.59943286
_cell_angle_gamma   111.72868833
_symmetry_Int_Tables_number   1
_chemical_formula_structural   Sn4Ge(H3C)12
_chemical_formula_sum   'Sn8 Ge2 H72 C24'
_cell_volume   1480.71658669
_cell_formula_units_Z   2
loop_
 _symmetry_equiv_pos_site_id
 _symmetry_equiv_pos_as_xyz
  1  'x, y, z'
loop_
 _atom_site_type_symbol
 _atom_site_label
 _atom_site_symmetry_multiplicity
 _atom_site_fract_x
 _atom_site_fract_y
 _atom_site_fract_z
 _atom_site_occupancy
  Sn  Sn0  1  0.23279389  0.51548271  0.24857702  1
  Sn  Sn1  1  0.76720611  0.48451729  0.75142298  1
  Sn  Sn2  1  0.32182489  0.20396851  0.09299993  1
  Sn  Sn3  1  0.67817511  0.79603149  0.90700007  1
  Sn  Sn4  1  0.43651374  0.24409245  0.36696996  1
  Sn  Sn5  1  0.56348626  0.75590755  0.63303004  1
  Sn  Sn6  1  0.97178707  0.08385482  0.28944377  1
  Sn  Sn7  1  0.02821293  0.91614518  0.71055623  1
  Ge  Ge8  1  0.24076421  0.26374223  0.24898621  1
  Ge  Ge9  1  0.75923579  0.73625777  0.75101379  1
  H  H10  1  0.44607076  0.76982431  0.22386618  1
  H  H11  1  0.55392924  0.23017569  0.77613382  1
  H  H12  1  0.52849600  0.66285376  0.27421009  1
  H  H13  1  0.47150400  0.33714624  0.72578991  1
  H  H14  1  0.48932064  0.64858923  0.16040843  1
  H  H15  1  0.51067936  0.35141077  0.83959157  1
  H  H16  1  0.08211221  0.64274778  0.15335413  1
  H  H17  1  0.91788779  0.35725222  0.84664587  1
  H  H18  1  0.11495862  0.51992046  0.08596695  1
  H  H19  1  0.88504138  0.48007954  0.91403305  1
  H  H20  1  0.96921290  0.46713782  0.16325832  1
  H  H21  1  0.03078710  0.53286218  0.83674168  1
  H  H22  1  0.16028010  0.66916991  0.37054623  1
  H  H23  1  0.83971990  0.33083009  0.62945377  1
  H  H24  1  0.05084403  0.49414257  0.38712596  1
  H  H25  1  0.94915597  0.50585743  0.61287404  1
  H  H26  1  0.23852322  0.56165176  0.42431941  1
  H  H27  1  0.76147678  0.43834824  0.57568059  1
  H  H28  1  0.21756310  0.19800785  0.92614582  1
  H  H29  1  0.78243690  0.80199215  0.07385418  1
  H  H30  1  0.06613255  0.15502289  0.99925543  1
  H  H31  1  0.93386745  0.84497711  0.00074457  1
  H  H32  1  0.18443204  0.32875475  0.98519484  1
  H  H33  1  0.81556796  0.67124525  0.01480516  1
  H  H34  1  0.34684820  0.97308404  0.02492799  1
  H  H35  1  0.65315180  0.02691596  0.97507201  1
  H  H36  1  0.38818407  0.98225924  0.13831585  1
  H  H37  1  0.61181593  0.01774076  0.86168415  1
  H  H38  1  0.20048127  0.92479055  0.10154493  1
  H  H39  1  0.79951873  0.07520945  0.89845507  1
  H  H40  1  0.57647696  0.30437510  0.99801435  1
  H  H41  1  0.42352304  0.69562490  0.00198565  1
  H  H42  1  0.55899611  0.43999184  0.06046452  1
  H  H43  1  0.44100389  0.56000816  0.93953548  1
  H  H44  1  0.62374759  0.32001638  0.11045737  1
  H  H45  1  0.37625241  0.67998362  0.88954263  1
  H  H46  1  0.46581143  0.27332362  0.54421444  1
  H  H47  1  0.53418857  0.72667638  0.45578556  1
  H  H48  1  0.38222571  0.38618790  0.50325271  1
  H  H49  1  0.61777429  0.61381210  0.49674729  1
  H  H50  1  0.27426648  0.20945423  0.51558675  1
  H  H51  1  0.72573352  0.79054577  0.48441325  1
  H  H52  1  0.73674891  0.37386253  0.39185580  1
  H  H53  1  0.26325109  0.62613747  0.60814420  1
  H  H54  1  0.69556673  0.36450620  0.27829669  1
  H  H55  1  0.30443327  0.63549380  0.72170331  1
  H  H56  1  0.66389797  0.48960720  0.34406069  1
  H  H57  1  0.33610203  0.51039280  0.65593931  1
  H  H58  1  0.51536096  0.02928927  0.41592257  1
  H  H59  1  0.48463904  0.97071073  0.58407743  1
  H  H60  1  0.32517813  0.96673561  0.38397999  1
  H  H61  1  0.67482187  0.03326439  0.61602001  1
  H  H62  1  0.46559751  0.01239175  0.30356091  1
  H  H63  1  0.53440249  0.98760825  0.69643909  1
  H  H64  1  0.69692535  0.01730486  0.21326601  1
  H  H65  1  0.30307465  0.98269514  0.78673399  1
  H  H66  1  0.80189419  0.19390862  0.19597237  1
  H  H67  1  0.19810581  0.80609138  0.80402763  1
  H  H68  1  0.83455051  0.06807321  0.13137262  1
  H  H69  1  0.16544949  0.93192679  0.86862738  1
  H  H70  1  0.79725732  0.05392130  0.43342529  1
  H  H71  1  0.20274268  0.94607870  0.56657471  1
  H  H72  1  0.98729042  0.12216075  0.46591637  1
  H  H73  1  0.01270958  0.87783925  0.53408363  1
  H  H74  1  0.90427062  0.23029368  0.41809930  1
  H  H75  1  0.09572938  0.76970632  0.58190070  1
  H  H76  1  0.84808743  0.80556306  0.30721569  1
  H  H77  1  0.15191257  0.19443694  0.69278431  1
  H  H78  1  0.98726437  0.84697284  0.22648302  1
  H  H79  1  0.01273563  0.15302716  0.77351698  1
  H  H80  1  0.03838245  0.86304768  0.33878689  1
  H  H81  1  0.96161755  0.13695232  0.66121311  1
  C  C82  1  0.45074640  0.66772539  0.22363009  1
  C  C83  1  0.54925360  0.33227461  0.77636991  1
  C  C84  1  0.08139613  0.53904103  0.15078871  1
  C  C85  1  0.91860387  0.46095897  0.84921129  1
  C  C86  1  0.16206946  0.56608838  0.37286403  1
  C  C87  1  0.83793054  0.43391162  0.62713597  1
  C  C88  1  0.18023396  0.22395359  0.98812057  1
  C  C89  1  0.81976604  0.77604641  0.01187943  1
  C  C90  1  0.31312645  0.99562179  0.08913903  1
  C  C91  1  0.68687355  0.00437821  0.91086097  1
  C  C92  1  0.54774174  0.33320565  0.06182627  1
  C  C93  1  0.45225826  0.66679435  0.93817373  1
  C  C94  1  0.38332917  0.28323095  0.49853743  1
  C  C95  1  0.61667083  0.71676905  0.50146257  1
  C  C96  1  0.66051419  0.38509409  0.34225246  1
  C  C97  1  0.33948581  0.61490591  0.65774754  1
  C  C98  1  0.43585930  0.03812661  0.36765525  1
  C  C99  1  0.56414070  0.96187339  0.63234475  1
  C  C100  1  0.80594211  0.09188565  0.19623901  1
  C  C101  1  0.19405789  0.90811435  0.80376099  1
  C  C102  1  0.90732437  0.12775876  0.41735145  1
  C  C103  1  0.09267563  0.87224124  0.58264855  1
  C  C104  1  0.96025362  0.87446917  0.29046934  1
  C  C105  1  0.03974638  0.12553083  0.70953066  1
