# generated using pymatgen
data_CdP14Pb
_symmetry_space_group_name_H-M   'P 1'
_cell_length_a   9.85157427
_cell_length_b   11.08224188
_cell_length_c   13.24950493
_cell_angle_alpha   90.00000000
_cell_angle_beta   90.00000000
_cell_angle_gamma   90.00000000
_symmetry_Int_Tables_number   1
_chemical_formula_structural   CdP14Pb
_chemical_formula_sum   'Cd4 P56 Pb4'
_cell_volume   1446.54820819
_cell_formula_units_Z   4
loop_
 _symmetry_equiv_pos_site_id
 _symmetry_equiv_pos_as_xyz
  1  'x, y, z'
loop_
 _atom_site_type_symbol
 _atom_site_label
 _atom_site_symmetry_multiplicity
 _atom_site_fract_x
 _atom_site_fract_y
 _atom_site_fract_z
 _atom_site_occupancy
  Cd  Cd0  1  0.25000000  0.50424733  0.31992638  1
  Cd  Cd1  1  0.75000000  0.49575267  0.68007362  1
  Cd  Cd2  1  0.75000000  0.00424733  0.18007362  1
  Cd  Cd3  1  0.25000000  -0.00424733  0.81992638  1
  P  P4  1  0.04866918  0.36324348  0.36314225  1
  P  P5  1  0.95133082  0.63675652  0.63685775  1
  P  P6  1  0.95133082  0.86324348  0.13685775  1
  P  P7  1  0.54866918  0.63675652  0.63685775  1
  P  P8  1  0.04866918  0.13675652  0.86314225  1
  P  P9  1  0.45133082  0.36324348  0.36314225  1
  P  P10  1  0.45133082  0.13675652  0.86314225  1
  P  P11  1  0.54866918  0.86324348  0.13685775  1
  P  P12  1  0.25000000  0.65407978  0.17054704  1
  P  P13  1  0.75000000  0.34592022  0.82945296  1
  P  P14  1  0.75000000  0.15407978  0.32945296  1
  P  P15  1  0.25000000  0.84592022  0.67054704  1
  P  P16  1  0.58271493  0.28806712  0.06103321  1
  P  P17  1  0.41728507  0.71193288  0.93896679  1
  P  P18  1  0.41728507  0.78806712  0.43896679  1
  P  P19  1  0.08271493  0.71193288  0.93896679  1
  P  P20  1  0.58271493  0.21193288  0.56103321  1
  P  P21  1  0.91728507  0.28806712  0.06103321  1
  P  P22  1  0.91728507  0.21193288  0.56103321  1
  P  P23  1  0.08271493  0.78806712  0.43896679  1
  P  P24  1  0.07684331  0.17420508  0.32328482  1
  P  P25  1  0.92315669  0.82579492  0.67671518  1
  P  P26  1  0.92315669  0.67420508  0.17671518  1
  P  P27  1  0.57684331  0.82579492  0.67671518  1
  P  P28  1  0.07684331  0.32579492  0.82328482  1
  P  P29  1  0.42315669  0.17420508  0.32328482  1
  P  P30  1  0.42315669  0.32579492  0.82328482  1
  P  P31  1  0.57684331  0.67420508  0.17671518  1
  P  P32  1  0.07891322  0.59000530  0.07873044  1
  P  P33  1  0.92108678  0.40999470  0.92126956  1
  P  P34  1  0.92108678  0.09000530  0.42126956  1
  P  P35  1  0.57891322  0.40999470  0.92126956  1
  P  P36  1  0.07891322  0.90999470  0.57873044  1
  P  P37  1  0.42108678  0.59000530  0.07873044  1
  P  P38  1  0.42108678  0.90999470  0.57873044  1
  P  P39  1  0.57891322  0.09000530  0.42126956  1
  P  P40  1  0.25000000  0.10679954  0.41252030  1
  P  P41  1  0.75000000  0.89320046  0.58747970  1
  P  P42  1  0.75000000  0.60679954  0.08747970  1
  P  P43  1  0.25000000  0.39320046  0.91252030  1
  P  P44  1  0.07633994  0.15419979  0.02577025  1
  P  P45  1  0.92366006  0.84580021  0.97422975  1
  P  P46  1  0.92366006  0.65419979  0.47422975  1
  P  P47  1  0.57633994  0.84580021  0.97422975  1
  P  P48  1  0.07633994  0.34580021  0.52577025  1
  P  P49  1  0.42366006  0.15419979  0.02577025  1
  P  P50  1  0.42366006  0.34580021  0.52577025  1
  P  P51  1  0.57633994  0.65419979  0.47422975  1
  P  P52  1  0.25000000  0.66290602  0.47107080  1
  P  P53  1  0.75000000  0.33709398  0.52892920  1
  P  P54  1  0.75000000  0.16290602  0.02892920  1
  P  P55  1  0.25000000  0.83709398  0.97107080  1
  P  P56  1  0.25000000  0.27706863  0.05063092  1
  P  P57  1  0.75000000  0.72293137  0.94936908  1
  P  P58  1  0.75000000  0.77706863  0.44936908  1
  P  P59  1  0.25000000  0.22293137  0.55063092  1
  Pb  Pb60  1  0.25000000  0.59319804  0.67289391  1
  Pb  Pb61  1  0.75000000  0.40680196  0.32710609  1
  Pb  Pb62  1  0.75000000  0.09319804  0.82710609  1
  Pb  Pb63  1  0.25000000  0.90680196  0.17289391  1
