# generated using pymatgen
data_Tb2Ge2O7
_symmetry_space_group_name_H-M   'P 1'
_cell_length_a   6.83413062
_cell_length_b   6.83413062
_cell_length_c   12.45113394
_cell_angle_alpha   90.00000000
_cell_angle_beta   90.00000000
_cell_angle_gamma   90.00000000
_symmetry_Int_Tables_number   1
_chemical_formula_structural   Tb2Ge2O7
_chemical_formula_sum   'Tb8 Ge8 O28'
_cell_volume   581.53446063
_cell_formula_units_Z   4
loop_
 _symmetry_equiv_pos_site_id
 _symmetry_equiv_pos_as_xyz
  1  'x, y, z'
loop_
 _atom_site_type_symbol
 _atom_site_label
 _atom_site_symmetry_multiplicity
 _atom_site_fract_x
 _atom_site_fract_y
 _atom_site_fract_z
 _atom_site_occupancy
  Tb  Tb0  1  0.64820340  0.12430254  0.86496009  1
  Tb  Tb1  1  0.35179660  0.87569746  0.36496009  1
  Tb  Tb2  1  0.12430254  0.64820340  0.13503991  1
  Tb  Tb3  1  0.62430254  0.85179660  0.61496009  1
  Tb  Tb4  1  0.37569746  0.14820340  0.11496009  1
  Tb  Tb5  1  0.85179660  0.62430254  0.38503991  1
  Tb  Tb6  1  0.14820340  0.37569746  0.88503991  1
  Tb  Tb7  1  0.87569746  0.35179660  0.63503991  1
  Ge  Ge8  1  0.65342895  0.59942975  0.86981511  1
  Ge  Ge9  1  0.34657105  0.40057025  0.36981511  1
  Ge  Ge10  1  0.59942975  0.65342895  0.13018489  1
  Ge  Ge11  1  0.09942975  0.84657105  0.61981511  1
  Ge  Ge12  1  0.90057025  0.15342895  0.11981511  1
  Ge  Ge13  1  0.84657105  0.09942975  0.38018489  1
  Ge  Ge14  1  0.15342895  0.90057025  0.88018489  1
  Ge  Ge15  1  0.40057025  0.34657105  0.63018489  1
  O  O16  1  0.30350624  0.30350624  0.50000000  1
  O  O17  1  0.19649376  0.80350624  0.75000000  1
  O  O18  1  0.80350624  0.19649376  0.25000000  1
  O  O19  1  0.69649376  0.69649376  0.00000000  1
  O  O20  1  0.53050709  0.57654284  0.37370769  1
  O  O21  1  0.46949291  0.42345716  0.87370769  1
  O  O22  1  0.57654284  0.53050709  0.62629231  1
  O  O23  1  0.07654284  0.96949291  0.12370769  1
  O  O24  1  0.92345716  0.03050709  0.62370769  1
  O  O25  1  0.96949291  0.07654284  0.87629231  1
  O  O26  1  0.03050709  0.92345716  0.37629231  1
  O  O27  1  0.42345716  0.46949291  0.12629231  1
  O  O28  1  0.81466012  0.64334144  0.20491114  1
  O  O29  1  0.18533988  0.35665856  0.70491114  1
  O  O30  1  0.64334144  0.81466012  0.79508886  1
  O  O31  1  0.14334144  0.68533988  0.95491114  1
  O  O32  1  0.06295130  0.33821076  0.07164204  1
  O  O33  1  0.16178924  0.56295130  0.32164204  1
  O  O34  1  0.83821076  0.43704870  0.82164204  1
  O  O35  1  0.56295130  0.16178924  0.67835796  1
  O  O36  1  0.43704870  0.83821076  0.17835796  1
  O  O37  1  0.93704870  0.66178924  0.57164204  1
  O  O38  1  0.33821076  0.06295130  0.92835796  1
  O  O39  1  0.66178924  0.93704870  0.42835796  1
  O  O40  1  0.35665856  0.18533988  0.29508886  1
  O  O41  1  0.31466012  0.85665856  0.54508886  1
  O  O42  1  0.68533988  0.14334144  0.04508886  1
  O  O43  1  0.85665856  0.31466012  0.45491114  1
