# generated using pymatgen
data_Sc2(SO4)3
_symmetry_space_group_name_H-M   'P 1'
_cell_length_a   9.09652011
_cell_length_b   9.09652011
_cell_length_c   9.09651927
_cell_angle_alpha   57.69974968
_cell_angle_beta   57.69974968
_cell_angle_gamma   57.69975317
_symmetry_Int_Tables_number   1
_chemical_formula_structural   Sc2(SO4)3
_chemical_formula_sum   'Sc4 S6 O24'
_cell_volume   504.11523410
_cell_formula_units_Z   2
loop_
 _symmetry_equiv_pos_site_id
 _symmetry_equiv_pos_as_xyz
  1  'x, y, z'
loop_
 _atom_site_type_symbol
 _atom_site_label
 _atom_site_symmetry_multiplicity
 _atom_site_fract_x
 _atom_site_fract_y
 _atom_site_fract_z
 _atom_site_occupancy
  Sc  Sc0  1  0.14411003  0.14411003  0.14411003  1
  Sc  Sc1  1  0.85588997  0.85588997  0.85588997  1
  Sc  Sc2  1  0.35588997  0.35588997  0.35588997  1
  Sc  Sc3  1  0.64411003  0.64411003  0.64411003  1
  S  S4  1  0.03654848  0.46345152  0.75000000  1
  S  S5  1  0.46345152  0.75000000  0.03654848  1
  S  S6  1  0.75000000  0.03654848  0.46345152  1
  S  S7  1  0.96345152  0.53654848  0.25000000  1
  S  S8  1  0.25000000  0.96345152  0.53654848  1
  S  S9  1  0.53654848  0.25000000  0.96345152  1
  O  O10  1  0.22769133  0.99150135  0.37426853  1
  O  O11  1  0.37426853  0.22769133  0.99150135  1
  O  O12  1  0.99150135  0.37426853  0.22769133  1
  O  O13  1  0.77230867  0.00849865  0.62573147  1
  O  O14  1  0.62573147  0.77230867  0.00849865  1
  O  O15  1  0.00849865  0.62573147  0.77230867  1
  O  O16  1  0.27230867  0.12573147  0.50849865  1
  O  O17  1  0.50849865  0.27230867  0.12573147  1
  O  O18  1  0.12573147  0.50849865  0.27230867  1
  O  O19  1  0.72769133  0.87426853  0.49150135  1
  O  O20  1  0.06369297  0.29849848  0.91382124  1
  O  O21  1  0.29849848  0.91382124  0.06369297  1
  O  O22  1  0.91382124  0.06369297  0.29849848  1
  O  O23  1  0.93630703  0.70150152  0.08617876  1
  O  O24  1  0.70150152  0.08617876  0.93630703  1
  O  O25  1  0.08617876  0.93630703  0.70150152  1
  O  O26  1  0.20150152  0.43630703  0.58617876  1
  O  O27  1  0.43630703  0.58617876  0.20150152  1
  O  O28  1  0.58617876  0.20150152  0.43630703  1
  O  O29  1  0.79849848  0.56369297  0.41382124  1
  O  O30  1  0.56369297  0.41382124  0.79849848  1
  O  O31  1  0.41382124  0.79849848  0.56369297  1
  O  O32  1  0.87426853  0.49150135  0.72769133  1
  O  O33  1  0.49150135  0.72769133  0.87426853  1
