# generated using pymatgen
data_K2Nb2As2O11
_symmetry_space_group_name_H-M   'P 1'
_cell_length_a   10.52112835
_cell_length_b   10.01505432
_cell_length_c   10.36661248
_cell_angle_alpha   83.00976495
_cell_angle_beta   90.00000000
_cell_angle_gamma   90.00000000
_symmetry_Int_Tables_number   1
_chemical_formula_structural   K2Nb2As2O11
_chemical_formula_sum   'K8 Nb8 As8 O44'
_cell_volume   1084.20719227
_cell_formula_units_Z   4
loop_
 _symmetry_equiv_pos_site_id
 _symmetry_equiv_pos_as_xyz
  1  'x, y, z'
loop_
 _atom_site_type_symbol
 _atom_site_label
 _atom_site_symmetry_multiplicity
 _atom_site_fract_x
 _atom_site_fract_y
 _atom_site_fract_z
 _atom_site_occupancy
  K  K0  1  0.21416010  0.73843251  0.53462766  1
  K  K1  1  0.71416010  0.26156749  0.46537234  1
  K  K2  1  0.79805048  0.26083311  0.93180670  1
  K  K3  1  0.29805048  0.73916689  0.06819330  1
  K  K4  1  0.99907406  0.49707464  0.24941927  1
  K  K5  1  0.49907406  0.50292536  0.75058073  1
  K  K6  1  0.06965429  0.98660182  0.75613092  1
  K  K7  1  0.56965429  0.01339818  0.24386908  1
  Nb  Nb8  1  0.09304695  0.14384601  0.38368287  1
  Nb  Nb9  1  0.59304695  0.85615399  0.61631713  1
  Nb  Nb10  1  0.90610300  0.85552191  0.11490853  1
  Nb  Nb11  1  0.40610300  0.14447809  0.88509147  1
  Nb  Nb12  1  0.31831298  0.43549634  0.39664747  1
  Nb  Nb13  1  0.81831298  0.56450366  0.60335253  1
  Nb  Nb14  1  0.68258814  0.56080516  0.10355191  1
  Nb  Nb15  1  0.18258814  0.43919484  0.89644809  1
  As  As16  1  0.38563564  0.11079030  0.55946052  1
  As  As17  1  0.88563564  0.88920970  0.44053948  1
  As  As18  1  0.60950448  0.88619349  0.94165132  1
  As  As19  1  0.10950448  0.11380651  0.05834868  1
  As  As20  1  0.07897730  0.36793656  0.60610710  1
  As  As21  1  0.57897730  0.63206344  0.39389290  1
  As  As22  1  0.92173237  0.63421602  0.89387890  1
  As  As23  1  0.42173237  0.36578398  0.10612110  1
  O  O24  1  0.19042055  0.31185951  0.35057821  1
  O  O25  1  0.69042055  0.68814049  0.64942179  1
  O  O26  1  0.81052469  0.68664524  0.14740430  1
  O  O27  1  0.31052469  0.31335476  0.85259570  1
  O  O28  1  0.94113880  0.20916556  0.33952707  1
  O  O29  1  0.44113880  0.79083444  0.66047293  1
  O  O30  1  0.05717090  0.79223939  0.16438277  1
  O  O31  1  0.55717090  0.20776061  0.83561723  1
  O  O32  1  0.34758334  0.07175314  0.72153538  1
  O  O33  1  0.84758334  0.92824686  0.27846462  1
  O  O34  1  0.64650017  0.92713565  0.78053109  1
  O  O35  1  0.14650017  0.07286435  0.21946891  1
  O  O36  1  0.21589515  0.45226149  0.56400257  1
  O  O37  1  0.71589515  0.54773851  0.43599743  1
  O  O38  1  0.78573559  0.54762468  0.93567817  1
  O  O39  1  0.28573559  0.45237532  0.06432183  1
  O  O40  1  0.44449570  0.36533610  0.26809352  1
  O  O41  1  0.94449570  0.63466390  0.73190648  1
  O  O42  1  0.55676265  0.63370854  0.23157494  1
  O  O43  1  0.05676265  0.36629146  0.76842506  1
  O  O44  1  0.26042876  0.58694287  0.30826644  1
  O  O45  1  0.76042876  0.41305713  0.69173356  1
  O  O46  1  0.73916755  0.41187539  0.19599139  1
  O  O47  1  0.23916755  0.58812461  0.80400861  1
  O  O48  1  0.41448913  0.27594079  0.52908924  1
  O  O49  1  0.91448913  0.72405921  0.47091076  1
  O  O50  1  0.58155439  0.72089262  0.97163323  1
  O  O51  1  0.08155439  0.27910738  0.02836677  1
  O  O52  1  0.27109387  0.04460307  0.47419449  1
  O  O53  1  0.77109387  0.95539693  0.52580551  1
  O  O54  1  0.71938565  0.95083368  0.03439078  1
  O  O55  1  0.21938565  0.04916632  0.96560922  1
  O  O56  1  0.07947100  0.20543573  0.57756015  1
  O  O57  1  0.57947100  0.79456427  0.42243985  1
  O  O58  1  0.92165007  0.79728311  0.92157392  1
  O  O59  1  0.42165007  0.20271689  0.07842608  1
  O  O60  1  0.02861938  0.96095184  0.47436210  1
  O  O61  1  0.52861938  0.03904816  0.52563790  1
  O  O62  1  0.96740729  0.03952236  0.02475400  1
  O  O63  1  0.46740729  0.96047764  0.97524600  1
  O  O64  1  0.46312119  0.54405443  0.48003157  1
  O  O65  1  0.96312119  0.45594557  0.51996843  1
  O  O66  1  0.53844340  0.45266483  0.02009992  1
  O  O67  1  0.03844340  0.54733517  0.97990008  1
