# generated using pymatgen
data_Sr3(GaN2)2
_symmetry_space_group_name_H-M   'P 1'
_cell_length_a   5.95305826
_cell_length_b   9.55679643
_cell_length_c   10.28142300
_cell_angle_alpha   90.00000000
_cell_angle_beta   90.00000000
_cell_angle_gamma   90.00000000
_symmetry_Int_Tables_number   1
_chemical_formula_structural   Sr3(GaN2)2
_chemical_formula_sum   'Sr12 Ga8 N16'
_cell_volume   584.93242328
_cell_formula_units_Z   4
loop_
 _symmetry_equiv_pos_site_id
 _symmetry_equiv_pos_as_xyz
  1  'x, y, z'
loop_
 _atom_site_type_symbol
 _atom_site_label
 _atom_site_symmetry_multiplicity
 _atom_site_fract_x
 _atom_site_fract_y
 _atom_site_fract_z
 _atom_site_occupancy
  Sr  Sr0  1  0.25000000  0.59547391  0.50000000  1
  Sr  Sr1  1  0.25000000  0.90452609  0.00000000  1
  Sr  Sr2  1  0.75000000  0.40452609  0.50000000  1
  Sr  Sr3  1  0.75000000  0.09547391  0.00000000  1
  Sr  Sr4  1  0.39085124  0.58772376  0.15413911  1
  Sr  Sr5  1  0.39085124  0.91227624  0.34586089  1
  Sr  Sr6  1  0.10914876  0.58772376  0.84586089  1
  Sr  Sr7  1  0.10914876  0.91227624  0.65413911  1
  Sr  Sr8  1  0.60914876  0.41227624  0.84586089  1
  Sr  Sr9  1  0.60914876  0.08772376  0.65413911  1
  Sr  Sr10  1  0.89085124  0.41227624  0.15413911  1
  Sr  Sr11  1  0.89085124  0.08772376  0.34586089  1
  Ga  Ga12  1  0.83829616  0.75000000  0.25000000  1
  Ga  Ga13  1  0.66170384  0.75000000  0.75000000  1
  Ga  Ga14  1  0.16170384  0.25000000  0.75000000  1
  Ga  Ga15  1  0.33829616  0.25000000  0.25000000  1
  Ga  Ga16  1  0.25000000  0.23005211  0.00000000  1
  Ga  Ga17  1  0.75000000  0.73005211  0.50000000  1
  Ga  Ga18  1  0.75000000  0.76994789  0.00000000  1
  Ga  Ga19  1  0.25000000  0.26994789  0.50000000  1
  N  N20  1  0.49187776  0.16800838  0.40429445  1
  N  N21  1  0.49187776  0.33199162  0.09570555  1
  N  N22  1  0.00812224  0.16800838  0.59570555  1
  N  N23  1  0.00812224  0.33199162  0.90429445  1
  N  N24  1  0.50812224  0.83199162  0.59570555  1
  N  N25  1  0.50812224  0.66800838  0.90429445  1
  N  N26  1  0.99187776  0.83199162  0.40429445  1
  N  N27  1  0.99187776  0.66800838  0.09570555  1
  N  N28  1  0.12464298  0.37510119  0.35339486  1
  N  N29  1  0.12464298  0.12489881  0.14660514  1
  N  N30  1  0.37535702  0.37510119  0.64660514  1
  N  N31  1  0.37535702  0.12489881  0.85339486  1
  N  N32  1  0.87535702  0.87510119  0.85339486  1
  N  N33  1  0.62464298  0.62489881  0.35339486  1
  N  N34  1  0.62464298  0.87510119  0.14660514  1
  N  N35  1  0.87535702  0.62489881  0.64660514  1
