# generated using pymatgen
data_Ba6MgSc2C2(O3F7)2
_symmetry_space_group_name_H-M   'P 1'
_cell_length_a   6.64932025
_cell_length_b   8.96782447
_cell_length_c   8.90553503
_cell_angle_alpha   97.76261300
_cell_angle_beta   87.61250321
_cell_angle_gamma   86.00786803
_symmetry_Int_Tables_number   1
_chemical_formula_structural   Ba6MgSc2C2(O3F7)2
_chemical_formula_sum   'Ba6 Mg1 Sc2 C2 O6 F14'
_cell_volume   524.19264587
_cell_formula_units_Z   1
loop_
 _symmetry_equiv_pos_site_id
 _symmetry_equiv_pos_as_xyz
  1  'x, y, z'
loop_
 _atom_site_type_symbol
 _atom_site_label
 _atom_site_symmetry_multiplicity
 _atom_site_fract_x
 _atom_site_fract_y
 _atom_site_fract_z
 _atom_site_occupancy
  Ba  Ba0  1  0.13308488  0.84641786  0.59447416  1
  Ba  Ba1  1  0.78753320  0.61375621  0.85518158  1
  Ba  Ba2  1  0.26719713  0.40251009  0.15849403  1
  Ba  Ba3  1  0.81535575  0.13154321  0.94533674  1
  Ba  Ba4  1  0.28616115  0.91340384  0.09494830  1
  Ba  Ba5  1  0.73002129  0.17550533  0.41755770  1
  Mg  Mg6  1  0.61754405  0.90373912  0.65238359  1
  Sc  Sc7  1  0.25242104  0.27338584  0.73816250  1
  Sc  Sc8  1  0.73512473  0.73121214  0.26175777  1
  C  C9  1  0.24641304  0.46841629  0.54284861  1
  C  C10  1  0.74757856  0.54316391  0.46855757  1
  O  O11  1  0.22860250  0.55871224  0.44394313  1
  O  O12  1  0.76817446  0.68996453  0.50314451  1
  O  O13  1  0.17564189  0.50484474  0.68323062  1
  O  O14  1  0.33384117  0.33141365  0.50957856  1
  O  O15  1  0.75014890  0.45616858  0.56945088  1
  O  O16  1  0.72581894  0.49801390  0.32522390  1
  F  F17  1  0.52373693  0.17176385  0.16666171  1
  F  F18  1  0.24294215  0.12501400  0.90490891  1
  F  F19  1  0.69609942  0.87380289  0.09379332  1
  F  F20  1  0.45317633  0.78562122  0.77509591  1
  F  F21  1  0.40427876  0.07194758  0.62088360  1
  F  F22  1  0.52409804  0.62830954  0.11029644  1
  F  F23  1  0.03056605  0.37496644  0.91237858  1
  F  F24  1  0.49623643  0.34634775  0.85982224  1
  F  F25  1  0.00815461  0.17515738  0.65144677  1
  F  F26  1  0.94302793  0.89055826  0.33435212  1
  F  F27  1  0.03092727  0.84741777  0.88598348  1
  F  F28  1  0.02961308  0.16957917  0.20063434  1
  F  F29  1  0.98270105  0.63707552  0.12878420  1
  F  F30  1  0.48169626  0.86026718  0.36211323  1
