# generated using pymatgen
data_Sb2Cl7F3
_symmetry_space_group_name_H-M   'P 1'
_cell_length_a   10.08999179
_cell_length_b   10.08999179
_cell_length_c   13.16876469
_cell_angle_alpha   49.61046912
_cell_angle_beta   49.61046912
_cell_angle_gamma   44.17164049
_symmetry_Int_Tables_number   1
_chemical_formula_structural   Sb2Cl7F3
_chemical_formula_sum   'Sb4 Cl14 F6'
_cell_volume   667.80031694
_cell_formula_units_Z   2
loop_
 _symmetry_equiv_pos_site_id
 _symmetry_equiv_pos_as_xyz
  1  'x, y, z'
loop_
 _atom_site_type_symbol
 _atom_site_label
 _atom_site_symmetry_multiplicity
 _atom_site_fract_x
 _atom_site_fract_y
 _atom_site_fract_z
 _atom_site_occupancy
  Sb  Sb0  1  0.27303946  0.15799840  0.83038468  1
  Sb  Sb1  1  0.84200160  0.72696054  0.16961532  1
  Sb  Sb2  1  0.97667996  0.93609496  0.26064431  1
  Sb  Sb3  1  0.06390504  0.02332004  0.73935569  1
  Cl  Cl4  1  0.04782515  0.07873762  0.29045847  1
  Cl  Cl5  1  0.92126238  0.95217485  0.70954153  1
  Cl  Cl6  1  0.70073925  0.23214038  0.19234466  1
  Cl  Cl7  1  0.76785962  0.29926075  0.80765534  1
  Cl  Cl8  1  0.36538333  0.71615808  0.74017328  1
  Cl  Cl9  1  0.28384192  0.63461667  0.25982672  1
  Cl  Cl10  1  0.33040482  0.25979188  0.90543255  1
  Cl  Cl11  1  0.74020812  0.66959518  0.09456745  1
  Cl  Cl12  1  0.38883018  0.31204660  0.58861480  1
  Cl  Cl13  1  0.68795340  0.61116982  0.41138520  1
  Cl  Cl14  1  0.79657053  0.81166958  0.49241631  1
  Cl  Cl15  1  0.18833042  0.20342947  0.50758369  1
  Cl  Cl16  1  0.55695647  0.83610000  0.84539766  1
  Cl  Cl17  1  0.16390000  0.44304353  0.15460234  1
  F  F18  1  0.18079970  0.05624603  0.80477632  1
  F  F19  1  0.94375397  0.81920030  0.19522368  1
  F  F20  1  0.00298188  0.37472093  0.84959015  1
  F  F21  1  0.62527907  0.99701812  0.15040985  1
  F  F22  1  0.13737229  0.02088155  0.03923015  1
  F  F23  1  0.97911845  0.86262771  0.96076985  1
