# generated using pymatgen
data_CaNb2O6
_symmetry_space_group_name_H-M   'P 1'
_cell_length_a   5.25749612
_cell_length_b   5.81967314
_cell_length_c   15.08149093
_cell_angle_alpha   90.00000000
_cell_angle_beta   90.00000000
_cell_angle_gamma   90.00000000
_symmetry_Int_Tables_number   1
_chemical_formula_structural   CaNb2O6
_chemical_formula_sum   'Ca4 Nb8 O24'
_cell_volume   461.44700486
_cell_formula_units_Z   4
loop_
 _symmetry_equiv_pos_site_id
 _symmetry_equiv_pos_as_xyz
  1  'x, y, z'
loop_
 _atom_site_type_symbol
 _atom_site_label
 _atom_site_symmetry_multiplicity
 _atom_site_fract_x
 _atom_site_fract_y
 _atom_site_fract_z
 _atom_site_occupancy
  Ca  Ca0  1  0.25000000  0.77887292  0.00000000  1
  Ca  Ca1  1  0.75000000  0.72112708  0.50000000  1
  Ca  Ca2  1  0.75000000  0.22112708  0.00000000  1
  Ca  Ca3  1  0.25000000  0.27887292  0.50000000  1
  Nb  Nb4  1  0.29936817  0.81357059  0.66491437  1
  Nb  Nb5  1  0.79936817  0.68642941  0.83508563  1
  Nb  Nb6  1  0.20063183  0.81357059  0.33508563  1
  Nb  Nb7  1  0.70063183  0.68642941  0.16491437  1
  Nb  Nb8  1  0.29936817  0.31357059  0.83508563  1
  Nb  Nb9  1  0.79936817  0.18642941  0.66491437  1
  Nb  Nb10  1  0.20063183  0.31357059  0.16491437  1
  Nb  Nb11  1  0.70063183  0.18642941  0.33508563  1
  O  O12  1  0.87545359  0.36176143  0.24245620  1
  O  O13  1  0.37545359  0.13823857  0.25754380  1
  O  O14  1  0.62454641  0.36176143  0.75754380  1
  O  O15  1  0.12454641  0.13823857  0.74245620  1
  O  O16  1  0.12454641  0.63823857  0.75754380  1
  O  O17  1  0.62454641  0.86176143  0.74245620  1
  O  O18  1  0.37545359  0.63823857  0.24245620  1
  O  O19  1  0.87545359  0.86176143  0.25754380  1
  O  O20  1  -0.00762574  0.06990083  0.40109300  1
  O  O21  1  0.49237426  0.43009917  0.09890700  1
  O  O22  1  0.50762574  0.06990083  0.59890700  1
  O  O23  1  0.00762574  0.43009917  0.90109300  1
  O  O24  1  0.59417982  0.90388243  0.08783971  1
  O  O25  1  0.09417982  0.59611757  0.41216029  1
  O  O26  1  0.90582018  0.90388243  0.91216029  1
  O  O27  1  0.40582018  0.59611757  0.58783971  1
  O  O28  1  0.40582018  0.09611757  0.91216029  1
  O  O29  1  0.90582018  0.40388243  0.58783971  1
  O  O30  1  0.09417982  0.09611757  0.08783971  1
  O  O31  1  0.59417982  0.40388243  0.41216029  1
  O  O32  1  -0.00762574  0.56990083  0.09890700  1
  O  O33  1  0.49237426  0.93009917  0.40109300  1
  O  O34  1  0.50762574  0.56990083  0.90109300  1
  O  O35  1  0.00762574  0.93009917  0.59890700  1
