# generated using pymatgen
data_NaHfMg14O15
_symmetry_space_group_name_H-M   'P 1'
_cell_length_a   8.63255018
_cell_length_b   8.61667130
_cell_length_c   4.33735953
_cell_angle_alpha   90.00000000
_cell_angle_beta   90.00000000
_cell_angle_gamma   90.00000000
_symmetry_Int_Tables_number   1
_chemical_formula_structural   NaHfMg14O15
_chemical_formula_sum   'Na1 Hf1 Mg14 O15'
_cell_volume   322.62948932
_cell_formula_units_Z   1
loop_
 _symmetry_equiv_pos_site_id
 _symmetry_equiv_pos_as_xyz
  1  'x, y, z'
loop_
 _atom_site_type_symbol
 _atom_site_label
 _atom_site_symmetry_multiplicity
 _atom_site_fract_x
 _atom_site_fract_y
 _atom_site_fract_z
 _atom_site_occupancy
  Na  Na0  1  0.00010404  0.00000000  0.00000000  1
  Hf  Hf1  1  0.49286913  0.50000000  0.00000000  1
  Mg  Mg2  1  0.99853523  0.50000000  0.00000000  1
  Mg  Mg3  1  0.50024300  0.00000000  0.00000000  1
  Mg  Mg4  1  0.00080418  0.24534413  0.50000000  1
  Mg  Mg5  1  0.00080418  0.75465587  0.50000000  1
  Mg  Mg6  1  0.49893780  0.23971670  0.50000000  1
  Mg  Mg7  1  0.49893780  0.76028330  0.50000000  1
  Mg  Mg8  1  0.24376260  0.00000000  0.50000000  1
  Mg  Mg9  1  0.24390033  0.50000000  0.50000000  1
  Mg  Mg10  1  0.75584787  0.00000000  0.50000000  1
  Mg  Mg11  1  0.75854906  0.50000000  0.50000000  1
  Mg  Mg12  1  0.23965115  0.24091665  0.00000000  1
  Mg  Mg13  1  0.23965115  0.75908335  -0.00000000  1
  Mg  Mg14  1  0.75996597  0.24321442  0.00000000  1
  Mg  Mg15  1  0.75996597  0.75678558  0.00000000  1
  O  O16  1  0.26701506  0.00000000  0.00000000  1
  O  O17  1  0.73360721  0.00000000  0.00000000  1
  O  O18  1  0.75071573  0.50000000  0.00000000  1
  O  O19  1  0.25129237  0.24515030  0.50000000  1
  O  O20  1  0.25129237  0.75484970  0.50000000  1
  O  O21  1  0.74776386  0.25073854  0.50000000  1
  O  O22  1  0.74776386  0.74926146  0.50000000  1
  O  O23  1  0.99881176  0.00000000  0.50000000  1
  O  O24  1  0.99989130  0.50000000  0.50000000  1
  O  O25  1  0.50111074  0.00000000  0.50000000  1
  O  O26  1  0.50632947  0.50000000  0.50000000  1
  O  O27  1  0.00020965  0.26497275  0.00000000  1
  O  O28  1  0.00020965  0.73502725  0.00000000  1
  O  O29  1  0.50072875  0.25688827  0.00000000  1
  O  O30  1  0.50072875  0.74311173  0.00000000  1
