# generated using pymatgen
data_Sn3IF5
_symmetry_space_group_name_H-M   'P 1'
_cell_length_a   12.99625704
_cell_length_b   4.30042396
_cell_length_c   13.81522101
_cell_angle_alpha   71.11831867
_cell_angle_beta   90.00000000
_cell_angle_gamma   90.00000000
_symmetry_Int_Tables_number   1
_chemical_formula_structural   Sn3IF5
_chemical_formula_sum   'Sn12 I4 F20'
_cell_volume   730.57572645
_cell_formula_units_Z   4
loop_
 _symmetry_equiv_pos_site_id
 _symmetry_equiv_pos_as_xyz
  1  'x, y, z'
loop_
 _atom_site_type_symbol
 _atom_site_label
 _atom_site_symmetry_multiplicity
 _atom_site_fract_x
 _atom_site_fract_y
 _atom_site_fract_z
 _atom_site_occupancy
  Sn  Sn0  1  0.65226933  0.20137527  0.87028771  1
  Sn  Sn1  1  0.34773067  0.79862473  0.12971229  1
  Sn  Sn2  1  0.15226933  0.79862473  0.62971229  1
  Sn  Sn3  1  0.84773067  0.20137527  0.37028771  1
  Sn  Sn4  1  0.37710447  0.76930976  0.85142624  1
  Sn  Sn5  1  0.62289553  0.23069024  0.14857376  1
  Sn  Sn6  1  0.87710447  0.23069024  0.64857376  1
  Sn  Sn7  1  0.12289553  0.76930976  0.35142624  1
  Sn  Sn8  1  0.10813248  0.16218955  0.89366269  1
  Sn  Sn9  1  0.89186752  0.83781045  0.10633731  1
  Sn  Sn10  1  0.60813248  0.83781045  0.60633731  1
  Sn  Sn11  1  0.39186752  0.16218955  0.39366269  1
  I  I12  1  0.37845792  0.38809098  0.62304651  1
  I  I13  1  0.62154208  0.61190902  0.37695349  1
  I  I14  1  0.87845792  0.61190902  0.87695349  1
  I  I15  1  0.12154208  0.38809098  0.12304651  1
  F  F16  1  0.11456974  0.55867220  0.51710828  1
  F  F17  1  0.88543026  0.44132780  0.48289172  1
  F  F18  1  0.61456974  0.44132780  0.98289172  1
  F  F19  1  0.38543026  0.55867220  0.01710828  1
  F  F20  1  0.27681604  0.10191784  0.89830892  1
  F  F21  1  0.72318396  0.89808216  0.10169108  1
  F  F22  1  0.77681604  0.89808216  0.60169108  1
  F  F23  1  0.22318396  0.10191784  0.39830892  1
  F  F24  1  0.10130885  0.31153838  0.72527234  1
  F  F25  1  0.89869115  0.68846162  0.27472766  1
  F  F26  1  0.60130885  0.68846162  0.77472766  1
  F  F27  1  0.39869115  0.31153838  0.22527234  1
  F  F28  1  0.16325577  0.66720492  0.83808551  1
  F  F29  1  0.83674423  0.33279508  0.16191449  1
  F  F30  1  0.66325577  0.33279508  0.66191449  1
  F  F31  1  0.33674423  0.66720492  0.33808551  1
  F  F32  1  0.48751785  0.11124481  0.87996344  1
  F  F33  1  0.51248215  0.88875519  0.12003656  1
  F  F34  1  0.98751785  0.88875519  0.62003656  1
  F  F35  1  0.01248215  0.11124481  0.37996344  1
