# generated using pymatgen
data_GeI2
_symmetry_space_group_name_H-M   'P 1'
_cell_length_a   4.26110109
_cell_length_b   4.26140565
_cell_length_c   21.59030521
_cell_angle_alpha   89.98786681
_cell_angle_beta   89.99411688
_cell_angle_gamma   119.99749515
_symmetry_Int_Tables_number   1
_chemical_formula_structural   GeI2
_chemical_formula_sum   'Ge3 I6'
_cell_volume   339.52758681
_cell_formula_units_Z   3
loop_
 _symmetry_equiv_pos_site_id
 _symmetry_equiv_pos_as_xyz
  1  'x, y, z'
loop_
 _atom_site_type_symbol
 _atom_site_label
 _atom_site_symmetry_multiplicity
 _atom_site_fract_x
 _atom_site_fract_y
 _atom_site_fract_z
 _atom_site_occupancy
  Ge  Ge0  1  -0.00041212  -0.00009691  -0.00020500  1
  Ge  Ge1  1  0.33320299  0.66683596  0.33274821  1
  Ge  Ge2  1  0.66634976  0.33347106  0.66742440  1
  I  I3  1  0.00035341  -0.00009569  0.25184042  1
  I  I4  1  0.00006507  -0.00011114  0.74821887  1
  I  I5  1  0.33313891  0.66630079  0.08055002  1
  I  I6  1  0.66673573  0.33327178  0.91905213  1
  I  I7  1  0.33386716  0.66708743  0.58663668  1
  I  I8  1  0.66669810  0.33333671  0.41373428  1
