# generated using pymatgen
data_Nd6Cd(GeS7)2
_symmetry_space_group_name_H-M   'P 1'
_cell_length_a   10.24594651
_cell_length_b   10.24594650
_cell_length_c   5.79704607
_cell_angle_alpha   90.00000000
_cell_angle_beta   90.00000000
_cell_angle_gamma   120.00000231
_symmetry_Int_Tables_number   1
_chemical_formula_structural   Nd6Cd(GeS7)2
_chemical_formula_sum   'Nd6 Cd1 Ge2 S14'
_cell_volume   527.03752950
_cell_formula_units_Z   1
loop_
 _symmetry_equiv_pos_site_id
 _symmetry_equiv_pos_as_xyz
  1  'x, y, z'
loop_
 _atom_site_type_symbol
 _atom_site_label
 _atom_site_symmetry_multiplicity
 _atom_site_fract_x
 _atom_site_fract_y
 _atom_site_fract_z
 _atom_site_occupancy
  Nd  Nd0  1  0.46005063  0.02453844  0.75555166  1
  Nd  Nd1  1  0.56448881  0.53994937  0.75555166  1
  Nd  Nd2  1  0.97546156  0.43551119  0.75555166  1
  Nd  Nd3  1  0.20615459  0.30865749  0.24987955  1
  Nd  Nd4  1  0.10250390  0.79384541  0.24987955  1
  Nd  Nd5  1  0.69134251  0.89749610  0.24987955  1
  Cd  Cd6  1  0.33333300  0.66666700  0.51498785  1
  Ge  Ge7  1  0.66666700  0.33333300  0.17244161  1
  Ge  Ge8  1  0.00000000  0.00000000  0.66451083  1
  S  S9  1  0.42581355  0.92308461  0.27744340  1
  S  S10  1  0.49727006  0.57418645  0.27744340  1
  S  S11  1  0.07691539  0.50272994  0.27744340  1
  S  S12  1  0.24328300  0.41100315  0.76581629  1
  S  S13  1  0.16772015  0.75671700  0.76581629  1
  S  S14  1  0.58899685  0.83227985  0.76581629  1
  S  S15  1  0.66666700  0.33333300  0.54763695  1
  S  S16  1  0.00000000  0.00000000  0.04061619  1
  S  S17  1  0.74718943  0.18710099  0.01778728  1
  S  S18  1  0.43991257  0.25281057  0.01778728  1
  S  S19  1  0.81289901  0.56008743  0.01778728  1
  S  S20  1  0.91913724  0.14628606  0.51248436  1
  S  S21  1  0.22714781  0.08086276  0.51248436  1
  S  S22  1  0.85371394  0.77285219  0.51248436  1
