# generated using pymatgen
data_Ba2Ag8S7
_symmetry_space_group_name_H-M   'P 1'
_cell_length_a   4.44811580
_cell_length_b   10.88349657
_cell_length_c   15.88237989
_cell_angle_alpha   90.00000000
_cell_angle_beta   90.00000000
_cell_angle_gamma   90.00000000
_symmetry_Int_Tables_number   1
_chemical_formula_structural   Ba2Ag8S7
_chemical_formula_sum   'Ba4 Ag16 S14'
_cell_volume   768.88273545
_cell_formula_units_Z   2
loop_
 _symmetry_equiv_pos_site_id
 _symmetry_equiv_pos_as_xyz
  1  'x, y, z'
loop_
 _atom_site_type_symbol
 _atom_site_label
 _atom_site_symmetry_multiplicity
 _atom_site_fract_x
 _atom_site_fract_y
 _atom_site_fract_z
 _atom_site_occupancy
  Ba  Ba0  1  0.26145841  0.88038714  0.36388111  1
  Ba  Ba1  1  0.26145841  0.88038714  0.63611889  1
  Ba  Ba2  1  0.76145841  0.11961286  0.13611889  1
  Ba  Ba3  1  0.76145841  0.11961286  0.86388111  1
  Ag  Ag4  1  0.75552748  0.48570740  0.39280622  1
  Ag  Ag5  1  0.75552748  0.48570740  0.60719378  1
  Ag  Ag6  1  0.25552748  0.51429260  0.10719378  1
  Ag  Ag7  1  0.25552748  0.51429260  0.89280622  1
  Ag  Ag8  1  0.76566620  0.19976776  0.35529876  1
  Ag  Ag9  1  0.76566620  0.19976776  0.64470124  1
  Ag  Ag10  1  0.26566620  0.80023224  0.14470124  1
  Ag  Ag11  1  0.26566620  0.80023224  0.85529876  1
  Ag  Ag12  1  0.25709096  0.36970697  0.29124275  1
  Ag  Ag13  1  0.25709096  0.36970697  0.70875725  1
  Ag  Ag14  1  0.75709096  0.63029303  0.20875725  1
  Ag  Ag15  1  0.75709096  0.63029303  0.79124275  1
  Ag  Ag16  1  0.24874051  0.57918853  0.50000000  1
  Ag  Ag17  1  0.74874051  0.42081147  0.00000000  1
  Ag  Ag18  1  0.15307245  0.21676140  0.50000000  1
  Ag  Ag19  1  0.65307245  0.78323860  0.00000000  1
  S  S20  1  0.24695622  0.58013155  0.34661113  1
  S  S21  1  0.24695622  0.58013155  0.65338887  1
  S  S22  1  0.74695622  0.41986845  0.15338887  1
  S  S23  1  0.74695622  0.41986845  0.84661113  1
  S  S24  1  0.76587881  0.79937743  0.50000000  1
  S  S25  1  0.26587881  0.20062257  0.00000000  1
  S  S26  1  0.75985240  0.99622063  0.50000000  1
  S  S27  1  0.25985240  0.00377937  0.00000000  1
  S  S28  1  0.25928399  0.14720832  0.27990970  1
  S  S29  1  0.25928399  0.14720832  0.72009030  1
  S  S30  1  0.75928399  0.85279168  0.22009030  1
  S  S31  1  0.75928399  0.85279168  0.77990970  1
  S  S32  1  0.64748930  0.30787896  0.50000000  1
  S  S33  1  0.14748930  0.69212104  0.00000000  1
