# generated using pymatgen
data_MgFe6Sb10(IO3)6
_symmetry_space_group_name_H-M   'P 1'
_cell_length_a   8.14955241
_cell_length_b   9.50371009
_cell_length_c   12.67209869
_cell_angle_alpha   85.22936902
_cell_angle_beta   86.03794020
_cell_angle_gamma   74.03007809
_symmetry_Int_Tables_number   1
_chemical_formula_structural   MgFe6Sb10(IO3)6
_chemical_formula_sum   'Mg1 Fe6 Sb10 I6 O18'
_cell_volume   939.22452668
_cell_formula_units_Z   1
loop_
 _symmetry_equiv_pos_site_id
 _symmetry_equiv_pos_as_xyz
  1  'x, y, z'
loop_
 _atom_site_type_symbol
 _atom_site_label
 _atom_site_symmetry_multiplicity
 _atom_site_fract_x
 _atom_site_fract_y
 _atom_site_fract_z
 _atom_site_occupancy
  Mg  Mg0  1  0.32024907  0.47493787  0.25828225  1
  Fe  Fe1  1  0.72267256  0.98927802  0.34493073  1
  Fe  Fe2  1  0.28758167  0.01134634  0.65545990  1
  Fe  Fe3  1  0.02662150  0.95965400  0.12303407  1
  Fe  Fe4  1  0.97870366  0.04039132  0.87563177  1
  Fe  Fe5  1  0.62292565  0.08495213  0.06311815  1
  Fe  Fe6  1  0.38173001  0.91618266  0.93135512  1
  Sb  Sb7  1  0.89973066  0.17498453  0.50970517  1
  Sb  Sb8  1  0.11693923  0.83087079  0.49002372  1
  Sb  Sb9  1  0.26141770  0.16011131  0.26601291  1
  Sb  Sb10  1  0.74070420  0.85332724  0.73351861  1
  Sb  Sb11  1  0.54121388  0.19743999  0.77624236  1
  Sb  Sb12  1  0.46328508  0.81143062  0.22150613  1
  Sb  Sb13  1  0.20736681  0.24892567  0.00188886  1
  Sb  Sb14  1  0.79721333  0.74973882  0.99408076  1
  Sb  Sb15  1  0.81726237  0.29600443  0.22384079  1
  Sb  Sb16  1  0.18561296  0.70637890  0.77251131  1
  I  I17  1  0.73791393  0.33541690  0.95965869  1
  I  I18  1  0.27350468  0.65510012  0.03194518  1
  I  I19  1  0.90518941  0.69931959  0.28209426  1
  I  I20  1  0.11316656  0.29946211  0.71823734  1
  I  I21  1  0.51766859  0.26616264  0.46053565  1
  I  I22  1  0.49431902  0.71675414  0.56958928  1
  O  O23  1  0.15126656  0.05613738  0.98691810  1
  O  O24  1  0.85418763  0.94188142  0.01174236  1
  O  O25  1  0.87198475  0.97716288  0.46806739  1
  O  O26  1  0.14976980  0.02633073  0.52668473  1
  O  O27  1  0.80141599  0.09387496  0.20228180  1
  O  O28  1  0.20750139  0.90642668  0.79810518  1
  O  O29  1  0.44949295  0.12897947  0.91807129  1
  O  O30  1  0.55619869  0.87136662  0.07746995  1
  O  O31  1  0.78230982  0.04775988  0.78055556  1
  O  O32  1  0.22470543  0.95107734  0.21415379  1
  O  O33  1  0.50326675  0.02636528  0.70921873  1
  O  O34  1  0.50614688  0.97884575  0.29039132  1
  O  O35  1  0.05624005  0.25608105  0.15571653  1
  O  O36  1  0.94666003  0.75220083  0.84238474  1
  O  O37  1  0.05059167  0.78277107  0.63970570  1
  O  O38  1  0.94782905  0.23658600  0.35950775  1
  O  O39  1  0.62357376  0.81134348  0.87816879  1
  O  O40  1  0.38042829  0.18378106  0.11723627  1
