# generated using pymatgen
data_La3SbO7
_symmetry_space_group_name_H-M   'P 1'
_cell_length_a   7.60883856
_cell_length_b   7.75253044
_cell_length_c   11.16754597
_cell_angle_alpha   90.00000000
_cell_angle_beta   90.00000000
_cell_angle_gamma   90.00000000
_symmetry_Int_Tables_number   1
_chemical_formula_structural   La3SbO7
_chemical_formula_sum   'La12 Sb4 O28'
_cell_volume   658.74843826
_cell_formula_units_Z   4
loop_
 _symmetry_equiv_pos_site_id
 _symmetry_equiv_pos_as_xyz
  1  'x, y, z'
loop_
 _atom_site_type_symbol
 _atom_site_label
 _atom_site_symmetry_multiplicity
 _atom_site_fract_x
 _atom_site_fract_y
 _atom_site_fract_z
 _atom_site_occupancy
  La  La0  1  0.75146407  0.49974528  0.25000000  1
  La  La1  1  0.24853593  0.50025472  0.75000000  1
  La  La2  1  0.25146407  0.00025472  0.75000000  1
  La  La3  1  0.74853593  0.99974528  0.25000000  1
  La  La4  1  0.45319448  0.25025140  0.02245065  1
  La  La5  1  0.54680552  0.74974860  0.97754935  1
  La  La6  1  0.95319448  0.24974860  0.97754935  1
  La  La7  1  0.54680552  0.74974860  0.52245065  1
  La  La8  1  0.04680552  0.75025140  0.02245065  1
  La  La9  1  0.45319448  0.25025140  0.47754935  1
  La  La10  1  0.04680552  0.75025140  0.47754935  1
  La  La11  1  0.95319448  0.24974860  0.52245065  1
  Sb  Sb12  1  0.25021829  0.00036393  0.25000000  1
  Sb  Sb13  1  0.74978171  0.99963607  0.75000000  1
  Sb  Sb14  1  0.75021829  0.49963607  0.75000000  1
  Sb  Sb15  1  0.24978171  0.50036393  0.25000000  1
  O  O16  1  0.32642496  0.25044489  0.25000000  1
  O  O17  1  0.67357504  0.74955511  0.75000000  1
  O  O18  1  0.82642496  0.24955511  0.75000000  1
  O  O19  1  0.17357504  0.75044489  0.25000000  1
  O  O20  1  0.06745501  0.03517899  0.12518884  1
  O  O21  1  0.93254499  0.96482101  0.87481116  1
  O  O22  1  0.56745501  0.46482101  0.87481116  1
  O  O23  1  0.93254499  0.96482101  0.62518884  1
  O  O24  1  0.43254499  0.53517899  0.12518884  1
  O  O25  1  0.06745501  0.03517899  0.37481116  1
  O  O26  1  0.43254499  0.53517899  0.37481116  1
  O  O27  1  0.56745501  0.46482101  0.62518884  1
  O  O28  1  0.22632822  0.25006273  0.61957948  1
  O  O29  1  0.77367178  0.74993727  0.38042052  1
  O  O30  1  0.72632822  0.24993727  0.38042052  1
  O  O31  1  0.77367178  0.74993727  0.11957948  1
  O  O32  1  0.27367178  0.75006273  0.61957948  1
  O  O33  1  0.22632822  0.25006273  0.88042052  1
  O  O34  1  0.27367178  0.75006273  0.88042052  1
  O  O35  1  0.72632822  0.24993727  0.11957948  1
  O  O36  1  0.06582093  0.46551686  0.12572738  1
  O  O37  1  0.93417907  0.53448314  0.87427262  1
  O  O38  1  0.56582093  0.03448314  0.87427262  1
  O  O39  1  0.93417907  0.53448314  0.62572738  1
  O  O40  1  0.43417907  0.96551686  0.12572738  1
  O  O41  1  0.06582093  0.46551686  0.37427262  1
  O  O42  1  0.43417907  0.96551686  0.37427262  1
  O  O43  1  0.56582093  0.03448314  0.62572738  1
