# generated using pymatgen
data_MgP4H24(NO)8
_symmetry_space_group_name_H-M   'P 1'
_cell_length_a   8.06370798
_cell_length_b   10.18438775
_cell_length_c   7.00278605
_cell_angle_alpha   81.43191227
_cell_angle_beta   116.34663469
_cell_angle_gamma   91.38530832
_symmetry_Int_Tables_number   1
_chemical_formula_structural   MgP4H24(NO)8
_chemical_formula_sum   'Mg1 P4 H24 N8 O8'
_cell_volume   509.03560930
_cell_formula_units_Z   1
loop_
 _symmetry_equiv_pos_site_id
 _symmetry_equiv_pos_as_xyz
  1  'x, y, z'
loop_
 _atom_site_type_symbol
 _atom_site_label
 _atom_site_symmetry_multiplicity
 _atom_site_fract_x
 _atom_site_fract_y
 _atom_site_fract_z
 _atom_site_occupancy
  Mg  Mg0  1  0.99449131  0.59176615  0.41117389  1
  P  P1  1  0.87142177  0.43175188  0.81541520  1
  P  P2  1  0.14090679  0.02594310  0.65300591  1
  P  P3  1  0.12661938  0.48501850  0.08819284  1
  P  P4  1  0.86433808  0.08314242  0.37230781  1
  H  H5  1  0.97105849  0.21526220  0.82670612  1
  H  H6  1  0.01948246  0.82244147  0.64214232  1
  H  H7  1  0.08764402  0.70258420  0.12033293  1
  H  H8  1  0.90295745  0.30751013  0.30047992  1
  H  H9  1  0.84385080  0.21530734  0.96113695  1
  H  H10  1  0.19359671  0.82011851  0.58772457  1
  H  H11  1  0.17068153  0.69948814  0.93456093  1
  H  H12  1  0.80980962  0.27651381  0.47274671  1
  H  H13  1  0.33538125  0.36863947  0.84508246  1
  H  H14  1  0.72033162  0.96222521  0.69526310  1
  H  H15  1  0.63327140  0.63293277  0.18345537  1
  H  H16  1  0.31798699  0.09575689  0.36405691  1
  H  H17  1  0.29091769  0.39182186  0.58062719  1
  H  H18  1  0.75849728  0.97800458  0.95798520  1
  H  H19  1  0.65581835  0.55151849  0.41797814  1
  H  H20  1  0.27466610  0.08521892  0.09949316  1
  H  H21  1  0.51430748  0.39414310  0.77607584  1
  H  H22  1  0.53998123  0.96873052  0.75658425  1
  H  H23  1  0.47913685  0.50891575  0.18660164  1
  H  H24  1  0.49910847  0.08265830  0.30447849  1
  H  H25  1  0.39083233  0.24833610  0.73513328  1
  H  H26  1  0.69063700  0.83306605  0.86119942  1
  H  H27  1  0.46127143  0.65361263  0.25828941  1
  H  H28  1  0.35601569  0.22345255  0.20697544  1
  N  N29  1  0.86950209  0.26772017  0.83989375  1
  N  N30  1  0.15110131  0.85656987  0.68937467  1
  N  N31  1  0.16254416  0.64844137  0.06830259  1
  N  N32  1  0.81897718  0.24647632  0.34476573  1
  N  N33  1  0.38415146  0.34987630  0.73643889  1
  N  N34  1  0.67785278  0.93470962  0.81726838  1
  N  N35  1  0.55769032  0.58714312  0.26185514  1
  N  N36  1  0.36215465  0.12077543  0.24393567  1
  O  O37  1  0.89916512  0.48201532  0.61248156  1
  O  O38  1  0.12743286  0.07376296  0.84146190  1
  O  O39  1  0.10550150  0.44893858  0.29896662  1
  O  O40  1  0.86690900  0.05786331  0.16548312  1
  O  O41  1  0.70053017  0.48630676  0.82064234  1
  O  O42  1  0.30994765  0.07057837  0.61662001  1
  O  O43  1  0.28806675  0.41323877  0.07894436  1
  O  O44  1  0.72845344  0.01064069  0.44465586  1
