# generated using pymatgen
data_FeH2Cl5O3
_symmetry_space_group_name_H-M   'P 1'
_cell_length_a   6.94878485
_cell_length_b   7.55794235
_cell_length_c   18.07377166
_cell_angle_alpha   90.00000000
_cell_angle_beta   90.00000000
_cell_angle_gamma   90.00000000
_symmetry_Int_Tables_number   1
_chemical_formula_structural   FeH2Cl5O3
_chemical_formula_sum   'Fe4 H8 Cl20 O12'
_cell_volume   949.20765343
_cell_formula_units_Z   4
loop_
 _symmetry_equiv_pos_site_id
 _symmetry_equiv_pos_as_xyz
  1  'x, y, z'
loop_
 _atom_site_type_symbol
 _atom_site_label
 _atom_site_symmetry_multiplicity
 _atom_site_fract_x
 _atom_site_fract_y
 _atom_site_fract_z
 _atom_site_occupancy
  Fe  Fe0  1  0.90613090  0.25000000  0.06739242  1
  Fe  Fe1  1  0.59386910  0.25000000  0.56739242  1
  Fe  Fe2  1  0.09386910  0.75000000  0.93260758  1
  Fe  Fe3  1  0.40613090  0.75000000  0.43260758  1
  H  H4  1  0.55054926  0.04893752  0.33894455  1
  H  H5  1  0.94945074  0.45106248  0.83894455  1
  H  H6  1  0.44945074  0.54893752  0.66105545  1
  H  H7  1  0.05054926  0.95106248  0.16105545  1
  H  H8  1  0.44945074  0.95106248  0.66105545  1
  H  H9  1  0.05054926  0.54893752  0.16105545  1
  H  H10  1  0.55054926  0.45106248  0.33894455  1
  H  H11  1  0.94945074  0.04893752  0.83894455  1
  Cl  Cl12  1  0.21602483  0.25000000  0.07817174  1
  Cl  Cl13  1  0.28397517  0.25000000  0.57817174  1
  Cl  Cl14  1  0.78397517  0.75000000  0.92182826  1
  Cl  Cl15  1  0.71602483  0.75000000  0.42182826  1
  Cl  Cl16  1  0.64788536  0.25000000  0.26503371  1
  Cl  Cl17  1  0.85211464  0.25000000  0.76503371  1
  Cl  Cl18  1  0.35211464  0.75000000  0.73496629  1
  Cl  Cl19  1  0.14788536  0.75000000  0.23496629  1
  Cl  Cl20  1  0.79180325  0.00793307  0.12635007  1
  Cl  Cl21  1  0.70819675  0.49206693  0.62635007  1
  Cl  Cl22  1  0.20819675  0.50793307  0.87364993  1
  Cl  Cl23  1  0.29180325  0.99206693  0.37364993  1
  Cl  Cl24  1  0.20819675  0.99206693  0.87364993  1
  Cl  Cl25  1  0.29180325  0.50793307  0.37364993  1
  Cl  Cl26  1  0.79180325  0.49206693  0.12635007  1
  Cl  Cl27  1  0.70819675  0.00793307  0.62635007  1
  Cl  Cl28  1  0.59922368  0.25000000  0.96121541  1
  Cl  Cl29  1  0.90077632  0.25000000  0.46121541  1
  Cl  Cl30  1  0.40077632  0.75000000  0.03878459  1
  Cl  Cl31  1  0.09922368  0.75000000  0.53878459  1
  O  O32  1  0.83861415  0.25000000  0.96831861  1
  O  O33  1  0.66138585  0.25000000  0.46831861  1
  O  O34  1  0.16138585  0.75000000  0.03168139  1
  O  O35  1  0.33861415  0.75000000  0.53168139  1
  O  O36  1  0.17945169  0.57817263  0.18511657  1
  O  O37  1  0.32054831  0.92182737  0.68511657  1
  O  O38  1  0.82054831  0.07817263  0.81488343  1
  O  O39  1  0.67945169  0.42182737  0.31488343  1
  O  O40  1  0.82054831  0.42182737  0.81488343  1
  O  O41  1  0.67945169  0.07817263  0.31488343  1
  O  O42  1  0.17945169  0.92182737  0.18511657  1
  O  O43  1  0.32054831  0.57817263  0.68511657  1
