# generated using pymatgen
data_K2Na3TlO4
_symmetry_space_group_name_H-M   'P 1'
_cell_length_a   7.67087153
_cell_length_b   9.22094696
_cell_length_c   9.53241038
_cell_angle_alpha   90.00000000
_cell_angle_beta   90.00000000
_cell_angle_gamma   90.00000000
_symmetry_Int_Tables_number   1
_chemical_formula_structural   K2Na3TlO4
_chemical_formula_sum   'K8 Na12 Tl4 O16'
_cell_volume   674.25311906
_cell_formula_units_Z   4
loop_
 _symmetry_equiv_pos_site_id
 _symmetry_equiv_pos_as_xyz
  1  'x, y, z'
loop_
 _atom_site_type_symbol
 _atom_site_label
 _atom_site_symmetry_multiplicity
 _atom_site_fract_x
 _atom_site_fract_y
 _atom_site_fract_z
 _atom_site_occupancy
  K  K0  1  0.24643520  0.50000000  -0.00000000  1
  K  K1  1  0.25356480  0.00000000  0.50000000  1
  K  K2  1  0.75356480  0.50000000  -0.00000000  1
  K  K3  1  0.74643520  0.00000000  0.50000000  1
  K  K4  1  0.50000000  0.26361560  0.74983620  1
  K  K5  1  0.50000000  0.73638440  0.25016380  1
  K  K6  1  -0.00000000  0.76361560  0.75016380  1
  K  K7  1  -0.00000000  0.23638440  0.24983620  1
  Na  Na8  1  0.24937502  0.51683432  0.65089289  1
  Na  Na9  1  0.24937502  0.48316568  0.34910711  1
  Na  Na10  1  0.25062498  0.01683432  0.84910711  1
  Na  Na11  1  0.25062498  0.98316568  0.15089289  1
  Na  Na12  1  -0.00000000  0.23989330  0.91561125  1
  Na  Na13  1  -0.00000000  0.76010670  0.08438875  1
  Na  Na14  1  0.50000000  0.73989330  0.58438875  1
  Na  Na15  1  0.50000000  0.26010670  0.41561125  1
  Na  Na16  1  0.74937502  0.98316568  0.15089289  1
  Na  Na17  1  0.75062498  0.48316568  0.34910711  1
  Na  Na18  1  0.75062498  0.51683432  0.65089289  1
  Na  Na19  1  0.74937502  0.01683432  0.84910711  1
  Tl  Tl20  1  -0.00000000  0.72735051  0.37937751  1
  Tl  Tl21  1  -0.00000000  0.27264949  0.62062249  1
  Tl  Tl22  1  0.50000000  0.22735051  0.12062249  1
  Tl  Tl23  1  0.50000000  0.77264949  0.87937751  1
  O  O24  1  0.50000000  0.04737387  0.27813757  1
  O  O25  1  0.50000000  0.95262613  0.72186243  1
  O  O26  1  -0.00000000  0.54737387  0.22186243  1
  O  O27  1  -0.00000000  0.45262613  0.77813757  1
  O  O28  1  0.25407335  0.80194552  0.98452761  1
  O  O29  1  0.25407335  0.19805448  0.01547239  1
  O  O30  1  0.24592665  0.30194552  0.51547239  1
  O  O31  1  0.24592665  0.69805448  0.48452761  1
  O  O32  1  0.74592665  0.19805448  0.01547239  1
  O  O33  1  0.74592665  0.80194552  0.98452761  1
  O  O34  1  0.75407335  0.69805448  0.48452761  1
  O  O35  1  0.75407335  0.30194552  0.51547239  1
  O  O36  1  0.50000000  0.43962408  0.22388016  1
  O  O37  1  -0.00000000  0.06037592  0.72388016  1
  O  O38  1  0.50000000  0.56037592  0.77611984  1
  O  O39  1  -0.00000000  0.93962408  0.27611984  1
