# generated using pymatgen
data_Na3LiMg4(Si2O5)6
_symmetry_space_group_name_H-M   'P 1'
_cell_length_a   10.31262999
_cell_length_b   10.31268048
_cell_length_c   14.34838362
_cell_angle_alpha   90.00023443
_cell_angle_beta   90.00013848
_cell_angle_gamma   59.88682488
_symmetry_Int_Tables_number   1
_chemical_formula_structural   Na3LiMg4(Si2O5)6
_chemical_formula_sum   'Na6 Li2 Mg8 Si24 O60'
_cell_volume   1320.01296546
_cell_formula_units_Z   2
loop_
 _symmetry_equiv_pos_site_id
 _symmetry_equiv_pos_as_xyz
  1  'x, y, z'
loop_
 _atom_site_type_symbol
 _atom_site_label
 _atom_site_symmetry_multiplicity
 _atom_site_fract_x
 _atom_site_fract_y
 _atom_site_fract_z
 _atom_site_occupancy
  Na  Na0  1  0.33329204  0.33116113  0.49999120  1
  Na  Na1  1  0.66884119  0.66674976  0.99999341  1
  Na  Na2  1  0.66670220  0.66883851  0.49999134  1
  Na  Na3  1  0.33115234  0.33324877  0.99999315  1
  Na  Na4  1  0.00000207  0.00000096  0.25000513  1
  Na  Na5  1  0.00000122  0.00000013  0.75000573  1
  Li  Li6  1  0.49999727  0.00000182  0.25007197  1
  Li  Li7  1  0.00001207  0.49999286  0.75007191  1
  Mg  Mg8  1  0.33841036  0.32293524  0.24994636  1
  Mg  Mg9  1  0.32294087  0.33840821  0.74994724  1
  Mg  Mg10  1  0.67706321  0.66159079  0.74994719  1
  Mg  Mg11  1  0.66159223  0.67706153  0.24995007  1
  Mg  Mg12  1  0.00000576  0.49999549  0.24967027  1
  Mg  Mg13  1  0.50000237  0.50000485  0.25013417  1
  Mg  Mg14  1  0.49999857  0.99999910  0.74966828  1
  Mg  Mg15  1  0.50000322  0.50000468  0.75013589  1
  Si  Si16  1  0.35309235  0.88524442  0.38795360  1
  Si  Si17  1  0.88537964  0.76482297  0.38878960  1
  Si  Si18  1  0.76347628  0.35003131  0.38867929  1
  Si  Si19  1  0.34951447  0.88652782  0.61131689  1
  Si  Si20  1  0.88546033  0.76139532  0.61211582  1
  Si  Si21  1  0.76457236  0.35029657  0.61118612  1
  Si  Si22  1  0.23517372  0.11462216  0.88878980  1
  Si  Si23  1  0.64996762  0.23652887  0.88867830  1
  Si  Si24  1  0.11475921  0.64690299  0.88795226  1
  Si  Si25  1  0.23860330  0.11454095  0.11211705  1
  Si  Si26  1  0.64970348  0.23543331  0.11118549  1
  Si  Si27  1  0.11347524  0.65048190  0.11131519  1
  Si  Si28  1  0.65048740  0.11347119  0.61131752  1
  Si  Si29  1  0.11454521  0.23860222  0.61211740  1
  Si  Si30  1  0.23543372  0.64970202  0.61118570  1
  Si  Si31  1  0.64690915  0.11475421  0.38795322  1
  Si  Si32  1  0.11462627  0.23517285  0.38879136  1
  Si  Si33  1  0.23653000  0.64996648  0.38867893  1
  Si  Si34  1  0.76139725  0.88546154  0.11211664  1
  Si  Si35  1  0.35029641  0.76457225  0.11118531  1
  Si  Si36  1  0.88652801  0.34951887  0.11131643  1
  Si  Si37  1  0.76482690  0.88537888  0.88878873  1
  Si  Si38  1  0.35003138  0.76347626  0.88867932  1
  Si  Si39  1  0.88524385  0.35309633  0.88795342  1
  O  O40  1  0.39727394  0.86540986  0.50036801  1
  O  O41  1  0.86574249  0.73712446  0.49971478  1
  O  O42  1  0.73633304  0.39890325  0.49993498  1
  O  O43  1  0.26287327  0.13425155  0.99971638  1
  O  O44  1  0.60109222  0.26366830  -0.00006506  1
  O  O45  1  0.13458972  0.60272064  0.00036820  1
  O  O46  1  0.60272668  0.13458810  0.50036829  1
  O  O47  1  0.13425844  0.26287351  0.49971630  1
  O  O48  1  0.26367049  0.60109449  0.49993459  1
  O  O49  1  0.73712682  0.86574848  0.99971533  1
  O  O50  1  0.39890462  0.73633604  -0.00006439  1
  O  O51  1  0.86541128  0.39727882  0.00036917  1
  O  O52  1  0.50098765  0.83980830  0.33071924  1
  O  O53  1  0.84521578  0.65845727  0.32913048  1
  O  O54  1  0.65875173  0.49649286  0.32840032  1
  O  O55  1  0.49601540  0.84447705  0.67169616  1
  O  O56  1  0.84012080  0.65898409  0.66922556  1
  O  O57  1  0.65791595  0.49700275  0.67084221  1
  O  O58  1  0.34154304  0.15478953  0.82913700  1
  O  O59  1  0.50351627  0.34125419  0.82839331  1
  O  O60  1  0.16020355  0.49900852  0.83071600  1
  O  O61  1  0.34101629  0.15988613  0.16922146  1
  O  O62  1  0.50300598  0.34209169  0.17084657  1
  O  O63  1  0.15552719  0.50398329  0.17169820  1
  O  O64  1  0.50398999  0.15551781  0.67169931  1
  O  O65  1  0.15989672  0.34100719  0.66922539  1
  O  O66  1  0.34209552  0.50300140  0.67084293  1
  O  O67  1  0.49901600  0.16019025  0.33071735  1
  O  O68  1  0.15480014  0.34153405  0.32913410  1
  O  O69  1  0.34125770  0.50351220  0.32839765  1
  O  O70  1  0.65898388  0.84011859  0.16922278  1
  O  O71  1  0.49700135  0.65791897  0.17084340  1
  O  O72  1  0.84448375  0.49601344  0.17169977  1
  O  O73  1  0.65845882  0.84521207  0.82913366  1
  O  O74  1  0.49649153  0.65875554  0.82839848  1
  O  O75  1  0.83981025  0.50098729  0.83071656  1
  O  O76  1  0.27211578  0.78489760  0.36597314  1
  O  O77  1  0.78337756  0.94376728  0.36535499  1
  O  O78  1  0.94269750  0.27449469  0.36492774  1
  O  O79  1  0.27433833  0.78232814  0.63495026  1
  O  O80  1  0.78541905  0.94274732  0.63473276  1
  O  O81  1  0.94334605  0.27336594  0.63410597  1
  O  O82  1  0.05623030  0.21662741  0.86535400  1
  O  O83  1  0.72550741  0.05730782  0.86492843  1
  O  O84  1  0.21510447  0.72788497  0.86597435  1
  O  O85  1  0.05725244  0.21458702  0.13473381  1
  O  O86  1  0.72663735  0.05665907  0.13410547  1
  O  O87  1  0.21767397  0.72566319  0.13494964  1
  O  O88  1  0.72566530  0.21767328  0.63494962  1
  O  O89  1  0.21458574  0.05725146  0.63473420  1
  O  O90  1  0.05665943  0.72663343  0.63410422  1
  O  O91  1  0.72788852  0.21510144  0.36597436  1
  O  O92  1  0.21662571  0.05623026  0.36535358  1
  O  O93  1  0.05730932  0.72550319  0.36492859  1
  O  O94  1  0.94275056  0.78541423  0.13473284  1
  O  O95  1  0.27336267  0.94334472  0.13410703  1
  O  O96  1  0.78233077  0.27433833  0.13494887  1
  O  O97  1  0.94377190  0.78337062  0.86535400  1
  O  O98  1  0.27449304  0.94269458  0.86492671  1
  O  O99  1  0.78489801  0.27211653  0.86597424  1
