# generated using pymatgen
data_V2AsO6
_symmetry_space_group_name_H-M   'P 1'
_cell_length_a   4.76049679
_cell_length_b   8.80823197
_cell_length_c   9.46539123
_cell_angle_alpha   90.00000000
_cell_angle_beta   90.00000000
_cell_angle_gamma   90.00000000
_symmetry_Int_Tables_number   1
_chemical_formula_structural   V2AsO6
_chemical_formula_sum   'V8 As4 O24'
_cell_volume   396.89862046
_cell_formula_units_Z   4
loop_
 _symmetry_equiv_pos_site_id
 _symmetry_equiv_pos_as_xyz
  1  'x, y, z'
loop_
 _atom_site_type_symbol
 _atom_site_label
 _atom_site_symmetry_multiplicity
 _atom_site_fract_x
 _atom_site_fract_y
 _atom_site_fract_z
 _atom_site_occupancy
  V  V0  1  0.09482857  0.66429036  0.89525280  1
  V  V1  1  0.40517143  0.33570964  0.39525280  1
  V  V2  1  0.59482857  0.83570964  0.10474720  1
  V  V3  1  0.90517143  0.16429036  0.60474720  1
  V  V4  1  0.10760685  0.00660289  0.90073907  1
  V  V5  1  0.39239315  0.99339711  0.40073907  1
  V  V6  1  0.60760685  0.49339711  0.09926093  1
  V  V7  1  0.89239315  0.50660289  0.59926093  1
  As  As8  1  0.89302774  0.16075630  0.19086567  1
  As  As9  1  0.60697226  0.83924370  0.69086567  1
  As  As10  1  0.39302774  0.33924370  0.80913433  1
  As  As11  1  0.10697226  0.66075630  0.30913433  1
  O  O12  1  0.91516384  0.15685213  0.01457129  1
  O  O13  1  0.58483616  0.84314787  0.51457129  1
  O  O14  1  0.41516384  0.34314787  0.98542871  1
  O  O15  1  0.08483616  0.65685213  0.48542871  1
  O  O16  1  0.71649941  0.32395628  0.23665574  1
  O  O17  1  0.78350059  0.67604372  0.73665574  1
  O  O18  1  0.21649941  0.17604372  0.76334426  1
  O  O19  1  0.28350059  0.82395628  0.26334426  1
  O  O20  1  0.72050243  0.00044045  0.24819195  1
  O  O21  1  0.77949757  -0.00044045  0.74819195  1
  O  O22  1  0.22050243  0.49955955  0.75180805  1
  O  O23  1  0.27949757  0.50044045  0.25180805  1
  O  O24  1  0.21442245  0.16507146  0.27148357  1
  O  O25  1  0.28557755  0.83492854  0.77148357  1
  O  O26  1  0.71442245  0.33492854  0.72851643  1
  O  O27  1  0.78557755  0.66507146  0.22851643  1
  O  O28  1  0.40694402  0.66427288  0.01680430  1
  O  O29  1  0.09305598  0.33572712  0.51680430  1
  O  O30  1  0.90694402  0.83572712  0.98319570  1
  O  O31  1  0.59305598  0.16427288  0.48319570  1
  O  O32  1  0.39133529  0.97851998  0.00809385  1
  O  O33  1  0.10866471  0.02148002  0.50809385  1
  O  O34  1  0.89133529  0.52148002  0.99190615  1
  O  O35  1  0.60866471  0.47851998  0.49190615  1
