# generated using pymatgen
data_Sr2CaV2(Si2O7)2
_symmetry_space_group_name_H-M   'P 1'
_cell_length_a   5.52554580
_cell_length_b   7.37180093
_cell_length_c   7.93623201
_cell_angle_alpha   93.93160214
_cell_angle_beta   110.37246501
_cell_angle_gamma   90.00000409
_symmetry_Int_Tables_number   1
_chemical_formula_structural   Sr2CaV2(Si2O7)2
_chemical_formula_sum   'Sr2 Ca1 V2 Si4 O14'
_cell_volume   302.23601527
_cell_formula_units_Z   1
loop_
 _symmetry_equiv_pos_site_id
 _symmetry_equiv_pos_as_xyz
  1  'x, y, z'
loop_
 _atom_site_type_symbol
 _atom_site_label
 _atom_site_symmetry_multiplicity
 _atom_site_fract_x
 _atom_site_fract_y
 _atom_site_fract_z
 _atom_site_occupancy
  Sr  Sr0  1  0.19363000  0.77587900  0.40140800  1
  Sr  Sr1  1  0.79222200  0.22412100  0.59859200  1
  Ca  Ca2  1  0.06612300  0.50000000  0.00000000  1
  V  V3  1  0.88125400  0.78418000  0.77631100  1
  V  V4  1  0.10494200  0.21582000  0.22368900  1
  Si  Si5  1  0.41365600  0.47521100  0.78000100  1
  Si  Si6  1  0.63365400  0.52478900  0.21999900  1
  Si  Si7  1  0.60065800  0.96726900  0.21347000  1
  Si  Si8  1  0.38718900  0.03273100  0.78653000  1
  O  O9  1  0.64168600  0.75012300  0.27061400  1
  O  O10  1  0.37107200  0.24987700  0.72938600  1
  O  O11  1  0.53181800  0.50000000  0.00000000  1
  O  O12  1  0.49076800  0.00000000  0.00000000  1
  O  O13  1  0.63005400  0.54935200  0.70436900  1
  O  O14  1  0.92568500  0.45064800  0.29563100  1
  O  O15  1  0.40623600  0.04919400  0.31371700  1
  O  O16  1  0.09251900  0.95080600  0.68628300  1
  O  O17  1  0.97666000  0.21293500  0.97710600  1
  O  O18  1  0.99955600  0.78706500  0.02289400  1
  O  O19  1  0.88646700  0.05965900  0.31669100  1
  O  O20  1  0.56977700  0.94034100  0.68330900  1
  O  O21  1  0.12871100  0.56089500  0.72179700  1
  O  O22  1  0.40691400  0.43910500  0.27820300  1
