# generated using pymatgen
data_K2Sm2Mg(MoO4)4
_symmetry_space_group_name_H-M   'P 1'
_cell_length_a   7.79511034
_cell_length_b   7.75422095
_cell_length_c   7.99198876
_cell_angle_alpha   115.14328320
_cell_angle_beta   122.51213254
_cell_angle_gamma   90.77949825
_symmetry_Int_Tables_number   1
_chemical_formula_structural   K2Sm2Mg(MoO4)4
_chemical_formula_sum   'K2 Sm2 Mg1 Mo4 O16'
_cell_volume   349.75245651
_cell_formula_units_Z   1
loop_
 _symmetry_equiv_pos_site_id
 _symmetry_equiv_pos_as_xyz
  1  'x, y, z'
loop_
 _atom_site_type_symbol
 _atom_site_label
 _atom_site_symmetry_multiplicity
 _atom_site_fract_x
 _atom_site_fract_y
 _atom_site_fract_z
 _atom_site_occupancy
  K  K0  1  0.35976185  0.11404132  0.24759300  1
  K  K1  1  0.54445640  0.79538630  0.74660216  1
  Sm  Sm2  1  0.01787170  0.76790165  0.24589277  1
  Sm  Sm3  1  0.98713029  0.24287469  0.74778054  1
  Mg  Mg4  1  0.62632196  0.37822461  0.24584956  1
  Mo  Mo5  1  0.99855400  0.30570683  0.27696879  1
  Mo  Mo6  1  0.01556749  0.70320736  0.71569829  1
  Mo  Mo7  1  0.52305305  0.72178418  0.21653143  1
  Mo  Mo8  1  0.48064406  0.29869417  0.77729030  1
  O  O9  1  0.67642573  0.22055018  0.02583622  1
  O  O10  1  0.30887927  0.74989855  0.93092707  1
  O  O11  1  0.68890428  0.64926129  0.46708592  1
  O  O12  1  0.31166778  0.37816209  0.56309306  1
  O  O13  1  0.75051439  0.94127466  0.36534579  1
  O  O14  1  0.25685361  0.07345868  0.62596425  1
  O  O15  1  0.06849628  0.38879652  0.13018499  1
  O  O16  1  0.94289212  0.62653531  0.86530035  1
  O  O17  1  0.04634035  0.63083062  0.46765970  1
  O  O18  1  0.89774387  0.36171544  0.49227382  1
  O  O19  1  0.65681847  0.57967063  0.02659888  1
  O  O20  1  0.36294026  0.40328703  0.99978310  1
  O  O21  1  0.97670589  0.03988374  0.18779860  1
  O  O22  1  0.03686577  0.96534390  0.81322248  1
  O  O23  1  0.34640762  0.78745515  0.30461542  1
  O  O24  1  0.64496951  0.22426909  0.68077051  1
