# generated using pymatgen
data_MoAs2O7
_symmetry_space_group_name_H-M   'P 1'
_cell_length_a   9.03961235
_cell_length_b   7.51525031
_cell_length_c   9.71488695
_cell_angle_alpha   82.56852689
_cell_angle_beta   90.00000000
_cell_angle_gamma   90.00000000
_symmetry_Int_Tables_number   1
_chemical_formula_structural   MoAs2O7
_chemical_formula_sum   'Mo4 As8 O28'
_cell_volume   654.43669363
_cell_formula_units_Z   4
loop_
 _symmetry_equiv_pos_site_id
 _symmetry_equiv_pos_as_xyz
  1  'x, y, z'
loop_
 _atom_site_type_symbol
 _atom_site_label
 _atom_site_symmetry_multiplicity
 _atom_site_fract_x
 _atom_site_fract_y
 _atom_site_fract_z
 _atom_site_occupancy
  Mo  Mo0  1  0.95385717  0.19527469  0.68729052  1
  Mo  Mo1  1  0.45385717  0.80472531  0.81270948  1
  Mo  Mo2  1  0.04614283  0.80472531  0.31270948  1
  Mo  Mo3  1  0.54614283  0.19527469  0.18729052  1
  As  As4  1  0.77043324  0.56674331  0.76961216  1
  As  As5  1  0.27043324  0.43325669  0.73038784  1
  As  As6  1  0.22956676  0.43325669  0.23038784  1
  As  As7  1  0.72956676  0.56674331  0.26961216  1
  As  As8  1  0.78370939  0.82920235  0.99414992  1
  As  As9  1  0.28370939  0.17079765  0.50585008  1
  As  As10  1  0.21629061  0.17079765  0.00585008  1
  As  As11  1  0.71629061  0.82920235  0.49414992  1
  O  O12  1  0.65200094  0.17898626  0.04656445  1
  O  O13  1  0.15200094  0.82101374  0.45343555  1
  O  O14  1  0.34799906  0.82101374  0.95343555  1
  O  O15  1  0.84799906  0.17898626  0.54656445  1
  O  O16  1  0.58415475  0.58841363  0.77157769  1
  O  O17  1  0.08415475  0.41158637  0.72842231  1
  O  O18  1  0.41584525  0.41158637  0.22842231  1
  O  O19  1  0.91584525  0.58841363  0.27157769  1
  O  O20  1  0.85386675  0.63855637  0.91144926  1
  O  O21  1  0.35386675  0.36144363  0.58855074  1
  O  O22  1  0.14613325  0.36144363  0.08855074  1
  O  O23  1  0.64613325  0.63855637  0.41144926  1
  O  O24  1  0.83915906  0.68268540  0.61936867  1
  O  O25  1  0.33915906  0.31731460  0.88063133  1
  O  O26  1  0.16084094  0.31731460  0.38063133  1
  O  O27  1  0.66084094  0.68268540  0.11936867  1
  O  O28  1  0.86106262  0.88362989  0.37878771  1
  O  O29  1  0.36106262  0.11637011  0.12121229  1
  O  O30  1  0.13893738  0.11637011  0.62121229  1
  O  O31  1  0.63893738  0.88362989  0.87878771  1
  O  O32  1  0.68882778  0.34833605  0.27570323  1
  O  O33  1  0.18882778  0.65166395  0.22429677  1
  O  O34  1  0.31117222  0.65166395  0.72429677  1
  O  O35  1  0.81117222  0.34833605  0.77570323  1
  O  O36  1  0.57669350  0.01156827  0.30555997  1
  O  O37  1  0.07669350  0.98843173  0.19444003  1
  O  O38  1  0.42330650  0.98843173  0.69444003  1
  O  O39  1  0.92330650  0.01156827  0.80555997  1
