# generated using pymatgen
data_NdTmS3
_symmetry_space_group_name_H-M   'P 1'
_cell_length_a   3.93607442
_cell_length_b   10.98356558
_cell_length_c   21.41125346
_cell_angle_alpha   78.61778890
_cell_angle_beta   90.00000000
_cell_angle_gamma   90.00000000
_symmetry_Int_Tables_number   1
_chemical_formula_structural   NdTmS3
_chemical_formula_sum   'Nd8 Tm8 S24'
_cell_volume   907.44881826
_cell_formula_units_Z   8
loop_
 _symmetry_equiv_pos_site_id
 _symmetry_equiv_pos_as_xyz
  1  'x, y, z'
loop_
 _atom_site_type_symbol
 _atom_site_label
 _atom_site_symmetry_multiplicity
 _atom_site_fract_x
 _atom_site_fract_y
 _atom_site_fract_z
 _atom_site_occupancy
  Nd  Nd0  1  0.25000000  0.30368734  0.76600864  1
  Nd  Nd1  1  0.75000000  0.69631266  0.23399136  1
  Nd  Nd2  1  0.25000000  0.90954079  0.86322461  1
  Nd  Nd3  1  0.75000000  0.09045921  0.13677539  1
  Nd  Nd4  1  0.25000000  0.69196594  0.73295670  1
  Nd  Nd5  1  0.75000000  0.30803406  0.26704330  1
  Nd  Nd6  1  0.25000000  0.79855726  0.53700290  1
  Nd  Nd7  1  0.75000000  0.20144274  0.46299710  1
  Tm  Tm8  1  0.25000000  0.55348246  0.41656165  1
  Tm  Tm9  1  0.75000000  0.44651754  0.58343835  1
  Tm  Tm10  1  0.25000000  0.96995769  0.35128864  1
  Tm  Tm11  1  0.75000000  0.03004231  0.64871136  1
  Tm  Tm12  1  0.25000000  0.82010164  0.04604807  1
  Tm  Tm13  1  0.75000000  0.17989836  0.95395193  1
  Tm  Tm14  1  0.25000000  0.47776177  0.08757681  1
  Tm  Tm15  1  0.75000000  0.52223823  0.91242319  1
  S  S16  1  0.25000000  0.08546354  0.03691035  1
  S  S17  1  0.75000000  0.91453646  0.96308965  1
  S  S18  1  0.25000000  0.20415213  0.36520549  1
  S  S19  1  0.75000000  0.79584787  0.63479451  1
  S  S20  1  0.25000000  0.74579951  0.32380902  1
  S  S21  1  0.75000000  0.25420049  0.67619098  1
  S  S22  1  0.25000000  0.63584660  0.96426937  1
  S  S23  1  0.75000000  0.36415340  0.03573063  1
  S  S24  1  0.25000000  0.50558607  0.22014572  1
  S  S25  1  0.75000000  0.49441393  0.77985428  1
  S  S26  1  0.25000000  0.25245888  0.17333093  1
  S  S27  1  0.75000000  0.74754112  0.82666907  1
  S  S28  1  0.25000000  0.87437379  0.16317771  1
  S  S29  1  0.75000000  0.12562621  0.83682229  1
  S  S30  1  0.25000000  0.35649306  0.51376524  1
  S  S31  1  0.75000000  0.64350694  0.48623476  1
  S  S32  1  0.25000000  0.05809815  0.55532893  1
  S  S33  1  0.75000000  0.94190185  0.44467107  1
  S  S34  1  0.25000000  0.96256942  0.72895872  1
  S  S35  1  0.75000000  0.03743058  0.27104128  1
  S  S36  1  0.25000000  0.54630419  0.63425032  1
  S  S37  1  0.75000000  0.45369581  0.36574968  1
  S  S38  1  0.25000000  0.34185492  0.90109091  1
  S  S39  1  0.75000000  0.65814508  0.09890909  1
