# generated using pymatgen
data_Ba(SmTe2)2
_symmetry_space_group_name_H-M   'P 1'
_cell_length_a   4.55984181
_cell_length_b   13.91310282
_cell_length_c   16.52984462
_cell_angle_alpha   90.00000000
_cell_angle_beta   90.00000000
_cell_angle_gamma   90.00000000
_symmetry_Int_Tables_number   1
_chemical_formula_structural   Ba(SmTe2)2
_chemical_formula_sum   'Ba4 Sm8 Te16'
_cell_volume   1048.67892999
_cell_formula_units_Z   4
loop_
 _symmetry_equiv_pos_site_id
 _symmetry_equiv_pos_as_xyz
  1  'x, y, z'
loop_
 _atom_site_type_symbol
 _atom_site_label
 _atom_site_symmetry_multiplicity
 _atom_site_fract_x
 _atom_site_fract_y
 _atom_site_fract_z
 _atom_site_occupancy
  Ba  Ba0  1  0.75000000  0.26031867  0.83197900  1
  Ba  Ba1  1  0.25000000  0.73968133  0.16802100  1
  Ba  Ba2  1  0.75000000  0.76031867  0.66802100  1
  Ba  Ba3  1  0.25000000  0.23968133  0.33197900  1
  Sm  Sm4  1  0.25000000  0.08038391  0.59736056  1
  Sm  Sm5  1  0.75000000  0.91961609  0.40263944  1
  Sm  Sm6  1  0.25000000  0.58038391  0.90263944  1
  Sm  Sm7  1  0.75000000  0.41961609  0.09736056  1
  Sm  Sm8  1  0.75000000  0.93720454  0.89107586  1
  Sm  Sm9  1  0.25000000  0.06279546  0.10892414  1
  Sm  Sm10  1  0.75000000  0.43720454  0.60892414  1
  Sm  Sm11  1  0.25000000  0.56279546  0.39107586  1
  Te  Te12  1  0.25000000  0.47426336  0.21618262  1
  Te  Te13  1  0.75000000  0.52573664  0.78381738  1
  Te  Te14  1  0.25000000  0.97426336  0.28381738  1
  Te  Te15  1  0.75000000  0.02573664  0.71618262  1
  Te  Te16  1  0.25000000  0.37062101  0.97150867  1
  Te  Te17  1  0.75000000  0.62937899  0.02849133  1
  Te  Te18  1  0.25000000  0.87062101  0.52849133  1
  Te  Te19  1  0.75000000  0.12937899  0.47150867  1
  Te  Te20  1  0.25000000  0.29434295  0.66608344  1
  Te  Te21  1  0.75000000  0.70565705  0.33391656  1
  Te  Te22  1  0.25000000  0.79434295  0.83391656  1
  Te  Te23  1  0.75000000  0.20565705  0.16608344  1
  Te  Te24  1  0.75000000  0.41111272  0.42195815  1
  Te  Te25  1  0.25000000  0.58888728  0.57804185  1
  Te  Te26  1  0.75000000  0.91111272  0.07804185  1
  Te  Te27  1  0.25000000  0.08888728  0.92195815  1
