# generated using pymatgen
data_K2V3O8
_symmetry_space_group_name_H-M   'P 1'
_cell_length_a   8.87855816
_cell_length_b   8.87855816
_cell_length_c   5.25271081
_cell_angle_alpha   90.00000000
_cell_angle_beta   90.00000000
_cell_angle_gamma   90.00000000
_symmetry_Int_Tables_number   1
_chemical_formula_structural   K2V3O8
_chemical_formula_sum   'K4 V6 O16'
_cell_volume   414.06486364
_cell_formula_units_Z   2
loop_
 _symmetry_equiv_pos_site_id
 _symmetry_equiv_pos_as_xyz
  1  'x, y, z'
loop_
 _atom_site_type_symbol
 _atom_site_label
 _atom_site_symmetry_multiplicity
 _atom_site_fract_x
 _atom_site_fract_y
 _atom_site_fract_z
 _atom_site_occupancy
  K  K0  1  0.16843722  0.66843722  0.17292511  1
  K  K1  1  0.66843722  0.83156278  0.17292511  1
  K  K2  1  0.33156278  0.16843722  0.17292511  1
  K  K3  1  0.83156278  0.33156278  0.17292511  1
  V  V4  1  0.36557973  0.86557973  0.64300820  1
  V  V5  1  0.13442027  0.36557973  0.64300820  1
  V  V6  1  0.63442027  0.13442027  0.64300820  1
  V  V7  1  0.86557973  0.63442027  0.64300820  1
  V  V8  1  0.00000000  0.00000000  0.63193675  1
  V  V9  1  0.50000000  0.50000000  0.63193675  1
  O  O10  1  0.50000000  0.50000000  0.93994506  1
  O  O11  1  0.00000000  0.00000000  0.93994506  1
  O  O12  1  0.00000000  0.50000000  0.52078830  1
  O  O13  1  0.50000000  0.00000000  0.52078830  1
  O  O14  1  0.86886326  0.63113674  0.95665067  1
  O  O15  1  0.63113674  0.13113674  0.95665067  1
  O  O16  1  0.36886326  0.86886326  0.95665067  1
  O  O17  1  0.13113674  0.36886326  0.95665067  1
  O  O18  1  0.69112828  0.58633315  0.52602648  1
  O  O19  1  0.30887172  0.41366685  0.52602648  1
  O  O20  1  0.08633315  0.19112828  0.52602648  1
  O  O21  1  0.19112828  0.91366685  0.52602648  1
  O  O22  1  0.80887172  0.08633315  0.52602648  1
  O  O23  1  0.91366685  0.80887172  0.52602648  1
  O  O24  1  0.58633315  0.30887172  0.52602648  1
  O  O25  1  0.41366685  0.69112828  0.52602648  1
