# generated using pymatgen
data_TmVO4
_symmetry_space_group_name_H-M   'P 1'
_cell_length_a   5.86451933
_cell_length_b   5.86451997
_cell_length_c   5.86451870
_cell_angle_alpha   106.44848446
_cell_angle_beta   106.44846751
_cell_angle_gamma   115.70222258
_symmetry_Int_Tables_number   1
_chemical_formula_structural   TmVO4
_chemical_formula_sum   'Tm2 V2 O8'
_cell_volume   153.87366733
_cell_formula_units_Z   2
loop_
 _symmetry_equiv_pos_site_id
 _symmetry_equiv_pos_as_xyz
  1  'x, y, z'
loop_
 _atom_site_type_symbol
 _atom_site_label
 _atom_site_symmetry_multiplicity
 _atom_site_fract_x
 _atom_site_fract_y
 _atom_site_fract_z
 _atom_site_occupancy
  Tm  Tm0  1  0.12500000  0.87500000  0.25000000  1
  Tm  Tm1  1  0.87500000  0.12500000  0.75000000  1
  V  V2  1  0.37500000  0.62500000  0.75000000  1
  V  V3  1  0.62500000  0.37500000  0.25000000  1
  O  O4  1  0.80125081  0.73838985  0.43714003  1
  O  O5  1  0.36411178  0.80125081  0.56285997  1
  O  O6  1  0.73838985  0.80125081  0.93714003  1
  O  O7  1  0.80125081  0.36411178  0.06285997  1
  O  O8  1  0.63588822  0.19874919  0.43714003  1
  O  O9  1  0.19874919  0.26161015  0.56285997  1
  O  O10  1  0.19874919  0.63588822  0.93714003  1
  O  O11  1  0.26161015  0.19874919  0.06285997  1
