# generated using pymatgen
data_Sr2LiFeO3F
_symmetry_space_group_name_H-M   'P 1'
_cell_length_a   4.09392481
_cell_length_b   4.01149359
_cell_length_c   8.03444158
_cell_angle_alpha   89.46483075
_cell_angle_beta   59.58122787
_cell_angle_gamma   89.80781550
_symmetry_Int_Tables_number   1
_chemical_formula_structural   Sr2LiFeO3F
_chemical_formula_sum   'Sr2 Li1 Fe1 O3 F1'
_cell_volume   113.77966176
_cell_formula_units_Z   1
loop_
 _symmetry_equiv_pos_site_id
 _symmetry_equiv_pos_as_xyz
  1  'x, y, z'
loop_
 _atom_site_type_symbol
 _atom_site_label
 _atom_site_symmetry_multiplicity
 _atom_site_fract_x
 _atom_site_fract_y
 _atom_site_fract_z
 _atom_site_occupancy
  Sr  Sr0  1  0.33979600  0.58754500  0.25230400  1
  Sr  Sr1  1  0.84810800  0.59982300  0.73949900  1
  Li  Li2  1  0.59048400  0.09858100  0.49919100  1
  Fe  Fe3  1  0.09539100  0.09190700  0.99329600  1
  O  O4  1  0.12246800  0.59184200  0.96614800  1
  O  O5  1  0.56503100  0.09114100  0.02341400  1
  O  O6  1  0.07168300  0.10292200  0.52066300  1
  F  F7  1  0.63370700  0.60290600  0.45918800  1
