# generated using pymatgen
data_K2Sm2Mg(MoO4)4
_symmetry_space_group_name_H-M   'P 1'
_cell_length_a   7.80606521
_cell_length_b   7.30109769
_cell_length_c   8.43051294
_cell_angle_alpha   117.46667888
_cell_angle_beta   104.27800189
_cell_angle_gamma   101.78781041
_symmetry_Int_Tables_number   1
_chemical_formula_structural   K2Sm2Mg(MoO4)4
_chemical_formula_sum   'K2 Sm2 Mg1 Mo4 O16'
_cell_volume   383.85111324
_cell_formula_units_Z   1
loop_
 _symmetry_equiv_pos_site_id
 _symmetry_equiv_pos_as_xyz
  1  'x, y, z'
loop_
 _atom_site_type_symbol
 _atom_site_label
 _atom_site_symmetry_multiplicity
 _atom_site_fract_x
 _atom_site_fract_y
 _atom_site_fract_z
 _atom_site_occupancy
  K  K0  1  0.53770077  0.20281081  0.37679121  1
  K  K1  1  0.61404452  0.85112717  0.78580072  1
  Sm  Sm2  1  0.03204576  0.76160460  0.20570700  1
  Sm  Sm3  1  0.94229497  0.24825119  0.75035895  1
  Mg  Mg4  1  0.20182382  0.19441410  0.05369958  1
  Mo  Mo5  1  0.96396966  0.31434188  0.28377984  1
  Mo  Mo6  1  0.06523132  0.71836814  0.72250404  1
  Mo  Mo7  1  0.53137618  0.67624246  0.22635428  1
  Mo  Mo8  1  0.42866431  0.28336474  0.74930726  1
  O  O9  1  0.72415442  0.14254488  0.15601245  1
  O  O10  1  0.30298821  0.90551671  0.88137937  1
  O  O11  1  0.46346442  0.47616793  0.28900656  1
  O  O12  1  0.44227231  0.45802942  0.66146636  1
  O  O13  1  0.71900999  0.92257907  0.43781867  1
  O  O14  1  0.24837279  0.03174010  0.53965767  1
  O  O15  1  0.03453052  0.39281677  0.10069795  1
  O  O16  1  0.96244947  0.62163914  0.87578240  1
  O  O17  1  0.99442207  0.63530356  0.43841155  1
  O  O18  1  0.01355177  0.37986653  0.55844533  1
  O  O19  1  0.65901975  0.60645185  0.06088794  1
  O  O20  1  0.29383850  0.34383225  0.91543616  1
  O  O21  1  0.11043792  0.11519778  0.22661392  1
  O  O22  1  0.96585590  0.95560219  0.78566111  1
  O  O23  1  0.34252120  0.77730197  0.18859458  1
  O  O24  1  0.63810247  0.20809876  0.76315811  1
