# generated using pymatgen
data_DyTlTe2
_symmetry_space_group_name_H-M   'P 1'
_cell_length_a   4.44185166
_cell_length_b   4.44185236
_cell_length_c   8.54289767
_cell_angle_alpha   74.93151965
_cell_angle_beta   74.93152133
_cell_angle_gamma   60.00000269
_symmetry_Int_Tables_number   1
_chemical_formula_structural   DyTlTe2
_chemical_formula_sum   'Dy1 Tl1 Te2'
_cell_volume   139.23784983
_cell_formula_units_Z   1
loop_
 _symmetry_equiv_pos_site_id
 _symmetry_equiv_pos_as_xyz
  1  'x, y, z'
loop_
 _atom_site_type_symbol
 _atom_site_label
 _atom_site_symmetry_multiplicity
 _atom_site_fract_x
 _atom_site_fract_y
 _atom_site_fract_z
 _atom_site_occupancy
  Dy  Dy0  1  0.00000000  0.00000000  -0.00000000  1
  Tl  Tl1  1  0.50000000  0.50000000  0.50000000  1
  Te  Te2  1  0.73757290  0.73757290  0.78728130  1
  Te  Te3  1  0.26242710  0.26242710  0.21271870  1
