# generated using pymatgen
data_Zr(ClO4)4
_symmetry_space_group_name_H-M   'P 1'
_cell_length_a   7.51940880
_cell_length_b   7.51940880
_cell_length_c   13.25934134
_cell_angle_alpha   73.57999562
_cell_angle_beta   73.57999562
_cell_angle_gamma   62.74829947
_symmetry_Int_Tables_number   1
_chemical_formula_structural   Zr(ClO4)4
_chemical_formula_sum   'Zr2 Cl8 O32'
_cell_volume   628.89923557
_cell_formula_units_Z   2
loop_
 _symmetry_equiv_pos_site_id
 _symmetry_equiv_pos_as_xyz
  1  'x, y, z'
loop_
 _atom_site_type_symbol
 _atom_site_label
 _atom_site_symmetry_multiplicity
 _atom_site_fract_x
 _atom_site_fract_y
 _atom_site_fract_z
 _atom_site_occupancy
  Zr  Zr0  1  0.47055675  0.41409967  0.16801075  1
  Zr  Zr1  1  0.41409967  0.47055675  0.66801075  1
  Cl  Cl2  1  0.65681154  0.10909322  0.33717808  1
  Cl  Cl3  1  0.10909322  0.65681154  0.83717808  1
  Cl  Cl4  1  0.77915648  0.21911785  0.00224469  1
  Cl  Cl5  1  0.21911785  0.77915648  0.50224469  1
  Cl  Cl6  1  0.43139379  0.81912678  0.07388891  1
  Cl  Cl7  1  0.81912678  0.43139379  0.57388891  1
  Cl  Cl8  1  0.06185541  0.46264986  0.25825407  1
  Cl  Cl9  1  0.46264986  0.06185541  0.75825407  1
  O  O10  1  0.55270588  0.10099010  0.25679405  1
  O  O11  1  0.10099010  0.55270588  0.75679405  1
  O  O12  1  0.19928053  0.52636608  0.29058471  1
  O  O13  1  0.52636608  0.19928053  0.79058471  1
  O  O14  1  0.90331847  0.01083609  0.02306275  1
  O  O15  1  0.01083609  0.90331847  0.52306275  1
  O  O16  1  0.55365206  0.07166232  0.44133795  1
  O  O17  1  0.07166232  0.55365206  0.94133795  1
  O  O18  1  0.86482875  0.98295465  0.31824518  1
  O  O19  1  0.98295465  0.86482875  0.81824518  1
  O  O20  1  0.36705661  0.68146516  0.04216457  1
  O  O21  1  0.68146516  0.36705661  0.54216457  1
  O  O22  1  0.31912113  0.82015361  0.39771186  1
  O  O23  1  0.82015361  0.31912113  0.89771186  1
  O  O24  1  0.19953934  0.38076130  0.15934687  1
  O  O25  1  0.38076130  0.19953934  0.65934687  1
  O  O26  1  0.62301228  0.33031957  0.30491127  1
  O  O27  1  0.33031957  0.62301228  0.80491127  1
  O  O28  1  0.50626112  0.68512976  0.17507560  1
  O  O29  1  0.68512976  0.50626112  0.67507560  1
  O  O30  1  0.02803382  0.30550969  0.33650576  1
  O  O31  1  0.30550969  0.02803382  0.83650576  1
  O  O32  1  0.32521558  0.78601494  0.58210931  1
  O  O33  1  0.78601494  0.32521558  0.08210931  1
  O  O34  1  0.63209061  0.88594917  0.73204960  1
  O  O35  1  0.88594917  0.63209061  0.23204960  1
  O  O36  1  0.59308237  0.84669668  0.99702369  1
  O  O37  1  0.84669668  0.59308237  0.49702369  1
  O  O38  1  0.26325881  0.99856264  0.09641949  1
  O  O39  1  0.99856264  0.26325881  0.59641949  1
  O  O40  1  0.55724314  0.25546739  0.03307985  1
  O  O41  1  0.25546739  0.55724314  0.53307985  1
