# generated using pymatgen
data_Cs2TcF6
_symmetry_space_group_name_H-M   'P 1'
_cell_length_a   6.24812073
_cell_length_b   6.24812213
_cell_length_c   4.96523210
_cell_angle_alpha   90.00008122
_cell_angle_beta   89.99993921
_cell_angle_gamma   120.00005929
_symmetry_Int_Tables_number   1
_chemical_formula_structural   Cs2TcF6
_chemical_formula_sum   'Cs2 Tc1 F6'
_cell_volume   167.86836061
_cell_formula_units_Z   1
loop_
 _symmetry_equiv_pos_site_id
 _symmetry_equiv_pos_as_xyz
  1  'x, y, z'
loop_
 _atom_site_type_symbol
 _atom_site_label
 _atom_site_symmetry_multiplicity
 _atom_site_fract_x
 _atom_site_fract_y
 _atom_site_fract_z
 _atom_site_occupancy
  Cs  Cs0  1  0.66666700  0.33333300  0.70108571  1
  Cs  Cs1  1  0.33333300  0.66666700  0.29891429  1
  Tc  Tc2  1  -0.00000000  0.00000000  0.00000000  1
  F  F3  1  0.15008738  0.84991262  0.78299874  1
  F  F4  1  0.69982525  0.84991262  0.78299874  1
  F  F5  1  0.15008738  0.30017575  0.78299874  1
  F  F6  1  0.84991262  0.15008738  0.21700126  1
  F  F7  1  0.30017475  0.15008738  0.21700126  1
  F  F8  1  0.84991262  0.69982425  0.21700126  1
