# generated using pymatgen
data_Cs3B(SeO4)3
_symmetry_space_group_name_H-M   'P 1'
_cell_length_a   11.44248809
_cell_length_b   8.03998115
_cell_length_c   15.81235618
_cell_angle_alpha   90.00000000
_cell_angle_beta   101.19709658
_cell_angle_gamma   90.00000000
_symmetry_Int_Tables_number   1
_chemical_formula_structural   Cs3B(SeO4)3
_chemical_formula_sum   'Cs12 B4 Se12 O48'
_cell_volume   1427.00534209
_cell_formula_units_Z   4
loop_
 _symmetry_equiv_pos_site_id
 _symmetry_equiv_pos_as_xyz
  1  'x, y, z'
loop_
 _atom_site_type_symbol
 _atom_site_label
 _atom_site_symmetry_multiplicity
 _atom_site_fract_x
 _atom_site_fract_y
 _atom_site_fract_z
 _atom_site_occupancy
  Cs  Cs0  1  0.12429927  0.71045651  0.05979580  1
  Cs  Cs1  1  0.87570073  0.21045651  0.44020420  1
  Cs  Cs2  1  0.87570073  0.28954349  0.94020420  1
  Cs  Cs3  1  0.12429927  0.78954349  0.55979580  1
  Cs  Cs4  1  0.13598197  0.42959707  0.30121151  1
  Cs  Cs5  1  0.86401803  0.92959707  0.19878849  1
  Cs  Cs6  1  0.86401803  0.57040293  0.69878849  1
  Cs  Cs7  1  0.13598197  0.07040293  0.80121151  1
  Cs  Cs8  1  0.46089326  0.27868842  0.04649328  1
  Cs  Cs9  1  0.53910674  0.77868842  0.45350672  1
  Cs  Cs10  1  0.53910674  0.72131158  0.95350672  1
  Cs  Cs11  1  0.46089326  0.22131158  0.54649328  1
  B  B12  1  0.65902155  0.55209517  0.26888937  1
  B  B13  1  0.34097845  0.05209517  0.23111063  1
  B  B14  1  0.34097845  0.44790483  0.73111063  1
  B  B15  1  0.65902155  0.94790483  0.76888937  1
  Se  Se16  1  0.49062044  0.79691824  0.18788231  1
  Se  Se17  1  0.50937956  0.29691824  0.31211769  1
  Se  Se18  1  0.50937956  0.20308176  0.81211769  1
  Se  Se19  1  0.49062044  0.70308176  0.68788231  1
  Se  Se20  1  0.18438043  0.57067516  0.83384305  1
  Se  Se21  1  0.81561957  0.07067516  0.66615695  1
  Se  Se22  1  0.81561957  0.42932484  0.16615695  1
  Se  Se23  1  0.18438043  0.92932484  0.33384305  1
  Se  Se24  1  0.16381818  0.17429156  0.09387898  1
  Se  Se25  1  0.83618182  0.67429156  0.40612102  1
  Se  Se26  1  0.83618182  0.82570844  0.90612102  1
  Se  Se27  1  0.16381818  0.32570844  0.59387898  1
  O  O28  1  0.43488775  0.42789991  0.35902929  1
  O  O29  1  0.56511225  0.92789991  0.14097071  1
  O  O30  1  0.56511225  0.57210009  0.64097071  1
  O  O31  1  0.43488775  0.07210009  0.85902929  1
  O  O32  1  0.41102007  0.66490005  0.12400113  1
  O  O33  1  0.58897993  0.16490005  0.37599887  1
  O  O34  1  0.58897993  0.33509995  0.87599887  1
  O  O35  1  0.41102007  0.83509995  0.62400113  1
  O  O36  1  0.92054258  0.53977051  0.13717398  1
  O  O37  1  0.07945742  0.03977051  0.36282602  1
  O  O38  1  0.07945742  0.46022949  0.86282602  1
  O  O39  1  0.92054258  0.96022949  0.63717398  1
  O  O40  1  0.13949570  0.80581017  0.25228067  1
  O  O41  1  0.86050430  0.30581017  0.24771933  1
  O  O42  1  0.86050430  0.19418983  0.74771933  1
  O  O43  1  0.13949570  0.69418983  0.75228067  1
  O  O44  1  0.27240639  0.65984851  0.91497922  1
  O  O45  1  0.72759361  0.15984851  0.58502078  1
  O  O46  1  0.72759361  0.34015149  0.08502078  1
  O  O47  1  0.27240639  0.84015149  0.41497922  1
  O  O48  1  0.22114335  0.36031966  0.11033223  1
  O  O49  1  0.77885665  0.86031966  0.38966777  1
  O  O50  1  0.77885665  0.63968034  0.88966777  1
  O  O51  1  0.22114335  0.13968034  0.61033223  1
  O  O52  1  0.04822558  0.14642568  0.13809344  1
  O  O53  1  0.95177442  0.64642568  0.36190656  1
  O  O54  1  0.95177442  0.85357432  0.86190656  1
  O  O55  1  0.04822558  0.35357432  0.63809344  1
  O  O56  1  0.14597204  0.11109653  0.99431569  1
  O  O57  1  0.85402796  0.61109653  0.50568431  1
  O  O58  1  0.85402796  0.88890347  0.00568431  1
  O  O59  1  0.14597204  0.38890347  0.49431569  1
  O  O60  1  0.58885822  0.39619710  0.24567627  1
  O  O61  1  0.41114178  0.89619710  0.25432373  1
  O  O62  1  0.41114178  0.60380290  0.75432373  1
  O  O63  1  0.58885822  0.10380290  0.74567627  1
  O  O64  1  0.27536705  0.03248195  0.14333067  1
  O  O65  1  0.72463295  0.53248195  0.35666933  1
  O  O66  1  0.72463295  0.96751805  0.85666933  1
  O  O67  1  0.27536705  0.46751805  0.64333067  1
  O  O68  1  0.42106944  0.19820670  0.22774983  1
  O  O69  1  0.57893056  0.69820670  0.27225017  1
  O  O70  1  0.57893056  0.80179330  0.77225017  1
  O  O71  1  0.42106944  0.30179330  0.72774983  1
  O  O72  1  0.27481619  0.08419520  0.29854070  1
  O  O73  1  0.72518381  0.58419520  0.20145930  1
  O  O74  1  0.72518381  0.91580480  0.70145930  1
  O  O75  1  0.27481619  0.41580480  0.79854070  1
