# generated using pymatgen
data_Fe4OF6
_symmetry_space_group_name_H-M   'P 1'
_cell_length_a   5.17020668
_cell_length_b   7.19366192
_cell_length_c   7.17300566
_cell_angle_alpha   91.49564414
_cell_angle_beta   90.37610442
_cell_angle_gamma   90.33540875
_symmetry_Int_Tables_number   1
_chemical_formula_structural   Fe4OF6
_chemical_formula_sum   'Fe8 O2 F12'
_cell_volume   266.68210322
_cell_formula_units_Z   2
loop_
 _symmetry_equiv_pos_site_id
 _symmetry_equiv_pos_as_xyz
  1  'x, y, z'
loop_
 _atom_site_type_symbol
 _atom_site_label
 _atom_site_symmetry_multiplicity
 _atom_site_fract_x
 _atom_site_fract_y
 _atom_site_fract_z
 _atom_site_occupancy
  Fe  Fe0  1  0.44204700  0.50805000  0.74385200  1
  Fe  Fe1  1  0.94215900  0.74376300  0.50765000  1
  Fe  Fe2  1  0.96455400  0.74395400  0.01983600  1
  Fe  Fe3  1  0.46508600  0.02050900  0.74413700  1
  Fe  Fe4  1  0.53429100  0.97926600  0.25446800  1
  Fe  Fe5  1  0.05807300  0.25678500  0.49245100  1
  Fe  Fe6  1  0.03511700  0.25490100  0.97972800  1
  Fe  Fe7  1  0.55801400  0.49174400  0.25637600  1
  O  O8  1  0.24980300  0.25035500  0.74953600  1
  O  O9  1  0.74995600  0.74939200  0.25015000  1
  F  F10  1  0.87550600  0.29091600  0.23526600  1
  F  F11  1  0.37473200  0.23426000  0.28872600  1
  F  F12  1  0.12586400  0.71015200  0.76493400  1
  F  F13  1  0.62657500  0.76568300  0.71236900  1
  F  F14  1  0.74794900  0.03734900  0.96528700  1
  F  F15  1  0.75605000  0.05897100  0.52657400  1
  F  F16  1  0.74995700  0.46190400  0.53891800  1
  F  F17  1  0.74437700  0.47254200  0.94034600  1
  F  F18  1  0.25602800  0.52710200  0.05926300  1
  F  F19  1  0.25042900  0.53846700  0.46135200  1
  F  F20  1  0.24816900  0.96385400  0.03563800  1
  F  F21  1  0.24526600  0.94007900  0.47314500  1
