# generated using pymatgen
data_LaSBr
_symmetry_space_group_name_H-M   'P 1'
_cell_length_a   7.01557027
_cell_length_b   7.19842271
_cell_length_c   14.08718185
_cell_angle_alpha   90.00000000
_cell_angle_beta   90.00000000
_cell_angle_gamma   90.00000000
_symmetry_Int_Tables_number   1
_chemical_formula_structural   LaSBr
_chemical_formula_sum   'La8 S8 Br8'
_cell_volume   711.41733910
_cell_formula_units_Z   8
loop_
 _symmetry_equiv_pos_site_id
 _symmetry_equiv_pos_as_xyz
  1  'x, y, z'
loop_
 _atom_site_type_symbol
 _atom_site_label
 _atom_site_symmetry_multiplicity
 _atom_site_fract_x
 _atom_site_fract_y
 _atom_site_fract_z
 _atom_site_occupancy
  La  La0  1  0.25749450  0.96848448  0.90687067  1
  La  La1  1  0.74250550  0.03151552  0.09312933  1
  La  La2  1  0.24250550  0.46848448  0.09312933  1
  La  La3  1  0.74250550  0.53151552  0.40687067  1
  La  La4  1  0.75749450  0.53151552  0.90687067  1
  La  La5  1  0.25749450  0.46848448  0.59312933  1
  La  La6  1  0.75749450  0.03151552  0.59312933  1
  La  La7  1  0.24250550  0.96848448  0.40687067  1
  S  S8  1  0.99940198  0.74243402  0.52285966  1
  S  S9  1  0.00059802  0.25756598  0.47714034  1
  S  S10  1  0.50059802  0.24243402  0.47714034  1
  S  S11  1  0.00059802  0.75756598  0.02285966  1
  S  S12  1  0.49940198  0.75756598  0.52285966  1
  S  S13  1  0.99940198  0.24243402  0.97714034  1
  S  S14  1  0.49940198  0.25756598  0.97714034  1
  S  S15  1  0.50059802  0.74243402  0.02285966  1
  Br  Br16  1  0.15785398  0.60727141  0.79408796  1
  Br  Br17  1  0.84214602  0.39272859  0.20591204  1
  Br  Br18  1  0.34214602  0.10727141  0.20591204  1
  Br  Br19  1  0.84214602  0.89272859  0.29408796  1
  Br  Br20  1  0.65785398  0.89272859  0.79408796  1
  Br  Br21  1  0.15785398  0.10727141  0.70591204  1
  Br  Br22  1  0.65785398  0.39272859  0.70591204  1
  Br  Br23  1  0.34214602  0.60727141  0.29408796  1
