# generated using pymatgen
data_K2SbF5
_symmetry_space_group_name_H-M   'P 1'
_cell_length_a   6.47825350
_cell_length_b   7.48832817
_cell_length_c   12.54758854
_cell_angle_alpha   64.31836856
_cell_angle_beta   90.00000000
_cell_angle_gamma   90.00000000
_symmetry_Int_Tables_number   1
_chemical_formula_structural   K2SbF5
_chemical_formula_sum   'K8 Sb4 F20'
_cell_volume   548.56989581
_cell_formula_units_Z   4
loop_
 _symmetry_equiv_pos_site_id
 _symmetry_equiv_pos_as_xyz
  1  'x, y, z'
loop_
 _atom_site_type_symbol
 _atom_site_label
 _atom_site_symmetry_multiplicity
 _atom_site_fract_x
 _atom_site_fract_y
 _atom_site_fract_z
 _atom_site_occupancy
  K  K0  1  0.74574562  0.15010846  0.45604004  1
  K  K1  1  0.24574562  0.84989154  0.04395996  1
  K  K2  1  0.25425438  0.84989154  0.54395996  1
  K  K3  1  0.75425438  0.15010846  0.95604004  1
  K  K4  1  0.26399072  0.49639925  0.38008451  1
  K  K5  1  0.76399072  0.50360075  0.11991549  1
  K  K6  1  0.73600928  0.50360075  0.61991549  1
  K  K7  1  0.23600928  0.49639925  0.88008451  1
  Sb  Sb8  1  0.22853676  0.17617742  0.70408711  1
  Sb  Sb9  1  0.72853676  0.82382258  0.79591289  1
  Sb  Sb10  1  0.77146324  0.82382258  0.29591289  1
  Sb  Sb11  1  0.27146324  0.17617742  0.20408711  1
  F  F12  1  0.29982701  0.45766738  0.61028824  1
  F  F13  1  0.79982701  0.54233262  0.88971176  1
  F  F14  1  0.70017299  0.54233262  0.38971176  1
  F  F15  1  0.20017299  0.45766738  0.11028824  1
  F  F16  1  0.42227850  0.16707222  0.57009555  1
  F  F17  1  0.92227850  0.83292778  0.92990445  1
  F  F18  1  0.57772150  0.83292778  0.42990445  1
  F  F19  1  0.07772150  0.16707222  0.07009555  1
  F  F20  1  0.00708356  0.25569350  0.57373228  1
  F  F21  1  0.50708356  0.74430650  0.92626772  1
  F  F22  1  0.99291644  0.74430650  0.42626772  1
  F  F23  1  0.49291644  0.25569350  0.07373228  1
  F  F24  1  0.45371453  0.22501045  0.80980272  1
  F  F25  1  0.95371453  0.77498955  0.69019728  1
  F  F26  1  0.54628547  0.77498955  0.19019728  1
  F  F27  1  0.04628547  0.22501045  0.30980272  1
  F  F28  1  0.02528445  0.29803866  0.78033178  1
  F  F29  1  0.52528445  0.70196134  0.71966822  1
  F  F30  1  0.97471555  0.70196134  0.21966822  1
  F  F31  1  0.47471555  0.29803866  0.28033178  1
