# generated using pymatgen
data_Sm2SiTeO4
_symmetry_space_group_name_H-M   'P 1'
_cell_length_a   6.34531441
_cell_length_b   8.61559530
_cell_length_c   9.77713841
_cell_angle_alpha   94.98627371
_cell_angle_beta   90.00000000
_cell_angle_gamma   90.00000000
_symmetry_Int_Tables_number   1
_chemical_formula_structural   Sm2SiTeO4
_chemical_formula_sum   'Sm8 Si4 Te4 O16'
_cell_volume   532.48026495
_cell_formula_units_Z   4
loop_
 _symmetry_equiv_pos_site_id
 _symmetry_equiv_pos_as_xyz
  1  'x, y, z'
loop_
 _atom_site_type_symbol
 _atom_site_label
 _atom_site_symmetry_multiplicity
 _atom_site_fract_x
 _atom_site_fract_y
 _atom_site_fract_z
 _atom_site_occupancy
  Sm  Sm0  1  0.69574170  0.16503591  0.65579513  1
  Sm  Sm1  1  0.80425830  0.66503591  0.65579513  1
  Sm  Sm2  1  0.30425830  0.83496409  0.34420487  1
  Sm  Sm3  1  0.19574170  0.33496409  0.34420487  1
  Sm  Sm4  1  0.84633740  0.69447169  0.10713495  1
  Sm  Sm5  1  0.34633740  0.80552831  0.89286505  1
  Sm  Sm6  1  0.15366260  0.30552831  0.89286505  1
  Sm  Sm7  1  0.65366260  0.19447169  0.10713495  1
  Si  Si8  1  0.19082905  0.05589720  0.12384819  1
  Si  Si9  1  0.80917095  0.94410280  0.87615181  1
  Si  Si10  1  0.69082905  0.44410280  0.87615181  1
  Si  Si11  1  0.30917095  0.55589720  0.12384819  1
  Te  Te12  1  0.28566909  0.61780953  0.59134734  1
  Te  Te13  1  0.78566909  0.88219047  0.40865266  1
  Te  Te14  1  0.71433091  0.38219047  0.40865266  1
  Te  Te15  1  0.21433091  0.11780953  0.59134734  1
  O  O16  1  0.13648215  0.58996470  0.24721524  1
  O  O17  1  0.63648215  0.91003530  0.75278476  1
  O  O18  1  0.86351785  0.41003530  0.75278476  1
  O  O19  1  0.36351785  0.08996470  0.24721524  1
  O  O20  1  0.49150679  0.68348131  0.15693676  1
  O  O21  1  0.99150679  0.81651869  0.84306324  1
  O  O22  1  0.50849321  0.31651869  0.84306324  1
  O  O23  1  0.00849321  0.18348131  0.15693676  1
  O  O24  1  0.13400813  0.87281354  0.12383144  1
  O  O25  1  0.80527665  0.42281547  0.02247200  1
  O  O26  1  0.86599187  0.12718646  0.87616856  1
  O  O27  1  0.36599187  0.37281354  0.12383144  1
  O  O28  1  0.69472335  0.92281547  0.02247200  1
  O  O29  1  0.19472335  0.57718453  0.97752800  1
  O  O30  1  0.30527665  0.07718453  0.97752800  1
  O  O31  1  0.63400813  0.62718646  0.87616856  1
