# generated using pymatgen
data_MgV6(HO3)6
_symmetry_space_group_name_H-M   'P 1'
_cell_length_a   5.20296971
_cell_length_b   8.94523205
_cell_length_c   8.66224056
_cell_angle_alpha   89.98971370
_cell_angle_beta   108.77196467
_cell_angle_gamma   89.99912867
_symmetry_Int_Tables_number   1
_chemical_formula_structural   MgV6(HO3)6
_chemical_formula_sum   'Mg1 V6 H6 O18'
_cell_volume   381.71086751
_cell_formula_units_Z   1
loop_
 _symmetry_equiv_pos_site_id
 _symmetry_equiv_pos_as_xyz
  1  'x, y, z'
loop_
 _atom_site_type_symbol
 _atom_site_label
 _atom_site_symmetry_multiplicity
 _atom_site_fract_x
 _atom_site_fract_y
 _atom_site_fract_z
 _atom_site_occupancy
  Mg  Mg0  1  0.63238100  0.24713000  0.69576200  1
  V  V1  1  0.50428100  0.45387400  0.16658200  1
  V  V2  1  0.51201800  0.93917600  0.82958900  1
  V  V3  1  0.51194800  0.55483400  0.82966600  1
  V  V4  1  0.50430100  0.03994600  0.16651100  1
  V  V5  1  0.94970700  0.24696000  0.07046100  1
  V  V6  1  0.05910000  0.74696200  0.94741500  1
  H  H7  1  0.03769300  0.16116900  0.59944900  1
  H  H8  1  0.78953800  0.24687500  0.35678500  1
  H  H9  1  0.03755900  0.33307700  0.59927700  1
  H  H10  1  0.91001400  0.65512100  0.40865300  1
  H  H11  1  0.14166700  0.74696700  0.56984700  1
  H  H12  1  0.90976500  0.83871500  0.40857700  1
  O  O13  1  0.66344100  0.40921800  0.00139900  1
  O  O14  1  0.35055800  0.89962700  0.00164900  1
  O  O15  1  0.35059400  0.59431000  0.00174200  1
  O  O16  1  0.66360100  0.08465800  0.00137400  1
  O  O17  1  0.20836000  0.39223200  0.19719100  1
  O  O18  1  0.81565500  0.89758100  0.80247900  1
  O  O19  1  0.81560700  0.59632800  0.80255700  1
  O  O20  1  0.20836800  0.10162400  0.19708400  1
  O  O21  1  0.69915900  0.24689000  0.23597500  1
  O  O22  1  0.33979100  0.74707500  0.75386500  1
  O  O23  1  0.98100600  0.24716200  0.88266700  1
  O  O24  1  0.93718400  0.74705000  0.09857300  1
  O  O25  1  0.69123300  0.54129900  0.33379300  1
  O  O26  1  0.37378900  0.07145200  0.68065400  1
  O  O27  1  0.37363700  0.42267500  0.68067200  1
  O  O28  1  0.69104500  0.95235100  0.33373200  1
  O  O29  1  0.90896800  0.24709700  0.56209700  1
  O  O30  1  0.03428000  0.74694400  0.44798600  1
