# generated using pymatgen
data_Sr6Mg(W2O9)2
_symmetry_space_group_name_H-M   'P 1'
_cell_length_a   7.50776448
_cell_length_b   7.50776448
_cell_length_c   7.50776334
_cell_angle_alpha   82.73625028
_cell_angle_beta   82.73625028
_cell_angle_gamma   82.73625126
_symmetry_Int_Tables_number   1
_chemical_formula_structural   Sr6Mg(W2O9)2
_chemical_formula_sum   'Sr6 Mg1 W4 O18'
_cell_volume   413.78980001
_cell_formula_units_Z   1
loop_
 _symmetry_equiv_pos_site_id
 _symmetry_equiv_pos_as_xyz
  1  'x, y, z'
loop_
 _atom_site_type_symbol
 _atom_site_label
 _atom_site_symmetry_multiplicity
 _atom_site_fract_x
 _atom_site_fract_y
 _atom_site_fract_z
 _atom_site_occupancy
  Sr  Sr0  1  0.24785200  0.91952300  0.57818300  1
  Sr  Sr1  1  0.08047700  0.42181700  0.75214800  1
  Sr  Sr2  1  0.42181700  0.75214800  0.08047700  1
  Sr  Sr3  1  0.57818300  0.24785200  0.91952300  1
  Sr  Sr4  1  0.91952300  0.57818300  0.24785200  1
  Sr  Sr5  1  0.75214800  0.08047700  0.42181700  1
  Mg  Mg6  1  0.00000000  0.00000000  0.00000000  1
  W  W7  1  0.82469900  0.82469900  0.82469900  1
  W  W8  1  0.36860200  0.36860200  0.36860200  1
  W  W9  1  0.17530100  0.17530100  0.17530100  1
  W  W10  1  0.63139800  0.63139800  0.63139800  1
  O  O11  1  0.08763100  0.93972600  0.26265600  1
  O  O12  1  0.06027400  0.73734400  0.91236900  1
  O  O13  1  0.57496200  0.88718100  0.73668300  1
  O  O14  1  0.24910200  0.58714600  0.42499900  1
  O  O15  1  0.11281900  0.26331700  0.42503800  1
  O  O16  1  0.26331700  0.42503800  0.11281900  1
  O  O17  1  0.41285400  0.57500100  0.75089800  1
  O  O18  1  0.57500100  0.75089800  0.41285400  1
  O  O19  1  0.73734400  0.91236900  0.06027400  1
  O  O20  1  0.26265600  0.08763100  0.93972600  1
  O  O21  1  0.42499900  0.24910200  0.58714600  1
  O  O22  1  0.88718100  0.73668300  0.57496200  1
  O  O23  1  0.58714600  0.42499900  0.24910200  1
  O  O24  1  0.73668300  0.57496200  0.88718100  1
  O  O25  1  0.75089800  0.41285400  0.57500100  1
  O  O26  1  0.42503800  0.11281900  0.26331700  1
  O  O27  1  0.93972600  0.26265600  0.08763100  1
  O  O28  1  0.91236900  0.06027400  0.73734400  1
