# generated using pymatgen
data_V4OF11
_symmetry_space_group_name_H-M   'P 1'
_cell_length_a   5.03303819
_cell_length_b   5.31845362
_cell_length_c   16.97250379
_cell_angle_alpha   91.57375433
_cell_angle_beta   98.52619014
_cell_angle_gamma   61.75731500
_symmetry_Int_Tables_number   1
_chemical_formula_structural   V4OF11
_chemical_formula_sum   'V8 O2 F22'
_cell_volume   395.33454772
_cell_formula_units_Z   2
loop_
 _symmetry_equiv_pos_site_id
 _symmetry_equiv_pos_as_xyz
  1  'x, y, z'
loop_
 _atom_site_type_symbol
 _atom_site_label
 _atom_site_symmetry_multiplicity
 _atom_site_fract_x
 _atom_site_fract_y
 _atom_site_fract_z
 _atom_site_occupancy
  V  V0  1  0.72974888  0.63030903  0.12098451  1
  V  V1  1  0.75644108  0.12604750  0.62476713  1
  V  V2  1  0.48915860  0.24474220  0.25396299  1
  V  V3  1  0.50797506  0.74872119  0.75037215  1
  V  V4  1  0.26077178  0.89293922  0.37427331  1
  V  V5  1  0.25967957  0.37075191  0.87561255  1
  V  V6  1  0.02923813  0.98214503  0.00068528  1
  V  V7  1  0.00477252  0.50429865  0.49937271  1
  O  O8  1  0.40092428  0.79284232  0.03936519  1
  O  O9  1  0.40447859  0.08210854  0.33553812  1
  F  F10  1  0.91384658  0.84443863  0.08962598  1
  F  F11  1  0.97412488  0.32100921  0.06099672  1
  F  F12  1  -0.00092962  0.81450203  0.56308454  1
  F  F13  1  0.51208112  0.93758192  0.18744690  1
  F  F14  1  0.91880124  0.03046425  0.28528542  1
  F  F15  1  0.94137696  0.34351113  0.59348601  1
  F  F16  1  0.94175214  0.53114028  0.78144780  1
  F  F17  1  0.56774993  0.40932178  0.16062766  1
  F  F18  1  0.56942134  0.91258231  0.65597849  1
  F  F19  1  0.56551799  0.72214744  0.46818415  1
  F  F20  1  0.48432640  0.55399639  0.31395782  1
  F  F21  1  0.51686295  0.43733104  0.68754594  1
  F  F22  1  0.43735971  0.28581837  0.53031570  1
  F  F23  1  0.44293495  0.58941109  0.84483283  1
  F  F24  1  0.58077872  0.20399123  0.96720708  1
  F  F25  1  0.06758140  0.67122685  0.40780734  1
  F  F26  1  0.06655229  0.46575163  0.21426770  1
  F  F27  1  0.07636546  0.96226933  0.71918052  1
  F  F28  1  0.50097414  0.06026595  0.81204561  1
  F  F29  1  0.00476571  0.68618770  0.93557322  1
  F  F30  1  0.00544970  0.18899333  0.43935820  1
  F  F31  1  0.06911749  0.15315051  0.90681040  1
