# generated using pymatgen
data_Ba4SiAs4
_symmetry_space_group_name_H-M   'P 1'
_cell_length_a   13.44389665
_cell_length_b   13.44389665
_cell_length_c   13.44389665
_cell_angle_alpha   90.00000000
_cell_angle_beta   90.00000000
_cell_angle_gamma   90.00000000
_symmetry_Int_Tables_number   1
_chemical_formula_structural   Ba4SiAs4
_chemical_formula_sum   'Ba32 Si8 As32'
_cell_volume   2429.82779403
_cell_formula_units_Z   8
loop_
 _symmetry_equiv_pos_site_id
 _symmetry_equiv_pos_as_xyz
  1  'x, y, z'
loop_
 _atom_site_type_symbol
 _atom_site_label
 _atom_site_symmetry_multiplicity
 _atom_site_fract_x
 _atom_site_fract_y
 _atom_site_fract_z
 _atom_site_occupancy
  Ba  Ba0  1  0.14483378  0.14483378  0.14483378  1
  Ba  Ba1  1  0.35516622  0.64483378  0.35516622  1
  Ba  Ba2  1  0.64483378  0.35516622  0.35516622  1
  Ba  Ba3  1  0.35516622  0.35516622  0.64483378  1
  Ba  Ba4  1  0.14483378  0.85516622  0.85516622  1
  Ba  Ba5  1  0.85516622  0.85516622  0.14483378  1
  Ba  Ba6  1  0.85516622  0.14483378  0.85516622  1
  Ba  Ba7  1  0.64483378  0.64483378  0.64483378  1
  Ba  Ba8  1  0.90486695  0.86788303  0.64482882  1
  Ba  Ba9  1  0.90486695  0.13211697  0.35517118  1
  Ba  Ba10  1  0.86788303  0.64482882  0.90486695  1
  Ba  Ba11  1  0.13211697  0.64482882  0.09513305  1
  Ba  Ba12  1  0.64482882  0.90486695  0.86788303  1
  Ba  Ba13  1  0.35517118  0.09513305  0.86788303  1
  Ba  Ba14  1  0.59513305  0.85517118  0.36788303  1
  Ba  Ba15  1  0.59513305  0.14482882  0.63211697  1
  Ba  Ba16  1  0.40486695  0.85517118  0.63211697  1
  Ba  Ba17  1  0.14482882  0.63211697  0.59513305  1
  Ba  Ba18  1  0.63211697  0.40486695  0.85517118  1
  Ba  Ba19  1  0.63211697  0.59513305  0.14482882  1
  Ba  Ba20  1  0.85517118  0.36788303  0.59513305  1
  Ba  Ba21  1  0.36788303  0.59513305  0.85517118  1
  Ba  Ba22  1  0.85517118  0.63211697  0.40486695  1
  Ba  Ba23  1  0.14482882  0.36788303  0.40486695  1
  Ba  Ba24  1  0.36788303  0.40486695  0.14482882  1
  Ba  Ba25  1  0.35517118  0.90486695  0.13211697  1
  Ba  Ba26  1  0.64482882  0.09513305  0.13211697  1
  Ba  Ba27  1  0.86788303  0.35517118  0.09513305  1
  Ba  Ba28  1  0.13211697  0.35517118  0.90486695  1
  Ba  Ba29  1  0.09513305  0.13211697  0.64482882  1
  Ba  Ba30  1  0.09513305  0.86788303  0.35517118  1
  Ba  Ba31  1  0.40486695  0.14482882  0.36788303  1
  Si  Si32  1  -0.00000000  -0.00000000  -0.00000000  1
  Si  Si33  1  0.75000000  -0.00000000  0.50000000  1
  Si  Si34  1  0.50000000  0.75000000  -0.00000000  1
  Si  Si35  1  0.50000000  0.25000000  -0.00000000  1
  Si  Si36  1  -0.00000000  0.50000000  0.25000000  1
  Si  Si37  1  -0.00000000  0.50000000  0.75000000  1
  Si  Si38  1  0.25000000  -0.00000000  0.50000000  1
  Si  Si39  1  0.50000000  0.50000000  0.50000000  1
  As  As40  1  0.60219335  0.84766804  0.11111195  1
  As  As41  1  0.65233196  0.10219335  0.38888805  1
  As  As42  1  0.89780665  0.61111195  0.65233196  1
  As  As43  1  0.10219335  0.61111195  0.34766804  1
  As  As44  1  0.61111195  0.65233196  0.89780665  1
  As  As45  1  0.38888805  0.34766804  0.89780665  1
  As  As46  1  0.84766804  0.88888805  0.39780665  1
  As  As47  1  0.84766804  0.11111195  0.60219335  1
  As  As48  1  0.15233196  0.88888805  0.60219335  1
  As  As49  1  0.39663842  0.39663842  0.39663842  1
  As  As50  1  0.60219335  0.15233196  0.88888805  1
  As  As51  1  0.65233196  0.89780665  0.61111195  1
  As  As52  1  0.88888805  0.39780665  0.84766804  1
  As  As53  1  0.39780665  0.84766804  0.88888805  1
  As  As54  1  0.88888805  0.60219335  0.15233196  1
  As  As55  1  0.11111195  0.39780665  0.15233196  1
  As  As56  1  0.39780665  0.15233196  0.11111195  1
  As  As57  1  0.38888805  0.65233196  0.10219335  1
  As  As58  1  0.61111195  0.34766804  0.10219335  1
  As  As59  1  0.89780665  0.38888805  0.34766804  1
  As  As60  1  0.10219335  0.38888805  0.65233196  1
  As  As61  1  0.34766804  0.10219335  0.61111195  1
  As  As62  1  0.34766804  0.89780665  0.38888805  1
  As  As63  1  0.15233196  0.11111195  0.39780665  1
  As  As64  1  0.10336158  0.89663842  0.10336158  1
  As  As65  1  0.10336158  0.10336158  0.89663842  1
  As  As66  1  0.89663842  0.10336158  0.10336158  1
  As  As67  1  0.60336158  0.60336158  0.39663842  1
  As  As68  1  0.39663842  0.60336158  0.60336158  1
  As  As69  1  0.60336158  0.39663842  0.60336158  1
  As  As70  1  0.89663842  0.89663842  0.89663842  1
  As  As71  1  0.11111195  0.60219335  0.84766804  1
