# generated using pymatgen
data_AsIrSe
_symmetry_space_group_name_H-M   'P 1'
_cell_length_a   5.97701709
_cell_length_b   5.97701709
_cell_length_c   5.97701709
_cell_angle_alpha   90.00000000
_cell_angle_beta   90.00000000
_cell_angle_gamma   90.00000000
_symmetry_Int_Tables_number   1
_chemical_formula_structural   AsIrSe
_chemical_formula_sum   'As4 Ir4 Se4'
_cell_volume   213.52734143
_cell_formula_units_Z   4
loop_
 _symmetry_equiv_pos_site_id
 _symmetry_equiv_pos_as_xyz
  1  'x, y, z'
loop_
 _atom_site_type_symbol
 _atom_site_label
 _atom_site_symmetry_multiplicity
 _atom_site_fract_x
 _atom_site_fract_y
 _atom_site_fract_z
 _atom_site_occupancy
  As  As0  1  0.11911844  0.88088156  0.38088156  1
  As  As1  1  0.88088156  0.38088156  0.11911844  1
  As  As2  1  0.38088156  0.11911844  0.88088156  1
  As  As3  1  0.61911844  0.61911844  0.61911844  1
  Ir  Ir4  1  0.50491612  0.49508388  0.99508388  1
  Ir  Ir5  1  0.49508388  0.99508388  0.50491612  1
  Ir  Ir6  1  0.99508388  0.50491612  0.49508388  1
  Ir  Ir7  1  0.00491612  0.00491612  0.00491612  1
  Se  Se8  1  0.88326882  0.11673118  0.61673118  1
  Se  Se9  1  0.11673118  0.61673118  0.88326882  1
  Se  Se10  1  0.61673118  0.88326882  0.11673118  1
  Se  Se11  1  0.38326882  0.38326882  0.38326882  1
