# generated using pymatgen
data_Sn2P2O9
_symmetry_space_group_name_H-M   'P 1'
_cell_length_a   6.59271000
_cell_length_b   8.00266700
_cell_length_c   14.45129100
_cell_angle_alpha   90.00000000
_cell_angle_beta   90.00000000
_cell_angle_gamma   90.00000000
_symmetry_Int_Tables_number   1
_chemical_formula_structural   Sn2P2O9
_chemical_formula_sum   'Sn8 P8 O36'
_cell_volume   762.43945906
_cell_formula_units_Z   4
loop_
 _symmetry_equiv_pos_site_id
 _symmetry_equiv_pos_as_xyz
  1  'x, y, z'
loop_
 _atom_site_type_symbol
 _atom_site_label
 _atom_site_symmetry_multiplicity
 _atom_site_fract_x
 _atom_site_fract_y
 _atom_site_fract_z
 _atom_site_occupancy
  Sn  Sn0  1  0.25000000  0.85655400  0.37385500  1
  Sn  Sn1  1  0.75000000  0.14344600  0.62614500  1
  Sn  Sn2  1  0.75000000  0.35655400  0.12614500  1
  Sn  Sn3  1  0.25000000  0.64344600  0.87385500  1
  Sn  Sn4  1  0.00000000  0.50000000  0.50000000  1
  Sn  Sn5  1  0.00000000  0.00000000  0.00000000  1
  Sn  Sn6  1  0.50000000  0.00000000  0.00000000  1
  Sn  Sn7  1  0.50000000  0.50000000  0.50000000  1
  P  P8  1  0.75000000  0.85600100  0.43732800  1
  P  P9  1  0.25000000  0.14399900  0.56267200  1
  P  P10  1  0.25000000  0.35600100  0.06267200  1
  P  P11  1  0.75000000  0.64399900  0.93732800  1
  P  P12  1  0.25000000  0.89381300  0.18873700  1
  P  P13  1  0.25000000  0.60618700  0.68873700  1
  P  P14  1  0.75000000  0.39381300  0.31126300  1
  P  P15  1  0.75000000  0.10618700  0.81126300  1
  O  O16  1  0.55522900  0.09517400  0.87261500  1
  O  O17  1  0.05522900  0.90482600  0.12738500  1
  O  O18  1  0.44477100  0.59517400  0.62738500  1
  O  O19  1  0.94477100  0.40482600  0.37261500  1
  O  O20  1  0.44477100  0.90482600  0.12738500  1
  O  O21  1  0.94477100  0.09517400  0.87261500  1
  O  O22  1  0.55522900  0.40482600  0.37261500  1
  O  O23  1  0.05522900  0.59517400  0.62738500  1
  O  O24  1  0.75000000  0.82798800  0.98477400  1
  O  O25  1  0.25000000  0.17201200  0.01522600  1
  O  O26  1  0.25000000  0.32798800  0.51522600  1
  O  O27  1  0.75000000  0.67201200  0.48477400  1
  O  O28  1  0.25000000  0.63709700  0.45051400  1
  O  O29  1  0.75000000  0.36290300  0.54948600  1
  O  O30  1  0.75000000  0.13709700  0.04948600  1
  O  O31  1  0.25000000  0.86290300  0.95051400  1
  O  O32  1  0.25000000  0.72861000  0.24555700  1
  O  O33  1  0.75000000  0.27139000  0.75444300  1
  O  O34  1  0.75000000  0.22861000  0.25444300  1
  O  O35  1  0.25000000  0.77139000  0.74555700  1
  O  O36  1  0.93875500  0.63879500  0.87679100  1
  O  O37  1  0.43875500  0.36120500  0.12320900  1
  O  O38  1  0.06124500  0.13879500  0.62320900  1
  O  O39  1  0.56124500  0.86120500  0.37679100  1
  O  O40  1  0.06124500  0.36120500  0.12320900  1
  O  O41  1  0.56124500  0.63879500  0.87679100  1
  O  O42  1  0.93875500  0.86120500  0.37679100  1
  O  O43  1  0.43875500  0.13879500  0.62320900  1
  O  O44  1  0.25000000  0.01498600  0.48582000  1
  O  O45  1  0.75000000  0.53116600  0.23388900  1
  O  O46  1  0.75000000  0.96883400  0.73388900  1
  O  O47  1  0.25000000  0.03116600  0.26611100  1
  O  O48  1  0.25000000  0.48501400  0.98582000  1
  O  O49  1  0.75000000  0.51498600  0.01418000  1
  O  O50  1  0.75000000  0.98501400  0.51418000  1
  O  O51  1  0.25000000  0.46883400  0.76611100  1
