# generated using pymatgen
data_Sm4Tm4MgO12
_symmetry_space_group_name_H-M   'P 1'
_cell_length_a   6.08849295
_cell_length_b   9.01986316
_cell_length_c   5.84285435
_cell_angle_alpha   82.16074977
_cell_angle_beta   85.59766992
_cell_angle_gamma   84.47650564
_symmetry_Int_Tables_number   1
_chemical_formula_structural   Sm4Tm4MgO12
_chemical_formula_sum   'Sm4 Tm4 Mg1 O12'
_cell_volume   315.74010113
_cell_formula_units_Z   1
loop_
 _symmetry_equiv_pos_site_id
 _symmetry_equiv_pos_as_xyz
  1  'x, y, z'
loop_
 _atom_site_type_symbol
 _atom_site_label
 _atom_site_symmetry_multiplicity
 _atom_site_fract_x
 _atom_site_fract_y
 _atom_site_fract_z
 _atom_site_occupancy
  Sm  Sm0  1  0.00295600  0.18994300  0.98135300  1
  Sm  Sm1  1  0.43287700  0.73504000  0.47423700  1
  Sm  Sm2  1  0.61996400  0.30006600  0.55341200  1
  Sm  Sm3  1  0.93450200  0.72924200  0.01717800  1
  Tm  Tm4  1  0.89657700  0.94951700  0.47564000  1
  Tm  Tm5  1  0.05587400  0.50059800  0.51323400  1
  Tm  Tm6  1  0.47340700  0.96439500  0.92403300  1
  Tm  Tm7  1  0.51247800  0.49952900  0.01375200  1
  Mg  Mg8  1  0.28431600  0.11660400  0.42873600  1
  O  O9  1  0.03719000  0.72725600  0.61595400  1
  O  O10  1  0.23255200  0.60926500  0.20182600  1
  O  O11  1  0.17595800  0.95362300  0.17406300  1
  O  O12  1  0.37236800  0.49431100  0.67752100  1
  O  O13  1  0.31409600  0.18220200  0.75231000  1
  O  O14  1  0.43993700  0.28503800  0.23195300  1
  O  O15  1  0.58787900  0.73763800  0.83461200  1
  O  O16  1  0.69289800  0.87788800  0.22968800  1
  O  O17  1  0.75123600  0.54387600  0.28637400  1
  O  O18  1  0.78346100  0.05907300  0.78977200  1
  O  O19  1  0.83250200  0.40775900  0.80458700  1
  O  O20  1  0.96280800  0.19963700  0.37393200  1
