# generated using pymatgen
data_CaY5(MoO6)2
_symmetry_space_group_name_H-M   'P 1'
_cell_length_a   5.98727255
_cell_length_b   7.04658940
_cell_length_c   7.59209949
_cell_angle_alpha   105.07860466
_cell_angle_beta   89.82714925
_cell_angle_gamma   115.84119576
_symmetry_Int_Tables_number   1
_chemical_formula_structural   CaY5(MoO6)2
_chemical_formula_sum   'Ca1 Y5 Mo2 O12'
_cell_volume   276.10056361
_cell_formula_units_Z   1
loop_
 _symmetry_equiv_pos_site_id
 _symmetry_equiv_pos_as_xyz
  1  'x, y, z'
loop_
 _atom_site_type_symbol
 _atom_site_label
 _atom_site_symmetry_multiplicity
 _atom_site_fract_x
 _atom_site_fract_y
 _atom_site_fract_z
 _atom_site_occupancy
  Ca  Ca0  1  0.65616200  0.33129600  0.84396700  1
  Y  Y1  1  0.50123300  0.97956000  0.47707500  1
  Y  Y2  1  0.19501300  0.40227700  0.83933300  1
  Y  Y3  1  0.82821000  0.65078900  0.19844900  1
  Y  Y4  1  0.82945700  0.64588600  0.63440600  1
  Y  Y5  1  0.19824500  0.38316800  0.36121100  1
  Mo  Mo6  1  0.73635100  0.99245700  0.99993600  1
  Mo  Mo7  1  0.25131000  0.99563800  0.00049600  1
  O  O8  1  0.99670200  0.01303600  0.80881400  1
  O  O9  1  0.99869300  0.00947800  0.20527400  1
  O  O10  1  0.49788200  0.97523200  0.18939000  1
  O  O11  1  0.48756900  0.97451700  0.78647800  1
  O  O12  1  0.60075100  0.69472900  0.42856900  1
  O  O13  1  0.90054100  0.31347200  0.58414800  1
  O  O14  1  0.41719100  0.31570800  0.58487500  1
  O  O15  1  0.42068100  0.35191800  0.08672500  1
  O  O16  1  0.04173300  0.64804500  0.91128400  1
  O  O17  1  0.60230900  0.66298300  0.90562600  1
  O  O18  1  0.91573200  0.33066900  0.07978900  1
  O  O19  1  0.10131700  0.69025300  0.42237100  1
