# generated using pymatgen
data_Ba2GaS4
_symmetry_space_group_name_H-M   'P 1'
_cell_length_a   6.25374553
_cell_length_b   12.83045008
_cell_length_c   20.10275463
_cell_angle_alpha   75.69823457
_cell_angle_beta   90.00000000
_cell_angle_gamma   90.00000000
_symmetry_Int_Tables_number   1
_chemical_formula_structural   Ba2GaS4
_chemical_formula_sum   'Ba16 Ga8 S32'
_cell_volume   1563.02197793
_cell_formula_units_Z   8
loop_
 _symmetry_equiv_pos_site_id
 _symmetry_equiv_pos_as_xyz
  1  'x, y, z'
loop_
 _atom_site_type_symbol
 _atom_site_label
 _atom_site_symmetry_multiplicity
 _atom_site_fract_x
 _atom_site_fract_y
 _atom_site_fract_z
 _atom_site_occupancy
  Ba  Ba0  1  0.23589444  0.89537797  0.21347940  1
  Ba  Ba1  1  0.73589444  0.10462203  0.28652060  1
  Ba  Ba2  1  0.76410556  0.10462203  0.78652060  1
  Ba  Ba3  1  0.26410556  0.89537797  0.71347940  1
  Ba  Ba4  1  0.74249018  0.85392316  0.04878979  1
  Ba  Ba5  1  0.24249018  0.14607684  0.45121021  1
  Ba  Ba6  1  0.25750982  0.14607684  0.95121021  1
  Ba  Ba7  1  0.75750982  0.85392316  0.54878979  1
  Ba  Ba8  1  0.23553839  0.61683921  0.03696339  1
  Ba  Ba9  1  0.73553839  0.38316079  0.46303661  1
  Ba  Ba10  1  0.76446161  0.38316079  0.96303661  1
  Ba  Ba11  1  0.26446161  0.61683921  0.53696339  1
  Ba  Ba12  1  0.23145019  0.52697750  0.31274432  1
  Ba  Ba13  1  0.73145019  0.47302250  0.18725568  1
  Ba  Ba14  1  0.76854981  0.47302250  0.68725568  1
  Ba  Ba15  1  0.26854981  0.52697750  0.81274432  1
  Ga  Ga16  1  0.31714205  0.88231095  0.40120853  1
  Ga  Ga17  1  0.81714205  0.11768905  0.09879147  1
  Ga  Ga18  1  0.68285795  0.11768905  0.59879147  1
  Ga  Ga19  1  0.18285795  0.88231095  0.90120853  1
  Ga  Ga20  1  0.31196808  0.30275985  0.10060911  1
  Ga  Ga21  1  0.81196808  0.69724015  0.39939089  1
  Ga  Ga22  1  0.68803192  0.69724015  0.89939089  1
  Ga  Ga23  1  0.18803192  0.30275985  0.60060911  1
  S  S24  1  0.40152244  0.68594969  0.17283153  1
  S  S25  1  0.90152244  0.31405031  0.32716847  1
  S  S26  1  0.59847756  0.31405031  0.82716847  1
  S  S27  1  0.09847756  0.68594969  0.67283153  1
  S  S28  1  0.06575836  0.68576847  0.17229955  1
  S  S29  1  0.56575836  0.31423153  0.32770045  1
  S  S30  1  0.93424164  0.31423153  0.82770045  1
  S  S31  1  0.43424164  0.68576847  0.67229955  1
  S  S32  1  0.73534162  0.96295856  0.17591329  1
  S  S33  1  0.23534162  0.03704144  0.32408671  1
  S  S34  1  0.26465838  0.03704144  0.82408671  1
  S  S35  1  0.76465838  0.96295856  0.67591329  1
  S  S36  1  0.24537602  0.88343655  0.01105237  1
  S  S37  1  0.74537602  0.11656345  0.48894763  1
  S  S38  1  0.75462398  0.11656345  0.98894763  1
  S  S39  1  0.25462398  0.88343655  0.51105237  1
  S  S40  1  0.68066218  0.86761736  0.38410711  1
  S  S41  1  0.18066218  0.13238264  0.11589289  1
  S  S42  1  0.31933782  0.13238264  0.61589289  1
  S  S43  1  0.81933782  0.86761736  0.88410711  1
  S  S44  1  0.17528857  0.73155397  0.37345545  1
  S  S45  1  0.67528857  0.26844603  0.12654455  1
  S  S46  1  0.82471143  0.26844603  0.62654455  1
  S  S47  1  0.32471143  0.73155397  0.87345545  1
  S  S48  1  0.22572419  0.41684468  0.16351780  1
  S  S49  1  0.72572419  0.58315532  0.33648220  1
  S  S50  1  0.77427581  0.58315532  0.83648220  1
  S  S51  1  0.27427581  0.41684468  0.66351780  1
  S  S52  1  0.23304360  0.38734822  0.48536805  1
  S  S53  1  0.73304360  0.61265178  0.01463195  1
  S  S54  1  0.76695640  0.61265178  0.51463195  1
  S  S55  1  0.26695640  0.38734822  0.98536805  1
