# generated using pymatgen
data_HfMg14BO15
_symmetry_space_group_name_H-M   'P 1'
_cell_length_a   8.50789794
_cell_length_b   8.96947018
_cell_length_c   4.27315451
_cell_angle_alpha   90.00000000
_cell_angle_beta   90.00000000
_cell_angle_gamma   90.00000000
_symmetry_Int_Tables_number   1
_chemical_formula_structural   HfMg14BO15
_chemical_formula_sum   'Hf1 Mg14 B1 O15'
_cell_volume   326.09013330
_cell_formula_units_Z   1
loop_
 _symmetry_equiv_pos_site_id
 _symmetry_equiv_pos_as_xyz
  1  'x, y, z'
loop_
 _atom_site_type_symbol
 _atom_site_label
 _atom_site_symmetry_multiplicity
 _atom_site_fract_x
 _atom_site_fract_y
 _atom_site_fract_z
 _atom_site_occupancy
  Hf  Hf0  1  0.98960946  0.50000000  0.00000000  1
  Mg  Mg1  1  0.48927187  0.00000000  0.00000000  1
  Mg  Mg2  1  0.49899458  0.50000000  0.00000000  1
  Mg  Mg3  1  0.99918079  0.22224867  0.50000000  1
  Mg  Mg4  1  0.99918079  0.77775133  0.50000000  1
  Mg  Mg5  1  0.49260262  0.24675887  0.50000000  1
  Mg  Mg6  1  0.49260262  0.75324113  0.50000000  1
  Mg  Mg7  1  0.23937306  0.00000000  0.50000000  1
  Mg  Mg8  1  0.25693566  0.50000000  0.50000000  1
  Mg  Mg9  1  0.75163425  0.00000000  0.50000000  1
  Mg  Mg10  1  0.73488265  0.50000000  0.50000000  1
  Mg  Mg11  1  0.24495683  0.25318206  0.00000000  1
  Mg  Mg12  1  0.24495683  0.74681794  -0.00000000  1
  Mg  Mg13  1  0.74483817  0.22809940  -0.00000000  1
  Mg  Mg14  1  0.74483817  0.77190060  -0.00000000  1
  B  B15  1  0.20692821  0.00000000  0.00000000  1
  O  O16  1  0.23879683  0.50000000  0.00000000  1
  O  O17  1  0.72288750  0.00000000  0.00000000  1
  O  O18  1  0.74546020  0.50000000  0.00000000  1
  O  O19  1  0.24337444  0.27237484  0.50000000  1
  O  O20  1  0.24337444  0.72762516  0.50000000  1
  O  O21  1  0.74562616  0.24615237  0.50000000  1
  O  O22  1  0.74562616  0.75384763  0.50000000  1
  O  O23  1  0.99711587  0.00000000  0.50000000  1
  O  O24  1  0.98645112  0.50000000  0.50000000  1
  O  O25  1  0.48509475  0.00000000  0.50000000  1
  O  O26  1  0.49855859  0.50000000  0.50000000  1
  O  O27  1  0.98693832  0.27341204  0.00000000  1
  O  O28  1  0.98693832  0.72658796  0.00000000  1
  O  O29  1  0.49648538  0.25757999  0.00000000  1
  O  O30  1  0.49648538  0.74242001  0.00000000  1
