# generated using pymatgen
data_NaAl6Sb7(TeCl3)8
_symmetry_space_group_name_H-M   'P 1'
_cell_length_a   11.96074253
_cell_length_b   12.74829446
_cell_length_c   12.51187392
_cell_angle_alpha   112.13427847
_cell_angle_beta   78.90083136
_cell_angle_gamma   68.00624671
_symmetry_Int_Tables_number   1
_chemical_formula_structural   NaAl6Sb7(TeCl3)8
_chemical_formula_sum   'Na1 Al6 Sb7 Te8 Cl24'
_cell_volume   1509.93152173
_cell_formula_units_Z   1
loop_
 _symmetry_equiv_pos_site_id
 _symmetry_equiv_pos_as_xyz
  1  'x, y, z'
loop_
 _atom_site_type_symbol
 _atom_site_label
 _atom_site_symmetry_multiplicity
 _atom_site_fract_x
 _atom_site_fract_y
 _atom_site_fract_z
 _atom_site_occupancy
  Na  Na0  1  0.51997291  0.46984985  0.03110574  1
  Al  Al1  1  0.88260155  0.26008903  0.83363679  1
  Al  Al2  1  0.11943314  0.74034088  0.16370206  1
  Al  Al3  1  0.42027141  0.88193911  0.79004012  1
  Al  Al4  1  0.58012801  0.11789158  0.21020284  1
  Al  Al5  1  0.53261046  0.71699935  0.29417824  1
  Al  Al6  1  0.46787999  0.28488307  0.70550176  1
  Sb  Sb7  1  0.85378059  0.24594260  0.45993699  1
  Sb  Sb8  1  0.14570472  0.75388759  0.54072592  1
  Sb  Sb9  1  0.85451818  0.40897324  0.23112204  1
  Sb  Sb10  1  0.14799432  0.58951617  0.76986037  1
  Sb  Sb11  1  0.00009429  0.50013262  0.50044686  1
  Sb  Sb12  1  0.20881887  0.13528826  0.19913605  1
  Sb  Sb13  1  0.79153526  0.86346447  0.80014051  1
  Te  Te14  1  0.96493411  0.13924251  0.19157071  1
  Te  Te15  1  0.03533191  0.85985668  0.80858180  1
  Te  Te16  1  0.10204964  0.22459102  0.46607750  1
  Te  Te17  1  0.89772284  0.77553413  0.53374623  1
  Te  Te18  1  0.74076077  0.50817471  0.49660703  1
  Te  Te19  1  0.25891164  0.49165703  0.50416050  1
  Te  Te20  1  0.11000689  0.38769463  0.21563238  1
  Te  Te21  1  0.89122193  0.61137444  0.78413451  1
  Cl  Cl22  1  0.52037401  0.81110577  0.89509632  1
  Cl  Cl23  1  0.48034974  0.19007076  0.10527593  1
  Cl  Cl24  1  0.71114610  0.70523543  0.32272582  1
  Cl  Cl25  1  0.28813931  0.29549191  0.67842086  1
  Cl  Cl26  1  0.74813919  0.38581505  0.78443708  1
  Cl  Cl27  1  0.24949076  0.61447326  0.21763303  1
  Cl  Cl28  1  0.23403383  0.05869352  0.91797116  1
  Cl  Cl29  1  0.76600664  0.94130502  0.08211589  1
  Cl  Cl30  1  0.53136079  0.54490424  0.29155255  1
  Cl  Cl31  1  0.46761083  0.45434741  0.70366310  1
  Cl  Cl32  1  0.37525226  0.74046181  0.67285847  1
  Cl  Cl33  1  0.62478942  0.25996431  0.32665739  1
  Cl  Cl34  1  0.55617920  0.68675742  0.10774526  1
  Cl  Cl35  1  0.44202038  0.30629355  0.88983925  1
  Cl  Cl36  1  0.54609152  0.91709995  0.67837478  1
  Cl  Cl37  1  0.45378127  0.08285045  0.32131103  1
  Cl  Cl38  1  0.01406547  0.07755787  0.66314284  1
  Cl  Cl39  1  0.98697123  0.92065830  0.33712921  1
  Cl  Cl40  1  0.76740831  0.23226727  0.96589399  1
  Cl  Cl41  1  0.22752513  0.77412696  0.03467224  1
  Cl  Cl42  1  0.35739399  0.88835921  0.43481336  1
  Cl  Cl43  1  0.64260085  0.11175671  0.56597905  1
  Cl  Cl44  1  0.98086248  0.35425094  0.92339966  1
  Cl  Cl45  1  0.02012384  0.64482993  0.07704477  1
