# generated using pymatgen
data_SbIrSe
_symmetry_space_group_name_H-M   'P 1'
_cell_length_a   6.22806333
_cell_length_b   6.22806333
_cell_length_c   6.22806333
_cell_angle_alpha   90.00000000
_cell_angle_beta   90.00000000
_cell_angle_gamma   90.00000000
_symmetry_Int_Tables_number   1
_chemical_formula_structural   SbIrSe
_chemical_formula_sum   'Sb4 Ir4 Se4'
_cell_volume   241.57893376
_cell_formula_units_Z   4
loop_
 _symmetry_equiv_pos_site_id
 _symmetry_equiv_pos_as_xyz
  1  'x, y, z'
loop_
 _atom_site_type_symbol
 _atom_site_label
 _atom_site_symmetry_multiplicity
 _atom_site_fract_x
 _atom_site_fract_y
 _atom_site_fract_z
 _atom_site_occupancy
  Sb  Sb0  1  0.87598172  0.37598172  0.12401828  1
  Sb  Sb1  1  0.37598172  0.12401828  0.87598172  1
  Sb  Sb2  1  0.12401828  0.87598172  0.37598172  1
  Sb  Sb3  1  0.62401828  0.62401828  0.62401828  1
  Ir  Ir4  1  0.50413714  0.00413714  0.49586286  1
  Ir  Ir5  1  0.00413714  0.49586286  0.50413714  1
  Ir  Ir6  1  0.49586286  0.50413714  0.00413714  1
  Ir  Ir7  1  0.99586286  0.99586286  0.99586286  1
  Se  Se8  1  0.12029802  0.62029802  0.87970198  1
  Se  Se9  1  0.62029802  0.87970198  0.12029802  1
  Se  Se10  1  0.87970198  0.12029802  0.62029802  1
  Se  Se11  1  0.37970198  0.37970198  0.37970198  1
