# generated using pymatgen
data_TlIn5S8
_symmetry_space_group_name_H-M   'P 1'
_cell_length_a   9.79757506
_cell_length_b   9.79757506
_cell_length_c   9.28984723
_cell_angle_alpha   77.10009341
_cell_angle_beta   77.10009341
_cell_angle_gamma   22.82738863
_symmetry_Int_Tables_number   1
_chemical_formula_structural   TlIn5S8
_chemical_formula_sum   'Tl1 In5 S8'
_cell_volume   336.86984891
_cell_formula_units_Z   1
loop_
 _symmetry_equiv_pos_site_id
 _symmetry_equiv_pos_as_xyz
  1  'x, y, z'
loop_
 _atom_site_type_symbol
 _atom_site_label
 _atom_site_symmetry_multiplicity
 _atom_site_fract_x
 _atom_site_fract_y
 _atom_site_fract_z
 _atom_site_occupancy
  Tl  Tl0  1  0.46986941  0.46986941  0.48319051  1
  In  In1  1  0.71183976  0.71183976  0.66227006  1
  In  In2  1  0.28592107  0.28592107  0.33496377  1
  In  In3  1  0.35493627  0.35493627  0.91000442  1
  In  In4  1  0.64400098  0.64400098  0.09299228  1
  In  In5  1  0.00082896  0.00082896  0.99853450  1
  S  S6  1  0.23880010  0.23880010  0.84484214  1
  S  S7  1  0.76165476  0.76165476  0.15294824  1
  S  S8  1  0.58573258  0.58573258  0.87499581  1
  S  S9  1  0.41488208  0.41488208  0.12628310  1
  S  S10  1  0.16663993  0.16663993  0.52313370  1
  S  S11  1  0.83562912  0.83562912  0.47458627  1
  S  S12  1  0.93042367  0.93042367  0.78514011  1
  S  S13  1  0.06885830  0.06885830  0.21600709  1
