# generated using pymatgen
data_CCl4
_symmetry_space_group_name_H-M   'P 1'
_cell_length_a   11.32309650
_cell_length_b   11.51410303
_cell_length_c   19.43986090
_cell_angle_alpha   74.10920327
_cell_angle_beta   73.06814768
_cell_angle_gamma   60.54725271
_symmetry_Int_Tables_number   1
_chemical_formula_structural   CCl4
_chemical_formula_sum   'C16 Cl64'
_cell_volume   2085.14938583
_cell_formula_units_Z   16
loop_
 _symmetry_equiv_pos_site_id
 _symmetry_equiv_pos_as_xyz
  1  'x, y, z'
loop_
 _atom_site_type_symbol
 _atom_site_label
 _atom_site_symmetry_multiplicity
 _atom_site_fract_x
 _atom_site_fract_y
 _atom_site_fract_z
 _atom_site_occupancy
  C  C0  1  0.94373147  0.80957589  0.87370803  1
  C  C1  1  0.62701540  0.69042411  0.62629197  1
  C  C2  1  0.05626853  0.19042411  0.12629197  1
  C  C3  1  0.37298460  0.30957589  0.37370803  1
  C  C4  1  0.18617634  0.63169139  0.62213276  1
  C  C5  1  0.44000149  0.86830861  0.87786724  1
  C  C6  1  0.81382366  0.36830861  0.37786724  1
  C  C7  1  0.55999851  0.13169139  0.12213276  1
  C  C8  1  0.68422336  0.13690361  0.62226448  1
  C  C9  1  0.44339044  0.36309639  0.87773552  1
  C  C10  1  0.31577664  0.86309639  0.37773552  1
  C  C11  1  0.55660956  0.63690361  0.12226448  1
  C  C12  1  0.93852430  0.31320736  0.87731790  1
  C  C13  1  0.12904656  0.18679264  0.62268210  1
  C  C14  1  0.06147570  0.68679264  0.12268210  1
  C  C15  1  0.87095344  0.81320736  0.37731790  1
  Cl  Cl16  1  0.85978842  0.89565863  0.79842788  1
  Cl  Cl17  1  0.55387493  0.60434137  0.70157212  1
  Cl  Cl18  1  0.14021158  0.10434037  0.20157212  1
  Cl  Cl19  1  0.44612507  0.39565963  0.29842788  1
  Cl  Cl20  1  0.95988288  0.64396283  0.89633822  1
  Cl  Cl21  1  0.50018493  0.85603717  0.60366178  1
  Cl  Cl22  1  0.04011712  0.35603717  0.10366178  1
  Cl  Cl23  1  0.49981507  0.14396283  0.39633822  1
  Cl  Cl24  1  0.84458008  0.89590545  0.94886376  1
  Cl  Cl25  1  0.68934929  0.60409455  0.55113624  1
  Cl  Cl26  1  0.15541992  0.10409455  0.05113624  1
  Cl  Cl27  1  0.31065071  0.39590545  0.44886376  1
  Cl  Cl28  1  0.10853784  0.80425686  0.85177544  1
  Cl  Cl29  1  0.76457014  0.69574314  0.64822456  1
  Cl  Cl30  1  0.89146216  0.19574314  0.14822456  1
  Cl  Cl31  1  0.23542986  0.30425686  0.35177544  1
  Cl  Cl32  1  0.18383766  0.77309931  0.64229282  1
  Cl  Cl33  1  0.59922779  0.72690069  0.85770718  1
  Cl  Cl34  1  0.81616234  0.22690069  0.35770818  1
  Cl  Cl35  1  0.40077221  0.27309931  0.14229382  1
  Cl  Cl36  1  0.09928140  0.56107392  0.69888258  1
  Cl  Cl37  1  0.35923890  0.93892608  0.80111742  1
  Cl  Cl38  1  0.90071860  0.43892608  0.30111742  1
  Cl  Cl39  1  0.64076110  0.06107392  0.19888258  1
  Cl  Cl40  1  0.35830845  0.50972507  0.59974500  1
  Cl  Cl41  1  0.46777752  0.99027493  0.90025500  1
  Cl  Cl42  1  0.64169155  0.49027493  0.40025500  1
  Cl  Cl43  1  0.53222248  0.00972507  0.09974500  1
  Cl  Cl44  1  0.10255180  0.68175226  0.54790221  1
  Cl  Cl45  1  0.33220727  0.81824774  0.95209779  1
  Cl  Cl46  1  0.89744820  0.31824774  0.45209779  1
  Cl  Cl47  1  0.66779273  0.18175226  0.04790221  1
  Cl  Cl48  1  0.68643233  0.27649919  0.64160802  1
  Cl  Cl49  1  0.60453954  0.22350081  0.85839198  1
  Cl  Cl50  1  0.31356767  0.72350081  0.35839198  1
  Cl  Cl51  1  0.39546046  0.77649919  0.14160802  1
  Cl  Cl52  1  0.58888444  0.07376744  0.69801611  1
  Cl  Cl53  1  0.36066899  0.42623256  0.80198389  1
  Cl  Cl54  1  0.41111556  0.92623256  0.30198389  1
  Cl  Cl55  1  0.63933101  0.57376744  0.19801611  1
  Cl  Cl56  1  0.85463996  0.00933600  0.60352059  1
  Cl  Cl57  1  0.46749654  0.49066400  0.89647941  1
  Cl  Cl58  1  0.14536004  0.99066400  0.39647941  1
  Cl  Cl59  1  0.53250346  0.50933600  0.10352059  1
  Cl  Cl60  1  0.60575296  0.18714513  0.54595165  1
  Cl  Cl61  1  0.33885074  0.31285487  0.95404835  1
  Cl  Cl62  1  0.39424704  0.81285487  0.45404835  1
  Cl  Cl63  1  0.66114926  0.68714513  0.04595165  1
  Cl  Cl64  1  0.85716219  0.40483868  0.80142575  1
  Cl  Cl65  1  0.06342662  0.09516132  0.69857425  1
  Cl  Cl66  1  0.14283781  0.59516132  0.19857425  1
  Cl  Cl67  1  0.93657338  0.90483868  0.30142575  1
  Cl  Cl68  1  0.83985883  0.39718504  0.95323050  1
  Cl  Cl69  1  0.19027237  0.10281596  0.54676950  1
  Cl  Cl70  1  0.16014117  0.60281496  0.04676950  1
  Cl  Cl71  1  0.80972763  0.89718504  0.45323050  1
  Cl  Cl72  1  0.95050980  0.14927123  0.89755419  1
  Cl  Cl73  1  -0.00266379  0.35072877  0.60244581  1
  Cl  Cl74  1  0.04949020  0.85072877  0.10244581  1
  Cl  Cl75  1  0.00266379  0.64927123  0.39755419  1
  Cl  Cl76  1  0.10516314  0.30313200  0.85742173  1
  Cl  Cl77  1  0.26571687  0.19686800  0.64257827  1
  Cl  Cl78  1  0.89483686  0.69686800  0.14257827  1
  Cl  Cl79  1  0.73428313  0.80313200  0.35742173  1
