# generated using pymatgen
data_TbB4Mo
_symmetry_space_group_name_H-M   'P 1'
_cell_length_a   3.63154386
_cell_length_b   6.03223649
_cell_length_c   11.65480309
_cell_angle_alpha   90.00000000
_cell_angle_beta   90.00000000
_cell_angle_gamma   90.00000000
_symmetry_Int_Tables_number   1
_chemical_formula_structural   TbB4Mo
_chemical_formula_sum   'Tb4 B16 Mo4'
_cell_volume   255.31397874
_cell_formula_units_Z   4
loop_
 _symmetry_equiv_pos_site_id
 _symmetry_equiv_pos_as_xyz
  1  'x, y, z'
loop_
 _atom_site_type_symbol
 _atom_site_label
 _atom_site_symmetry_multiplicity
 _atom_site_fract_x
 _atom_site_fract_y
 _atom_site_fract_z
 _atom_site_occupancy
  Tb  Tb0  1  0.00000000  0.62711844  0.35034485  1
  Tb  Tb1  1  0.00000000  0.37288156  0.64965515  1
  Tb  Tb2  1  -0.00000000  0.12711844  0.14965515  1
  Tb  Tb3  1  -0.00000000  0.87288156  0.85034485  1
  B  B4  1  0.50000000  0.78563558  0.18582327  1
  B  B5  1  0.50000000  0.21436442  0.81417673  1
  B  B6  1  0.50000000  0.28563558  0.31417673  1
  B  B7  1  0.50000000  0.71436442  0.68582327  1
  B  B8  1  0.50000000  0.86588891  0.03196673  1
  B  B9  1  0.50000000  0.13411109  0.96803327  1
  B  B10  1  0.50000000  0.36588891  0.46803327  1
  B  B11  1  0.50000000  0.63411109  0.53196673  1
  B  B12  1  0.50000000  0.88636411  0.45278685  1
  B  B13  1  0.50000000  0.11363589  0.54721315  1
  B  B14  1  0.50000000  0.38636411  0.04721315  1
  B  B15  1  0.50000000  0.61363589  0.95278685  1
  B  B16  1  0.50000000  0.97597582  0.30700409  1
  B  B17  1  0.50000000  0.02402418  0.69299591  1
  B  B18  1  0.50000000  0.47597582  0.19299591  1
  B  B19  1  0.50000000  0.52402418  0.80700409  1
  Mo  Mo20  1  -0.00000000  0.62859542  0.08296763  1
  Mo  Mo21  1  -0.00000000  0.37140458  0.91703237  1
  Mo  Mo22  1  -0.00000000  0.12859542  0.41703237  1
  Mo  Mo23  1  0.00000000  0.87140458  0.58296763  1
