# generated using pymatgen
data_Tm10S19
_symmetry_space_group_name_H-M   'P 1'
_cell_length_a   8.53271920
_cell_length_b   8.53271920
_cell_length_c   15.54231317
_cell_angle_alpha   90.00000000
_cell_angle_beta   90.00000000
_cell_angle_gamma   90.00000000
_symmetry_Int_Tables_number   1
_chemical_formula_structural   Tm10S19
_chemical_formula_sum   'Tm20 S38'
_cell_volume   1131.59381020
_cell_formula_units_Z   2
loop_
 _symmetry_equiv_pos_site_id
 _symmetry_equiv_pos_as_xyz
  1  'x, y, z'
loop_
 _atom_site_type_symbol
 _atom_site_label
 _atom_site_symmetry_multiplicity
 _atom_site_fract_x
 _atom_site_fract_y
 _atom_site_fract_z
 _atom_site_occupancy
  Tm  Tm0  1  0.75000000  0.25000000  0.38443371  1
  Tm  Tm1  1  0.75000000  0.25000000  0.88443371  1
  Tm  Tm2  1  0.25000000  0.75000000  0.61556629  1
  Tm  Tm3  1  0.25000000  0.75000000  0.11556629  1
  Tm  Tm4  1  0.55397805  0.64525236  0.39578196  1
  Tm  Tm5  1  0.94602195  0.85474764  0.39578196  1
  Tm  Tm6  1  0.14525236  0.44602195  0.89578196  1
  Tm  Tm7  1  0.35474764  0.05397805  0.89578196  1
  Tm  Tm8  1  0.44602195  0.35474764  0.60421804  1
  Tm  Tm9  1  0.05397805  0.14525236  0.60421804  1
  Tm  Tm10  1  0.85474764  0.55397805  0.10421804  1
  Tm  Tm11  1  0.64525236  0.94602195  0.10421804  1
  Tm  Tm12  1  0.34837093  0.04114931  0.37858340  1
  Tm  Tm13  1  0.15162907  0.45885069  0.37858340  1
  Tm  Tm14  1  0.54114931  0.65162907  0.87858340  1
  Tm  Tm15  1  0.95885069  0.84837093  0.87858340  1
  Tm  Tm16  1  0.65162907  0.95885069  0.62141660  1
  Tm  Tm17  1  0.84837093  0.54114931  0.62141660  1
  Tm  Tm18  1  0.45885069  0.34837093  0.12141660  1
  Tm  Tm19  1  0.04114931  0.15162907  0.12141660  1
  S  S20  1  0.57071932  0.11615532  0.25030510  1
  S  S21  1  0.92928068  0.38384468  0.25030510  1
  S  S22  1  0.61615532  0.42928068  0.75030510  1
  S  S23  1  0.88384468  0.07071932  0.75030510  1
  S  S24  1  0.42928068  0.88384468  0.74969490  1
  S  S25  1  0.07071932  0.61615532  0.74969490  1
  S  S26  1  0.38384468  0.57071932  0.24969390  1
  S  S27  1  0.11615532  0.92928068  0.24969390  1
  S  S28  1  0.80720948  0.02866893  0.25015401  1
  S  S29  1  0.69279052  0.47133107  0.25015401  1
  S  S30  1  0.52866893  0.19279052  0.75015401  1
  S  S31  1  0.97133107  0.30720948  0.75015401  1
  S  S32  1  0.19279052  0.97133107  0.74984599  1
  S  S33  1  0.30720948  0.52866893  0.74984599  1
  S  S34  1  0.47133107  0.80720948  0.24984599  1
  S  S35  1  0.02866893  0.69279052  0.24984599  1
  S  S36  1  0.85063472  0.55400431  0.43845114  1
  S  S37  1  0.64936528  0.94599569  0.43845114  1
  S  S38  1  0.05400331  0.14936528  0.93845114  1
  S  S39  1  0.44599669  0.35063472  0.93845114  1
  S  S40  1  0.14936528  0.44599669  0.56154886  1
  S  S41  1  0.35063472  0.05400331  0.56154886  1
  S  S42  1  0.94599569  0.85063472  0.06154886  1
  S  S43  1  0.55400431  0.64936528  0.06154886  1
  S  S44  1  0.04805137  0.15139114  0.42852425  1
  S  S45  1  0.45194863  0.34860886  0.42852425  1
  S  S46  1  0.65139114  0.95194863  0.92852425  1
  S  S47  1  0.84860886  0.54805137  0.92852425  1
  S  S48  1  0.95194863  0.84860886  0.57147575  1
  S  S49  1  0.54805137  0.65139114  0.57147575  1
  S  S50  1  0.34860886  0.04805137  0.07147575  1
  S  S51  1  0.15139114  0.45194863  0.07147575  1
  S  S52  1  0.25000000  0.75000000  0.43564695  1
  S  S53  1  0.25000000  0.75000000  0.93564695  1
  S  S54  1  0.75000000  0.25000000  0.56435305  1
  S  S55  1  0.75000000  0.25000000  0.06435305  1
  S  S56  1  0.25000000  0.25000000  0.25000000  1
  S  S57  1  0.75000000  0.75000000  0.75000000  1
