# generated using pymatgen
data_ThTlF5
_symmetry_space_group_name_H-M   'P 1'
_cell_length_a   7.19492328
_cell_length_b   8.05641676
_cell_length_c   8.94776010
_cell_angle_alpha   62.22518718
_cell_angle_beta   90.00000000
_cell_angle_gamma   90.00000000
_symmetry_Int_Tables_number   1
_chemical_formula_structural   ThTlF5
_chemical_formula_sum   'Th4 Tl4 F20'
_cell_volume   458.90270989
_cell_formula_units_Z   4
loop_
 _symmetry_equiv_pos_site_id
 _symmetry_equiv_pos_as_xyz
  1  'x, y, z'
loop_
 _atom_site_type_symbol
 _atom_site_label
 _atom_site_symmetry_multiplicity
 _atom_site_fract_x
 _atom_site_fract_y
 _atom_site_fract_z
 _atom_site_occupancy
  Th  Th0  1  0.65594141  0.41492166  0.36225089  1
  Th  Th1  1  0.84405859  0.41492166  0.86225089  1
  Th  Th2  1  0.34405859  0.58507834  0.63774911  1
  Th  Th3  1  0.15594141  0.58507834  0.13774911  1
  Tl  Tl4  1  0.62851739  0.92386358  0.84671139  1
  Tl  Tl5  1  0.87148261  0.92386358  0.34671139  1
  Tl  Tl6  1  0.37148261  0.07613642  0.15328861  1
  Tl  Tl7  1  0.12851739  0.07613642  0.65328861  1
  F  F8  1  0.47952612  0.65840083  0.14115861  1
  F  F9  1  0.02047388  0.65840083  0.64115861  1
  F  F10  1  0.52047388  0.34159917  0.85884139  1
  F  F11  1  0.97952612  0.34159917  0.35884139  1
  F  F12  1  0.57854183  0.66598898  0.42657358  1
  F  F13  1  0.92145817  0.66598898  0.92657358  1
  F  F14  1  0.42145817  0.33401102  0.57342642  1
  F  F15  1  0.07854183  0.33401102  0.07342642  1
  F  F16  1  0.68415281  0.10310440  0.49769724  1
  F  F17  1  0.81584719  0.10310440  0.99769724  1
  F  F18  1  0.31584719  0.89689560  0.50230276  1
  F  F19  1  0.18415281  0.89689560  0.00230276  1
  F  F20  1  0.36112622  0.32723904  0.28694994  1
  F  F21  1  0.13887378  0.32723904  0.78694994  1
  F  F22  1  0.63887378  0.67276096  0.71305006  1
  F  F23  1  0.86112622  0.67276096  0.21305006  1
  F  F24  1  0.79606101  0.36344474  0.62518903  1
  F  F25  1  0.70393899  0.36344474  0.12518903  1
  F  F26  1  0.20393899  0.63655526  0.37481097  1
  F  F27  1  0.29606101  0.63655526  0.87481097  1
