# generated using pymatgen
data_K2Nd2Mg(SO4)4
_symmetry_space_group_name_H-M   'P 1'
_cell_length_a   5.79421292
_cell_length_b   7.09634636
_cell_length_c   10.83615203
_cell_angle_alpha   96.23380603
_cell_angle_beta   105.27707833
_cell_angle_gamma   88.93193511
_symmetry_Int_Tables_number   1
_chemical_formula_structural   K2Nd2Mg(SO4)4
_chemical_formula_sum   'K2 Nd2 Mg1 S4 O16'
_cell_volume   427.24881845
_cell_formula_units_Z   1
loop_
 _symmetry_equiv_pos_site_id
 _symmetry_equiv_pos_as_xyz
  1  'x, y, z'
loop_
 _atom_site_type_symbol
 _atom_site_label
 _atom_site_symmetry_multiplicity
 _atom_site_fract_x
 _atom_site_fract_y
 _atom_site_fract_z
 _atom_site_occupancy
  K  K0  1  0.68716576  0.18638352  0.21307420  1
  K  K1  1  0.06464845  0.82983922  0.90170918  1
  Nd  Nd2  1  0.23256657  0.70434166  0.28551154  1
  Nd  Nd3  1  0.88253066  0.27991053  0.64981441  1
  Mg  Mg4  1  0.52044317  0.49579628  0.79687668  1
  S  S5  1  0.17276542  0.32058334  0.94594024  1
  S  S6  1  0.86414726  0.76516161  0.52729462  1
  S  S7  1  0.69309443  0.70851724  0.11162767  1
  S  S8  1  0.28178427  0.22044399  0.40691676  1
  O  O9  1  0.61063348  0.64926029  0.97190151  1
  O  O10  1  0.30105214  0.39265946  0.34171845  1
  O  O11  1  0.92522241  0.59182397  0.59380140  1
  O  O12  1  0.03092163  0.78481414  0.44556328  1
  O  O13  1  0.25019558  0.05417497  0.30805454  1
  O  O14  1  0.37454686  0.19192106  0.98198705  1
  O  O15  1  0.89465267  0.84962545  0.13335757  1
  O  O16  1  0.20112929  0.42854912  0.83312128  1
  O  O17  1  0.07428192  0.23755682  0.46300918  1
  O  O18  1  0.48987138  0.80223647  0.15452287  1
  O  O19  1  0.79018927  0.55170879  0.18965166  1
  O  O20  1  0.15254955  0.46169884  0.05211760  1
  O  O21  1  0.94600560  0.20838041  0.88380111  1
  O  O22  1  0.89831873  0.93215195  0.62777275  1
  O  O23  1  0.50972314  0.19945402  0.50583768  1
  O  O24  1  0.61406035  0.75485886  0.44644577  1
