# generated using pymatgen
data_Sr(TmS2)2
_symmetry_space_group_name_H-M   'P 1'
_cell_length_a   3.93145205
_cell_length_b   11.95968277
_cell_length_c   14.16220735
_cell_angle_alpha   90.00000000
_cell_angle_beta   90.00000000
_cell_angle_gamma   90.00000000
_symmetry_Int_Tables_number   1
_chemical_formula_structural   Sr(TmS2)2
_chemical_formula_sum   'Sr4 Tm8 S16'
_cell_volume   665.89168512
_cell_formula_units_Z   4
loop_
 _symmetry_equiv_pos_site_id
 _symmetry_equiv_pos_as_xyz
  1  'x, y, z'
loop_
 _atom_site_type_symbol
 _atom_site_label
 _atom_site_symmetry_multiplicity
 _atom_site_fract_x
 _atom_site_fract_y
 _atom_site_fract_z
 _atom_site_occupancy
  Sr  Sr0  1  0.25000000  0.75953325  0.33652534  1
  Sr  Sr1  1  0.25000000  0.25953325  0.16347466  1
  Sr  Sr2  1  0.75000000  0.24046675  0.66347466  1
  Sr  Sr3  1  0.75000000  0.74046675  0.83652534  1
  Tm  Tm4  1  0.25000000  0.43692903  0.38939165  1
  Tm  Tm5  1  0.25000000  0.93692903  0.11060835  1
  Tm  Tm6  1  0.75000000  0.56307097  0.61060835  1
  Tm  Tm7  1  0.75000000  0.06307097  0.88939165  1
  Tm  Tm8  1  0.25000000  0.41756348  0.90022184  1
  Tm  Tm9  1  0.25000000  0.91756348  0.59977816  1
  Tm  Tm10  1  0.75000000  0.58243652  0.09977816  1
  Tm  Tm11  1  0.75000000  0.08243652  0.40022184  1
  S  S12  1  0.25000000  0.20506123  0.83090211  1
  S  S13  1  0.25000000  0.70506123  0.66909789  1
  S  S14  1  0.75000000  0.79493877  0.16909789  1
  S  S15  1  0.75000000  0.29493877  0.33090211  1
  S  S16  1  0.25000000  0.12651016  0.52799601  1
  S  S17  1  0.25000000  0.62651016  0.97200399  1
  S  S18  1  0.75000000  0.87348984  0.47200399  1
  S  S19  1  0.75000000  0.37348984  0.02799601  1
  S  S20  1  0.25000000  0.02636815  0.28413557  1
  S  S21  1  0.25000000  0.52636815  0.21586443  1
  S  S22  1  0.75000000  0.97363185  0.71586443  1
  S  S23  1  0.75000000  0.47363185  0.78413557  1
  S  S24  1  0.25000000  0.41258944  0.57658409  1
  S  S25  1  0.25000000  0.91258944  0.92341591  1
  S  S26  1  0.75000000  0.58741056  0.42341591  1
  S  S27  1  0.75000000  0.08741056  0.07658409  1
