# generated using pymatgen
data_Tb2Ge(BO4)2
_symmetry_space_group_name_H-M   'P 1'
_cell_length_a   4.38807688
_cell_length_b   9.24186052
_cell_length_c   13.43383859
_cell_angle_alpha   90.00000000
_cell_angle_beta   90.00000000
_cell_angle_gamma   90.00000000
_symmetry_Int_Tables_number   1
_chemical_formula_structural   Tb2Ge(BO4)2
_chemical_formula_sum   'Tb8 Ge4 B8 O32'
_cell_volume   544.79581597
_cell_formula_units_Z   4
loop_
 _symmetry_equiv_pos_site_id
 _symmetry_equiv_pos_as_xyz
  1  'x, y, z'
loop_
 _atom_site_type_symbol
 _atom_site_label
 _atom_site_symmetry_multiplicity
 _atom_site_fract_x
 _atom_site_fract_y
 _atom_site_fract_z
 _atom_site_occupancy
  Tb  Tb0  1  0.45952689  0.52508723  0.63991863  1
  Tb  Tb1  1  0.04047311  0.02508723  0.86008137  1
  Tb  Tb2  1  0.04047311  0.47491277  0.13991863  1
  Tb  Tb3  1  0.45952689  0.97491277  0.36008137  1
  Tb  Tb4  1  0.54047311  0.47491277  0.36008137  1
  Tb  Tb5  1  0.95952689  0.97491277  0.13991863  1
  Tb  Tb6  1  0.95952689  0.52508723  0.86008137  1
  Tb  Tb7  1  0.54047311  0.02508723  0.63991863  1
  Ge  Ge8  1  0.92716527  0.75000000  0.50000000  1
  Ge  Ge9  1  0.57283473  0.25000000  -0.00000000  1
  Ge  Ge10  1  0.07283473  0.25000000  0.50000000  1
  Ge  Ge11  1  0.42716527  0.75000000  -0.00000000  1
  B  B12  1  0.52996217  0.70327570  0.20031344  1
  B  B13  1  0.97003783  0.20327570  0.29968656  1
  B  B14  1  0.97003783  0.29672430  0.70031344  1
  B  B15  1  0.52996217  0.79672430  0.79968656  1
  B  B16  1  0.47003783  0.29672430  0.79968656  1
  B  B17  1  0.02996217  0.79672430  0.70031344  1
  B  B18  1  0.02996217  0.70327570  0.29968656  1
  B  B19  1  0.47003783  0.20327570  0.20031344  1
  O  O20  1  0.53766725  0.54791604  0.19209311  1
  O  O21  1  0.96233275  0.04791604  0.30790689  1
  O  O22  1  0.96233275  0.45208396  0.69209311  1
  O  O23  1  0.53766725  0.95208396  0.80790689  1
  O  O24  1  0.46233275  0.45208396  0.80790689  1
  O  O25  1  0.03766725  0.95208396  0.69209311  1
  O  O26  1  0.03766725  0.54791604  0.30790689  1
  O  O27  1  0.46233275  0.04791604  0.19209311  1
  O  O28  1  0.66230162  0.76810183  0.10716211  1
  O  O29  1  0.83769838  0.26810183  0.39283789  1
  O  O30  1  0.83769838  0.23189817  0.60716211  1
  O  O31  1  0.66230162  0.73189817  0.89283789  1
  O  O32  1  0.33769838  0.23189817  0.89283789  1
  O  O33  1  0.16230162  0.73189817  0.60716211  1
  O  O34  1  0.16230162  0.76810183  0.39283789  1
  O  O35  1  0.33769838  0.26810183  0.10716211  1
  O  O36  1  0.21352985  0.75846956  0.21404620  1
  O  O37  1  0.28647015  0.25846956  0.28595380  1
  O  O38  1  0.28647015  0.24153044  0.71404620  1
  O  O39  1  0.21352985  0.74153044  0.78595380  1
  O  O40  1  0.78647015  0.24153044  0.78595380  1
  O  O41  1  0.71352985  0.74153044  0.71404620  1
  O  O42  1  0.71352985  0.75846956  0.28595380  1
  O  O43  1  0.78647015  0.25846956  0.21404620  1
  O  O44  1  0.70327872  0.59646969  0.49569985  1
  O  O45  1  0.79672128  0.09646969  0.00430015  1
  O  O46  1  0.79672128  0.40353031  0.99569985  1
  O  O47  1  0.70327872  0.90353031  0.50430015  1
  O  O48  1  0.29672128  0.40353031  0.50430015  1
  O  O49  1  0.20327872  0.90353031  0.99569985  1
  O  O50  1  0.20327872  0.59646969  0.00430015  1
  O  O51  1  0.29672128  0.09646969  0.49569985  1
