# generated using pymatgen
data_Tm2S3
_symmetry_space_group_name_H-M   'P 1'
_cell_length_a   3.95232271
_cell_length_b   10.02117518
_cell_length_c   17.41655297
_cell_angle_alpha   98.63741254
_cell_angle_beta   90.00000000
_cell_angle_gamma   90.00000000
_symmetry_Int_Tables_number   1
_chemical_formula_structural   Tm2S3
_chemical_formula_sum   'Tm12 S18'
_cell_volume   681.99246068
_cell_formula_units_Z   6
loop_
 _symmetry_equiv_pos_site_id
 _symmetry_equiv_pos_as_xyz
  1  'x, y, z'
loop_
 _atom_site_type_symbol
 _atom_site_label
 _atom_site_symmetry_multiplicity
 _atom_site_fract_x
 _atom_site_fract_y
 _atom_site_fract_z
 _atom_site_occupancy
  Tm  Tm0  1  0.75000000  0.87612165  0.07010540  1
  Tm  Tm1  1  0.25000000  0.12387835  0.92989460  1
  Tm  Tm2  1  0.75000000  0.81252169  0.77900198  1
  Tm  Tm3  1  0.25000000  0.18747831  0.22099802  1
  Tm  Tm4  1  0.75000000  0.81126416  0.47918502  1
  Tm  Tm5  1  0.25000000  0.18873584  0.52081498  1
  Tm  Tm6  1  0.75000000  0.51292474  0.10030539  1
  Tm  Tm7  1  0.25000000  0.48707526  0.89969461  1
  Tm  Tm8  1  0.75000000  0.45081378  0.38535114  1
  Tm  Tm9  1  0.25000000  0.54918622  0.61464886  1
  Tm  Tm10  1  0.75000000  0.17048942  0.71827213  1
  Tm  Tm11  1  0.25000000  0.82951058  0.28172787  1
  S  S12  1  0.75000000  0.99256660  0.23221944  1
  S  S13  1  0.25000000  0.00743340  0.76778056  1
  S  S14  1  0.75000000  0.94728520  0.92447907  1
  S  S15  1  0.25000000  0.05271480  0.07552093  1
  S  S16  1  0.75000000  0.73147188  0.62727130  1
  S  S17  1  0.25000000  0.26852812  0.37272870  1
  S  S18  1  0.75000000  0.68064856  0.31839350  1
  S  S19  1  0.25000000  0.31935144  0.68160650  1
  S  S20  1  0.75000000  0.63282726  0.96902908  1
  S  S21  1  0.25000000  0.36717274  0.03097092  1
  S  S22  1  0.75000000  0.38442918  0.53231889  1
  S  S23  1  0.25000000  0.61557082  0.46768111  1
  S  S24  1  0.75000000  0.36210924  0.21717101  1
  S  S25  1  0.25000000  0.63789076  0.78282899  1
  S  S26  1  0.75000000  0.28974960  0.86793035  1
  S  S27  1  0.25000000  0.71025040  0.13206965  1
  S  S28  1  0.75000000  0.04849335  0.57598064  1
  S  S29  1  0.25000000  0.95150665  0.42401936  1
