# generated using pymatgen
data_GdZr3F15
_symmetry_space_group_name_H-M   'P 1'
_cell_length_a   8.13280804
_cell_length_b   8.13280804
_cell_length_c   8.12240735
_cell_angle_alpha   79.84861325
_cell_angle_beta   79.84861325
_cell_angle_gamma   99.86542700
_symmetry_Int_Tables_number   1
_chemical_formula_structural   GdZr3F15
_chemical_formula_sum   'Gd2 Zr6 F30'
_cell_volume   509.06472701
_cell_formula_units_Z   2
loop_
 _symmetry_equiv_pos_site_id
 _symmetry_equiv_pos_as_xyz
  1  'x, y, z'
loop_
 _atom_site_type_symbol
 _atom_site_label
 _atom_site_symmetry_multiplicity
 _atom_site_fract_x
 _atom_site_fract_y
 _atom_site_fract_z
 _atom_site_occupancy
  Gd  Gd0  1  0.67757444  0.32242556  0.75000000  1
  Gd  Gd1  1  0.32242556  0.67757444  0.25000000  1
  Zr  Zr2  1  0.25385868  0.74614132  0.75000000  1
  Zr  Zr3  1  0.74614132  0.25385868  0.25000000  1
  Zr  Zr4  1  0.82218737  0.75590706  0.32504592  1
  Zr  Zr5  1  0.24409294  0.17781263  0.17495408  1
  Zr  Zr6  1  0.17781263  0.24409294  0.67495408  1
  Zr  Zr7  1  0.75590706  0.82218737  0.82504592  1
  F  F8  1  0.14792072  0.18198033  0.94644823  1
  F  F9  1  0.69089930  0.56509320  0.85478033  1
  F  F10  1  0.03467721  0.65587849  0.31859841  1
  F  F11  1  0.65587849  0.03467721  0.81859841  1
  F  F12  1  0.56509320  0.69089930  0.35478033  1
  F  F13  1  0.18198033  0.14792072  0.44644823  1
  F  F14  1  0.85207928  0.81801967  0.05355177  1
  F  F15  1  0.30910070  0.43490680  0.14521967  1
  F  F16  1  0.96532279  0.34412151  0.68140159  1
  F  F17  1  0.34412151  0.96532279  0.18140159  1
  F  F18  1  0.43490680  0.30910070  0.64521967  1
  F  F19  1  0.81801967  0.85207928  0.55355177  1
  F  F20  1  0.21610665  0.72822734  0.00213431  1
  F  F21  1  0.22766022  0.49048105  0.77843901  1
  F  F22  1  0.99590378  0.72400127  0.77544569  1
  F  F23  1  0.72400127  0.99590378  0.27544569  1
  F  F24  1  0.49048105  0.22766022  0.27843901  1
  F  F25  1  0.72822734  0.21610665  0.50213431  1
  F  F26  1  0.78389335  0.27177266  0.99786569  1
  F  F27  1  0.77233978  0.50951895  0.22156099  1
  F  F28  1  0.00409622  0.27599873  0.22455431  1
  F  F29  1  0.27599873  0.00409622  0.72455431  1
  F  F30  1  0.50951895  0.77233978  0.72156099  1
  F  F31  1  0.27177266  0.78389335  0.49786569  1
  F  F32  1  0.96793153  0.03206847  0.75000000  1
  F  F33  1  0.55016537  0.75306922  0.02795764  1
  F  F34  1  0.24693078  0.44983463  0.47204236  1
  F  F35  1  0.44983463  0.24693078  0.97204236  1
  F  F36  1  0.75306922  0.55016537  0.52795764  1
  F  F37  1  0.03206847  0.96793153  0.25000000  1
