# generated using pymatgen
data_Bi2(S2O7)3
_symmetry_space_group_name_H-M   'P 1'
_cell_length_a   6.58517504
_cell_length_b   10.21493283
_cell_length_c   11.52680344
_cell_angle_alpha   90.96829078
_cell_angle_beta   96.77862806
_cell_angle_gamma   94.70841570
_symmetry_Int_Tables_number   1
_chemical_formula_structural   Bi2(S2O7)3
_chemical_formula_sum   'Bi4 S12 O42'
_cell_volume   767.07939201
_cell_formula_units_Z   2
loop_
 _symmetry_equiv_pos_site_id
 _symmetry_equiv_pos_as_xyz
  1  'x, y, z'
loop_
 _atom_site_type_symbol
 _atom_site_label
 _atom_site_symmetry_multiplicity
 _atom_site_fract_x
 _atom_site_fract_y
 _atom_site_fract_z
 _atom_site_occupancy
  Bi  Bi0  1  0.83352840  0.41343130  0.72132945  1
  Bi  Bi1  1  0.16647130  0.58656945  0.27867350  1
  Bi  Bi2  1  0.41248182  0.90580902  0.73667653  1
  Bi  Bi3  1  0.58752491  0.09419621  0.26332094  1
  S  S4  1  0.36110566  0.55402557  0.76318304  1
  S  S5  1  0.63888813  0.44597947  0.23681151  1
  S  S6  1  0.41800176  0.18787443  0.54918353  1
  S  S7  1  0.58199813  0.81212372  0.45081688  1
  S  S8  1  0.70784903  0.67076688  0.90849096  1
  S  S9  1  0.29214734  0.32923999  0.09151236  1
  S  S10  1  0.92685177  0.07035900  0.77412673  1
  S  S11  1  0.07315312  0.92963945  0.22587185  1
  S  S12  1  0.67285148  0.16824573  0.93216419  1
  S  S13  1  0.32715723  0.83175261  0.06783769  1
  S  S14  1  0.03864403  0.29780482  0.45893418  1
  S  S15  1  0.96135528  0.70219503  0.54106759  1
  O  O16  1  0.67911126  0.77706466  0.82693270  1
  O  O17  1  0.32089141  0.22293844  0.17306845  1
  O  O18  1  0.28703646  0.67805855  0.72665702  1
  O  O19  1  0.71295820  0.32194663  0.27333749  1
  O  O20  1  0.33862247  0.05811387  0.57963406  1
  O  O21  1  0.66137503  0.94188326  0.42036548  1
  O  O22  1  0.87151397  0.08968903  0.90754594  1
  O  O23  1  0.12848363  0.91030392  0.09245356  1
  O  O24  1  0.48073537  0.57824881  0.89098535  1
  O  O25  1  0.51925638  0.42175547  0.10900830  1
  O  O26  1  0.74209963  0.00869877  0.70758505  1
  O  O27  1  0.25790610  0.99129448  0.29240873  1
  O  O28  1  0.85112889  0.58121173  0.87333534  1
  O  O29  1  0.14886350  0.41878746  0.12666580  1
  O  O30  1  0.98476038  0.20010122  0.73481524  1
  O  O31  1  0.01524589  0.79989695  0.26518576  1
  O  O32  1  0.23647039  0.28201766  0.55781425  1
  O  O33  1  0.76352613  0.71798047  0.44218714  1
  O  O34  1  0.70720165  0.29799694  0.88539492  1
  O  O35  1  0.29280957  0.70200126  0.11460953  1
  O  O36  1  0.46884517  0.19625905  0.43107366  1
  O  O37  1  0.53116102  0.80374146  0.56893132  1
  O  O38  1  0.19623619  0.45670739  0.77907466  1
  O  O39  1  0.80375922  0.54329644  0.22091939  1
  O  O40  1  0.57308103  0.24736577  0.63663330  1
  O  O41  1  0.42691518  0.75263054  0.36337467  1
  O  O42  1  0.50719057  0.50798768  0.69045791  1
  O  O43  1  0.49280046  0.49201624  0.30953750  1
  O  O44  1  0.09184969  0.98761389  0.79187861  1
  O  O45  1  0.90815433  0.01238315  0.20812331  1
  O  O46  1  0.68448149  0.16823576  0.05649269  1
  O  O47  1  0.31552695  0.83176042  0.94350850  1
  O  O48  1  0.73113885  0.70618775  0.02836887  1
  O  O49  1  0.26884783  0.29381491  0.97163025  1
  O  O50  1  0.91605127  0.37269313  0.52802526  1
  O  O51  1  0.08394680  0.62730413  0.47197605  1
  O  O52  1  0.95226194  0.16865629  0.42287823  1
  O  O53  1  0.04774027  0.83134453  0.57711851  1
  O  O54  1  0.12468855  0.37451849  0.36969223  1
  O  O55  1  0.87531506  0.62548254  0.63031106  1
  O  O56  1  0.49749723  0.08998100  0.87121838  1
  O  O57  1  0.50250417  0.91001914  0.12878561  1
