# generated using pymatgen
data_Ca(TmTe2)2
_symmetry_space_group_name_H-M   'P 1'
_cell_length_a   4.36142101
_cell_length_b   7.45203600
_cell_length_c   7.71104963
_cell_angle_alpha   72.10728388
_cell_angle_beta   90.00000000
_cell_angle_gamma   90.00000000
_symmetry_Int_Tables_number   1
_chemical_formula_structural   Ca(TmTe2)2
_chemical_formula_sum   'Ca1 Tm2 Te4'
_cell_volume   238.49877989
_cell_formula_units_Z   1
loop_
 _symmetry_equiv_pos_site_id
 _symmetry_equiv_pos_as_xyz
  1  'x, y, z'
loop_
 _atom_site_type_symbol
 _atom_site_label
 _atom_site_symmetry_multiplicity
 _atom_site_fract_x
 _atom_site_fract_y
 _atom_site_fract_z
 _atom_site_occupancy
  Ca  Ca0  1  0.00000000  0.50000000  0.50000000  1
  Tm  Tm1  1  0.00000000  -0.00000000  0.00000000  1
  Tm  Tm2  1  0.50000000  0.50000000  0.00000000  1
  Te  Te3  1  0.50000000  0.76146859  0.24097911  1
  Te  Te4  1  0.00000000  0.25485367  0.23451054  1
  Te  Te5  1  0.50000000  0.23853141  0.75902089  1
  Te  Te6  1  0.00000000  0.74514633  0.76548946  1
