# generated using pymatgen
data_Cs4Ge(PS3)4
_symmetry_space_group_name_H-M   'P 1'
_cell_length_a   7.70322434
_cell_length_b   7.70322434
_cell_length_c   24.57029296
_cell_angle_alpha   79.73644267
_cell_angle_beta   79.73644267
_cell_angle_gamma   66.51662979
_symmetry_Int_Tables_number   1
_chemical_formula_structural   Cs4Ge(PS3)4
_chemical_formula_sum   'Cs8 Ge2 P8 S24'
_cell_volume   1306.52674541
_cell_formula_units_Z   2
loop_
 _symmetry_equiv_pos_site_id
 _symmetry_equiv_pos_as_xyz
  1  'x, y, z'
loop_
 _atom_site_type_symbol
 _atom_site_label
 _atom_site_symmetry_multiplicity
 _atom_site_fract_x
 _atom_site_fract_y
 _atom_site_fract_z
 _atom_site_occupancy
  Cs  Cs0  1  0.82258577  0.79437087  0.05014316  1
  Cs  Cs1  1  0.20562913  0.17741423  0.44985684  1
  Cs  Cs2  1  0.17741423  0.20562913  0.94985684  1
  Cs  Cs3  1  0.79437087  0.82258577  0.55014316  1
  Cs  Cs4  1  0.64977943  0.53835076  0.31324017  1
  Cs  Cs5  1  0.46164924  0.35022057  0.18675983  1
  Cs  Cs6  1  0.35022057  0.46164924  0.68675983  1
  Cs  Cs7  1  0.53835076  0.64977943  0.81324017  1
  Ge  Ge8  1  0.00539572  0.99460428  0.25000000  1
  Ge  Ge9  1  0.99460428  0.00539572  0.75000000  1
  P  P10  1  0.09912054  0.73261928  0.36834712  1
  P  P11  1  0.26738072  0.90087946  0.13165288  1
  P  P12  1  0.90087946  0.26738072  0.63165288  1
  P  P13  1  0.73261928  0.09912054  0.86834712  1
  P  P14  1  0.07390163  0.21057083  0.11616442  1
  P  P15  1  0.78942917  0.92609837  0.38383558  1
  P  P16  1  0.92609837  0.78942917  0.88383558  1
  P  P17  1  0.21057083  0.07390163  0.61616442  1
  S  S18  1  0.21330006  0.67333887  0.43780514  1
  S  S19  1  0.32666113  0.78669994  0.06219486  1
  S  S20  1  0.78669994  0.32666113  0.56219486  1
  S  S21  1  0.67333887  0.21330006  0.93780514  1
  S  S22  1  0.12770332  0.52360301  0.32662376  1
  S  S23  1  0.47639699  0.87229668  0.17337624  1
  S  S24  1  0.87229668  0.47639699  0.67337624  1
  S  S25  1  0.52360301  0.12770332  0.82662376  1
  S  S26  1  0.06703137  0.80001374  0.18601266  1
  S  S27  1  0.19998626  0.93296863  0.31398734  1
  S  S28  1  0.93296863  0.19998626  0.81398734  1
  S  S29  1  0.80001374  0.06703137  0.68601266  1
  S  S30  1  0.23052115  0.35534482  0.07867409  1
  S  S31  1  0.64465518  0.76947885  0.42132591  1
  S  S32  1  0.76947885  0.64465518  0.92132591  1
  S  S33  1  0.35534482  0.23052115  0.57867409  1
  S  S34  1  0.85099863  0.24057591  0.08147816  1
  S  S35  1  0.75942409  0.14900137  0.41852184  1
  S  S36  1  0.14900137  0.75942409  0.91852184  1
  S  S37  1  0.24057591  0.85099863  0.58147816  1
  S  S38  1  0.99232335  0.27606334  0.20275909  1
  S  S39  1  0.72393666  0.00767665  0.29724091  1
  S  S40  1  0.00767665  0.72393666  0.79724091  1
  S  S41  1  0.27606334  0.99232335  0.70275909  1
