# generated using pymatgen
data_W2SeS3
_symmetry_space_group_name_H-M   'P 1'
_cell_length_a   3.21517149
_cell_length_b   3.21517131
_cell_length_c   35.12253086
_cell_angle_alpha   89.99918984
_cell_angle_beta   90.00078312
_cell_angle_gamma   119.99968688
_symmetry_Int_Tables_number   1
_chemical_formula_structural   W2SeS3
_chemical_formula_sum   'W4 Se2 S6'
_cell_volume   314.43151309
_cell_formula_units_Z   2
loop_
 _symmetry_equiv_pos_site_id
 _symmetry_equiv_pos_as_xyz
  1  'x, y, z'
loop_
 _atom_site_type_symbol
 _atom_site_label
 _atom_site_symmetry_multiplicity
 _atom_site_fract_x
 _atom_site_fract_y
 _atom_site_fract_z
 _atom_site_occupancy
  W  W0  1  0.33333749  0.66666306  0.09474583  1
  W  W1  1  0.33333801  0.66666463  0.46917556  1
  W  W2  1  0.66667190  0.33332825  0.28183336  1
  W  W3  1  0.66663674  0.33336021  0.65715104  1
  Se  Se4  1  0.33332592  0.66666864  0.70556898  1
  Se  Se5  1  0.33332484  0.66667095  0.60874043  1
  S  S6  1  0.33333921  0.66666016  0.32596262  1
  S  S7  1  0.66667099  0.33332966  0.05064885  1
  S  S8  1  0.66667178  0.33333240  0.42506237  1
  S  S9  1  0.66667196  0.33332831  0.13886493  1
  S  S10  1  0.66667276  0.33333128  0.51327250  1
  S  S11  1  0.33333841  0.66666146  0.23772353  1
