# generated using pymatgen
data_CsLa2Br7
_symmetry_space_group_name_H-M   'P 1'
_cell_length_a   7.70745881
_cell_length_b   14.00506886
_cell_length_c   14.15818141
_cell_angle_alpha   90.00000000
_cell_angle_beta   90.00000000
_cell_angle_gamma   90.00000000
_symmetry_Int_Tables_number   1
_chemical_formula_structural   CsLa2Br7
_chemical_formula_sum   'Cs4 La8 Br28'
_cell_volume   1528.28353284
_cell_formula_units_Z   4
loop_
 _symmetry_equiv_pos_site_id
 _symmetry_equiv_pos_as_xyz
  1  'x, y, z'
loop_
 _atom_site_type_symbol
 _atom_site_label
 _atom_site_symmetry_multiplicity
 _atom_site_fract_x
 _atom_site_fract_y
 _atom_site_fract_z
 _atom_site_occupancy
  Cs  Cs0  1  0.25000000  0.80486514  0.04495755  1
  Cs  Cs1  1  0.75000000  0.19513486  0.95504245  1
  Cs  Cs2  1  0.75000000  0.30486514  0.45504245  1
  Cs  Cs3  1  0.25000000  0.69513486  0.54495755  1
  La  La4  1  0.25000000  0.46038903  0.23572173  1
  La  La5  1  0.75000000  0.53961097  0.76427827  1
  La  La6  1  0.75000000  0.96038903  0.26427827  1
  La  La7  1  0.25000000  0.03961097  0.73572173  1
  La  La8  1  0.25000000  0.15715999  0.24825831  1
  La  La9  1  0.75000000  0.84284001  0.75174169  1
  La  La10  1  0.75000000  0.65715999  0.25174169  1
  La  La11  1  0.25000000  0.34284001  0.74825831  1
  Br  Br12  1  0.00421349  0.30684664  0.17207845  1
  Br  Br13  1  -0.00421349  0.69315336  0.82792155  1
  Br  Br14  1  -0.00421349  0.80684664  0.32792155  1
  Br  Br15  1  0.50421349  0.69315336  0.82792155  1
  Br  Br16  1  0.00421349  0.19315336  0.67207845  1
  Br  Br17  1  0.49578651  0.30684664  0.17207845  1
  Br  Br18  1  0.49578651  0.19315336  0.67207845  1
  Br  Br19  1  0.50421349  0.80684664  0.32792155  1
  Br  Br20  1  0.00995954  0.57915043  0.11604155  1
  Br  Br21  1  0.99004046  0.42084957  0.88395845  1
  Br  Br22  1  0.99004046  0.07915043  0.38395845  1
  Br  Br23  1  0.50995954  0.42084957  0.88395845  1
  Br  Br24  1  0.00995954  0.92084957  0.61604155  1
  Br  Br25  1  0.49004046  0.57915043  0.11604155  1
  Br  Br26  1  0.49004046  0.92084957  0.61604155  1
  Br  Br27  1  0.50995954  0.07915043  0.38395845  1
  Br  Br28  1  0.00926201  0.03932394  0.12688968  1
  Br  Br29  1  0.99073799  0.96067606  0.87311032  1
  Br  Br30  1  0.99073799  0.53932394  0.37311032  1
  Br  Br31  1  0.50926201  0.96067606  0.87311032  1
  Br  Br32  1  0.00926201  0.46067606  0.62688968  1
  Br  Br33  1  0.49073799  0.03932394  0.12688968  1
  Br  Br34  1  0.49073799  0.46067606  0.62688968  1
  Br  Br35  1  0.50926201  0.53932394  0.37311032  1
  Br  Br36  1  0.25000000  0.31246676  0.39681517  1
  Br  Br37  1  0.75000000  0.68753324  0.60318483  1
  Br  Br38  1  0.75000000  0.81246676  0.10318483  1
  Br  Br39  1  0.25000000  0.18753324  0.89681517  1
