# generated using pymatgen
data_SrV2O6
_symmetry_space_group_name_H-M   'P 1'
_cell_length_a   3.64999218
_cell_length_b   9.73434886
_cell_length_c   12.65984199
_cell_angle_alpha   89.99022426
_cell_angle_beta   89.99999908
_cell_angle_gamma   90.00001105
_symmetry_Int_Tables_number   1
_chemical_formula_structural   SrV2O6
_chemical_formula_sum   'Sr4 V8 O24'
_cell_volume   449.80794172
_cell_formula_units_Z   4
loop_
 _symmetry_equiv_pos_site_id
 _symmetry_equiv_pos_as_xyz
  1  'x, y, z'
loop_
 _atom_site_type_symbol
 _atom_site_label
 _atom_site_symmetry_multiplicity
 _atom_site_fract_x
 _atom_site_fract_y
 _atom_site_fract_z
 _atom_site_occupancy
  Sr  Sr0  1  0.24999742  0.13140784  0.11893696  1
  Sr  Sr1  1  0.74999924  0.86859199  0.88106316  1
  Sr  Sr2  1  0.24999934  0.63142335  0.38114760  1
  Sr  Sr3  1  0.74999951  0.36857677  0.61885267  1
  V  V4  1  0.25000033  0.74212108  0.09117971  1
  V  V5  1  0.74999945  0.25787903  0.90882055  1
  V  V6  1  0.25000015  0.24208870  0.40896831  1
  V  V7  1  0.74999988  0.75791122  0.59103182  1
  V  V8  1  0.24999937  0.50402314  0.87135406  1
  V  V9  1  0.74999956  0.49597668  0.12864615  1
  V  V10  1  0.74999929  0.99593576  0.37162459  1
  V  V11  1  0.24999951  0.00406431  0.62837565  1
  O  O12  1  0.25000041  0.89424922  0.02469817  1
  O  O13  1  0.74999964  0.10575075  0.97530193  1
  O  O14  1  0.25000030  0.39430899  0.47524899  1
  O  O15  1  0.75000013  0.60569089  0.52475096  1
  O  O16  1  0.25000064  0.77922754  0.21618449  1
  O  O17  1  0.74999992  0.22077237  0.78381540  1
  O  O18  1  0.25000042  0.27900393  0.28390378  1
  O  O19  1  0.74999997  0.72099581  0.71609616  1
  O  O20  1  0.25000037  0.53227180  0.09183330  1
  O  O21  1  0.74999996  0.46772807  0.90816695  1
  O  O22  1  0.25000020  0.03217180  0.40847245  1
  O  O23  1  0.75000019  0.96782815  0.59152780  1
  O  O24  1  0.75000046  0.82614740  0.39438522  1
  O  O25  1  0.25000061  0.17385266  0.60561501  1
  O  O26  1  0.75000019  0.32624670  0.10573844  1
  O  O27  1  0.25000058  0.67375317  0.89426198  1
  O  O28  1  0.74999978  0.02457823  0.24254774  1
  O  O29  1  0.25000010  0.97542174  0.75745264  1
  O  O30  1  0.25000016  0.30803934  0.93216249  1
  O  O31  1  0.25000000  0.47552320  0.74227459  1
  O  O32  1  0.75000028  0.19198786  0.43228926  1
  O  O33  1  0.25000021  0.80801221  0.56771086  1
  O  O34  1  0.75000032  0.69196053  0.06783759  1
  O  O35  1  0.75000009  0.52447680  0.25772558  1
