# generated using pymatgen
data_Y3GaS6
_symmetry_space_group_name_H-M   'P 1'
_cell_length_a   8.52511842
_cell_length_b   8.52511842
_cell_length_c   6.45084557
_cell_angle_alpha   90.00000000
_cell_angle_beta   90.00000000
_cell_angle_gamma   102.39407201
_symmetry_Int_Tables_number   1
_chemical_formula_structural   Y3GaS6
_chemical_formula_sum   'Y6 Ga2 S12'
_cell_volume   457.90588380
_cell_formula_units_Z   2
loop_
 _symmetry_equiv_pos_site_id
 _symmetry_equiv_pos_as_xyz
  1  'x, y, z'
loop_
 _atom_site_type_symbol
 _atom_site_label
 _atom_site_symmetry_multiplicity
 _atom_site_fract_x
 _atom_site_fract_y
 _atom_site_fract_z
 _atom_site_occupancy
  Y  Y0  1  0.28461746  0.08551325  0.22574999  1
  Y  Y1  1  0.91448675  0.71538254  0.22574999  1
  Y  Y2  1  0.71538254  0.91448675  0.72574999  1
  Y  Y3  1  0.08551325  0.28461746  0.72574999  1
  Y  Y4  1  0.40180067  0.59819933  0.13746400  1
  Y  Y5  1  0.59819933  0.40180067  0.63746400  1
  Ga  Ga6  1  0.20057907  0.79942093  0.76290227  1
  Ga  Ga7  1  0.79942093  0.20057907  0.26290227  1
  S  S8  1  0.56805907  0.10203229  0.44057154  1
  S  S9  1  0.89796771  0.43194093  0.44057154  1
  S  S10  1  0.43194093  0.89796771  0.94057154  1
  S  S11  1  0.10203229  0.56805907  0.94057154  1
  S  S12  1  0.63216979  0.69298663  0.43059601  1
  S  S13  1  0.30701337  0.36783021  0.43059601  1
  S  S14  1  0.36783021  0.30701337  0.93059601  1
  S  S15  1  0.69298663  0.63216979  0.93059601  1
  S  S16  1  0.21670956  0.78329044  0.41356525  1
  S  S17  1  0.78329044  0.21670956  0.91356525  1
  S  S18  1  0.95904137  0.04095863  0.40723341  1
  S  S19  1  0.04095863  0.95904137  0.90723341  1
