# generated using pymatgen
data_RbNaMg5(Si2O5)6
_symmetry_space_group_name_H-M   'P 1'
_cell_length_a   10.22700623
_cell_length_b   10.22702828
_cell_length_c   14.61422098
_cell_angle_alpha   90.00000000
_cell_angle_beta   90.00000000
_cell_angle_gamma   119.99992752
_symmetry_Int_Tables_number   1
_chemical_formula_structural   RbNaMg5(Si2O5)6
_chemical_formula_sum   'Rb2 Na2 Mg10 Si24 O60'
_cell_volume   1323.74580359
_cell_formula_units_Z   2
loop_
 _symmetry_equiv_pos_site_id
 _symmetry_equiv_pos_as_xyz
  1  'x, y, z'
loop_
 _atom_site_type_symbol
 _atom_site_label
 _atom_site_symmetry_multiplicity
 _atom_site_fract_x
 _atom_site_fract_y
 _atom_site_fract_z
 _atom_site_occupancy
  Rb  Rb0  1  0.00000180  0.00000000  0.25000000  1
  Rb  Rb1  1  0.00000180  0.00000000  0.75000000  1
  Na  Na2  1  0.66668703  0.33331357  0.50000000  1
  Na  Na3  1  0.33337347  0.66668643  0.00000000  1
  Mg  Mg4  1  0.66667873  0.33332530  0.24715321  1
  Mg  Mg5  1  0.66667873  0.33332530  0.75284679  1
  Mg  Mg6  1  0.33335343  0.66667470  0.74715321  1
  Mg  Mg7  1  0.33335343  0.66667470  0.25284679  1
  Mg  Mg8  1  0.49956196  0.00000000  0.25000000  1
  Mg  Mg9  1  0.50043684  0.50042437  0.25000154  1
  Mg  Mg10  1  0.00001247  0.49957563  0.24999846  1
  Mg  Mg11  1  0.49956196  0.00000000  0.75000000  1
  Mg  Mg12  1  0.50043684  0.50042437  0.74999846  1
  Mg  Mg13  1  0.00001247  0.49957563  0.75000154  1
  Si  Si14  1  0.23998848  0.88362269  0.39151612  1
  Si  Si15  1  0.64363639  0.76001126  0.39151633  1
  Si  Si16  1  0.11637861  0.35636575  0.39151592  1
  Si  Si17  1  0.23998848  0.88362269  0.60848388  1
  Si  Si18  1  0.64363639  0.76001126  0.60848367  1
  Si  Si19  1  0.11637861  0.35636575  0.60848408  1
  Si  Si20  1  0.35636579  0.11637731  0.89151612  1
  Si  Si21  1  0.88362513  0.23998874  0.89151633  1
  Si  Si22  1  0.76001286  0.64363425  0.89151592  1
  Si  Si23  1  0.35636579  0.11637731  0.10848388  1
  Si  Si24  1  0.88362513  0.23998874  0.10848367  1
  Si  Si25  1  0.76001286  0.64363425  0.10848408  1
  Si  Si26  1  0.76158512  0.11505468  0.60915463  1
  Si  Si27  1  0.35347464  0.23841579  0.60915391  1
  Si  Si28  1  0.88494327  0.64652470  0.60915439  1
  Si  Si29  1  0.76158512  0.11505468  0.39084537  1
  Si  Si30  1  0.35347464  0.23841579  0.39084609  1
  Si  Si31  1  0.88494327  0.64652470  0.39084561  1
  Si  Si32  1  0.64653044  0.88494532  0.10915463  1
  Si  Si33  1  0.11505885  0.76158421  0.10915391  1
  Si  Si34  1  0.23841857  0.35347530  0.10915439  1
  Si  Si35  1  0.64653044  0.88494532  0.89084537  1
  Si  Si36  1  0.11505885  0.76158421  0.89084609  1
  Si  Si37  1  0.23841857  0.35347530  0.89084561  1
  O  O38  1  0.26425438  0.86710909  0.50000000  1
  O  O39  1  0.60285479  0.73574565  0.50000000  1
  O  O40  1  0.13288867  0.39714266  0.50000000  1
  O  O41  1  0.39714529  0.13289091  0.00000000  1
  O  O42  1  0.86710914  0.26425435  0.00000000  1
  O  O43  1  0.73574601  0.60285734  0.00000000  1
  O  O44  1  0.73568332  0.13701131  0.50000000  1
  O  O45  1  0.40133330  0.26431574  0.50000000  1
  O  O46  1  0.86298507  0.59866742  0.50000000  1
  O  O47  1  0.59867202  0.86298869  0.00000000  1
  O  O48  1  0.13701756  0.73568426  0.00000000  1
  O  O49  1  0.26431765  0.40133258  0.00000000  1
  O  O50  1  0.34431125  0.84529368  0.32836546  1
  O  O51  1  0.50098794  0.65569096  0.32836274  1
  O  O52  1  0.15471391  0.49901921  0.32836449  1
  O  O53  1  0.34431125  0.84529368  0.67163454  1
  O  O54  1  0.50098794  0.65569096  0.67163726  1
  O  O55  1  0.15471391  0.49901921  0.67163551  1
  O  O56  1  0.49901757  0.15470632  0.82836546  1
  O  O57  1  0.84529698  0.34430904  0.82836274  1
  O  O58  1  0.65569471  0.50098079  0.82836449  1
  O  O59  1  0.49901757  0.15470632  0.17163454  1
  O  O60  1  0.84529698  0.34430904  0.17163726  1
  O  O61  1  0.65569471  0.50098079  0.17163551  1
  O  O62  1  0.65556818  0.15647228  0.66902426  1
  O  O63  1  0.50090996  0.34442970  0.66902448  1
  O  O64  1  0.84352915  0.49909091  0.66902452  1
  O  O65  1  0.65556818  0.15647228  0.33097574  1
  O  O66  1  0.50090996  0.34442970  0.33097552  1
  O  O67  1  0.84352915  0.49909091  0.33097548  1
  O  O68  1  0.49909590  0.84352772  0.16902426  1
  O  O69  1  0.15648026  0.65557030  0.16902448  1
  O  O70  1  0.34443824  0.50090909  0.16902452  1
  O  O71  1  0.49909590  0.84352772  0.83097574  1
  O  O72  1  0.15648026  0.65557030  0.83097552  1
  O  O73  1  0.34443824  0.50090909  0.83097548  1
  O  O74  1  0.05876108  0.77999849  0.36830193  1
  O  O75  1  0.72123660  0.94123693  0.36830188  1
  O  O76  1  0.22000130  0.27876048  0.36830218  1
  O  O77  1  0.05876108  0.77999849  0.63169807  1
  O  O78  1  0.72123660  0.94123693  0.63169812  1
  O  O79  1  0.22000130  0.27876048  0.63169782  1
  O  O80  1  0.27876259  0.22000151  0.86830193  1
  O  O81  1  0.77999967  0.05876307  0.86830188  1
  O  O82  1  0.94124082  0.72123952  0.86830218  1
  O  O83  1  0.27876259  0.22000151  0.13169807  1
  O  O84  1  0.77999967  0.05876307  0.13169812  1
  O  O85  1  0.94124082  0.72123952  0.13169782  1
  O  O86  1  0.94255777  0.22072736  0.63146297  1
  O  O87  1  0.27817089  0.05744388  0.63146311  1
  O  O88  1  0.77927492  0.72182924  0.63146283  1
  O  O89  1  0.94255777  0.22072736  0.36853703  1
  O  O90  1  0.27817089  0.05744388  0.36853689  1
  O  O91  1  0.77927492  0.72182924  0.36853717  1
  O  O92  1  0.72183041  0.77927264  0.13146297  1
  O  O93  1  0.22072701  0.94255612  0.13146311  1
  O  O94  1  0.05744568  0.27817076  0.13146283  1
  O  O95  1  0.72183041  0.77927264  0.86853703  1
  O  O96  1  0.22072701  0.94255612  0.86853689  1
  O  O97  1  0.05744568  0.27817076  0.86853717  1
