# generated using pymatgen
data_Rb12Mg(ClO)4
_symmetry_space_group_name_H-M   'P 1'
_cell_length_a   7.58024506
_cell_length_b   8.08428571
_cell_length_c   12.09333037
_cell_angle_alpha   87.95569283
_cell_angle_beta   84.43694225
_cell_angle_gamma   86.54702363
_symmetry_Int_Tables_number   1
_chemical_formula_structural   Rb12Mg(ClO)4
_chemical_formula_sum   'Rb12 Mg1 Cl4 O4'
_cell_volume   735.92821463
_cell_formula_units_Z   1
loop_
 _symmetry_equiv_pos_site_id
 _symmetry_equiv_pos_as_xyz
  1  'x, y, z'
loop_
 _atom_site_type_symbol
 _atom_site_label
 _atom_site_symmetry_multiplicity
 _atom_site_fract_x
 _atom_site_fract_y
 _atom_site_fract_z
 _atom_site_occupancy
  Rb  Rb0  1  0.11106000  0.44803900  0.28033200  1
  Rb  Rb1  1  0.17358700  0.20291900  0.56752700  1
  Rb  Rb2  1  0.31177800  0.27904200  0.95577000  1
  Rb  Rb3  1  0.29381200  0.72952200  0.98749000  1
  Rb  Rb4  1  0.25177900  0.69916300  0.53056800  1
  Rb  Rb5  1  0.40517800  0.98542000  0.28801100  1
  Rb  Rb6  1  0.49682900  0.96125600  0.72869200  1
  Rb  Rb7  1  0.80024100  0.29922600  0.08438000  1
  Rb  Rb8  1  0.70035300  0.26717900  0.47342900  1
  Rb  Rb9  1  0.81142600  0.77679500  0.08844200  1
  Rb  Rb10  1  0.75853600  0.76278800  0.45244600  1
  Rb  Rb11  1  0.89129200  0.51948100  0.73299000  1
  Mg  Mg12  1  0.89333500  0.04691300  0.86121400  1
  Cl  Cl13  1  0.96949800  0.04124500  0.27829100  1
  Cl  Cl14  1  0.52417100  0.56797700  0.26818400  1
  Cl  Cl15  1  0.44962900  0.54002700  0.74395700  1
  Cl  Cl16  1  0.91428300  0.91778500  0.66406300  1
  O  O17  1  0.06080700  0.51735600  0.06198900  1
  O  O18  1  0.97712000  0.48379800  0.50831500  1
  O  O19  1  0.66305400  0.03853900  0.93827300  1
  O  O20  1  0.45889900  0.99886200  0.49373300  1
