# generated using pymatgen
data_CdPSe3
_symmetry_space_group_name_H-M   'P 1'
_cell_length_a   7.97359843
_cell_length_b   7.97359843
_cell_length_c   7.97359780
_cell_angle_alpha   48.60264365
_cell_angle_beta   48.60264369
_cell_angle_gamma   48.60264447
_symmetry_Int_Tables_number   1
_chemical_formula_structural   CdPSe3
_chemical_formula_sum   'Cd2 P2 Se6'
_cell_volume   261.69195284
_cell_formula_units_Z   2
loop_
 _symmetry_equiv_pos_site_id
 _symmetry_equiv_pos_as_xyz
  1  'x, y, z'
loop_
 _atom_site_type_symbol
 _atom_site_label
 _atom_site_symmetry_multiplicity
 _atom_site_fract_x
 _atom_site_fract_y
 _atom_site_fract_z
 _atom_site_occupancy
  Cd  Cd0  1  0.16890866  0.16890866  0.16890866  1
  Cd  Cd1  1  0.83109134  0.83109134  0.83109134  1
  P  P2  1  0.44625017  0.44625017  0.44625017  1
  P  P3  1  0.55374983  0.55374983  0.55374983  1
  Se  Se4  1  0.40982453  0.73792374  0.09940629  1
  Se  Se5  1  0.73792374  0.09940629  0.40982453  1
  Se  Se6  1  0.09940629  0.40982453  0.73792374  1
  Se  Se7  1  0.59017547  0.26207626  0.90059371  1
  Se  Se8  1  0.26207626  0.90059371  0.59017547  1
  Se  Se9  1  0.90059371  0.59017547  0.26207626  1
