# generated using pymatgen
data_Sr2LiBeB3O8
_symmetry_space_group_name_H-M   'P 1'
_cell_length_a   6.49144193
_cell_length_b   8.60095976
_cell_length_c   12.87145669
_cell_angle_alpha   73.09982511
_cell_angle_beta   90.00000000
_cell_angle_gamma   90.00000000
_symmetry_Int_Tables_number   1
_chemical_formula_structural   Sr2LiBeB3O8
_chemical_formula_sum   'Sr8 Li4 Be4 B12 O32'
_cell_volume   687.61085116
_cell_formula_units_Z   4
loop_
 _symmetry_equiv_pos_site_id
 _symmetry_equiv_pos_as_xyz
  1  'x, y, z'
loop_
 _atom_site_type_symbol
 _atom_site_label
 _atom_site_symmetry_multiplicity
 _atom_site_fract_x
 _atom_site_fract_y
 _atom_site_fract_z
 _atom_site_occupancy
  Sr  Sr0  1  0.74455392  0.64057317  0.92756937  1
  Sr  Sr1  1  0.24455392  0.35942683  0.57243063  1
  Sr  Sr2  1  0.25544608  0.35942683  0.07243063  1
  Sr  Sr3  1  0.75544608  0.64057317  0.42756937  1
  Sr  Sr4  1  0.39281151  0.03503100  0.84224682  1
  Sr  Sr5  1  0.89281151  0.96496900  0.65775318  1
  Sr  Sr6  1  0.60718849  0.96496900  0.15775318  1
  Sr  Sr7  1  0.10718849  0.03503100  0.34224682  1
  Li  Li8  1  0.27126672  0.62539714  0.82873056  1
  Li  Li9  1  0.77126672  0.37460286  0.67126944  1
  Li  Li10  1  0.72873328  0.37460286  0.17126944  1
  Li  Li11  1  0.22873328  0.62539714  0.32873056  1
  Be  Be12  1  0.07176171  0.32214916  0.84522025  1
  Be  Be13  1  0.57176171  0.67785084  0.65477975  1
  Be  Be14  1  0.92823829  0.67785084  0.15477975  1
  Be  Be15  1  0.42823829  0.32214916  0.34522025  1
  B  B16  1  0.76780166  0.26164464  0.98597669  1
  B  B17  1  0.26780166  0.73835536  0.51402331  1
  B  B18  1  0.23219834  0.73835536  0.01402331  1
  B  B19  1  0.73219834  0.26164464  0.48597669  1
  B  B20  1  0.84891929  0.06129854  0.88129196  1
  B  B21  1  0.34891929  0.93870146  0.61870804  1
  B  B22  1  0.15108071  0.93870146  0.11870804  1
  B  B23  1  0.65108071  0.06129854  0.38129196  1
  B  B24  1  0.95258852  0.59718608  0.70580632  1
  B  B25  1  0.45258852  0.40281392  0.79419368  1
  B  B26  1  0.04741148  0.40281392  0.29419368  1
  B  B27  1  0.54741148  0.59718608  0.20580632  1
  O  O28  1  0.72865734  0.11625113  0.95714221  1
  O  O29  1  0.22865734  0.88374887  0.54285779  1
  O  O30  1  0.27134266  0.88374887  0.04285779  1
  O  O31  1  0.77134266  0.11625113  0.45714221  1
  O  O32  1  0.92812110  0.35964016  0.93951814  1
  O  O33  1  0.42812110  0.64035984  0.56048186  1
  O  O34  1  0.07187890  0.64035984  0.06048186  1
  O  O35  1  0.57187890  0.35964016  0.43951814  1
  O  O36  1  0.64166778  0.29211768  0.06076570  1
  O  O37  1  0.14166778  0.70788232  0.43923430  1
  O  O38  1  0.35833222  0.70788232  0.93923430  1
  O  O39  1  0.85833222  0.29211768  0.56076570  1
  O  O40  1  0.02752127  0.13734822  0.84224854  1
  O  O41  1  0.52752127  0.86265178  0.65775146  1
  O  O42  1  0.97247873  0.86265178  0.15775146  1
  O  O43  1  0.47247873  0.13734822  0.34224854  1
  O  O44  1  0.76465824  0.93996678  0.84890049  1
  O  O45  1  0.26465824  0.06003322  0.65109951  1
  O  O46  1  0.23534176  0.06003322  0.15109951  1
  O  O47  1  0.73534176  0.93996678  0.34890049  1
  O  O48  1  0.02572908  0.44047371  0.72312093  1
  O  O49  1  0.52572908  0.55952629  0.77687907  1
  O  O50  1  0.97427092  0.55952629  0.27687907  1
  O  O51  1  0.47427092  0.44047371  0.22312093  1
  O  O52  1  0.30900449  0.34827630  0.87751167  1
  O  O53  1  0.80900449  0.65172370  0.62248833  1
  O  O54  1  0.69099551  0.65172370  0.12248833  1
  O  O55  1  0.19099551  0.34827630  0.37751167  1
  O  O56  1  0.01087701  0.69205437  0.76876649  1
  O  O57  1  0.51087701  0.30794563  0.73123351  1
  O  O58  1  0.98912299  0.30794563  0.23123351  1
  O  O59  1  0.48912299  0.69205437  0.26876649  1
