# generated using pymatgen
data_Tl2S
_symmetry_space_group_name_H-M   'P 1'
_cell_length_a   9.49158181
_cell_length_b   9.49157984
_cell_length_c   9.49158098
_cell_angle_alpha   81.14589468
_cell_angle_beta   81.14589226
_cell_angle_gamma   81.14587504
_symmetry_Int_Tables_number   1
_chemical_formula_structural   Tl2S
_chemical_formula_sum   'Tl18 S9'
_cell_volume   827.37912581
_cell_formula_units_Z   9
loop_
 _symmetry_equiv_pos_site_id
 _symmetry_equiv_pos_as_xyz
  1  'x, y, z'
loop_
 _atom_site_type_symbol
 _atom_site_label
 _atom_site_symmetry_multiplicity
 _atom_site_fract_x
 _atom_site_fract_y
 _atom_site_fract_z
 _atom_site_occupancy
  Tl  Tl0  1  0.76142854  0.72638829  0.43293193  1
  Tl  Tl1  1  0.76617315  0.09436273  0.05996151  1
  Tl  Tl2  1  0.65904394  0.69603372  0.03406897  1
  Tl  Tl3  1  0.09966364  0.42743049  0.39371428  1
  Tl  Tl4  1  0.09436273  0.05996151  0.76617315  1
  Tl  Tl5  1  0.43293193  0.76142854  0.72638829  1
  Tl  Tl6  1  0.70057173  0.32613740  0.36234825  1
  Tl  Tl7  1  0.36701917  0.99231345  0.02951025  1
  Tl  Tl8  1  0.99231345  0.02951025  0.36701917  1
  Tl  Tl9  1  0.36234825  0.70057173  0.32613740  1
  Tl  Tl10  1  0.42743049  0.39371428  0.09966364  1
  Tl  Tl11  1  0.72638829  0.43293193  0.76142854  1
  Tl  Tl12  1  0.39371428  0.09966364  0.42743049  1
  Tl  Tl13  1  0.69603372  0.03406897  0.65904394  1
  Tl  Tl14  1  0.05996151  0.76617315  0.09436273  1
  Tl  Tl15  1  0.02951025  0.36701917  0.99231345  1
  Tl  Tl16  1  0.03406897  0.65904394  0.69603372  1
  Tl  Tl17  1  0.32613740  0.36234825  0.70057173  1
  S  S18  1  0.53516089  0.53516089  0.53516089  1
  S  S19  1  0.20161054  0.20161054  0.20161054  1
  S  S20  1  0.24756299  0.58086391  0.91399852  1
  S  S21  1  0.87399316  0.54049856  0.20696227  1
  S  S22  1  0.91399852  0.24756299  0.58086391  1
  S  S23  1  0.20696227  0.87399316  0.54049856  1
  S  S24  1  0.58086391  0.91399852  0.24756299  1
  S  S25  1  0.54049856  0.20696227  0.87399316  1
  S  S26  1  0.86824972  0.86824972  0.86824972  1
