# generated using pymatgen
data_Rb4MgH12(SeO3)8
_symmetry_space_group_name_H-M   'P 1'
_cell_length_a   6.36214513
_cell_length_b   6.51762785
_cell_length_c   21.70316187
_cell_angle_alpha   90.00000000
_cell_angle_beta   94.64310698
_cell_angle_gamma   90.00000000
_symmetry_Int_Tables_number   1
_chemical_formula_structural   Rb4MgH12(SeO3)8
_chemical_formula_sum   'Rb4 Mg1 H12 Se8 O24'
_cell_volume   896.99196755
_cell_formula_units_Z   1
loop_
 _symmetry_equiv_pos_site_id
 _symmetry_equiv_pos_as_xyz
  1  'x, y, z'
loop_
 _atom_site_type_symbol
 _atom_site_label
 _atom_site_symmetry_multiplicity
 _atom_site_fract_x
 _atom_site_fract_y
 _atom_site_fract_z
 _atom_site_occupancy
  Rb  Rb0  1  0.31006648  0.26130250  0.37979381  1
  Rb  Rb1  1  0.18993352  0.26130250  0.62020619  1
  Rb  Rb2  1  0.74154894  0.77024931  0.12738686  1
  Rb  Rb3  1  0.75845106  0.77024931  0.87261314  1
  Mg  Mg4  1  0.75000000  0.29283623  0.00000000  1
  H  H5  1  0.42916814  0.13120505  0.06143981  1
  H  H6  1  0.07083186  0.13120505  0.93856019  1
  H  H7  1  0.82398271  0.93585697  0.45226249  1
  H  H8  1  0.67601729  0.93585697  0.54773751  1
  H  H9  1  0.98803727  0.46582804  0.25875109  1
  H  H10  1  0.51196273  0.46582804  0.74124891  1
  H  H11  1  0.48235868  0.56131228  0.24083425  1
  H  H12  1  0.01764132  0.56131228  0.75916575  1
  H  H13  1  0.63174970  0.18865921  0.10744718  1
  H  H14  1  0.86825030  0.18865921  0.89255282  1
  H  H15  1  0.11321404  0.73239100  0.36585542  1
  H  H16  1  0.38678596  0.73239100  0.63414458  1
  Se  Se17  1  0.13434196  0.35820604  0.10648463  1
  Se  Se18  1  0.36565804  0.35820604  0.89351537  1
  Se  Se19  1  0.74851322  0.69394239  0.37599546  1
  Se  Se20  1  0.75148678  0.69394239  0.62400454  1
  Se  Se21  1  0.72902874  0.19587926  0.25310819  1
  Se  Se22  1  0.77097126  0.19587926  0.74689181  1
  Se  Se23  1  0.23687206  0.84248367  0.24558584  1
  Se  Se24  1  0.26312794  0.84248367  0.75441416  1
  O  O25  1  0.17802709  0.11983616  0.07816947  1
  O  O26  1  0.32197291  0.11983616  0.92183053  1
  O  O27  1  0.71893798  0.94304886  0.41666063  1
  O  O28  1  0.78106202  0.94304886  0.58333937  1
  O  O29  1  0.53049245  0.35218653  0.27188081  1
  O  O30  1  0.96950755  0.35218653  0.72811919  1
  O  O31  1  0.03020192  0.68258725  0.22717872  1
  O  O32  1  0.46979808  0.68258725  0.77282128  1
  O  O33  1  0.58710898  0.15174364  0.06279264  1
  O  O34  1  0.91289102  0.15174364  0.93720736  1
  O  O35  1  0.02573798  0.66615685  0.39860787  1
  O  O36  1  0.47426202  0.66615685  0.60139213  1
  O  O37  1  0.73963053  0.21692706  0.17540364  1
  O  O38  1  0.76036947  0.21692706  0.82459636  1
  O  O39  1  0.27963924  0.83182391  0.32408731  1
  O  O40  1  0.22036076  0.83182391  0.67591269  1
  O  O41  1  0.93679887  0.46377216  0.05600016  1
  O  O42  1  0.56320113  0.46377216  0.94399984  1
  O  O43  1  0.64878310  0.52446890  0.42107149  1
  O  O44  1  0.85121690  0.52446890  0.57892851  1
  O  O45  1  0.96570883  0.33197624  0.28225175  1
  O  O46  1  0.53429117  0.33197624  0.71774825  1
  O  O47  1  0.45889187  0.70257212  0.21927603  1
  O  O48  1  0.04110813  0.70257212  0.78072397  1
