# generated using pymatgen
data_MgV3CoSn2(PO4)6
_symmetry_space_group_name_H-M   'P 1'
_cell_length_a   9.79209171
_cell_length_b   8.38173240
_cell_length_c   8.37149367
_cell_angle_alpha   60.07143570
_cell_angle_beta   64.19653045
_cell_angle_gamma   64.47111726
_symmetry_Int_Tables_number   1
_chemical_formula_structural   MgV3CoSn2(PO4)6
_chemical_formula_sum   'Mg1 V3 Co1 Sn2 P6 O24'
_cell_volume   515.57307292
_cell_formula_units_Z   1
loop_
 _symmetry_equiv_pos_site_id
 _symmetry_equiv_pos_as_xyz
  1  'x, y, z'
loop_
 _atom_site_type_symbol
 _atom_site_label
 _atom_site_symmetry_multiplicity
 _atom_site_fract_x
 _atom_site_fract_y
 _atom_site_fract_z
 _atom_site_occupancy
  Mg  Mg0  1  0.32911400  0.55042400  0.55015300  1
  V  V1  1  0.01664000  0.66376300  0.65936000  1
  V  V2  1  0.44745900  0.85197700  0.85343300  1
  V  V3  1  0.99666500  0.34011100  0.32847500  1
  Co  Co4  1  0.50765400  0.17087500  0.16590700  1
  Sn  Sn5  1  0.89210200  0.03410200  0.03596300  1
  Sn  Sn6  1  0.64015200  0.45207800  0.45524100  1
  P  P7  1  0.24970400  0.24291900  0.54550300  1
  P  P8  1  0.25319700  0.96242000  0.24838000  1
  P  P9  1  0.25604100  0.53851400  0.95634100  1
  P  P10  1  0.74424100  0.47201800  0.03095600  1
  P  P11  1  0.74385800  0.03192800  0.75221900  1
  P  P12  1  0.74246300  0.75536600  0.47377500  1
  O  O13  1  0.10909100  0.13842600  0.22257600  1
  O  O14  1  0.10364000  0.52860100  0.13114100  1
  O  O15  1  0.10852500  0.23295200  0.51624300  1
  O  O16  1  0.30599100  0.05125700  0.70301100  1
  O  O17  1  0.38753700  0.29037400  0.36483600  1
  O  O18  1  0.18540100  0.40956900  0.61864300  1
  O  O19  1  0.32789300  0.92909200  0.05465800  1
  O  O20  1  0.19340400  0.78236800  0.40694100  1
  O  O21  1  0.59575700  0.63938800  0.02047300  1
  O  O22  1  0.19857700  0.61212600  0.77724900  1
  O  O23  1  0.70704500  0.28109400  0.09937900  1
  O  O24  1  0.59617300  0.01844500  0.74481200  1
  O  O25  1  0.38255200  0.97005400  0.29637400  1
  O  O26  1  0.32161600  0.68654800  0.93654800  1
  O  O27  1  0.80375300  0.45005300  0.19451100  1
  O  O28  1  0.38364000  0.34891900  0.96948300  1
  O  O29  1  0.80372200  0.19451900  0.55108700  1
  O  O30  1  0.70573400  0.09823900  0.91378300  1
  O  O31  1  0.79790700  0.55293400  0.45746400  1
  O  O32  1  0.59365500  0.75431300  0.64520900  1
  O  O33  1  0.70334500  0.91297700  0.28426200  1
  O  O34  1  0.88506700  0.77746000  0.48331500  1
  O  O35  1  0.88486900  0.48707200  0.85220900  1
  O  O36  1  0.88867400  0.85704200  0.77040000  1
