# generated using pymatgen
data_Na3GaS3
_symmetry_space_group_name_H-M   'P 1'
_cell_length_a   6.89427240
_cell_length_b   7.15216244
_cell_length_c   14.44955343
_cell_angle_alpha   60.98063745
_cell_angle_beta   90.00000000
_cell_angle_gamma   90.00000000
_symmetry_Int_Tables_number   1
_chemical_formula_structural   Na3GaS3
_chemical_formula_sum   'Na12 Ga4 S12'
_cell_volume   623.04312261
_cell_formula_units_Z   4
loop_
 _symmetry_equiv_pos_site_id
 _symmetry_equiv_pos_as_xyz
  1  'x, y, z'
loop_
 _atom_site_type_symbol
 _atom_site_label
 _atom_site_symmetry_multiplicity
 _atom_site_fract_x
 _atom_site_fract_y
 _atom_site_fract_z
 _atom_site_occupancy
  Na  Na0  1  0.03496408  0.93522798  0.28972801  1
  Na  Na1  1  0.53496408  0.06477202  0.21027199  1
  Na  Na2  1  0.96503592  0.06477202  0.71027199  1
  Na  Na3  1  0.46503592  0.93522798  0.78972801  1
  Na  Na4  1  0.99860877  0.72705605  0.11070370  1
  Na  Na5  1  0.49860877  0.27294395  0.38929630  1
  Na  Na6  1  0.00139123  0.27294395  0.88929630  1
  Na  Na7  1  0.50139123  0.72705605  0.61070370  1
  Na  Na8  1  0.99949213  0.30861247  0.39722490  1
  Na  Na9  1  0.49949213  0.69138753  0.10277510  1
  Na  Na10  1  0.00050787  0.69138753  0.60277510  1
  Na  Na11  1  0.50050787  0.30861247  0.89722490  1
  Ga  Ga12  1  0.85654220  0.66779973  0.91751830  1
  Ga  Ga13  1  0.14345780  0.33220027  0.08248170  1
  Ga  Ga14  1  0.64345780  0.66779973  0.41751830  1
  Ga  Ga15  1  0.35654220  0.33220027  0.58248170  1
  S  S16  1  0.24341231  0.04919722  0.57300321  1
  S  S17  1  0.25658769  0.04919722  0.07300321  1
  S  S18  1  0.74341231  0.95080278  0.92699679  1
  S  S19  1  0.75658769  0.95080278  0.42699679  1
  S  S20  1  0.80391479  0.35215463  0.07107635  1
  S  S21  1  0.30391479  0.64784537  0.42892365  1
  S  S22  1  0.19608521  0.64784537  0.92892365  1
  S  S23  1  0.69608521  0.35215463  0.57107635  1
  S  S24  1  0.24474284  0.34317776  0.22705514  1
  S  S25  1  0.74474284  0.65682224  0.27294486  1
  S  S26  1  0.75525716  0.65682224  0.77294486  1
  S  S27  1  0.25525716  0.34317776  0.72705514  1
