# generated using pymatgen
data_Cd4Te5Pb
_symmetry_space_group_name_H-M   'P 1'
_cell_length_a   12.75353850
_cell_length_b   12.75353850
_cell_length_c   12.75353850
_cell_angle_alpha   158.91829708
_cell_angle_beta   149.70449288
_cell_angle_gamma   37.20249769
_symmetry_Int_Tables_number   1
_chemical_formula_structural   Cd4Te5Pb
_chemical_formula_sum   'Cd4 Te5 Pb1'
_cell_volume   375.92923492
_cell_formula_units_Z   1
loop_
 _symmetry_equiv_pos_site_id
 _symmetry_equiv_pos_as_xyz
  1  'x, y, z'
loop_
 _atom_site_type_symbol
 _atom_site_label
 _atom_site_symmetry_multiplicity
 _atom_site_fract_x
 _atom_site_fract_y
 _atom_site_fract_z
 _atom_site_occupancy
  Cd  Cd0  1  0.39386712  0.39343317  0.00043395  1
  Cd  Cd1  1  0.78770507  0.79417424  0.99353083  1
  Cd  Cd2  1  0.19935659  0.20582576  0.99353083  1
  Cd  Cd3  1  0.60700077  0.60656683  0.00043395  1
  Te  Te4  1  0.63031890  0.88879743  0.74152046  1
  Te  Te5  1  0.03938526  0.30025485  0.73913041  1
  Te  Te6  1  0.43887656  0.69974515  0.73913041  1
  Te  Te7  1  0.85272303  0.11120257  0.74152046  1
  Te  Te8  1  0.30324803  0.50000000  0.80324803  1
  Pb  Pb9  1  0.99751968  -0.00000000  0.99751968  1
