# generated using pymatgen
data_RbMgCu2H3(SO5)2
_symmetry_space_group_name_H-M   'P 1'
_cell_length_a   5.91262771
_cell_length_b   6.80413176
_cell_length_c   7.81693733
_cell_angle_alpha   71.89571667
_cell_angle_beta   84.27361844
_cell_angle_gamma   119.91517302
_symmetry_Int_Tables_number   1
_chemical_formula_structural   RbMgCu2H3(SO5)2
_chemical_formula_sum   'Rb1 Mg1 Cu2 H3 S2 O10'
_cell_volume   246.38586411
_cell_formula_units_Z   1
loop_
 _symmetry_equiv_pos_site_id
 _symmetry_equiv_pos_as_xyz
  1  'x, y, z'
loop_
 _atom_site_type_symbol
 _atom_site_label
 _atom_site_symmetry_multiplicity
 _atom_site_fract_x
 _atom_site_fract_y
 _atom_site_fract_z
 _atom_site_occupancy
  Rb  Rb0  1  0.48419700  0.99327800  0.49668800  1
  Mg  Mg1  1  0.23830800  0.23177900  0.01338900  1
  Cu  Cu2  1  0.96616800  0.51651000  0.03115400  1
  Cu  Cu3  1  0.51132600  0.81178400  0.98195100  1
  H  H4  1  0.75766400  0.54071700  0.74724200  1
  H  H5  1  0.21150600  0.42620100  0.26021800  1
  H  H6  1  0.69653200  0.64971700  0.88119500  1
  S  S7  1  0.07483000  0.23703100  0.70395100  1
  S  S8  1  0.91495100  0.77496300  0.30642800  1
  O  O9  1  0.76474000  0.10764600  0.76639400  1
  O  O10  1  0.19615300  0.44677200  0.76631700  1
  O  O11  1  0.22521600  0.94121500  0.20918900  1
  O  O12  1  0.79299100  0.54212100  0.27818500  1
  O  O13  1  0.69252000  0.49962200  0.88552300  1
  O  O14  1  0.24231700  0.46980100  0.12297800  1
  O  O15  1  0.14810800  0.06383300  0.81319900  1
  O  O16  1  0.81900700  0.93423300  0.20540700  1
  O  O17  1  0.17155700  0.32118500  0.50035100  1
  O  O18  1  0.85770000  0.72298700  0.50924200  1
