# generated using pymatgen
data_Ag2S2O7
_symmetry_space_group_name_H-M   'P 1'
_cell_length_a   6.80650232
_cell_length_b   6.74884302
_cell_length_c   6.90829982
_cell_angle_alpha   63.53550696
_cell_angle_beta   87.04559490
_cell_angle_gamma   85.08586855
_symmetry_Int_Tables_number   1
_chemical_formula_structural   Ag2S2O7
_chemical_formula_sum   'Ag4 S4 O14'
_cell_volume   283.00992986
_cell_formula_units_Z   2
loop_
 _symmetry_equiv_pos_site_id
 _symmetry_equiv_pos_as_xyz
  1  'x, y, z'
loop_
 _atom_site_type_symbol
 _atom_site_label
 _atom_site_symmetry_multiplicity
 _atom_site_fract_x
 _atom_site_fract_y
 _atom_site_fract_z
 _atom_site_occupancy
  Ag  Ag0  1  0.11905420  0.79811509  0.21188672  1
  Ag  Ag1  1  0.88094580  0.20188491  0.78811328  1
  Ag  Ag2  1  0.62866600  0.79454946  0.56987659  1
  Ag  Ag3  1  0.37133400  0.20545054  0.43012341  1
  S  S4  1  0.12283529  0.71024099  0.72434232  1
  S  S5  1  0.87716471  0.28975901  0.27565768  1
  S  S6  1  0.37613680  0.30013877  0.87868754  1
  S  S7  1  0.62386320  0.69986123  0.12131246  1
  O  O8  1  0.96729729  0.61604485  0.66437130  1
  O  O9  1  0.03270271  0.38395515  0.33562870  1
  O  O10  1  0.25915576  0.81931037  0.54365635  1
  O  O11  1  0.74084424  0.18068963  0.45634365  1
  O  O12  1  0.05921715  0.83820080  0.83917772  1
  O  O13  1  0.94078285  0.16179920  0.16082228  1
  O  O14  1  0.25092257  0.50606137  0.90899429  1
  O  O15  1  0.74907743  0.49393863  0.09100571  1
  O  O16  1  0.39980394  0.14142786  0.10165640  1
  O  O17  1  0.60019606  0.85857214  0.89834360  1
  O  O18  1  0.25074333  0.23791741  0.75454861  1
  O  O19  1  0.74925667  0.76208259  0.24545139  1
  O  O20  1  0.55575712  0.39309630  0.76513532  1
  O  O21  1  0.44424288  0.60690370  0.23486468  1
