# generated using pymatgen
data_Na5IO6
_symmetry_space_group_name_H-M   'P 1'
_cell_length_a   5.63696942
_cell_length_b   5.63696942
_cell_length_c   5.60796752
_cell_angle_alpha   79.52007855
_cell_angle_beta   79.52007855
_cell_angle_gamma   119.22340103
_symmetry_Int_Tables_number   1
_chemical_formula_structural   Na5IO6
_chemical_formula_sum   'Na5 I1 O6'
_cell_volume   145.11418382
_cell_formula_units_Z   1
loop_
 _symmetry_equiv_pos_site_id
 _symmetry_equiv_pos_as_xyz
  1  'x, y, z'
loop_
 _atom_site_type_symbol
 _atom_site_label
 _atom_site_symmetry_multiplicity
 _atom_site_fract_x
 _atom_site_fract_y
 _atom_site_fract_z
 _atom_site_occupancy
  Na  Na0  1  0.83355149  0.16644851  -0.00000000  1
  Na  Na1  1  0.16644851  0.83355149  -0.00000000  1
  Na  Na2  1  0.67093664  0.32906336  0.50000000  1
  Na  Na3  1  0.32906336  0.67093664  0.50000000  1
  Na  Na4  1  -0.00000000  -0.00000000  0.50000000  1
  I  I5  1  0.50000000  0.50000000  -0.00000000  1
  O  O6  1  0.43044037  0.15353039  0.21489116  1
  O  O7  1  0.56955963  0.84646961  0.78510884  1
  O  O8  1  0.84646961  0.56955963  0.78510884  1
  O  O9  1  0.15353039  0.43044037  0.21489116  1
  O  O10  1  0.70244026  0.70244026  0.20167156  1
  O  O11  1  0.29755974  0.29755974  0.79832844  1
