# generated using pymatgen
data_Li2WO4
_symmetry_space_group_name_H-M   'P 1'
_cell_length_a   8.39010400
_cell_length_b   9.37627982
_cell_length_c   9.37627862
_cell_angle_alpha   78.46189284
_cell_angle_beta   63.44638472
_cell_angle_gamma   63.44638283
_symmetry_Int_Tables_number   1
_chemical_formula_structural   Li2WO4
_chemical_formula_sum   'Li16 W8 O32'
_cell_volume   590.20792711
_cell_formula_units_Z   8
loop_
 _symmetry_equiv_pos_site_id
 _symmetry_equiv_pos_as_xyz
  1  'x, y, z'
loop_
 _atom_site_type_symbol
 _atom_site_label
 _atom_site_symmetry_multiplicity
 _atom_site_fract_x
 _atom_site_fract_y
 _atom_site_fract_z
 _atom_site_occupancy
  Li  Li0  1  0.36967343  0.13051616  0.13090710  1
  Li  Li1  1  0.00000000  0.36892447  0.13107553  1
  Li  Li2  1  0.50000000  0.13031746  0.36968254  1
  Li  Li3  1  0.63032657  0.36909290  0.36948384  1
  Li  Li4  1  0.63032657  0.86948384  0.86909290  1
  Li  Li5  1  1.00000000  0.63107553  0.86892447  1
  Li  Li6  1  0.50000000  0.86968254  0.63031746  1
  Li  Li7  1  0.36967343  0.63090710  0.63051616  1
  Li  Li8  1  0.74412501  0.51253827  0.75003727  1
  Li  Li9  1  0.25587499  0.74996273  0.98746173  1
  Li  Li10  1  0.00709431  0.24973421  0.48663090  1
  Li  Li11  1  0.99290569  0.01336910  0.25026579  1
  Li  Li12  1  0.25587499  0.48746173  0.24996273  1
  Li  Li13  1  0.74412501  0.25003727  0.01253827  1
  Li  Li14  1  0.99290569  0.75026579  0.51336910  1
  Li  Li15  1  0.00709431  0.98663090  0.74973421  1
  W  W16  1  0.77960660  0.88667116  0.11345984  1
  W  W17  1  0.77960660  0.61345984  0.38667116  1
  W  W18  1  0.39313277  0.38661471  0.88661471  1
  W  W19  1  0.66634197  0.11350463  0.61350463  1
  W  W20  1  0.22039340  0.38654016  0.61332884  1
  W  W21  1  0.33365803  0.88649537  0.38649537  1
  W  W22  1  0.60686723  0.61338529  0.11338529  1
  W  W23  1  0.22039340  0.11332884  0.88654016  1
  O  O24  1  0.98942337  0.87446206  0.12586222  1
  O  O25  1  0.84438045  0.64246366  0.14246366  1
  O  O26  1  0.62929243  0.85766489  0.35766489  1
  O  O27  1  0.48700886  0.35759966  0.64237597  1
  O  O28  1  0.37070757  0.14233511  0.64233511  1
  O  O29  1  0.15561955  0.35753634  0.85753634  1
  O  O30  1  0.51299114  0.64240034  0.35762403  1
  O  O31  1  0.48700886  0.14237597  0.85759966  1
  O  O32  1  0.37241489  0.90287920  0.86379484  1
  O  O33  1  0.73620139  0.63623726  0.90290285  1
  O  O34  1  0.27552997  0.86372924  0.59696432  1
  O  O35  1  0.13920283  0.59706616  0.63615638  1
  O  O36  1  0.72447003  0.90303568  0.63627076  1
  O  O37  1  0.26379861  0.59709715  0.86376274  1
  O  O38  1  0.62758511  0.63620516  0.59712080  1
  O  O39  1  0.86079717  0.86384362  0.90293384  1
  O  O40  1  0.62758511  0.09712080  0.13620516  1
  O  O41  1  0.26379861  0.36376274  0.09709715  1
  O  O42  1  0.72447003  0.13627076  0.40303568  1
  O  O43  1  0.86079717  0.40293384  0.36384362  1
  O  O44  1  0.27552997  0.09696432  0.36372924  1
  O  O45  1  0.73620139  0.40290285  0.13623726  1
  O  O46  1  0.37241489  0.36379484  0.40287920  1
  O  O47  1  0.13920283  0.13615638  0.09706616  1
  O  O48  1  0.61531618  0.37433791  0.87433791  1
  O  O49  1  0.86413053  0.12565234  0.62565234  1
  O  O50  1  0.01057663  0.37413778  0.62553794  1
  O  O51  1  0.13586947  0.87434766  0.37434766  1
  O  O52  1  0.38468382  0.62566209  0.12566209  1
  O  O53  1  0.01057663  0.12553794  0.87413778  1
  O  O54  1  0.51299114  0.85762403  0.14240034  1
  O  O55  1  0.98942337  0.62586222  0.37446206  1
