# generated using pymatgen
data_Te6RhBr3
_symmetry_space_group_name_H-M   'P 1'
_cell_length_a   9.31059055
_cell_length_b   9.31059055
_cell_length_c   9.31059030
_cell_angle_alpha   108.22336336
_cell_angle_beta   108.22336336
_cell_angle_gamma   108.22336462
_symmetry_Int_Tables_number   1
_chemical_formula_structural   Te6RhBr3
_chemical_formula_sum   'Te12 Rh2 Br6'
_cell_volume   648.42924512
_cell_formula_units_Z   2
loop_
 _symmetry_equiv_pos_site_id
 _symmetry_equiv_pos_as_xyz
  1  'x, y, z'
loop_
 _atom_site_type_symbol
 _atom_site_label
 _atom_site_symmetry_multiplicity
 _atom_site_fract_x
 _atom_site_fract_y
 _atom_site_fract_z
 _atom_site_occupancy
  Te  Te0  1  0.92583831  0.16795300  0.18890973  1
  Te  Te1  1  0.18890973  0.92583831  0.16795300  1
  Te  Te2  1  0.16795300  0.18890973  0.92583831  1
  Te  Te3  1  0.68890973  0.66795300  0.42583831  1
  Te  Te4  1  0.42583831  0.68890973  0.66795300  1
  Te  Te5  1  0.66795300  0.42583831  0.68890973  1
  Te  Te6  1  0.07416169  0.83204700  0.81109027  1
  Te  Te7  1  0.81109027  0.07416169  0.83204700  1
  Te  Te8  1  0.83204700  0.81109027  0.07416169  1
  Te  Te9  1  0.31109027  0.33204700  0.57416169  1
  Te  Te10  1  0.57416169  0.31109027  0.33204700  1
  Te  Te11  1  0.33204700  0.57416169  0.31109027  1
  Rh  Rh12  1  0.25000000  0.25000000  0.25000000  1
  Rh  Rh13  1  0.75000000  0.75000000  0.75000000  1
  Br  Br14  1  0.98502732  0.51497268  0.25000000  1
  Br  Br15  1  0.25000000  0.98502732  0.51497268  1
  Br  Br16  1  0.51497268  0.25000000  0.98502732  1
  Br  Br17  1  0.75000000  0.01497268  0.48502732  1
  Br  Br18  1  0.48502732  0.75000000  0.01497268  1
  Br  Br19  1  0.01497268  0.48502732  0.75000000  1
