# generated using pymatgen
data_K5In3F14
_symmetry_space_group_name_H-M   'P 1'
_cell_length_a   7.86791494
_cell_length_b   7.86791494
_cell_length_c   11.93126709
_cell_angle_alpha   90.00000000
_cell_angle_beta   90.00000000
_cell_angle_gamma   90.00000000
_symmetry_Int_Tables_number   1
_chemical_formula_structural   K5In3F14
_chemical_formula_sum   'K10 In6 F28'
_cell_volume   738.59417810
_cell_formula_units_Z   2
loop_
 _symmetry_equiv_pos_site_id
 _symmetry_equiv_pos_as_xyz
  1  'x, y, z'
loop_
 _atom_site_type_symbol
 _atom_site_label
 _atom_site_symmetry_multiplicity
 _atom_site_fract_x
 _atom_site_fract_y
 _atom_site_fract_z
 _atom_site_occupancy
  K  K0  1  0.71293464  0.21293464  0.25000000  1
  K  K1  1  0.28706536  0.78706536  0.25000000  1
  K  K2  1  0.78706536  0.71293464  0.75000000  1
  K  K3  1  0.21293464  0.28706536  0.75000000  1
  K  K4  1  0.21293464  0.28706536  0.25000000  1
  K  K5  1  0.78706536  0.71293464  0.25000000  1
  K  K6  1  0.71293464  0.21293464  0.75000000  1
  K  K7  1  0.28706536  0.78706536  0.75000000  1
  K  K8  1  0.00000000  0.00000000  0.50000000  1
  K  K9  1  0.50000000  0.50000000  -0.00000000  1
  In  In10  1  0.50000000  0.00000000  0.50000000  1
  In  In11  1  0.00000000  0.50000000  -0.00000000  1
  In  In12  1  0.00000000  0.50000000  0.50000000  1
  In  In13  1  0.50000000  0.00000000  -0.00000000  1
  In  In14  1  0.50000000  0.50000000  0.50000000  1
  In  In15  1  0.00000000  0.00000000  -0.00000000  1
  F  F16  1  0.74722086  0.59808893  0.50000000  1
  F  F17  1  0.25277914  0.40191107  0.50000000  1
  F  F18  1  0.75277914  0.09808893  -0.00000000  1
  F  F19  1  0.24722086  0.90191107  -0.00000000  1
  F  F20  1  0.59808893  0.25277914  0.50000000  1
  F  F21  1  0.40191107  0.74722086  0.50000000  1
  F  F22  1  0.09808893  0.24722086  -0.00000000  1
  F  F23  1  0.90191107  0.75277914  -0.00000000  1
  F  F24  1  0.68191034  0.95007412  0.37989824  1
  F  F25  1  0.31808966  0.04992588  0.37989824  1
  F  F26  1  0.81808966  0.45007412  0.87989824  1
  F  F27  1  0.18191034  0.54992588  0.87989824  1
  F  F28  1  0.95007412  0.31808966  0.37989824  1
  F  F29  1  0.04992588  0.68191034  0.37989824  1
  F  F30  1  0.45007412  0.18191034  0.87989824  1
  F  F31  1  0.54992588  0.81808966  0.87989824  1
  F  F32  1  0.31808966  0.04992588  0.62010176  1
  F  F33  1  0.68191034  0.95007412  0.62010176  1
  F  F34  1  0.18191034  0.54992588  0.12010176  1
  F  F35  1  0.81808966  0.45007412  0.12010176  1
  F  F36  1  0.04992588  0.68191034  0.62010176  1
  F  F37  1  0.95007412  0.31808966  0.62010176  1
  F  F38  1  0.54992588  0.81808966  0.12010176  1
  F  F39  1  0.45007412  0.18191034  0.12010176  1
  F  F40  1  0.50000000  0.50000000  0.32674754  1
  F  F41  1  0.00000000  0.00000000  0.82674754  1
  F  F42  1  0.50000000  0.50000000  0.67325246  1
  F  F43  1  0.00000000  0.00000000  0.17325246  1
