# generated using pymatgen
data_Sr8MgP4(IO4)4
_symmetry_space_group_name_H-M   'P 1'
_cell_length_a   9.22632745
_cell_length_b   8.94567940
_cell_length_c   9.61165547
_cell_angle_alpha   90.53345052
_cell_angle_beta   111.71525487
_cell_angle_gamma   89.68098045
_symmetry_Int_Tables_number   1
_chemical_formula_structural   Sr8MgP4(IO4)4
_chemical_formula_sum   'Sr8 Mg1 P4 I4 O16'
_cell_volume   736.97385973
_cell_formula_units_Z   1
loop_
 _symmetry_equiv_pos_site_id
 _symmetry_equiv_pos_as_xyz
  1  'x, y, z'
loop_
 _atom_site_type_symbol
 _atom_site_label
 _atom_site_symmetry_multiplicity
 _atom_site_fract_x
 _atom_site_fract_y
 _atom_site_fract_z
 _atom_site_occupancy
  Sr  Sr0  1  0.95268144  0.80352027  0.83915364  1
  Sr  Sr1  1  0.75423439  0.29095177  0.29483221  1
  Sr  Sr2  1  0.01010224  0.18812779  0.09635299  1
  Sr  Sr3  1  0.46976206  0.69923454  0.86358306  1
  Sr  Sr4  1  0.44230528  0.83853820  0.22290885  1
  Sr  Sr5  1  0.03910967  0.33006500  0.75363867  1
  Sr  Sr6  1  0.52275437  0.18077529  0.76987144  1
  Sr  Sr7  1  0.95819075  0.67965847  0.22288131  1
  Mg  Mg8  1  0.39006408  0.30283397  0.20206512  1
  P  P9  1  0.21989026  0.56863891  0.02084273  1
  P  P10  1  0.24746805  0.05722470  0.94425586  1
  P  P11  1  0.76019187  0.45537224  0.94107976  1
  P  P12  1  0.73283202  0.94915580  0.04381716  1
  I  I13  1  0.16557583  0.31119157  0.46294793  1
  I  I14  1  0.29025905  0.82364073  0.50027610  1
  I  I15  1  0.80318778  0.60434979  0.49562787  1
  I  I16  1  0.73441403  0.05051258  0.54614888  1
  O  O17  1  0.14249881  0.58490131  0.84705027  1
  O  O18  1  0.29527502  0.09076704  0.11777232  1
  O  O19  1  0.83948012  0.42961924  0.11581162  1
  O  O20  1  0.63511770  0.93394848  0.87331163  1
  O  O21  1  0.79310607  0.61963980  0.91394228  1
  O  O22  1  0.72753564  0.11457584  0.09253575  1
  O  O23  1  0.18741620  0.40411319  0.05794635  1
  O  O24  1  0.30254870  0.89703551  0.93024637  1
  O  O25  1  0.30873392  0.17646611  0.86446914  1
  O  O26  1  0.14739326  0.68575131  0.09701084  1
  O  O27  1  0.67317613  0.83388082  0.13041156  1
  O  O28  1  0.83101063  0.33447849  0.86601777  1
  O  O29  1  0.90918283  0.91540206  0.07442368  1
  O  O30  1  0.58088996  0.43299815  0.88201285  1
  O  O31  1  0.06450059  0.07028751  0.87757835  1
  O  O32  1  0.39723622  0.59948651  0.07488963  1
