# generated using pymatgen
data_Cs3NiF7
_symmetry_space_group_name_H-M   'P 1'
_cell_length_a   8.26900280
_cell_length_b   8.26900280
_cell_length_c   6.17113338
_cell_angle_alpha   90.00000000
_cell_angle_beta   90.00000000
_cell_angle_gamma   90.00000000
_symmetry_Int_Tables_number   1
_chemical_formula_structural   Cs3NiF7
_chemical_formula_sum   'Cs6 Ni2 F14'
_cell_volume   421.95992953
_cell_formula_units_Z   2
loop_
 _symmetry_equiv_pos_site_id
 _symmetry_equiv_pos_as_xyz
  1  'x, y, z'
loop_
 _atom_site_type_symbol
 _atom_site_label
 _atom_site_symmetry_multiplicity
 _atom_site_fract_x
 _atom_site_fract_y
 _atom_site_fract_z
 _atom_site_occupancy
  Cs  Cs0  1  0.19223737  0.69223737  0.50000000  1
  Cs  Cs1  1  0.69223737  0.80776263  0.50000000  1
  Cs  Cs2  1  0.30776263  0.19223737  0.50000000  1
  Cs  Cs3  1  0.80776263  0.30776263  0.50000000  1
  Cs  Cs4  1  0.50000000  0.50000000  -0.00000000  1
  Cs  Cs5  1  0.00000000  -0.00000000  -0.00000000  1
  Ni  Ni6  1  0.00000000  0.50000000  -0.00000000  1
  Ni  Ni7  1  0.50000000  -0.00000000  -0.00000000  1
  F  F8  1  0.39239033  0.89239033  0.79444120  1
  F  F9  1  0.60760967  0.10760967  0.79444120  1
  F  F10  1  0.10760967  0.39239033  0.79444120  1
  F  F11  1  0.89239033  0.60760967  0.79444120  1
  F  F12  1  0.39239033  0.89239033  0.20555880  1
  F  F13  1  0.89239033  0.60760967  0.20555880  1
  F  F14  1  0.10760967  0.39239033  0.20555880  1
  F  F15  1  0.60760967  0.10760967  0.20555880  1
  F  F16  1  0.00000000  -0.00000000  0.50000000  1
  F  F17  1  0.50000000  0.50000000  0.50000000  1
  F  F18  1  0.84740761  0.34740761  -0.00000000  1
  F  F19  1  0.34740761  0.15259239  -0.00000000  1
  F  F20  1  0.65259239  0.84740761  -0.00000000  1
  F  F21  1  0.15259239  0.65259239  -0.00000000  1
