# generated using pymatgen
data_Mn9Zn3O16
_symmetry_space_group_name_H-M   'P 1'
_cell_length_a   5.73868868
_cell_length_b   5.73868868
_cell_length_c   9.29906840
_cell_angle_alpha   90.00000000
_cell_angle_beta   90.00000000
_cell_angle_gamma   90.00000000
_symmetry_Int_Tables_number   1
_chemical_formula_structural   Mn9Zn3O16
_chemical_formula_sum   'Mn9 Zn3 O16'
_cell_volume   306.24201426
_cell_formula_units_Z   1
loop_
 _symmetry_equiv_pos_site_id
 _symmetry_equiv_pos_as_xyz
  1  'x, y, z'
loop_
 _atom_site_type_symbol
 _atom_site_label
 _atom_site_symmetry_multiplicity
 _atom_site_fract_x
 _atom_site_fract_y
 _atom_site_fract_z
 _atom_site_occupancy
  Mn  Mn0  1  0.00000000  0.24882846  0.87281242  1
  Mn  Mn1  1  0.50000000  0.75024228  0.37631324  1
  Mn  Mn2  1  0.75024228  0.50000000  0.62368676  1
  Mn  Mn3  1  0.24882846  -0.00000000  0.12718758  1
  Mn  Mn4  1  0.75117154  -0.00000000  0.12718758  1
  Mn  Mn5  1  0.24975772  0.50000000  0.62368676  1
  Mn  Mn6  1  0.00000000  0.75117154  0.87281242  1
  Mn  Mn7  1  0.50000000  0.24975772  0.37631324  1
  Mn  Mn8  1  0.50000000  0.50000000  -0.00000000  1
  Zn  Zn9  1  0.00000000  -0.00000000  0.50000000  1
  Zn  Zn10  1  0.50000000  -0.00000000  0.74919904  1
  Zn  Zn11  1  0.00000000  0.50000000  0.25080096  1
  O  O12  1  0.00000000  0.22698993  0.12055429  1
  O  O13  1  0.50000000  0.72542374  0.62012631  1
  O  O14  1  0.77673599  0.50000000  0.86638957  1
  O  O15  1  0.27448028  -0.00000000  0.37181695  1
  O  O16  1  0.22326401  0.50000000  0.86638957  1
  O  O17  1  0.72551972  -0.00000000  0.37181695  1
  O  O18  1  0.00000000  0.77301007  0.12055429  1
  O  O19  1  0.50000000  0.27457626  0.62012631  1
  O  O20  1  0.00000000  0.27448028  0.62818305  1
  O  O21  1  0.50000000  0.77673599  0.13361043  1
  O  O22  1  0.22698993  -0.00000000  0.87944571  1
  O  O23  1  0.72542374  0.50000000  0.37987369  1
  O  O24  1  0.77301007  -0.00000000  0.87944571  1
  O  O25  1  0.27457626  0.50000000  0.37987369  1
  O  O26  1  0.00000000  0.72551972  0.62818305  1
  O  O27  1  0.50000000  0.22326401  0.13361043  1
