# generated using pymatgen
data_K2DyCl5
_symmetry_space_group_name_H-M   'P 1'
_cell_length_a   7.91673287
_cell_length_b   8.54467974
_cell_length_c   12.66536278
_cell_angle_alpha   90.00000000
_cell_angle_beta   90.00000000
_cell_angle_gamma   90.00000000
_symmetry_Int_Tables_number   1
_chemical_formula_structural   K2DyCl5
_chemical_formula_sum   'K8 Dy4 Cl20'
_cell_volume   856.76045886
_cell_formula_units_Z   4
loop_
 _symmetry_equiv_pos_site_id
 _symmetry_equiv_pos_as_xyz
  1  'x, y, z'
loop_
 _atom_site_type_symbol
 _atom_site_label
 _atom_site_symmetry_multiplicity
 _atom_site_fract_x
 _atom_site_fract_y
 _atom_site_fract_z
 _atom_site_occupancy
  K  K0  1  0.55666191  0.49459854  0.82851808  1
  K  K1  1  0.44333809  0.50540146  0.17148192  1
  K  K2  1  0.05666191  0.50540146  0.67148192  1
  K  K3  1  0.44333809  -0.00540146  0.17148192  1
  K  K4  1  0.94333809  0.49459854  0.32851808  1
  K  K5  1  0.55666191  0.00540146  0.82851808  1
  K  K6  1  0.94333809  0.00540146  0.32851808  1
  K  K7  1  0.05666191  -0.00540146  0.67148192  1
  Dy  Dy8  1  0.57522734  0.75000000  0.50494856  1
  Dy  Dy9  1  0.42477266  0.25000000  0.49505144  1
  Dy  Dy10  1  0.07522734  0.25000000  0.99505144  1
  Dy  Dy11  1  0.92477266  0.75000000  0.00494856  1
  Cl  Cl12  1  0.84335759  0.75000000  0.80029995  1
  Cl  Cl13  1  0.15664241  0.25000000  0.19970005  1
  Cl  Cl14  1  0.34335759  0.25000000  0.69970005  1
  Cl  Cl15  1  0.65664241  0.75000000  0.30029995  1
  Cl  Cl16  1  0.38170413  0.75000000  0.67730892  1
  Cl  Cl17  1  0.61829587  0.25000000  0.32269108  1
  Cl  Cl18  1  0.88170413  0.25000000  0.82269108  1
  Cl  Cl19  1  0.11829587  0.75000000  0.17730892  1
  Cl  Cl20  1  0.91684868  0.75000000  0.50989557  1
  Cl  Cl21  1  0.08315132  0.25000000  0.49010443  1
  Cl  Cl22  1  0.41684868  0.25000000  0.99010443  1
  Cl  Cl23  1  0.58315132  0.75000000  0.00989557  1
  Cl  Cl24  1  0.66494667  0.04358986  0.57257431  1
  Cl  Cl25  1  0.33505333  0.95641014  0.42742569  1
  Cl  Cl26  1  0.16494667  0.95641014  0.92742569  1
  Cl  Cl27  1  0.33505333  0.54358986  0.42742569  1
  Cl  Cl28  1  0.83505333  0.04358986  0.07257431  1
  Cl  Cl29  1  0.66494667  0.45641014  0.57257431  1
  Cl  Cl30  1  0.83505333  0.45641014  0.07257431  1
  Cl  Cl31  1  0.16494667  0.54358986  0.92742569  1
