# generated using pymatgen
data_Rb2MgO2
_symmetry_space_group_name_H-M   'P 1'
_cell_length_a   10.94802137
_cell_length_b   6.32481516
_cell_length_c   5.48372496
_cell_angle_alpha   90.00000000
_cell_angle_beta   90.00000000
_cell_angle_gamma   90.00000000
_symmetry_Int_Tables_number   1
_chemical_formula_structural   Rb2MgO2
_chemical_formula_sum   'Rb8 Mg4 O8'
_cell_volume   379.71621112
_cell_formula_units_Z   4
loop_
 _symmetry_equiv_pos_site_id
 _symmetry_equiv_pos_as_xyz
  1  'x, y, z'
loop_
 _atom_site_type_symbol
 _atom_site_label
 _atom_site_symmetry_multiplicity
 _atom_site_fract_x
 _atom_site_fract_y
 _atom_site_fract_z
 _atom_site_occupancy
  Rb  Rb0  1  0.15444758  0.36002080  0.50171253  1
  Rb  Rb1  1  0.15444758  0.63997920  0.00171253  1
  Rb  Rb2  1  0.34555242  0.13997920  0.00171253  1
  Rb  Rb3  1  0.34555242  0.86002080  0.50171253  1
  Rb  Rb4  1  0.65444758  0.13997920  0.49828747  1
  Rb  Rb5  1  0.65444758  0.86002080  0.99828747  1
  Rb  Rb6  1  0.84555242  0.36002080  0.99828747  1
  Rb  Rb7  1  0.84555242  0.63997920  0.49828747  1
  Mg  Mg8  1  -0.00000000  0.00039336  0.25000000  1
  Mg  Mg9  1  -0.00000000  0.99960664  0.75000000  1
  Mg  Mg10  1  0.50000000  0.49960664  0.75000000  1
  Mg  Mg11  1  0.50000000  0.50039336  0.25000000  1
  O  O12  1  0.09093448  0.16905355  0.99981736  1
  O  O13  1  0.09093448  0.83094645  0.49981736  1
  O  O14  1  0.40906552  0.33094645  0.49981736  1
  O  O15  1  0.40906552  0.66905355  0.99981736  1
  O  O16  1  0.59093448  0.33094645  0.00018264  1
  O  O17  1  0.59093448  0.66905355  0.50018264  1
  O  O18  1  0.90906552  0.16905355  0.50018264  1
  O  O19  1  0.90906552  0.83094645  0.00018264  1
