# generated using pymatgen
data_Sr3InNiO6
_symmetry_space_group_name_H-M   'P 1'
_cell_length_a   6.62373528
_cell_length_b   9.36295882
_cell_length_c   9.65564128
_cell_angle_alpha   90.00073211
_cell_angle_beta   90.00120482
_cell_angle_gamma   93.45460241
_symmetry_Int_Tables_number   1
_chemical_formula_structural   Sr3InNiO6
_chemical_formula_sum   'Sr12 In4 Ni4 O24'
_cell_volume   597.73310534
_cell_formula_units_Z   4
loop_
 _symmetry_equiv_pos_site_id
 _symmetry_equiv_pos_as_xyz
  1  'x, y, z'
loop_
 _atom_site_type_symbol
 _atom_site_label
 _atom_site_symmetry_multiplicity
 _atom_site_fract_x
 _atom_site_fract_y
 _atom_site_fract_z
 _atom_site_occupancy
  Sr  Sr0  1  0.61543168  0.55768766  0.68558738  1
  Sr  Sr1  1  0.62352873  0.07316716  0.18586273  1
  Sr  Sr2  1  0.88461307  0.44233629  0.18561342  1
  Sr  Sr3  1  0.87645376  0.92684094  0.68583104  1
  Sr  Sr4  1  0.25914567  0.75558770  0.12899167  1
  Sr  Sr5  1  0.24085215  0.24440839  0.62903413  1
  Sr  Sr6  1  0.11540778  0.55766375  0.81438842  1
  Sr  Sr7  1  0.12352747  0.07316350  0.31416650  1
  Sr  Sr8  1  0.74084294  0.24440796  0.87100783  1
  Sr  Sr9  1  0.75916312  0.75559340  0.37096170  1
  Sr  Sr10  1  0.38460549  0.44231593  0.31441013  1
  Sr  Sr11  1  0.37643433  0.92683277  0.81413954  1
  In  In12  1  0.24558769  0.25152826  0.99794154  1
  In  In13  1  0.25443689  0.74846763  0.49788986  1
  In  In14  1  0.75438455  0.74846327  0.00206780  1
  In  In15  1  0.74558582  0.25154871  0.50208701  1
  Ni  Ni16  1  0.50000161  0.00000926  0.49999630  1
  Ni  Ni17  1  0.99997321  0.99999957  0.00000722  1
  Ni  Ni18  1  0.50000614  0.49999127  -0.00000214  1
  Ni  Ni19  1  0.00002738  0.50000200  0.50000202  1
  O  O20  1  0.53767306  0.32061851  0.09630917  1
  O  O21  1  0.54009653  0.80029878  0.59930168  1
  O  O22  1  0.22464004  0.48148985  0.06245294  1
  O  O23  1  0.21629360  0.97234841  0.56258119  1
  O  O24  1  0.39889999  0.36636461  0.83036928  1
  O  O25  1  0.41940502  0.89050723  0.34071764  1
  O  O26  1  0.03999427  0.80026589  0.90060184  1
  O  O27  1  0.03773905  0.32067916  0.40374855  1
  O  O28  1  0.89886801  0.36636001  0.66966354  1
  O  O29  1  0.91936953  0.89045854  0.15926585  1
  O  O30  1  0.72464372  0.48146561  0.43751102  1
  O  O31  1  0.71630954  0.97241551  0.93745636  1
  O  O32  1  0.46232023  0.67936953  0.90368657  1
  O  O33  1  0.45991887  0.19971333  0.40068887  1
  O  O34  1  0.77536204  0.51849710  0.93755230  1
  O  O35  1  0.78370267  0.02766709  0.43740499  1
  O  O36  1  0.60109476  0.63362345  0.16963615  1
  O  O37  1  0.58059671  0.10949263  0.65926459  1
  O  O38  1  0.95997604  0.19973232  0.09941362  1
  O  O39  1  0.96230669  0.67932909  0.59625274  1
  O  O40  1  0.10115676  0.63363519  0.33033505  1
  O  O41  1  0.08059560  0.10952959  0.84075117  1
  O  O42  1  0.27540982  0.51854486  0.56248820  1
  O  O43  1  0.28361698  0.02757628  0.06256657  1
