# generated using pymatgen
data_K2WSe4
_symmetry_space_group_name_H-M   'P 1'
_cell_length_a   7.20810261
_cell_length_b   9.83364415
_cell_length_c   12.69107548
_cell_angle_alpha   90.00000000
_cell_angle_beta   90.00000000
_cell_angle_gamma   90.00000000
_symmetry_Int_Tables_number   1
_chemical_formula_structural   K2WSe4
_chemical_formula_sum   'K8 W4 Se16'
_cell_volume   899.56774693
_cell_formula_units_Z   4
loop_
 _symmetry_equiv_pos_site_id
 _symmetry_equiv_pos_as_xyz
  1  'x, y, z'
loop_
 _atom_site_type_symbol
 _atom_site_label
 _atom_site_symmetry_multiplicity
 _atom_site_fract_x
 _atom_site_fract_y
 _atom_site_fract_z
 _atom_site_occupancy
  K  K0  1  0.75000000  0.04960189  0.15650786  1
  K  K1  1  0.25000000  0.95039811  0.84349214  1
  K  K2  1  0.75000000  0.54960189  0.34349214  1
  K  K3  1  0.25000000  0.45039811  0.65650786  1
  K  K4  1  0.75000000  0.34458475  0.88623980  1
  K  K5  1  0.25000000  0.65541525  0.11376020  1
  K  K6  1  0.75000000  0.84458475  0.61376020  1
  K  K7  1  0.25000000  0.15541525  0.38623980  1
  W  W8  1  0.75000000  0.75239441  0.93343109  1
  W  W9  1  0.25000000  0.74760559  0.43343109  1
  W  W10  1  0.75000000  0.25239441  0.56656891  1
  W  W11  1  0.25000000  0.24760559  0.06656891  1
  Se  Se12  1  0.25000000  0.27919869  0.88523483  1
  Se  Se13  1  0.25000000  0.77919869  0.61476517  1
  Se  Se14  1  0.75000000  0.22080131  0.38523483  1
  Se  Se15  1  0.75000000  0.48280449  0.61132204  1
  Se  Se16  1  0.75000000  0.98280449  0.88867796  1
  Se  Se17  1  0.25000000  0.01719551  0.11132204  1
  Se  Se18  1  0.49230282  0.14672961  0.63725224  1
  Se  Se19  1  0.25000000  0.51719551  0.38867796  1
  Se  Se20  1  0.00769718  0.64672961  0.86274776  1
  Se  Se21  1  0.50769718  0.35327039  0.13725224  1
  Se  Se22  1  0.00769718  0.14672961  0.63725224  1
  Se  Se23  1  0.99230282  0.85327039  0.36274776  1
  Se  Se24  1  0.99230282  0.35327039  0.13725224  1
  Se  Se25  1  0.49230282  0.64672961  0.86274776  1
  Se  Se26  1  0.50769718  0.85327039  0.36274776  1
  Se  Se27  1  0.75000000  0.72080131  0.11476517  1
