# generated using pymatgen
data_La9Al5Se21
_symmetry_space_group_name_H-M   'P 1'
_cell_length_a   12.36599353
_cell_length_b   12.36599441
_cell_length_c   12.36599441
_cell_angle_alpha   95.21049005
_cell_angle_beta   95.21049363
_cell_angle_gamma   95.21049377
_symmetry_Int_Tables_number   1
_chemical_formula_structural   La9Al5Se21
_chemical_formula_sum   'La18 Al10 Se42'
_cell_volume   1866.00612293
_cell_formula_units_Z   2
loop_
 _symmetry_equiv_pos_site_id
 _symmetry_equiv_pos_as_xyz
  1  'x, y, z'
loop_
 _atom_site_type_symbol
 _atom_site_label
 _atom_site_symmetry_multiplicity
 _atom_site_fract_x
 _atom_site_fract_y
 _atom_site_fract_z
 _atom_site_occupancy
  La  La0  1  0.11459205  0.88144268  0.74127305  1
  La  La1  1  0.45475356  0.22459112  0.07438501  1
  La  La2  1  0.76855830  0.55279347  0.39826862  1
  La  La3  1  0.39826862  0.76855830  0.55279347  1
  La  La4  1  0.74127305  0.11459205  0.88144268  1
  La  La5  1  0.07438501  0.45475356  0.22459112  1
  La  La6  1  0.22459112  0.07438501  0.45475356  1
  La  La7  1  0.55279347  0.39826862  0.76855830  1
  La  La8  1  0.88144268  0.74127305  0.11459205  1
  La  La9  1  0.20770915  0.43495013  0.58228032  1
  La  La10  1  0.55085852  0.77878346  0.93040519  1
  La  La11  1  0.87572115  0.10202338  0.24701655  1
  La  La12  1  0.93040519  0.55085852  0.77878346  1
  La  La13  1  0.24701655  0.87572115  0.10202338  1
  La  La14  1  0.58228032  0.20770915  0.43495013  1
  La  La15  1  0.10202338  0.24701655  0.87572115  1
  La  La16  1  0.43495013  0.58228032  0.20770915  1
  La  La17  1  0.77878346  0.93040519  0.55085852  1
  Al  Al18  1  0.72074145  0.38742877  0.04693048  1
  Al  Al19  1  0.04693048  0.72074145  0.38742877  1
  Al  Al20  1  0.38742877  0.04693048  0.72074145  1
  Al  Al21  1  0.88174656  0.22511951  0.54780561  1
  Al  Al22  1  0.22511951  0.54780561  0.88174656  1
  Al  Al23  1  0.54780561  0.88174656  0.22511951  1
  Al  Al24  1  0.85497138  0.85497138  0.85497138  1
  Al  Al25  1  0.16814954  0.16814954  0.16814954  1
  Al  Al26  1  0.67016645  0.67016645  0.67016645  1
  Al  Al27  1  0.35299827  0.35299827  0.35299827  1
  Se  Se28  1  0.84016189  0.50869150  0.17101719  1
  Se  Se29  1  0.17101719  0.84016189  0.50869150  1
  Se  Se30  1  0.50869150  0.17101719  0.84016189  1
  Se  Se31  1  0.67286507  0.00572878  0.34055216  1
  Se  Se32  1  0.00572878  0.34055216  0.67286507  1
  Se  Se33  1  0.34055216  0.67286507  0.00572878  1
  Se  Se34  1  0.54521860  0.44946092  0.01160763  1
  Se  Se35  1  0.87308301  0.78546906  0.35759371  1
  Se  Se36  1  0.20934368  0.10760627  0.69500170  1
  Se  Se37  1  0.69500170  0.20934368  0.10760627  1
  Se  Se38  1  0.01160763  0.54521860  0.44946092  1
  Se  Se39  1  0.35759371  0.87308301  0.78546906  1
  Se  Se40  1  0.78546906  0.35759371  0.87308301  1
  Se  Se41  1  0.10760627  0.69500170  0.20934368  1
  Se  Se42  1  0.44946092  0.01160763  0.54521860  1
  Se  Se43  1  0.96517151  0.06965622  0.48101061  1
  Se  Se44  1  0.29995046  0.38800831  0.81418636  1
  Se  Se45  1  0.63088021  0.72294594  0.16256981  1
  Se  Se46  1  0.81418636  0.29995046  0.38800831  1
  Se  Se47  1  0.16256981  0.63088021  0.72294594  1
  Se  Se48  1  0.48101061  0.96517151  0.06965622  1
  Se  Se49  1  0.72294594  0.16256981  0.63088021  1
  Se  Se50  1  0.06965622  0.48101061  0.96517151  1
  Se  Se51  1  0.38800831  0.81418636  0.29995046  1
  Se  Se52  1  0.54845250  0.40284572  0.30782813  1
  Se  Se53  1  0.88816593  0.75563847  0.66496472  1
  Se  Se54  1  0.23266046  0.09309791  0.99684142  1
  Se  Se55  1  0.99684142  0.23266046  0.09309791  1
  Se  Se56  1  0.30782813  0.54845250  0.40284572  1
  Se  Se57  1  0.66496472  0.88816593  0.75563847  1
  Se  Se58  1  0.75563847  0.66496472  0.88816593  1
  Se  Se59  1  0.09309791  0.99684142  0.23266046  1
  Se  Se60  1  0.40284572  0.30782813  0.54845250  1
  Se  Se61  1  0.14809465  0.28159568  0.37065792  1
  Se  Se62  1  0.48612793  0.62043262  0.72189823  1
  Se  Se63  1  0.79205633  0.94060462  0.03322146  1
  Se  Se64  1  0.72189823  0.48612793  0.62043262  1
  Se  Se65  1  0.03322146  0.79205633  0.94060462  1
  Se  Se66  1  0.37065792  0.14809465  0.28159568  1
  Se  Se67  1  0.94060462  0.03322146  0.79205633  1
  Se  Se68  1  0.28159568  0.37065792  0.14809465  1
  Se  Se69  1  0.62043262  0.72189823  0.48612793  1
