# generated using pymatgen
data_BaSrMn2Al9PbO20
_symmetry_space_group_name_H-M   'P 1'
_cell_length_a   4.96536384
_cell_length_b   9.58057707
_cell_length_c   9.68264900
_cell_angle_alpha   72.38635948
_cell_angle_beta   75.51661574
_cell_angle_gamma   74.77277004
_symmetry_Int_Tables_number   1
_chemical_formula_structural   BaSrMn2Al9PbO20
_chemical_formula_sum   'Ba1 Sr1 Mn2 Al9 Pb1 O20'
_cell_volume   416.25208405
_cell_formula_units_Z   1
loop_
 _symmetry_equiv_pos_site_id
 _symmetry_equiv_pos_as_xyz
  1  'x, y, z'
loop_
 _atom_site_type_symbol
 _atom_site_label
 _atom_site_symmetry_multiplicity
 _atom_site_fract_x
 _atom_site_fract_y
 _atom_site_fract_z
 _atom_site_occupancy
  Ba  Ba0  1  0.99329304  0.00455093  0.99924942  1
  Sr  Sr1  1  0.27707041  0.71554929  0.72794525  1
  Mn  Mn2  1  0.00585679  0.50233984  0.49447629  1
  Mn  Mn3  1  0.49686510  0.36309275  0.63386481  1
  Al  Al4  1  0.37260849  0.00794802  0.28844911  1
  Al  Al5  1  0.35411467  0.28682321  0.01638922  1
  Al  Al6  1  0.63617447  0.98541969  0.71322429  1
  Al  Al7  1  0.62618422  0.71485893  0.99125393  1
  Al  Al8  1  0.90342547  0.84790577  0.42867814  1
  Al  Al9  1  0.88353006  0.42686078  0.85035059  1
  Al  Al10  1  0.10718002  0.14592515  0.57308409  1
  Al  Al11  1  0.09688800  0.57680525  0.15578515  1
  Al  Al12  1  0.50808531  0.63786532  0.36131318  1
  Pb  Pb13  1  0.76111279  0.27865146  0.27691283  1
  O  O14  1  0.86375322  0.87370166  0.60304216  1
  O  O15  1  0.83704369  0.60440187  0.87492405  1
  O  O16  1  0.13859340  0.12042954  0.39889532  1
  O  O17  1  0.13018658  0.40064525  0.12798422  1
  O  O18  1  0.24297256  0.30778813  0.54746695  1
  O  O19  1  0.24903609  0.55736173  0.30971046  1
  O  O20  1  0.75710406  0.69037841  0.45069663  1
  O  O21  1  0.75913752  0.45140294  0.68425026  1
  O  O22  1  0.28585705  0.00020523  0.69700097  1
  O  O23  1  0.27384888  0.69946099  0.00824826  1
  O  O24  1  0.72618635  0.98751603  0.29948243  1
  O  O25  1  0.70583679  0.30096996  0.98971126  1
  O  O26  1  0.74151701  0.16275811  0.66100116  1
  O  O27  1  0.73015851  0.67013317  0.16666784  1
  O  O28  1  0.27186298  0.82965158  0.34415852  1
  O  O29  1  0.24275227  0.33729905  0.84550261  1
  O  O30  1  0.76350535  0.44654416  0.41273011  1
  O  O31  1  0.27388465  0.56369496  0.56121391  1
  O  O32  1  0.65529150  0.89881869  0.89755752  1
  O  O33  1  0.32908268  0.10224218  0.10877807  1
