# generated using pymatgen
data_KMg14GaO16
_symmetry_space_group_name_H-M   'P 1'
_cell_length_a   8.65787769
_cell_length_b   8.53841498
_cell_length_c   4.40304657
_cell_angle_alpha   90.00000000
_cell_angle_beta   90.00000000
_cell_angle_gamma   90.00000000
_symmetry_Int_Tables_number   1
_chemical_formula_structural   KMg14GaO16
_chemical_formula_sum   'K1 Mg14 Ga1 O16'
_cell_volume   325.49324760
_cell_formula_units_Z   1
loop_
 _symmetry_equiv_pos_site_id
 _symmetry_equiv_pos_as_xyz
  1  'x, y, z'
loop_
 _atom_site_type_symbol
 _atom_site_label
 _atom_site_symmetry_multiplicity
 _atom_site_fract_x
 _atom_site_fract_y
 _atom_site_fract_z
 _atom_site_occupancy
  K  K0  1  -0.00000000  -0.00000000  -0.00000000  1
  Mg  Mg1  1  0.50000000  -0.00000000  -0.00000000  1
  Mg  Mg2  1  0.50000000  0.50000000  -0.00000000  1
  Mg  Mg3  1  -0.00000000  0.24707840  0.50000000  1
  Mg  Mg4  1  -0.00000000  0.75292160  0.50000000  1
  Mg  Mg5  1  0.50000000  0.24852717  0.50000000  1
  Mg  Mg6  1  0.50000000  0.75147283  0.50000000  1
  Mg  Mg7  1  0.25214951  -0.00000000  0.50000000  1
  Mg  Mg8  1  0.25160336  0.50000000  0.50000000  1
  Mg  Mg9  1  0.74785049  -0.00000000  0.50000000  1
  Mg  Mg10  1  0.74839664  0.50000000  0.50000000  1
  Mg  Mg11  1  0.25566346  0.24776384  -0.00000000  1
  Mg  Mg12  1  0.25566346  0.75223616  0.00000000  1
  Mg  Mg13  1  0.74433654  0.24776384  -0.00000000  1
  Mg  Mg14  1  0.74433654  0.75223616  0.00000000  1
  Ga  Ga15  1  -0.00000000  0.50000000  -0.00000000  1
  O  O16  1  0.27471867  -0.00000000  -0.00000000  1
  O  O17  1  0.24758951  0.50000000  -0.00000000  1
  O  O18  1  0.72528133  -0.00000000  -0.00000000  1
  O  O19  1  0.75241049  0.50000000  -0.00000000  1
  O  O20  1  0.24890422  0.25131910  0.50000000  1
  O  O21  1  0.24890422  0.74868090  0.50000000  1
  O  O22  1  0.75109578  0.25131910  0.50000000  1
  O  O23  1  0.75109578  0.74868090  0.50000000  1
  O  O24  1  -0.00000000  -0.00000000  0.50000000  1
  O  O25  1  -0.00000000  0.50000000  0.50000000  1
  O  O26  1  0.50000000  -0.00000000  0.50000000  1
  O  O27  1  0.50000000  0.50000000  0.50000000  1
  O  O28  1  -0.00000000  0.28186252  -0.00000000  1
  O  O29  1  -0.00000000  0.71813748  0.00000000  1
  O  O30  1  0.50000000  0.25758854  -0.00000000  1
  O  O31  1  0.50000000  0.74241146  0.00000000  1
