# generated using pymatgen
data_Na3GdTi2Nb2O12
_symmetry_space_group_name_H-M   'P 1'
_cell_length_a   5.41770198
_cell_length_b   5.52670858
_cell_length_c   7.73739208
_cell_angle_alpha   89.99305387
_cell_angle_beta   89.94113355
_cell_angle_gamma   89.62733593
_symmetry_Int_Tables_number   1
_chemical_formula_structural   Na3GdTi2Nb2O12
_chemical_formula_sum   'Na3 Gd1 Ti2 Nb2 O12'
_cell_volume   231.66843384
_cell_formula_units_Z   1
loop_
 _symmetry_equiv_pos_site_id
 _symmetry_equiv_pos_as_xyz
  1  'x, y, z'
loop_
 _atom_site_type_symbol
 _atom_site_label
 _atom_site_symmetry_multiplicity
 _atom_site_fract_x
 _atom_site_fract_y
 _atom_site_fract_z
 _atom_site_occupancy
  Na  Na0  1  0.49951353  0.52547506  0.74856268  1
  Na  Na1  1  0.99703375  0.00949716  0.75202189  1
  Na  Na2  1  0.51004063  0.46053413  0.25037812  1
  Gd  Gd3  1  0.99130695  0.94254842  0.25027914  1
  Ti  Ti4  1  0.49389484  0.98564917  0.00577026  1
  Ti  Ti5  1  0.00733268  0.48182873  0.49684183  1
  Nb  Nb6  1  0.49591197  0.99363927  0.51169072  1
  Nb  Nb7  1  0.00641064  0.48193078  0.98776701  1
  O  O8  1  0.56741842  0.97772233  0.75424245  1
  O  O9  1  0.92205316  0.49743542  0.74557829  1
  O  O10  1  0.41137468  0.03205914  0.24691636  1
  O  O11  1  0.07582666  0.52327593  0.25235872  1
  O  O12  1  0.20106192  0.80677903  0.97771812  1
  O  O13  1  0.29348929  0.30447975  0.53845363  1
  O  O14  1  0.80191392  0.21192263  0.45400161  1
  O  O15  1  0.71398293  0.72925398  0.05159975  1
  O  O16  1  0.79775786  0.20714772  0.04578363  1
  O  O17  1  0.71814077  0.72680329  0.44819771  1
  O  O18  1  0.19661664  0.80442446  0.52377652  1
  O  O19  1  0.29891877  0.29759260  0.95806156  1
