# generated using pymatgen
data_AlRhO3
_symmetry_space_group_name_H-M   'P 1'
_cell_length_a   3.11712648
_cell_length_b   3.11712648
_cell_length_c   11.75262546
_cell_angle_alpha   90.00000000
_cell_angle_beta   90.00000000
_cell_angle_gamma   119.99999839
_symmetry_Int_Tables_number   1
_chemical_formula_structural   AlRhO3
_chemical_formula_sum   'Al2 Rh2 O6'
_cell_volume   98.89501140
_cell_formula_units_Z   2
loop_
 _symmetry_equiv_pos_site_id
 _symmetry_equiv_pos_as_xyz
  1  'x, y, z'
loop_
 _atom_site_type_symbol
 _atom_site_label
 _atom_site_symmetry_multiplicity
 _atom_site_fract_x
 _atom_site_fract_y
 _atom_site_fract_z
 _atom_site_occupancy
  Al  Al0  1  0.33333300  0.66666700  0.25000000  1
  Al  Al1  1  0.66666700  0.33333300  0.75000000  1
  Rh  Rh2  1  0.00000000  -0.00000000  -0.00000000  1
  Rh  Rh3  1  0.00000000  -0.00000000  0.50000000  1
  O  O4  1  0.33333300  0.66666700  0.08633480  1
  O  O5  1  0.00000000  -0.00000000  0.25000000  1
  O  O6  1  0.33333300  0.66666700  0.41366520  1
  O  O7  1  -0.00000000  0.00000000  0.75000000  1
  O  O8  1  0.66666700  0.33333300  0.58633480  1
  O  O9  1  0.66666700  0.33333300  0.91366520  1
