# generated using pymatgen
data_TeF6
_symmetry_space_group_name_H-M   'P 1'
_cell_length_a   5.43695288
_cell_length_b   5.43695324
_cell_length_c   5.43695411
_cell_angle_alpha   54.94648069
_cell_angle_beta   54.94645633
_cell_angle_gamma   54.94645936
_symmetry_Int_Tables_number   1
_chemical_formula_structural   TeF6
_chemical_formula_sum   'Te1 F6'
_cell_volume   100.27998630
_cell_formula_units_Z   1
loop_
 _symmetry_equiv_pos_site_id
 _symmetry_equiv_pos_as_xyz
  1  'x, y, z'
loop_
 _atom_site_type_symbol
 _atom_site_label
 _atom_site_symmetry_multiplicity
 _atom_site_fract_x
 _atom_site_fract_y
 _atom_site_fract_z
 _atom_site_occupancy
  Te  Te0  1  0.00000000  -0.00000000  -0.00000000  1
  F  F1  1  0.37178875  0.08436472  0.77414496  1
  F  F2  1  0.08436472  0.77414496  0.37178875  1
  F  F3  1  0.22585504  0.62821125  0.91563528  1
  F  F4  1  0.91563528  0.22585504  0.62821125  1
  F  F5  1  0.62821125  0.91563528  0.22585504  1
  F  F6  1  0.77414496  0.37178875  0.08436472  1
