# generated using pymatgen
data_W3(SeS2)2
_symmetry_space_group_name_H-M   'P 1'
_cell_length_a   3.22621209
_cell_length_b   3.22621074
_cell_length_c   29.16796423
_cell_angle_alpha   89.99996049
_cell_angle_beta   89.99998815
_cell_angle_gamma   119.99998491
_symmetry_Int_Tables_number   1
_chemical_formula_structural   W3(SeS2)2
_chemical_formula_sum   'W3 Se2 S4'
_cell_volume   262.91929747
_cell_formula_units_Z   1
loop_
 _symmetry_equiv_pos_site_id
 _symmetry_equiv_pos_as_xyz
  1  'x, y, z'
loop_
 _atom_site_type_symbol
 _atom_site_label
 _atom_site_symmetry_multiplicity
 _atom_site_fract_x
 _atom_site_fract_y
 _atom_site_fract_z
 _atom_site_occupancy
  W  W0  1  0.00000131  0.00000046  0.76882393  1
  W  W1  1  0.00000051  -0.00000009  0.23117924  1
  W  W2  1  0.33333165  0.66666682  -0.00000255  1
  Se  Se3  1  -0.00000245  -0.00000079  0.05821728  1
  Se  Se4  1  -0.00000172  0.00000148  0.94177752  1
  S  S5  1  0.33333404  0.66666743  0.71585602  1
  S  S6  1  0.33333405  0.66666668  0.17819467  1
  S  S7  1  0.33333402  0.66666691  0.82180884  1
  S  S8  1  0.33333360  0.66666610  0.28414606  1
