# generated using pymatgen
data_LaNO4
_symmetry_space_group_name_H-M   'P 1'
_cell_length_a   4.02485921
_cell_length_b   4.77072204
_cell_length_c   8.02679616
_cell_angle_alpha   90.00000000
_cell_angle_beta   90.00000000
_cell_angle_gamma   90.00000000
_symmetry_Int_Tables_number   1
_chemical_formula_structural   LaNO4
_chemical_formula_sum   'La2 N2 O8'
_cell_volume   154.12640238
_cell_formula_units_Z   2
loop_
 _symmetry_equiv_pos_site_id
 _symmetry_equiv_pos_as_xyz
  1  'x, y, z'
loop_
 _atom_site_type_symbol
 _atom_site_label
 _atom_site_symmetry_multiplicity
 _atom_site_fract_x
 _atom_site_fract_y
 _atom_site_fract_z
 _atom_site_occupancy
  La  La0  1  0.75000000  0.75000000  0.13029462  1
  La  La1  1  0.25000000  0.25000000  0.86970538  1
  N  N2  1  0.75000000  0.75000000  0.63100817  1
  N  N3  1  0.25000000  0.25000000  0.36899183  1
  O  O4  1  0.75000000  0.75000000  0.47763891  1
  O  O5  1  0.25000000  0.25000000  0.52236109  1
  O  O6  1  0.25000000  0.75000000  0.97196117  1
  O  O7  1  0.75000000  0.25000000  0.02803883  1
  O  O8  1  0.25000000  0.47712921  0.28748240  1
  O  O9  1  0.25000000  0.02287079  0.28748240  1
  O  O10  1  0.75000000  0.52287079  0.71251760  1
  O  O11  1  0.75000000  0.97712921  0.71251760  1
