# generated using pymatgen
data_CeSe2
_symmetry_space_group_name_H-M   'P 1'
_cell_length_a   11.78887668
_cell_length_b   13.67318747
_cell_length_c   13.67318747
_cell_angle_alpha   119.99999936
_cell_angle_beta   90.00000000
_cell_angle_gamma   90.00000000
_symmetry_Int_Tables_number   1
_chemical_formula_structural   CeSe2
_chemical_formula_sum   'Ce12 Se24'
_cell_volume   1908.72163321
_cell_formula_units_Z   12
loop_
 _symmetry_equiv_pos_site_id
 _symmetry_equiv_pos_as_xyz
  1  'x, y, z'
loop_
 _atom_site_type_symbol
 _atom_site_label
 _atom_site_symmetry_multiplicity
 _atom_site_fract_x
 _atom_site_fract_y
 _atom_site_fract_z
 _atom_site_occupancy
  Ce  Ce0  1  0.07639737  0.04917288  0.70706531  1
  Ce  Ce1  1  0.07639737  0.29293469  0.34210757  1
  Ce  Ce2  1  0.07639737  0.65789243  0.95082712  1
  Ce  Ce3  1  0.57639737  0.95082712  0.65789243  1
  Ce  Ce4  1  0.57639737  0.34210757  0.29293469  1
  Ce  Ce5  1  0.57639737  0.70706531  0.04917288  1
  Ce  Ce6  1  0.92360263  0.95082712  0.29293469  1
  Ce  Ce7  1  0.92360263  0.70706531  0.65789243  1
  Ce  Ce8  1  0.92360263  0.34210757  0.04917288  1
  Ce  Ce9  1  0.42360263  0.04917288  0.34210757  1
  Ce  Ce10  1  0.42360263  0.65789243  0.70706531  1
  Ce  Ce11  1  0.42360263  0.29293469  0.95082712  1
  Se  Se12  1  0.10041113  0.84537878  0.69481213  1
  Se  Se13  1  0.10041113  0.30518787  0.15056665  1
  Se  Se14  1  0.10041113  0.84943335  0.15462122  1
  Se  Se15  1  0.60041113  0.15462122  0.84943335  1
  Se  Se16  1  0.60041113  0.15056665  0.30518787  1
  Se  Se17  1  0.60041113  0.69481213  0.84537878  1
  Se  Se18  1  0.89958887  0.15462122  0.30518787  1
  Se  Se19  1  0.89958887  0.69481213  0.84943335  1
  Se  Se20  1  0.89958887  0.15056665  0.84537878  1
  Se  Se21  1  0.39958887  0.84537878  0.15056665  1
  Se  Se22  1  0.39958887  0.84943335  0.69481213  1
  Se  Se23  1  0.39958887  0.30518787  0.15462122  1
  Se  Se24  1  0.25000000  0.59951668  0.79975834  1
  Se  Se25  1  0.25000000  0.20024166  0.79975834  1
  Se  Se26  1  0.25000000  0.20024166  0.40048332  1
  Se  Se27  1  0.75000000  0.40048332  0.20024166  1
  Se  Se28  1  0.75000000  0.79975834  0.20024166  1
  Se  Se29  1  0.75000000  0.79975834  0.59951668  1
  Se  Se30  1  0.00000000  -0.00000000  0.50000000  1
  Se  Se31  1  0.00000000  0.50000000  0.50000000  1
  Se  Se32  1  0.00000000  0.50000000  0.00000000  1
  Se  Se33  1  0.50000000  -0.00000000  0.50000000  1
  Se  Se34  1  0.50000000  0.50000000  0.50000000  1
  Se  Se35  1  0.50000000  0.50000000  0.00000000  1
