# generated using pymatgen
data_Bi7O5F11
_symmetry_space_group_name_H-M   'P 1'
_cell_length_a   7.26683796
_cell_length_b   7.26683796
_cell_length_c   9.14882979
_cell_angle_alpha   84.79899037
_cell_angle_beta   84.79899037
_cell_angle_gamma   44.59016819
_symmetry_Int_Tables_number   1
_chemical_formula_structural   Bi7O5F11
_chemical_formula_sum   'Bi7 O5 F11'
_cell_volume   337.53455472
_cell_formula_units_Z   1
loop_
 _symmetry_equiv_pos_site_id
 _symmetry_equiv_pos_as_xyz
  1  'x, y, z'
loop_
 _atom_site_type_symbol
 _atom_site_label
 _atom_site_symmetry_multiplicity
 _atom_site_fract_x
 _atom_site_fract_y
 _atom_site_fract_z
 _atom_site_occupancy
  Bi  Bi0  1  0.56969640  0.56986081  0.78860569  1
  Bi  Bi1  1  0.43013919  0.43030360  0.21139431  1
  Bi  Bi2  1  0.31890128  0.29408741  0.63995382  1
  Bi  Bi3  1  0.70591259  0.68109872  0.36004618  1
  Bi  Bi4  1  0.10254843  0.89745157  0.50000000  1
  Bi  Bi5  1  0.95429509  0.79307772  0.92120201  1
  Bi  Bi6  1  0.20692228  0.04570491  0.07879799  1
  O  O7  1  0.29630292  0.70369708  -0.00000000  1
  O  O8  1  0.22444141  0.65805144  0.72465435  1
  O  O9  1  0.34194856  0.77555859  0.27534565  1
  O  O10  1  0.48367353  0.73291055  0.55196417  1
  O  O11  1  0.26708945  0.51632647  0.44803583  1
  F  F12  1  0.80266691  0.19733309  -0.00000000  1
  F  F13  1  0.71624994  0.16506859  0.71865281  1
  F  F14  1  0.83493141  0.28375006  0.28134719  1
  F  F15  1  0.68633568  0.96084052  0.48103879  1
  F  F16  1  0.03915948  0.31366432  0.51896121  1
  F  F17  1  0.64214087  0.73784899  0.03637041  1
  F  F18  1  0.26215101  0.35785913  0.96362959  1
  F  F19  1  0.27516205  0.01063724  0.80984632  1
  F  F20  1  0.98936276  0.72483795  0.19015368  1
  F  F21  1  0.89120899  0.61643921  0.74304978  1
  F  F22  1  0.38356079  0.10879101  0.25695022  1
