# generated using pymatgen
data_TbTaO4
_symmetry_space_group_name_H-M   'P 1'
_cell_length_a   5.13315245
_cell_length_b   5.32338177
_cell_length_c   5.46309981
_cell_angle_alpha   90.00000000
_cell_angle_beta   90.00000000
_cell_angle_gamma   96.52137820
_symmetry_Int_Tables_number   1
_chemical_formula_structural   TbTaO4
_chemical_formula_sum   'Tb2 Ta2 O8'
_cell_volume   148.31726142
_cell_formula_units_Z   2
loop_
 _symmetry_equiv_pos_site_id
 _symmetry_equiv_pos_as_xyz
  1  'x, y, z'
loop_
 _atom_site_type_symbol
 _atom_site_label
 _atom_site_symmetry_multiplicity
 _atom_site_fract_x
 _atom_site_fract_y
 _atom_site_fract_z
 _atom_site_occupancy
  Tb  Tb0  1  -0.00000000  0.75000000  0.76527889  1
  Tb  Tb1  1  -0.00000000  0.25000000  0.23472111  1
  Ta  Ta2  1  0.50000000  0.25000000  0.69478209  1
  Ta  Ta3  1  0.50000000  0.75000000  0.30521791  1
  O  O4  1  0.73181413  0.00917301  0.56215080  1
  O  O5  1  0.26818587  0.49082699  0.56215080  1
  O  O6  1  0.26818587  0.99082699  0.43784920  1
  O  O7  1  0.73181413  0.50917301  0.43784920  1
  O  O8  1  0.25177374  0.59972754  0.08297829  1
  O  O9  1  0.74822626  0.90027246  0.08297829  1
  O  O10  1  0.74822626  0.40027246  0.91702171  1
  O  O11  1  0.25177374  0.09972754  0.91702171  1
