# generated using pymatgen
data_YAgS2
_symmetry_space_group_name_H-M   'P 1'
_cell_length_a   7.30799456
_cell_length_b   7.30799456
_cell_length_c   7.30799405
_cell_angle_alpha   31.51272135
_cell_angle_beta   31.51272135
_cell_angle_gamma   31.51272324
_symmetry_Int_Tables_number   1
_chemical_formula_structural   YAgS2
_chemical_formula_sum   'Y1 Ag1 S2'
_cell_volume   94.66797740
_cell_formula_units_Z   1
loop_
 _symmetry_equiv_pos_site_id
 _symmetry_equiv_pos_as_xyz
  1  'x, y, z'
loop_
 _atom_site_type_symbol
 _atom_site_label
 _atom_site_symmetry_multiplicity
 _atom_site_fract_x
 _atom_site_fract_y
 _atom_site_fract_z
 _atom_site_occupancy
  Y  Y0  1  0.99961785  0.99961785  0.99961785  1
  Ag  Ag1  1  0.14862881  0.14862881  0.14862881  1
  S  S2  1  0.26581215  0.26581215  0.26581215  1
  S  S3  1  0.74494019  0.74494019  0.74494019  1
