# generated using pymatgen
data_Ba2ThS6
_symmetry_space_group_name_H-M   'P 1'
_cell_length_a   5.53901505
_cell_length_b   5.53901505
_cell_length_c   16.15255486
_cell_angle_alpha   90.00000000
_cell_angle_beta   90.00000000
_cell_angle_gamma   90.00000000
_symmetry_Int_Tables_number   1
_chemical_formula_structural   Ba2ThS6
_chemical_formula_sum   'Ba4 Th2 S12'
_cell_volume   495.57149161
_cell_formula_units_Z   2
loop_
 _symmetry_equiv_pos_site_id
 _symmetry_equiv_pos_as_xyz
  1  'x, y, z'
loop_
 _atom_site_type_symbol
 _atom_site_label
 _atom_site_symmetry_multiplicity
 _atom_site_fract_x
 _atom_site_fract_y
 _atom_site_fract_z
 _atom_site_occupancy
  Ba  Ba0  1  0.00000000  -0.00000000  0.13667476  1
  Ba  Ba1  1  0.50000000  0.50000000  0.63667476  1
  Ba  Ba2  1  0.50000000  0.50000000  0.36332524  1
  Ba  Ba3  1  -0.00000000  -0.00000000  0.86332524  1
  Th  Th4  1  -0.00000000  -0.00000000  0.50000000  1
  Th  Th5  1  0.50000000  0.50000000  -0.00000000  1
  S  S6  1  0.31214849  0.50000000  0.16751594  1
  S  S7  1  0.68785151  0.50000000  0.16751594  1
  S  S8  1  0.00000000  0.81214849  0.66751594  1
  S  S9  1  0.00000000  0.18785151  0.66751594  1
  S  S10  1  0.18785151  -0.00000000  0.33248406  1
  S  S11  1  0.81214849  -0.00000000  0.33248406  1
  S  S12  1  0.50000000  0.68785151  0.83248406  1
  S  S13  1  0.50000000  0.31214849  0.83248406  1
  S  S14  1  -0.00000000  0.50000000  0.97408883  1
  S  S15  1  -0.00000000  0.50000000  0.47408883  1
  S  S16  1  0.50000000  -0.00000000  0.52591117  1
  S  S17  1  0.50000000  -0.00000000  0.02591117  1
