# generated using pymatgen
data_Cs2Th(Si2O5)3
_symmetry_space_group_name_H-M   'P 1'
_cell_length_a   7.31475292
_cell_length_b   9.02903799
_cell_length_c   13.67658044
_cell_angle_alpha   90.00000000
_cell_angle_beta   90.00000000
_cell_angle_gamma   113.89540632
_symmetry_Int_Tables_number   1
_chemical_formula_structural   Cs2Th(Si2O5)3
_chemical_formula_sum   'Cs4 Th2 Si12 O30'
_cell_volume   825.84956006
_cell_formula_units_Z   2
loop_
 _symmetry_equiv_pos_site_id
 _symmetry_equiv_pos_as_xyz
  1  'x, y, z'
loop_
 _atom_site_type_symbol
 _atom_site_label
 _atom_site_symmetry_multiplicity
 _atom_site_fract_x
 _atom_site_fract_y
 _atom_site_fract_z
 _atom_site_occupancy
  Cs  Cs0  1  0.61708480  0.23416960  0.53706442  1
  Cs  Cs1  1  0.38291520  0.76583040  0.03706442  1
  Cs  Cs2  1  0.72729742  0.45459483  0.84482596  1
  Cs  Cs3  1  0.27270258  0.54540517  0.34482596  1
  Th  Th4  1  0.12996249  0.25992598  0.69193180  1
  Th  Th5  1  0.87003751  0.74007402  0.19193180  1
  Si  Si6  1  0.14191076  0.28382352  0.96257896  1
  Si  Si7  1  0.85808924  0.71617648  0.46257896  1
  Si  Si8  1  0.10632088  0.63000862  0.61810086  1
  Si  Si9  1  0.52368775  0.63000862  0.61810086  1
  Si  Si10  1  0.89367912  0.36999138  0.11810086  1
  Si  Si11  1  0.47631225  0.36999138  0.11810086  1
  Si  Si12  1  0.04718244  0.09436488  0.43748403  1
  Si  Si13  1  0.95281756  0.90563512  0.93748403  1
  Si  Si14  1  0.67086330  0.91056767  0.76692583  1
  Si  Si15  1  0.23970337  0.91056767  0.76692583  1
  Si  Si16  1  0.32913670  0.08943233  0.26692583  1
  Si  Si17  1  0.76029663  0.08943233  0.26692583  1
  O  O18  1  0.00103060  0.45332541  0.66435279  1
  O  O19  1  0.45229582  0.45332541  0.66435279  1
  O  O20  1  0.99896940  0.54667459  0.16435279  1
  O  O21  1  0.54770418  0.54667459  0.16435279  1
  O  O22  1  0.80470482  0.08373764  0.72255248  1
  O  O23  1  0.27903181  0.08373764  0.72255248  1
  O  O24  1  0.19529518  0.91626236  0.22255248  1
  O  O25  1  0.72096819  0.91626236  0.22255248  1
  O  O26  1  0.11020976  0.22041952  0.52517597  1
  O  O27  1  0.88979024  0.77958048  0.02517597  1
  O  O28  1  0.16829309  0.33658517  0.85122549  1
  O  O29  1  0.83170691  0.66341483  0.35122549  1
  O  O30  1  0.10322485  0.76639443  0.69389278  1
  O  O31  1  0.66316958  0.76639443  0.69389278  1
  O  O32  1  0.89677515  0.23360557  0.19389278  1
  O  O33  1  0.33683042  0.23360557  0.19389278  1
  O  O34  1  0.33666875  0.67333649  0.58616369  1
  O  O35  1  0.66333125  0.32666351  0.08616369  1
  O  O36  1  -0.00146912  0.64023940  0.51629146  1
  O  O37  1  0.64170852  0.64023940  0.51629146  1
  O  O38  1  0.00146912  0.35976060  0.01629146  1
  O  O39  1  0.35829148  0.35976060  0.01629146  1
  O  O40  1  0.87987110  0.12315191  0.37082228  1
  O  O41  1  0.24327981  0.12315191  0.37082228  1
  O  O42  1  0.12012890  0.87684809  0.87082228  1
  O  O43  1  0.75672019  0.87684809  0.87082228  1
  O  O44  1  0.95520094  0.91040187  0.47816601  1
  O  O45  1  0.04479906  0.08959813  0.97816601  1
  O  O46  1  0.44397995  0.88795990  0.79191774  1
  O  O47  1  0.55602005  0.11204010  0.29191774  1
