# generated using pymatgen
data_V2Se2O9
_symmetry_space_group_name_H-M   'P 1'
_cell_length_a   7.08569520
_cell_length_b   7.11052479
_cell_length_c   14.13472980
_cell_angle_alpha   78.20971660
_cell_angle_beta   90.00000000
_cell_angle_gamma   90.00000000
_symmetry_Int_Tables_number   1
_chemical_formula_structural   V2Se2O9
_chemical_formula_sum   'V8 Se8 O36'
_cell_volume   697.12534488
_cell_formula_units_Z   4
loop_
 _symmetry_equiv_pos_site_id
 _symmetry_equiv_pos_as_xyz
  1  'x, y, z'
loop_
 _atom_site_type_symbol
 _atom_site_label
 _atom_site_symmetry_multiplicity
 _atom_site_fract_x
 _atom_site_fract_y
 _atom_site_fract_z
 _atom_site_occupancy
  V  V0  1  0.66819645  0.03790943  0.07354710  1
  V  V1  1  0.16819645  0.96209057  0.42645290  1
  V  V2  1  0.33180355  0.96209057  0.92645290  1
  V  V3  1  0.83180355  0.03790943  0.57354710  1
  V  V4  1  0.37133585  0.61408757  0.13177932  1
  V  V5  1  0.87133585  0.38591243  0.36822068  1
  V  V6  1  0.62866415  0.38591243  0.86822068  1
  V  V7  1  0.12866415  0.61408757  0.63177932  1
  Se  Se8  1  0.81927991  0.59950828  0.12774580  1
  Se  Se9  1  0.31927991  0.40049172  0.37225420  1
  Se  Se10  1  0.18072009  0.40049172  0.87225420  1
  Se  Se11  1  0.68072009  0.59950828  0.62774580  1
  Se  Se12  1  0.22315797  0.04436494  0.13988242  1
  Se  Se13  1  0.72315797  0.95563506  0.36011758  1
  Se  Se14  1  0.77684203  0.95563506  0.86011758  1
  Se  Se15  1  0.27684203  0.04436494  0.63988242  1
  O  O16  1  0.19875436  0.09190488  0.01658246  1
  O  O17  1  0.69875436  0.90809512  0.48341754  1
  O  O18  1  0.80124564  0.90809512  0.98341754  1
  O  O19  1  0.30124564  0.09190488  0.51658246  1
  O  O20  1  0.60186213  0.49562911  0.11564588  1
  O  O21  1  0.10186213  0.50437089  0.38435412  1
  O  O22  1  0.39813787  0.50437089  0.88435412  1
  O  O23  1  0.89813787  0.49562911  0.61564588  1
  O  O24  1  0.43900595  0.81517630  0.03177168  1
  O  O25  1  0.93900595  0.18482370  0.46822832  1
  O  O26  1  0.56099405  0.18482370  0.96822832  1
  O  O27  1  0.06099405  0.81517630  0.53177168  1
  O  O28  1  0.82803007  0.17313004  0.10393647  1
  O  O29  1  0.32803007  0.82686996  0.39606353  1
  O  O30  1  0.17196993  0.82686996  0.89606353  1
  O  O31  1  0.67196993  0.17313004  0.60393647  1
  O  O32  1  0.73692878  0.80020310  0.16446433  1
  O  O33  1  0.23692878  0.19979690  0.33553567  1
  O  O34  1  0.26307122  0.19979690  0.83553567  1
  O  O35  1  0.76307122  0.80020310  0.66446433  1
  O  O36  1  0.46419506  0.06582463  0.15599437  1
  O  O37  1  0.96419506  0.93417537  0.34400563  1
  O  O38  1  0.53580494  0.93417537  0.84400563  1
  O  O39  1  0.03580494  0.06582463  0.65599437  1
  O  O40  1  0.89922855  0.46929116  0.23458509  1
  O  O41  1  0.39922855  0.53070884  0.26541491  1
  O  O42  1  0.10077145  0.53070884  0.76541491  1
  O  O43  1  0.60077145  0.46929116  0.73458509  1
  O  O44  1  0.19621836  0.79936640  0.16527368  1
  O  O45  1  0.69621836  0.20063360  0.33472632  1
  O  O46  1  0.80378164  0.20063360  0.83472632  1
  O  O47  1  0.30378164  0.79936640  0.66527368  1
  O  O48  1  0.22809810  0.47464238  0.09251542  1
  O  O49  1  0.72809810  0.52535762  0.40748458  1
  O  O50  1  0.77190190  0.52535762  0.90748458  1
  O  O51  1  0.27190190  0.47464238  0.59251542  1
