# generated using pymatgen
data_PrErS3
_symmetry_space_group_name_H-M   'P 1'
_cell_length_a   3.96697321
_cell_length_b   11.04330630
_cell_length_c   21.53708070
_cell_angle_alpha   78.58082629
_cell_angle_beta   90.00000000
_cell_angle_gamma   90.00000000
_symmetry_Int_Tables_number   1
_chemical_formula_structural   PrErS3
_chemical_formula_sum   'Pr8 Er8 S24'
_cell_volume   924.83045589
_cell_formula_units_Z   8
loop_
 _symmetry_equiv_pos_site_id
 _symmetry_equiv_pos_as_xyz
  1  'x, y, z'
loop_
 _atom_site_type_symbol
 _atom_site_label
 _atom_site_symmetry_multiplicity
 _atom_site_fract_x
 _atom_site_fract_y
 _atom_site_fract_z
 _atom_site_occupancy
  Pr  Pr0  1  0.25000000  0.30329911  0.76591916  1
  Pr  Pr1  1  0.75000000  0.69670089  0.23408084  1
  Pr  Pr2  1  0.25000000  0.90927391  0.86371600  1
  Pr  Pr3  1  0.75000000  0.09072609  0.13628400  1
  Pr  Pr4  1  0.25000000  0.69159997  0.73324325  1
  Pr  Pr5  1  0.75000000  0.30840003  0.26675675  1
  Pr  Pr6  1  0.25000000  0.79859403  0.53684015  1
  Pr  Pr7  1  0.75000000  0.20140597  0.46315985  1
  Er  Er8  1  0.25000000  0.55343636  0.41643648  1
  Er  Er9  1  0.75000000  0.44656364  0.58356352  1
  Er  Er10  1  0.25000000  0.97029208  0.35104329  1
  Er  Er11  1  0.75000000  0.02970792  0.64895671  1
  Er  Er12  1  0.25000000  0.82005267  0.04624687  1
  Er  Er13  1  0.75000000  0.17994733  0.95375313  1
  Er  Er14  1  0.25000000  0.47767677  0.08739196  1
  Er  Er15  1  0.75000000  0.52232323  0.91260804  1
  S  S16  1  0.25000000  0.08557454  0.03639732  1
  S  S17  1  0.75000000  0.91442546  0.96360268  1
  S  S18  1  0.25000000  0.20454515  0.36505658  1
  S  S19  1  0.75000000  0.79545485  0.63494342  1
  S  S20  1  0.25000000  0.74607156  0.32404485  1
  S  S21  1  0.75000000  0.25392844  0.67595515  1
  S  S22  1  0.25000000  0.63556065  0.96423440  1
  S  S23  1  0.75000000  0.36443935  0.03576560  1
  S  S24  1  0.25000000  0.50582882  0.21983164  1
  S  S25  1  0.75000000  0.49417118  0.78016836  1
  S  S26  1  0.25000000  0.25260046  0.17307517  1
  S  S27  1  0.75000000  0.74739954  0.82692483  1
  S  S28  1  0.25000000  0.87465785  0.16302650  1
  S  S29  1  0.75000000  0.12534215  0.83697350  1
  S  S30  1  0.25000000  0.35682169  0.51377115  1
  S  S31  1  0.75000000  0.64317831  0.48622885  1
  S  S32  1  0.25000000  0.05792869  0.55575114  1
  S  S33  1  0.75000000  0.94207131  0.44424886  1
  S  S34  1  0.25000000  0.96277912  0.72896857  1
  S  S35  1  0.75000000  0.03722088  0.27103143  1
  S  S36  1  0.25000000  0.54544585  0.63452347  1
  S  S37  1  0.75000000  0.45455415  0.36547653  1
  S  S38  1  0.25000000  0.34181980  0.90140672  1
  S  S39  1  0.75000000  0.65818020  0.09859328  1
