# generated using pymatgen
data_BaGeO3
_symmetry_space_group_name_H-M   'P 1'
_cell_length_a   4.64225534
_cell_length_b   5.75213457
_cell_length_c   12.94668869
_cell_angle_alpha   90.00000000
_cell_angle_beta   90.00000000
_cell_angle_gamma   90.00000000
_symmetry_Int_Tables_number   1
_chemical_formula_structural   BaGeO3
_chemical_formula_sum   'Ba4 Ge4 O12'
_cell_volume   345.71384114
_cell_formula_units_Z   4
loop_
 _symmetry_equiv_pos_site_id
 _symmetry_equiv_pos_as_xyz
  1  'x, y, z'
loop_
 _atom_site_type_symbol
 _atom_site_label
 _atom_site_symmetry_multiplicity
 _atom_site_fract_x
 _atom_site_fract_y
 _atom_site_fract_z
 _atom_site_occupancy
  Ba  Ba0  1  0.27407960  0.81894326  0.86055179  1
  Ba  Ba1  1  0.77407960  0.68105674  0.13944821  1
  Ba  Ba2  1  0.72592040  0.31894326  0.63944821  1
  Ba  Ba3  1  0.22592040  0.18105674  0.36055179  1
  Ge  Ge4  1  0.82376347  0.30770402  0.92415108  1
  Ge  Ge5  1  0.32376347  0.19229598  0.07584892  1
  Ge  Ge6  1  0.17623653  0.80770402  0.57584892  1
  Ge  Ge7  1  0.67623653  0.69229598  0.42415108  1
  O  O8  1  0.76157218  0.60271587  0.91226723  1
  O  O9  1  0.26157218  0.89728413  0.08773277  1
  O  O10  1  0.23842782  0.10271587  0.58773277  1
  O  O11  1  0.73842782  0.39728413  0.41226723  1
  O  O12  1  0.75392231  0.11660606  0.82462633  1
  O  O13  1  0.25392231  0.38339394  0.17537367  1
  O  O14  1  0.24607769  0.61660606  0.67537367  1
  O  O15  1  0.74607769  0.88339394  0.32462633  1
  O  O16  1  0.29256747  0.71333875  0.44944893  1
  O  O17  1  0.79256747  0.78666125  0.55055107  1
  O  O18  1  0.70743253  0.21333875  0.05055107  1
  O  O19  1  0.20743253  0.28666125  0.94944893  1
