# generated using pymatgen
data_Na2PdF6
_symmetry_space_group_name_H-M   'P 1'
_cell_length_a   9.18354305
_cell_length_b   9.18363865
_cell_length_c   5.09194938
_cell_angle_alpha   89.99801595
_cell_angle_beta   90.00124549
_cell_angle_gamma   120.00702188
_symmetry_Int_Tables_number   1
_chemical_formula_structural   Na2PdF6
_chemical_formula_sum   'Na6 Pd3 F18'
_cell_volume   371.88531478
_cell_formula_units_Z   3
loop_
 _symmetry_equiv_pos_site_id
 _symmetry_equiv_pos_as_xyz
  1  'x, y, z'
loop_
 _atom_site_type_symbol
 _atom_site_label
 _atom_site_symmetry_multiplicity
 _atom_site_fract_x
 _atom_site_fract_y
 _atom_site_fract_z
 _atom_site_occupancy
  Na  Na0  1  0.29745409  -0.00001129  0.50008536  1
  Na  Na1  1  0.00000795  0.29746941  0.49992648  1
  Na  Na2  1  0.70256214  0.70256115  0.50000454  1
  Na  Na3  1  0.63126811  -0.00011623  0.00000009  1
  Na  Na4  1  -0.00006173  0.63130179  -0.00000088  1
  Na  Na5  1  0.36863683  0.36864746  0.00000486  1
  Pd  Pd6  1  0.33331800  0.66664598  0.49373926  1
  Pd  Pd7  1  0.66665405  0.33331707  0.50626817  1
  Pd  Pd8  1  0.00004691  0.00009276  -0.00005614  1
  F  F9  1  0.46800083  0.24837934  0.29279447  1
  F  F10  1  0.75158456  0.21958816  0.29279207  1
  F  F11  1  0.24838181  0.46798704  0.70723969  1
  F  F12  1  0.78039370  0.53198102  0.29280087  1
  F  F13  1  0.21959357  0.75158341  0.70726064  1
  F  F14  1  0.53201213  0.78039035  0.70724169  1
  F  F15  1  0.10733229  0.20046005  0.20931402  1
  F  F16  1  0.79961207  0.90686839  0.20925278  1
  F  F17  1  0.20048459  0.10734093  0.79066286  1
  F  F18  1  0.09317189  0.89277080  0.20921704  1
  F  F19  1  0.90685547  0.79960319  0.79070778  1
  F  F20  1  0.89272798  0.09320468  0.79072820  1
  F  F21  1  0.13585973  0.54798247  0.27947883  1
  F  F22  1  0.45198340  0.58786723  0.27949710  1
  F  F23  1  0.54799959  0.13587441  0.72053947  1
  F  F24  1  0.41213136  0.86416094  0.27954302  1
  F  F25  1  0.58786896  0.45193908  0.72048454  1
  F  F26  1  0.86412072  0.41211139  0.72047318  1
