# generated using pymatgen
data_LiVAsO5
_symmetry_space_group_name_H-M   'P 1'
_cell_length_a   6.49105087
_cell_length_b   7.46567577
_cell_length_c   7.47721074
_cell_angle_alpha   90.00000000
_cell_angle_beta   90.00000000
_cell_angle_gamma   90.00000000
_symmetry_Int_Tables_number   1
_chemical_formula_structural   LiVAsO5
_chemical_formula_sum   'Li4 V4 As4 O20'
_cell_volume   362.34623962
_cell_formula_units_Z   4
loop_
 _symmetry_equiv_pos_site_id
 _symmetry_equiv_pos_as_xyz
  1  'x, y, z'
loop_
 _atom_site_type_symbol
 _atom_site_label
 _atom_site_symmetry_multiplicity
 _atom_site_fract_x
 _atom_site_fract_y
 _atom_site_fract_z
 _atom_site_occupancy
  Li  Li0  1  0.00000000  0.00000000  -0.00000000  1
  Li  Li1  1  0.50000000  0.00000000  -0.00000000  1
  Li  Li2  1  0.00000000  0.50000000  0.50000000  1
  Li  Li3  1  0.50000000  0.50000000  0.50000000  1
  V  V4  1  0.75000000  0.22773499  0.33062404  1
  V  V5  1  0.25000000  0.72773399  0.16937496  1
  V  V6  1  0.75000000  0.27226501  0.83062404  1
  V  V7  1  0.25000000  0.77226501  0.66937496  1
  As  As8  1  0.75000000  0.87275156  0.62442449  1
  As  As9  1  0.75000000  0.62724744  0.12442449  1
  As  As10  1  0.25000000  0.37275156  0.87557651  1
  As  As11  1  0.25000000  0.12724844  0.37557651  1
  O  O12  1  0.75000000  -0.00081660  0.81430659  1
  O  O13  1  0.95510504  0.73286408  0.62663744  1
  O  O14  1  0.45510504  0.26713592  0.37336356  1
  O  O15  1  0.04489496  0.23286408  0.87336356  1
  O  O16  1  0.54489496  0.76713592  0.12663744  1
  O  O17  1  0.04489496  0.26713592  0.37336356  1
  O  O18  1  0.54489496  0.73286408  0.62663744  1
  O  O19  1  0.95510504  0.76713592  0.12663744  1
  O  O20  1  0.75000000  0.17267726  0.11539709  1
  O  O21  1  0.25000000  0.82732374  0.88460291  1
  O  O22  1  0.25000000  0.67267626  0.38460291  1
  O  O23  1  0.75000000  0.32732274  0.61539709  1
  O  O24  1  0.45510504  0.23286408  0.87336356  1
  O  O25  1  0.25000000  0.00081760  0.18569341  1
  O  O26  1  0.25000000  0.00592530  0.56453038  1
  O  O27  1  0.75000000  0.50081760  0.31430659  1
  O  O28  1  0.25000000  0.49407370  0.06453038  1
  O  O29  1  0.75000000  0.50592530  0.93546862  1
  O  O30  1  0.75000000  0.99407370  0.43546862  1
  O  O31  1  0.25000000  0.49918340  0.68569441  1
