# generated using pymatgen
data_Mg14SiBO16
_symmetry_space_group_name_H-M   'P 1'
_cell_length_a   8.48102075
_cell_length_b   8.70556758
_cell_length_c   4.21784479
_cell_angle_alpha   90.00000000
_cell_angle_beta   90.00000000
_cell_angle_gamma   90.00000000
_symmetry_Int_Tables_number   1
_chemical_formula_structural   Mg14SiBO16
_chemical_formula_sum   'Mg14 Si1 B1 O16'
_cell_volume   311.41233531
_cell_formula_units_Z   1
loop_
 _symmetry_equiv_pos_site_id
 _symmetry_equiv_pos_as_xyz
  1  'x, y, z'
loop_
 _atom_site_type_symbol
 _atom_site_label
 _atom_site_symmetry_multiplicity
 _atom_site_fract_x
 _atom_site_fract_y
 _atom_site_fract_z
 _atom_site_occupancy
  Mg  Mg0  1  0.50000000  0.00000000  -0.00000000  1
  Mg  Mg1  1  0.50000000  0.50000000  -0.00000000  1
  Mg  Mg2  1  -0.00000000  0.26302324  0.50000000  1
  Mg  Mg3  1  -0.00000000  0.73697676  0.50000000  1
  Mg  Mg4  1  0.50000000  0.25295845  0.50000000  1
  Mg  Mg5  1  0.50000000  0.74704155  0.50000000  1
  Mg  Mg6  1  0.24842193  0.00000000  0.50000000  1
  Mg  Mg7  1  0.24530479  0.50000000  0.50000000  1
  Mg  Mg8  1  0.75157807  0.00000000  0.50000000  1
  Mg  Mg9  1  0.75469521  0.50000000  0.50000000  1
  Mg  Mg10  1  0.24479370  0.26075279  -0.00000000  1
  Mg  Mg11  1  0.24479370  0.73924721  -0.00000000  1
  Mg  Mg12  1  0.75520630  0.26075279  -0.00000000  1
  Mg  Mg13  1  0.75520630  0.73924721  -0.00000000  1
  Si  Si14  1  -0.00000000  0.00000000  -0.00000000  1
  B  B15  1  -0.00000000  0.50000000  -0.00000000  1
  O  O16  1  0.22714504  0.00000000  -0.00000000  1
  O  O17  1  0.26871235  0.50000000  0.00000000  1
  O  O18  1  0.77285496  0.00000000  -0.00000000  1
  O  O19  1  0.73128765  0.50000000  -0.00000000  1
  O  O20  1  0.24698569  0.24872216  0.50000000  1
  O  O21  1  0.24698569  0.75127784  0.50000000  1
  O  O22  1  0.75301431  0.24872216  0.50000000  1
  O  O23  1  0.75301431  0.75127784  0.50000000  1
  O  O24  1  -0.00000000  0.00000000  0.50000000  1
  O  O25  1  -0.00000000  0.50000000  0.50000000  1
  O  O26  1  0.50000000  0.00000000  0.50000000  1
  O  O27  1  0.50000000  0.50000000  0.50000000  1
  O  O28  1  -0.00000000  0.19265835  -0.00000000  1
  O  O29  1  -0.00000000  0.80734165  -0.00000000  1
  O  O30  1  0.50000000  0.24010122  0.00000000  1
  O  O31  1  0.50000000  0.75989878  -0.00000000  1
