# generated using pymatgen
data_CdIn2O4
_symmetry_space_group_name_H-M   'P 1'
_cell_length_a   6.52096505
_cell_length_b   6.52096455
_cell_length_c   6.52096516
_cell_angle_alpha   60.00000703
_cell_angle_beta   60.00000960
_cell_angle_gamma   59.99999800
_symmetry_Int_Tables_number   1
_chemical_formula_structural   CdIn2O4
_chemical_formula_sum   'Cd2 In4 O8'
_cell_volume   196.07428585
_cell_formula_units_Z   2
loop_
 _symmetry_equiv_pos_site_id
 _symmetry_equiv_pos_as_xyz
  1  'x, y, z'
loop_
 _atom_site_type_symbol
 _atom_site_label
 _atom_site_symmetry_multiplicity
 _atom_site_fract_x
 _atom_site_fract_y
 _atom_site_fract_z
 _atom_site_occupancy
  Cd  Cd0  1  0.12500000  0.12500000  0.12500000  1
  Cd  Cd1  1  0.87500000  0.87500000  0.87500000  1
  In  In2  1  0.50000000  0.50000000  -0.00000000  1
  In  In3  1  0.50000000  0.50000000  0.50000000  1
  In  In4  1  -0.00000000  0.50000000  0.50000000  1
  In  In5  1  0.50000000  0.00000000  0.50000000  1
  O  O6  1  0.73674591  0.73674591  0.73674591  1
  O  O7  1  0.26325409  0.26325409  0.71023772  1
  O  O8  1  0.26325409  0.71023772  0.26325409  1
  O  O9  1  0.71023772  0.26325409  0.26325409  1
  O  O10  1  0.73674591  0.28976228  0.73674591  1
  O  O11  1  0.28976228  0.73674591  0.73674591  1
  O  O12  1  0.26325409  0.26325409  0.26325409  1
  O  O13  1  0.73674591  0.73674591  0.28976228  1
