# generated using pymatgen
data_CaSm4(Mo2O7)2
_symmetry_space_group_name_H-M   'P 1'
_cell_length_a   7.71198028
_cell_length_b   7.76192546
_cell_length_c   7.62315510
_cell_angle_alpha   59.92943107
_cell_angle_beta   59.55499789
_cell_angle_gamma   60.07791743
_symmetry_Int_Tables_number   1
_chemical_formula_structural   CaSm4(Mo2O7)2
_chemical_formula_sum   'Ca1 Sm4 Mo4 O14'
_cell_volume   321.58495477
_cell_formula_units_Z   1
loop_
 _symmetry_equiv_pos_site_id
 _symmetry_equiv_pos_as_xyz
  1  'x, y, z'
loop_
 _atom_site_type_symbol
 _atom_site_label
 _atom_site_symmetry_multiplicity
 _atom_site_fract_x
 _atom_site_fract_y
 _atom_site_fract_z
 _atom_site_occupancy
  Ca  Ca0  1  0.11806844  0.15312321  0.09202289  1
  Sm  Sm1  1  0.52176833  0.99705395  0.52095546  1
  Sm  Sm2  1  0.48107967  0.52454568  0.49671111  1
  Sm  Sm3  1  0.50388391  0.49529414  -0.00067335  1
  Sm  Sm4  1  -0.00029482  0.45319569  0.50642684  1
  Mo  Mo5  1  0.99084893  0.97996893  0.99202252  1
  Mo  Mo6  1  0.99643490  0.98540759  0.51926832  1
  Mo  Mo7  1  0.52856663  0.98855528  -0.00006904  1
  Mo  Mo8  1  0.98431567  0.54679519  0.99485844  1
  O  O9  1  0.67372652  0.06908674  0.68104688  1
  O  O10  1  0.09741627  0.67966772  0.66302405  1
  O  O11  1  0.90803666  0.32825676  0.34580453  1
  O  O12  1  0.65503303  0.66426877  0.09658352  1
  O  O13  1  0.37647276  0.36605195  0.38532117  1
  O  O14  1  0.90343922  0.34727593  0.89295797  1
  O  O15  1  0.09774655  0.06887155  0.65480030  1
  O  O16  1  0.34394806  0.91457597  0.90833916  1
  O  O17  1  0.34503579  0.34233985  0.90862153  1
  O  O18  1  0.09119413  0.65179582  0.11183666  1
  O  O19  1  0.62486564  0.63104978  0.61698368  1
  O  O20  1  0.32595940  0.90954299  0.31623719  1
  O  O21  1  0.89700581  0.94606087  0.33632852  1
  O  O22  1  0.66044848  0.08221563  0.08559166  1
