# generated using pymatgen
data_CaFe4(PO4)4
_symmetry_space_group_name_H-M   'P 1'
_cell_length_a   9.26635862
_cell_length_b   8.95553059
_cell_length_c   5.45580123
_cell_angle_alpha   86.75045169
_cell_angle_beta   113.14037423
_cell_angle_gamma   93.95225067
_symmetry_Int_Tables_number   1
_chemical_formula_structural   CaFe4(PO4)4
_chemical_formula_sum   'Ca1 Fe4 P4 O16'
_cell_volume   415.11806645
_cell_formula_units_Z   1
loop_
 _symmetry_equiv_pos_site_id
 _symmetry_equiv_pos_as_xyz
  1  'x, y, z'
loop_
 _atom_site_type_symbol
 _atom_site_label
 _atom_site_symmetry_multiplicity
 _atom_site_fract_x
 _atom_site_fract_y
 _atom_site_fract_z
 _atom_site_occupancy
  Ca  Ca0  1  0.00479800  0.99720300  0.51230100  1
  Fe  Fe1  1  0.20693700  0.47281800  0.43927000  1
  Fe  Fe2  1  0.31854100  0.97957900  0.11787300  1
  Fe  Fe3  1  0.68348000  0.99103500  0.90981600  1
  Fe  Fe4  1  0.77612400  0.51184900  0.59213900  1
  P  P5  1  0.15076500  0.65690600  0.86912700  1
  P  P6  1  0.32602700  0.14757300  0.58787800  1
  P  P7  1  0.68379700  0.83882600  0.39690500  1
  P  P8  1  0.83386400  0.32523400  0.16775600  1
  O  O9  1  0.97744400  0.60620800  0.71193800  1
  O  O10  1  0.24534900  0.13253100  0.79024800  1
  O  O11  1  0.16564900  0.82927200  0.84022300  1
  O  O12  1  0.21143100  0.05707300  0.33947500  1
  O  O13  1  0.25390000  0.58191200  0.75113700  1
  O  O14  1  0.20542100  0.61350300  0.16869900  1
  O  O15  1  0.34173200  0.31509300  0.50294900  1
  O  O16  1  0.48752600  0.08281800  0.68735400  1
  O  O17  1  0.53044400  0.91053600  0.21588200  1
  O  O18  1  0.64611800  0.67704300  0.48360300  1
  O  O19  1  0.77700600  0.38283600  0.87547800  1
  O  O20  1  0.73073900  0.38891700  0.29798300  1
  O  O21  1  0.77974100  0.93221500  0.64862900  1
  O  O22  1  0.82441600  0.15270400  0.17908200  1
  O  O23  1  0.78980600  0.84082000  0.23293100  1
  O  O24  1  0.00727500  0.37549600  0.33132300  1
