# generated using pymatgen
data_RbMn4(AsO4)3
_symmetry_space_group_name_H-M   'P 1'
_cell_length_a   6.53612281
_cell_length_b   10.12307781
_cell_length_c   17.43371948
_cell_angle_alpha   90.00000000
_cell_angle_beta   90.00000000
_cell_angle_gamma   90.00000000
_symmetry_Int_Tables_number   1
_chemical_formula_structural   RbMn4(AsO4)3
_chemical_formula_sum   'Rb4 Mn16 As12 O48'
_cell_volume   1153.51390051
_cell_formula_units_Z   4
loop_
 _symmetry_equiv_pos_site_id
 _symmetry_equiv_pos_as_xyz
  1  'x, y, z'
loop_
 _atom_site_type_symbol
 _atom_site_label
 _atom_site_symmetry_multiplicity
 _atom_site_fract_x
 _atom_site_fract_y
 _atom_site_fract_z
 _atom_site_occupancy
  Rb  Rb0  1  0.50000000  0.19391398  0.96483739  1
  Rb  Rb1  1  0.50000000  0.80608602  0.03516261  1
  Rb  Rb2  1  -0.00000000  0.69391398  0.53516261  1
  Rb  Rb3  1  -0.00000000  0.30608602  0.46483739  1
  Mn  Mn4  1  0.75396150  0.74668855  0.29902601  1
  Mn  Mn5  1  0.75396150  0.25331145  0.70097399  1
  Mn  Mn6  1  0.74603850  0.24668855  0.20097399  1
  Mn  Mn7  1  0.74603850  0.75331145  0.79902601  1
  Mn  Mn8  1  0.24603750  0.25331145  0.70097399  1
  Mn  Mn9  1  0.24603750  0.74668855  0.29902601  1
  Mn  Mn10  1  0.25396250  0.75331145  0.79902601  1
  Mn  Mn11  1  0.25396250  0.24668855  0.20097399  1
  Mn  Mn12  1  0.50000000  0.52499909  0.64552720  1
  Mn  Mn13  1  0.50000000  0.47500091  0.35447180  1
  Mn  Mn14  1  -0.00000000  0.02499909  0.85447280  1
  Mn  Mn15  1  -0.00000000  0.97500091  0.14552720  1
  Mn  Mn16  1  0.50000000  0.96046980  0.59118858  1
  Mn  Mn17  1  0.50000000  0.03953020  0.40881142  1
  Mn  Mn18  1  -0.00000000  0.46046980  0.90881142  1
  Mn  Mn19  1  -0.00000000  0.53953020  0.09118858  1
  As  As20  1  0.50000000  0.29512466  0.53755099  1
  As  As21  1  0.50000000  0.70487534  0.46244801  1
  As  As22  1  -0.00000000  0.79512466  0.96244901  1
  As  As23  1  -0.00000000  0.20487534  0.03755199  1
  As  As24  1  0.50000000  0.04514028  0.77686255  1
  As  As25  1  0.50000000  0.95485972  0.22313645  1
  As  As26  1  -0.00000000  0.54514028  0.72313745  1
  As  As27  1  -0.00000000  0.45485972  0.27686255  1
  As  As28  1  0.50000000  0.45548468  0.83500792  1
  As  As29  1  0.50000000  0.54451532  0.16499108  1
  As  As30  1  -0.00000000  0.95548468  0.66499208  1
  As  As31  1  -0.00000000  0.04451532  0.33500892  1
  O  O32  1  0.50000000  0.12940565  0.52093510  1
  O  O33  1  0.50000000  0.87059435  0.47906490  1
  O  O34  1  -0.00000000  0.62940565  0.97906490  1
  O  O35  1  -0.00000000  0.37059435  0.02093510  1
  O  O36  1  0.71625615  0.89182739  0.18448172  1
  O  O37  1  0.71625615  0.10817261  0.81551828  1
  O  O38  1  0.78374485  0.39182739  0.31551828  1
  O  O39  1  0.78374485  0.60817261  0.68448172  1
  O  O40  1  0.28374485  0.10817261  0.81551828  1
  O  O41  1  0.28374485  0.89182739  0.18448172  1
  O  O42  1  0.21625515  0.60817261  0.68448172  1
  O  O43  1  0.21625515  0.39182739  0.31551828  1
  O  O44  1  0.70340477  0.65507960  0.40737497  1
  O  O45  1  0.70340477  0.34492040  0.59262503  1
  O  O46  1  0.79659423  0.15507960  0.09262503  1
  O  O47  1  0.79659423  0.84492040  0.90737497  1
  O  O48  1  0.29659523  0.34492040  0.59262503  1
  O  O49  1  0.29659523  0.65507960  0.40737497  1
  O  O50  1  0.20340477  0.84492040  0.90737497  1
  O  O51  1  0.70953967  0.59556918  0.11817230  1
  O  O52  1  0.50000000  0.63363128  0.54897498  1
  O  O53  1  0.50000000  0.36636872  0.45102502  1
  O  O54  1  -0.00000000  0.13363128  0.95102502  1
  O  O55  1  -0.00000000  0.86636872  0.04897498  1
  O  O56  1  0.50000000  0.38453035  0.74352783  1
  O  O57  1  0.50000000  0.61546965  0.25647217  1
  O  O58  1  -0.00000000  0.88453035  0.75647217  1
  O  O59  1  -0.00000000  0.11546965  0.24352783  1
  O  O60  1  0.50000000  0.11233011  0.68545371  1
  O  O61  1  0.50000000  0.88766989  0.31454629  1
  O  O62  1  -0.00000000  0.61233011  0.81454629  1
  O  O63  1  -0.00000000  0.38766989  0.18545471  1
  O  O64  1  -0.00000000  0.12357027  0.67707008  1
  O  O65  1  -0.00000000  0.87642973  0.32293092  1
  O  O66  1  0.50000000  0.62357027  0.82292992  1
  O  O67  1  0.50000000  0.37642973  0.17707008  1
  O  O68  1  -0.00000000  0.62215263  0.27048564  1
  O  O69  1  -0.00000000  0.37784837  0.72951536  1
  O  O70  1  0.50000000  0.12215163  0.22951536  1
  O  O71  1  0.50000000  0.87784837  0.77048464  1
  O  O72  1  0.20954067  0.09556918  0.38182770  1
  O  O73  1  0.20954067  0.90443082  0.61817330  1
  O  O74  1  0.29045933  0.59556918  0.11817230  1
  O  O75  1  0.29045933  0.40443082  0.88182670  1
  O  O76  1  0.79045933  0.90443082  0.61817330  1
  O  O77  1  0.79045933  0.09556918  0.38182770  1
  O  O78  1  0.70953967  0.40443082  0.88182670  1
  O  O79  1  0.20340477  0.15507960  0.09262503  1
