# generated using pymatgen
data_TiZnFe(PO4)3
_symmetry_space_group_name_H-M   'P 1'
_cell_length_a   8.42147779
_cell_length_b   8.42147779
_cell_length_c   8.42147747
_cell_angle_alpha   60.94812746
_cell_angle_beta   60.94812746
_cell_angle_gamma   60.94812951
_symmetry_Int_Tables_number   1
_chemical_formula_structural   TiZnFe(PO4)3
_chemical_formula_sum   'Ti2 Zn2 Fe2 P6 O24'
_cell_volume   431.35062829
_cell_formula_units_Z   2
loop_
 _symmetry_equiv_pos_site_id
 _symmetry_equiv_pos_as_xyz
  1  'x, y, z'
loop_
 _atom_site_type_symbol
 _atom_site_label
 _atom_site_symmetry_multiplicity
 _atom_site_fract_x
 _atom_site_fract_y
 _atom_site_fract_z
 _atom_site_occupancy
  Ti  Ti0  1  0.14365130  0.14365130  0.14365130  1
  Ti  Ti1  1  0.64365130  0.64365130  0.64365130  1
  Zn  Zn2  1  0.99729951  0.99729951  0.99729951  1
  Zn  Zn3  1  0.49729951  0.49729951  0.49729951  1
  Fe  Fe4  1  0.35538771  0.35538771  0.35538771  1
  Fe  Fe5  1  0.85538771  0.85538771  0.85538771  1
  P  P6  1  0.45511937  0.04570848  0.75179321  1
  P  P7  1  0.75179321  0.45511937  0.04570848  1
  P  P8  1  0.04570848  0.75179321  0.45511937  1
  P  P9  1  0.95511937  0.25179321  0.54570848  1
  P  P10  1  0.25179321  0.54570848  0.95511937  1
  P  P11  1  0.54570848  0.95511937  0.25179321  1
  O  O12  1  0.50041053  0.10902294  0.32410846  1
  O  O13  1  0.10902294  0.32410846  0.50041053  1
  O  O14  1  0.25700021  0.05588499  0.91206409  1
  O  O15  1  0.32410846  0.50041053  0.10902294  1
  O  O16  1  0.60902294  0.00041053  0.82410846  1
  O  O17  1  0.44047576  0.24065116  0.59208485  1
  O  O18  1  0.91206409  0.25700021  0.05588499  1
  O  O19  1  0.59208485  0.44047576  0.24065116  1
  O  O20  1  0.00207598  0.18589959  0.38136186  1
  O  O21  1  0.24065116  0.59208485  0.44047576  1
  O  O22  1  0.94047576  0.09208485  0.74065116  1
  O  O23  1  0.18589959  0.38136186  0.00207598  1
  O  O24  1  0.82410846  0.60902294  0.00041053  1
  O  O25  1  0.05588499  0.91206409  0.25700021  1
  O  O26  1  0.75700021  0.41206409  0.55588499  1
  O  O27  1  0.00041053  0.82410846  0.60902294  1
  O  O28  1  0.41206409  0.55588499  0.75700021  1
  O  O29  1  0.09208485  0.74065116  0.94047576  1
  O  O30  1  0.55588499  0.75700021  0.41206409  1
  O  O31  1  0.38136186  0.00207598  0.18589959  1
  O  O32  1  0.68589959  0.50207598  0.88136186  1
  O  O33  1  0.74065116  0.94047576  0.09208485  1
  O  O34  1  0.88136186  0.68589959  0.50207598  1
  O  O35  1  0.50207598  0.88136186  0.68589959  1
