# generated using pymatgen
data_Ba(AlS2)2
_symmetry_space_group_name_H-M   'P 1'
_cell_length_a   12.73206073
_cell_length_b   12.73206073
_cell_length_c   12.73206073
_cell_angle_alpha   90.00000000
_cell_angle_beta   90.00000000
_cell_angle_gamma   90.00000000
_symmetry_Int_Tables_number   1
_chemical_formula_structural   Ba(AlS2)2
_chemical_formula_sum   'Ba12 Al24 S48'
_cell_volume   2063.93542100
_cell_formula_units_Z   12
loop_
 _symmetry_equiv_pos_site_id
 _symmetry_equiv_pos_as_xyz
  1  'x, y, z'
loop_
 _atom_site_type_symbol
 _atom_site_label
 _atom_site_symmetry_multiplicity
 _atom_site_fract_x
 _atom_site_fract_y
 _atom_site_fract_z
 _atom_site_occupancy
  Ba  Ba0  1  0.37299784  0.12700216  0.87299784  1
  Ba  Ba1  1  0.12700216  0.87299784  0.37299784  1
  Ba  Ba2  1  0.87299784  0.37299784  0.12700216  1
  Ba  Ba3  1  0.62700216  0.62700216  0.62700216  1
  Ba  Ba4  1  0.62700216  0.87299784  0.12700216  1
  Ba  Ba5  1  0.87299784  0.12700216  0.62700216  1
  Ba  Ba6  1  0.12700216  0.62700216  0.87299784  1
  Ba  Ba7  1  0.37299784  0.37299784  0.37299784  1
  Ba  Ba8  1  0.00000000  0.50000000  0.50000000  1
  Ba  Ba9  1  0.50000000  0.50000000  -0.00000000  1
  Ba  Ba10  1  0.50000000  -0.00000000  0.50000000  1
  Ba  Ba11  1  0.00000000  -0.00000000  -0.00000000  1
  Al  Al12  1  0.64334105  0.62650294  0.30369447  1
  Al  Al13  1  0.69630553  0.35665895  0.37349706  1
  Al  Al14  1  0.19630553  0.14334105  0.62650294  1
  Al  Al15  1  0.30369447  0.85665895  0.12650294  1
  Al  Al16  1  0.14334105  0.62650294  0.19630553  1
  Al  Al17  1  0.12650294  0.30369447  0.85665895  1
  Al  Al18  1  0.62650294  0.19630553  0.14334105  1
  Al  Al19  1  0.35665895  0.37349706  0.69630553  1
  Al  Al20  1  0.37349706  0.69630553  0.35665895  1
  Al  Al21  1  0.85665895  0.12650294  0.30369447  1
  Al  Al22  1  0.64334105  0.87349706  0.80369447  1
  Al  Al23  1  0.87349706  0.80369447  0.64334105  1
  Al  Al24  1  0.19630553  0.35665895  0.12650294  1
  Al  Al25  1  0.12650294  0.19630553  0.35665895  1
  Al  Al26  1  0.35665895  0.12650294  0.19630553  1
  Al  Al27  1  0.14334105  0.87349706  0.69630553  1
  Al  Al28  1  0.62650294  0.30369447  0.64334105  1
  Al  Al29  1  0.80369447  0.64334105  0.87349706  1
  Al  Al30  1  0.37349706  0.80369447  0.85665895  1
  Al  Al31  1  0.87349706  0.69630553  0.14334105  1
  Al  Al32  1  0.85665895  0.37349706  0.80369447  1
  Al  Al33  1  0.69630553  0.14334105  0.87349706  1
  Al  Al34  1  0.80369447  0.85665895  0.37349706  1
  Al  Al35  1  0.30369447  0.64334105  0.62650294  1
  S  S36  1  0.72795140  0.52509379  0.41962419  1
  S  S37  1  0.77204860  0.47490621  0.91962419  1
  S  S38  1  0.91962419  0.77204860  0.47490621  1
  S  S39  1  0.47490621  0.91962419  0.77204860  1
  S  S40  1  0.02509379  0.08037581  0.27204860  1
  S  S41  1  0.41962419  0.72795140  0.52509379  1
  S  S42  1  0.52509379  0.41962419  0.72795140  1
  S  S43  1  0.58037581  0.22795140  0.97490621  1
  S  S44  1  0.08037581  0.27204860  0.02509379  1
  S  S45  1  0.97490621  0.58037581  0.22795140  1
  S  S46  1  0.27204860  0.02509379  0.08037581  1
  S  S47  1  0.22795140  0.97490621  0.58037581  1
  S  S48  1  0.35942155  0.29025051  0.12819472  1
  S  S49  1  0.12819472  0.35942155  0.29025051  1
  S  S50  1  0.29025051  0.12819472  0.35942155  1
  S  S51  1  0.20974949  0.87180528  0.85942155  1
  S  S52  1  0.62819472  0.14057845  0.70974949  1
  S  S53  1  0.70974949  0.62819472  0.14057845  1
  S  S54  1  0.37180528  0.64057845  0.79025051  1
  S  S55  1  0.87180528  0.85942155  0.20974949  1
  S  S56  1  0.79025051  0.37180528  0.64057845  1
  S  S57  1  0.85942155  0.20974949  0.87180528  1
  S  S58  1  0.64057845  0.79025051  0.37180528  1
  S  S59  1  0.14057845  0.70974949  0.62819472  1
  S  S60  1  0.64057845  0.70974949  0.87180528  1
  S  S61  1  0.87180528  0.64057845  0.70974949  1
  S  S62  1  0.70974949  0.87180528  0.64057845  1
  S  S63  1  0.79025051  0.12819472  0.14057845  1
  S  S64  1  0.37180528  0.85942155  0.29025051  1
  S  S65  1  0.29025051  0.37180528  0.85942155  1
  S  S66  1  0.62819472  0.35942155  0.20974949  1
  S  S67  1  0.12819472  0.14057845  0.79025051  1
  S  S68  1  0.20974949  0.62819472  0.35942155  1
  S  S69  1  0.14057845  0.79025051  0.12819472  1
  S  S70  1  0.35942155  0.20974949  0.62819472  1
  S  S71  1  0.85942155  0.29025051  0.37180528  1
  S  S72  1  0.22795140  0.52509379  0.08037581  1
  S  S73  1  0.08037581  0.22795140  0.52509379  1
  S  S74  1  0.52509379  0.08037581  0.22795140  1
  S  S75  1  0.27204860  0.47490621  0.58037581  1
  S  S76  1  0.58037581  0.27204860  0.47490621  1
  S  S77  1  0.47490621  0.58037581  0.27204860  1
  S  S78  1  0.41962419  0.77204860  0.02509379  1
  S  S79  1  0.91962419  0.72795140  0.97490621  1
  S  S80  1  0.02509379  0.41962419  0.77204860  1
  S  S81  1  0.72795140  0.97490621  0.91962419  1
  S  S82  1  0.77204860  0.02509379  0.41962419  1
  S  S83  1  0.97490621  0.91962419  0.72795140  1
