# generated using pymatgen
data_Ba2HoCl7
_symmetry_space_group_name_H-M   'P 1'
_cell_length_a   15.60858951
_cell_length_b   6.85095621
_cell_length_c   10.57869748
_cell_angle_alpha   89.41797408
_cell_angle_beta   90.00000000
_cell_angle_gamma   90.00000000
_symmetry_Int_Tables_number   1
_chemical_formula_structural   Ba2HoCl7
_chemical_formula_sum   'Ba8 Ho4 Cl28'
_cell_volume   1131.16156643
_cell_formula_units_Z   4
loop_
 _symmetry_equiv_pos_site_id
 _symmetry_equiv_pos_as_xyz
  1  'x, y, z'
loop_
 _atom_site_type_symbol
 _atom_site_label
 _atom_site_symmetry_multiplicity
 _atom_site_fract_x
 _atom_site_fract_y
 _atom_site_fract_z
 _atom_site_occupancy
  Ba  Ba0  1  0.27986707  0.23526853  0.54883857  1
  Ba  Ba1  1  0.72013293  0.76473147  0.45116143  1
  Ba  Ba2  1  0.77986707  0.76473147  0.95116143  1
  Ba  Ba3  1  0.22013293  0.23526853  0.04883857  1
  Ba  Ba4  1  0.43920415  0.76502519  0.82355384  1
  Ba  Ba5  1  0.56079585  0.23497481  0.17644616  1
  Ba  Ba6  1  0.93920415  0.23497481  0.67644616  1
  Ba  Ba7  1  0.06079585  0.76502519  0.32355384  1
  Ho  Ho8  1  0.12707851  0.71706349  0.78178166  1
  Ho  Ho9  1  0.87292149  0.28293651  0.21821834  1
  Ho  Ho10  1  0.62707851  0.28293651  0.71821834  1
  Ho  Ho11  1  0.37292149  0.71706349  0.28178166  1
  Cl  Cl12  1  0.07076117  0.37204308  0.87625202  1
  Cl  Cl13  1  0.92923883  0.62795692  0.12374798  1
  Cl  Cl14  1  0.57076117  0.62795692  0.62374798  1
  Cl  Cl15  1  0.42923883  0.37204308  0.37625202  1
  Cl  Cl16  1  0.10504519  0.98634704  0.58622865  1
  Cl  Cl17  1  0.89495481  0.01365296  0.41377135  1
  Cl  Cl18  1  0.60504519  0.01365296  0.91377135  1
  Cl  Cl19  1  0.39495481  0.98634704  0.08622865  1
  Cl  Cl20  1  0.96029074  0.79438336  0.78749468  1
  Cl  Cl21  1  0.03970926  0.20561664  0.21250532  1
  Cl  Cl22  1  0.46029074  0.20561664  0.71250532  1
  Cl  Cl23  1  0.53970926  0.79438336  0.28749468  1
  Cl  Cl24  1  0.36064704  0.79092591  0.52769915  1
  Cl  Cl25  1  0.63935296  0.20907409  0.47230085  1
  Cl  Cl26  1  0.86064704  0.20907409  0.97230085  1
  Cl  Cl27  1  0.13935296  0.79092591  0.02769915  1
  Cl  Cl28  1  0.25715865  0.98788467  0.80160427  1
  Cl  Cl29  1  0.74284135  0.01211533  0.19839573  1
  Cl  Cl30  1  0.75715865  0.01211533  0.69839573  1
  Cl  Cl31  1  0.24284135  0.98788467  0.30160427  1
  Cl  Cl32  1  0.27194881  0.50119287  0.79468999  1
  Cl  Cl33  1  0.72805119  0.49880713  0.20531001  1
  Cl  Cl34  1  0.77194881  0.49880713  0.70531001  1
  Cl  Cl35  1  0.22805119  0.50119287  0.29468999  1
  Cl  Cl36  1  0.10447312  0.49979152  0.57149933  1
  Cl  Cl37  1  0.89552688  0.50020848  0.42850067  1
  Cl  Cl38  1  0.60447312  0.50020848  0.92850067  1
  Cl  Cl39  1  0.39552688  0.49979152  0.07149933  1
