# generated using pymatgen
data_Na3MoCl6
_symmetry_space_group_name_H-M   'P 1'
_cell_length_a   6.83210940
_cell_length_b   6.83211123
_cell_length_c   12.19649788
_cell_angle_alpha   90.00000000
_cell_angle_beta   90.00000000
_cell_angle_gamma   120.00000955
_symmetry_Int_Tables_number   1
_chemical_formula_structural   Na3MoCl6
_chemical_formula_sum   'Na6 Mo2 Cl12'
_cell_volume   493.03241665
_cell_formula_units_Z   2
loop_
 _symmetry_equiv_pos_site_id
 _symmetry_equiv_pos_as_xyz
  1  'x, y, z'
loop_
 _atom_site_type_symbol
 _atom_site_label
 _atom_site_symmetry_multiplicity
 _atom_site_fract_x
 _atom_site_fract_y
 _atom_site_fract_z
 _atom_site_occupancy
  Na  Na0  1  0.66666700  0.33333300  0.03839153  1
  Na  Na1  1  0.33333300  0.66666700  0.53839153  1
  Na  Na2  1  0.33333300  0.66666700  0.96160847  1
  Na  Na3  1  0.66666700  0.33333300  0.46160847  1
  Na  Na4  1  0.00000000  0.00000000  0.25000000  1
  Na  Na5  1  0.00000000  0.00000000  0.75000000  1
  Mo  Mo6  1  0.33333300  0.66666700  0.25000000  1
  Mo  Mo7  1  0.66666700  0.33333300  0.75000000  1
  Cl  Cl8  1  0.32037993  0.95119995  0.13088911  1
  Cl  Cl9  1  0.63081902  0.67962007  0.13088911  1
  Cl  Cl10  1  0.04880005  0.36918098  0.13088911  1
  Cl  Cl11  1  0.36918098  0.04880105  0.63088911  1
  Cl  Cl12  1  0.67962007  0.63081902  0.63088911  1
  Cl  Cl13  1  0.95119995  0.32037993  0.63088911  1
  Cl  Cl14  1  0.67962007  0.04880005  0.86911089  1
  Cl  Cl15  1  0.36918098  0.32037993  0.86911089  1
  Cl  Cl16  1  0.95119995  0.63081902  0.86911089  1
  Cl  Cl17  1  0.63081902  0.95119895  0.36911089  1
  Cl  Cl18  1  0.32037993  0.36918098  0.36911089  1
  Cl  Cl19  1  0.04880005  0.67962007  0.36911089  1
