# generated using pymatgen
data_MgAu4Se4(ClO3)4
_symmetry_space_group_name_H-M   'P 1'
_cell_length_a   5.27485477
_cell_length_b   10.10677978
_cell_length_c   11.41938104
_cell_angle_alpha   81.00958205
_cell_angle_beta   81.98065907
_cell_angle_gamma   81.54778235
_symmetry_Int_Tables_number   1
_chemical_formula_structural   MgAu4Se4(ClO3)4
_chemical_formula_sum   'Mg1 Au4 Se4 Cl4 O12'
_cell_volume   590.53094246
_cell_formula_units_Z   1
loop_
 _symmetry_equiv_pos_site_id
 _symmetry_equiv_pos_as_xyz
  1  'x, y, z'
loop_
 _atom_site_type_symbol
 _atom_site_label
 _atom_site_symmetry_multiplicity
 _atom_site_fract_x
 _atom_site_fract_y
 _atom_site_fract_z
 _atom_site_occupancy
  Mg  Mg0  1  0.52871223  0.52448878  0.93352819  1
  Au  Au1  1  0.01712866  0.59383220  0.15901150  1
  Au  Au2  1  0.95979380  0.01697852  0.00462198  1
  Au  Au3  1  0.18574457  0.37385625  0.73325233  1
  Au  Au4  1  0.01653788  0.96924178  0.50155970  1
  Se  Se5  1  0.77709468  0.88388385  0.27533947  1
  Se  Se6  1  0.02338720  0.74213169  0.88238612  1
  Se  Se7  1  0.86653216  0.29314854  0.12460774  1
  Se  Se8  1  0.22344975  0.08424877  0.71767235  1
  Cl  Cl9  1  0.43124649  0.54200137  0.72965495  1
  Cl  Cl10  1  0.76986099  0.52026988  0.32998129  1
  Cl  Cl11  1  0.27362990  0.14159601  0.44773274  1
  Cl  Cl12  1  0.76780784  0.79490269  0.55253857  1
  O  O13  1  0.69739352  0.00405567  0.15352062  1
  O  O14  1  0.64276437  0.36063451  0.03292698  1
  O  O15  1  0.03373618  0.77526782  0.21246023  1
  O  O16  1  0.08589092  0.18618071  0.03826330  1
  O  O17  1  0.09001087  0.41420243  0.09666505  1
  O  O18  1  0.82177210  0.85333973  0.96846071  1
  O  O19  1  0.22814011  0.65627103  -0.00372122  1
  O  O20  1  0.97868681  0.21659632  0.73102510  1
  O  O21  1  0.98112667  0.97962652  0.32532803  1
  O  O22  1  0.81073286  0.63443931  0.88590858  1
  O  O23  1  0.24261333  0.00566294  0.86517260  1
  O  O24  1  0.04620611  0.96439265  0.67710310  1
