# generated using pymatgen
data_Sr10P6SO24
_symmetry_space_group_name_H-M   'P 1'
_cell_length_a   9.81929085
_cell_length_b   9.81929085
_cell_length_c   7.21505808
_cell_angle_alpha   90.00000000
_cell_angle_beta   90.00000000
_cell_angle_gamma   119.99999818
_symmetry_Int_Tables_number   1
_chemical_formula_structural   Sr10P6SO24
_chemical_formula_sum   'Sr10 P6 S1 O24'
_cell_volume   602.46347067
_cell_formula_units_Z   1
loop_
 _symmetry_equiv_pos_site_id
 _symmetry_equiv_pos_as_xyz
  1  'x, y, z'
loop_
 _atom_site_type_symbol
 _atom_site_label
 _atom_site_symmetry_multiplicity
 _atom_site_fract_x
 _atom_site_fract_y
 _atom_site_fract_z
 _atom_site_occupancy
  Sr  Sr0  1  0.98633937  0.74199742  0.74189800  1
  Sr  Sr1  1  0.25800258  0.24434095  0.74189800  1
  Sr  Sr2  1  0.75565905  0.01366063  0.74189800  1
  Sr  Sr3  1  0.74199742  0.75565905  0.25810200  1
  Sr  Sr4  1  0.01366063  0.25800258  0.25810200  1
  Sr  Sr5  1  0.24434095  0.98633937  0.25810200  1
  Sr  Sr6  1  0.66666700  0.33333300  0.48074577  1
  Sr  Sr7  1  0.33333300  0.66666700  0.51925423  1
  Sr  Sr8  1  0.66666700  0.33333300  0.97845732  1
  Sr  Sr9  1  0.33333300  0.66666700  0.02154268  1
  P  P10  1  0.36915375  0.97060926  0.75284122  1
  P  P11  1  0.60145551  0.63084625  0.75284122  1
  P  P12  1  0.97060926  0.60145551  0.24715878  1
  P  P13  1  0.02939074  0.39854449  0.75284122  1
  P  P14  1  0.39854449  0.36915375  0.24715878  1
  P  P15  1  0.63084625  0.02939074  0.24715878  1
  S  S16  1  -0.00000000  -0.00000000  0.50000000  1
  O  O17  1  0.47928718  0.14985422  0.73833201  1
  O  O18  1  0.09973079  0.38106896  0.56994471  1
  O  O19  1  0.28133917  0.90026921  0.56994471  1
  O  O20  1  0.61893104  0.71866083  0.56994471  1
  O  O21  1  0.90026921  0.61893104  0.43005529  1
  O  O22  1  0.71866083  0.09973079  0.43005529  1
  O  O23  1  0.38106896  0.28133917  0.43005529  1
  O  O24  1  0.06498184  0.31076650  0.90530643  1
  O  O25  1  0.24578466  0.93501816  0.90530643  1
  O  O26  1  0.68923350  0.75421534  0.90530643  1
  O  O27  1  0.31076650  0.24578466  0.09469357  1
  O  O28  1  0.11244528  0.57668963  0.79450867  1
  O  O29  1  0.46424435  0.88755472  0.79450867  1
  O  O30  1  0.42331037  0.53575565  0.79450867  1
  O  O31  1  0.88755472  0.42331037  0.20549133  1
  O  O32  1  0.53575565  0.11244528  0.20549133  1
  O  O33  1  0.32943296  0.47928718  0.26166799  1
  O  O34  1  0.52071282  0.85014578  0.26166799  1
  O  O35  1  0.14985422  0.67056704  0.26166799  1
  O  O36  1  0.67056704  0.52071282  0.73833201  1
  O  O37  1  0.75421534  0.06498184  0.09469357  1
  O  O38  1  0.85014578  0.32943296  0.73833201  1
  O  O39  1  0.57668963  0.46424435  0.20549133  1
  O  O40  1  0.93501816  0.68923350  0.09469357  1
