# generated using pymatgen
data_Li4Re6S11
_symmetry_space_group_name_H-M   'P 1'
_cell_length_a   9.66013382
_cell_length_b   11.98810755
_cell_length_c   13.76111451
_cell_angle_alpha   90.00000000
_cell_angle_beta   90.00000000
_cell_angle_gamma   90.00000000
_symmetry_Int_Tables_number   1
_chemical_formula_structural   Li4Re6S11
_chemical_formula_sum   'Li16 Re24 S44'
_cell_volume   1593.62957873
_cell_formula_units_Z   4
loop_
 _symmetry_equiv_pos_site_id
 _symmetry_equiv_pos_as_xyz
  1  'x, y, z'
loop_
 _atom_site_type_symbol
 _atom_site_label
 _atom_site_symmetry_multiplicity
 _atom_site_fract_x
 _atom_site_fract_y
 _atom_site_fract_z
 _atom_site_occupancy
  Li  Li0  1  0.43332456  0.36806261  0.35559528  1
  Li  Li1  1  0.93332456  0.13193739  0.64440472  1
  Li  Li2  1  0.06667544  0.36806261  0.14440472  1
  Li  Li3  1  0.56667544  0.13193739  0.85559528  1
  Li  Li4  1  0.56667544  0.63193739  0.64440472  1
  Li  Li5  1  0.06667544  0.86806261  0.35559528  1
  Li  Li6  1  0.93332456  0.63193739  0.85559528  1
  Li  Li7  1  0.43332456  0.86806261  0.14440472  1
  Li  Li8  1  0.14294321  0.31160344  0.81422123  1
  Li  Li9  1  0.64294321  0.18839656  0.18577877  1
  Li  Li10  1  0.35705679  0.31160344  0.68577877  1
  Li  Li11  1  0.85705679  0.18839656  0.31422123  1
  Li  Li12  1  0.85705679  0.68839656  0.18577877  1
  Li  Li13  1  0.35705679  0.81160344  0.81422123  1
  Li  Li14  1  0.64294321  0.68839656  0.31422123  1
  Li  Li15  1  0.14294321  0.81160344  0.68577877  1
  Re  Re16  1  0.89071496  0.02309123  0.89023498  1
  Re  Re17  1  0.39071496  0.47690877  0.10976502  1
  Re  Re18  1  0.60928504  0.02309123  0.60976502  1
  Re  Re19  1  0.10928504  0.47690877  0.39023498  1
  Re  Re20  1  0.10928504  0.97690877  0.10976502  1
  Re  Re21  1  0.60928504  0.52309123  0.89023498  1
  Re  Re22  1  0.39071496  0.97690877  0.39023498  1
  Re  Re23  1  0.89071496  0.52309123  0.60976502  1
  Re  Re24  1  0.85763986  0.91413712  0.05523095  1
  Re  Re25  1  0.35763986  0.58586288  0.94476905  1
  Re  Re26  1  0.64236014  0.91413712  0.44476905  1
  Re  Re27  1  0.14236014  0.58586288  0.55523095  1
  Re  Re28  1  0.14236014  0.08586288  0.94476905  1
  Re  Re29  1  0.64236014  0.41413712  0.05523095  1
  Re  Re30  1  0.35763986  0.08586288  0.55523095  1
  Re  Re31  1  0.85763986  0.41413712  0.44476905  1
  Re  Re32  1  0.07350962  0.87201823  0.94406299  1
  Re  Re33  1  0.57350962  0.62798177  0.05593701  1
  Re  Re34  1  0.42649038  0.87201823  0.55593701  1
  Re  Re35  1  0.92649038  0.62798177  0.44406299  1
  Re  Re36  1  0.92649038  0.12798177  0.05593701  1
  Re  Re37  1  0.42649038  0.37201823  0.94406299  1
  Re  Re38  1  0.57350962  0.12798177  0.44406299  1
  Re  Re39  1  0.07350962  0.37201823  0.55593701  1
  S  S40  1  0.83678704  0.82804741  0.89831263  1
  S  S41  1  0.33678704  0.67195259  0.10168737  1
  S  S42  1  0.66321296  0.82804741  0.60168737  1
  S  S43  1  0.16321296  0.67195259  0.39831263  1
  S  S44  1  0.16321296  0.17195259  0.10168737  1
  S  S45  1  0.66321296  0.32804741  0.89831263  1
  S  S46  1  0.33678704  0.17195259  0.39831263  1
  S  S47  1  0.83678704  0.32804741  0.60168737  1
  S  S48  1  0.96058414  0.21712172  0.90095529  1
  S  S49  1  0.46058414  0.28287828  0.09904471  1
  S  S50  1  0.53941586  0.21712172  0.59904471  1
  S  S51  1  0.03941586  0.28287828  0.40095529  1
  S  S52  1  0.03941586  0.78287828  0.09904471  1
  S  S53  1  0.53941586  0.71712172  0.90095529  1
  S  S54  1  0.46058414  0.78287828  0.40095529  1
  S  S55  1  0.96058414  0.71712172  0.59904471  1
  S  S56  1  0.09438010  0.98203485  0.79540876  1
  S  S57  1  0.59438010  0.51796515  0.20459124  1
  S  S58  1  0.40561990  0.98203485  0.70459124  1
  S  S59  1  0.90561990  0.51796515  0.29540876  1
  S  S60  1  0.90561990  0.01796515  0.20459124  1
  S  S61  1  0.40561990  0.48203485  0.79540876  1
  S  S62  1  0.59438010  0.01796515  0.29540876  1
  S  S63  1  0.09438010  0.48203485  0.70459124  1
  S  S64  1  0.69907770  0.05993276  0.00586457  1
  S  S65  1  0.19907770  0.44006724  0.99413543  1
  S  S66  1  0.80092230  0.05993276  0.49413543  1
  S  S67  1  0.30092230  0.44006724  0.50586457  1
  S  S68  1  0.30092230  0.94006724  0.99413543  1
  S  S69  1  0.80092230  0.55993276  0.00586457  1
  S  S70  1  0.19907770  0.94006724  0.50586457  1
  S  S71  1  0.69907770  0.55993276  0.49413543  1
  S  S72  1  0.16675953  0.70060549  0.86645052  1
  S  S73  1  0.66675953  0.79939451  0.13354948  1
  S  S74  1  0.33324047  0.70060549  0.63354948  1
  S  S75  1  0.83324047  0.79939451  0.36645052  1
  S  S76  1  0.83324047  0.29939451  0.13354948  1
  S  S77  1  0.33324047  0.20060549  0.86645052  1
  S  S78  1  0.66675953  0.29939451  0.36645052  1
  S  S79  1  0.16675953  0.20060549  0.63354948  1
  S  S80  1  0.75000000  0.08053143  0.75000000  1
  S  S81  1  0.25000000  0.41946857  0.25000000  1
  S  S82  1  0.25000000  0.91946857  0.25000000  1
  S  S83  1  0.75000000  0.58053143  0.75000000  1
