# generated using pymatgen
data_Er3ScS6
_symmetry_space_group_name_H-M   'P 1'
_cell_length_a   3.84103156
_cell_length_b   10.86174945
_cell_length_c   11.00338923
_cell_angle_alpha   70.54593633
_cell_angle_beta   90.00000000
_cell_angle_gamma   90.00000000
_symmetry_Int_Tables_number   1
_chemical_formula_structural   Er3ScS6
_chemical_formula_sum   'Er6 Sc2 S12'
_cell_volume   432.85638432
_cell_formula_units_Z   2
loop_
 _symmetry_equiv_pos_site_id
 _symmetry_equiv_pos_as_xyz
  1  'x, y, z'
loop_
 _atom_site_type_symbol
 _atom_site_label
 _atom_site_symmetry_multiplicity
 _atom_site_fract_x
 _atom_site_fract_y
 _atom_site_fract_z
 _atom_site_occupancy
  Er  Er0  1  0.25000000  0.45270713  0.19222590  1
  Er  Er1  1  0.75000000  0.54729287  0.80777410  1
  Er  Er2  1  0.25000000  0.81948958  0.99821723  1
  Er  Er3  1  0.75000000  0.18051042  0.00178277  1
  Er  Er4  1  0.25000000  0.33499296  0.58447158  1
  Er  Er5  1  0.75000000  0.66500704  0.41552842  1
  Sc  Sc6  1  0.25000000  0.06413489  0.33499684  1
  Sc  Sc7  1  0.75000000  0.93586511  0.66500316  1
  S  S8  1  0.25000000  0.38872474  0.96497156  1
  S  S9  1  0.75000000  0.61127526  0.03502844  1
  S  S10  1  0.25000000  0.76479238  0.76777882  1
  S  S11  1  0.75000000  0.23520762  0.23222118  1
  S  S12  1  0.25000000  0.69106868  0.24849618  1
  S  S13  1  0.75000000  0.30893132  0.75150382  1
  S  S14  1  0.25000000  0.01854183  0.12216528  1
  S  S15  1  0.75000000  0.98145817  0.87783472  1
  S  S16  1  0.25000000  0.09751173  0.56156838  1
  S  S17  1  0.75000000  0.90248827  0.43843162  1
  S  S18  1  0.25000000  0.58021356  0.59984023  1
  S  S19  1  0.75000000  0.41978644  0.40015977  1
