# generated using pymatgen
data_Ca11GaSb9
_symmetry_space_group_name_H-M   'P 1'
_cell_length_a   12.03621545
_cell_length_b   12.03627898
_cell_length_c   12.03626591
_cell_angle_alpha   120.98613783
_cell_angle_beta   117.27664551
_cell_angle_gamma   91.54032786
_symmetry_Int_Tables_number   1
_chemical_formula_structural   Ca11GaSb9
_chemical_formula_sum   'Ca22 Ga2 Sb18'
_cell_volume   1247.10557076
_cell_formula_units_Z   2
loop_
 _symmetry_equiv_pos_site_id
 _symmetry_equiv_pos_as_xyz
  1  'x, y, z'
loop_
 _atom_site_type_symbol
 _atom_site_label
 _atom_site_symmetry_multiplicity
 _atom_site_fract_x
 _atom_site_fract_y
 _atom_site_fract_z
 _atom_site_occupancy
  Ca  Ca0  1  0.29090932  0.08721306  0.34944553  1
  Ca  Ca1  1  0.73774659  0.94146175  0.65055521  1
  Ca  Ca2  1  0.23775417  0.58720859  0.79629742  1
  Ca  Ca3  1  0.79090343  0.44145870  0.20370330  1
  Ca  Ca4  1  0.60528773  0.42392440  0.36438967  1
  Ca  Ca5  1  0.05953419  0.24090268  0.63559944  1
  Ca  Ca6  1  0.55953266  0.92393791  0.81863905  1
  Ca  Ca7  1  0.10528805  0.74089096  0.18135774  1
  Ca  Ca8  1  0.09833174  0.36272922  0.36980175  1
  Ca  Ca9  1  0.99292041  0.72851540  0.63018429  1
  Ca  Ca10  1  0.49291945  0.86273287  0.26440333  1
  Ca  Ca11  1  0.59832576  0.22852755  0.73560190  1
  Ca  Ca12  1  0.50182052  0.51646696  0.67011430  1
  Ca  Ca13  1  0.84634719  0.83170664  0.32987489  1
  Ca  Ca14  1  0.34634056  0.01646764  0.01464271  1
  Ca  Ca15  1  0.00182759  0.33171013  0.98535290  1
  Ca  Ca16  1  0.99442491  0.99442662  -0.00000850  1
  Ca  Ca17  1  0.49442508  0.49442247  -0.00000748  1
  Ca  Ca18  1  0.35804294  0.61872842  0.37417269  1
  Ca  Ca19  1  0.24453538  0.98386096  0.62580883  1
  Ca  Ca20  1  0.74455003  0.11872447  0.26067801  1
  Ca  Ca21  1  0.85803768  0.48386930  0.73930854  1
  Ga  Ga22  1  0.27805801  0.27805308  0.99999056  1
  Ga  Ga23  1  0.77805679  0.77805701  -0.00001204  1
  Sb  Sb24  1  0.72499896  0.71761496  0.72055496  1
  Sb  Sb25  1  0.99705848  0.00443777  0.27945143  1
  Sb  Sb26  1  0.49701954  0.21758866  0.99258103  1
  Sb  Sb27  1  0.22500994  0.50445392  0.00741655  1
  Sb  Sb28  1  0.56678819  0.21131723  0.42606286  1
  Sb  Sb29  1  0.78528607  0.14080720  0.57403708  1
  Sb  Sb30  1  0.28527323  0.71122365  0.64446302  1
  Sb  Sb31  1  0.06678677  0.64074257  0.35549413  1
  Sb  Sb32  1  0.28494698  0.30210444  0.24453633  1
  Sb  Sb33  1  0.05753499  0.04039921  0.75542363  1
  Sb  Sb34  1  0.55755742  0.80211405  0.01715519  1
  Sb  Sb35  1  0.78496955  0.54041681  0.98286581  1
  Sb  Sb36  1  0.92240469  0.42237034  0.50003264  1
  Sb  Sb37  1  0.42238889  0.92236585  0.50002552  1
  Sb  Sb38  1  0.67111683  0.66845315  0.35524542  1
  Sb  Sb39  1  0.31319472  0.31587256  0.64475432  1
  Sb  Sb40  1  0.81323760  0.16845611  0.99735952  1
  Sb  Sb41  1  0.17110395  0.81586272  0.00264450  1
