# generated using pymatgen
data_TiPb15O17
_symmetry_space_group_name_H-M   'P 1'
_cell_length_a   3.85473234
_cell_length_b   32.89938593
_cell_length_c   5.08452491
_cell_angle_alpha   90.00000000
_cell_angle_beta   90.00000000
_cell_angle_gamma   90.00000000
_symmetry_Int_Tables_number   1
_chemical_formula_structural   TiPb15O17
_chemical_formula_sum   'Ti1 Pb15 O17'
_cell_volume   644.81094222
_cell_formula_units_Z   1
loop_
 _symmetry_equiv_pos_site_id
 _symmetry_equiv_pos_as_xyz
  1  'x, y, z'
loop_
 _atom_site_type_symbol
 _atom_site_label
 _atom_site_symmetry_multiplicity
 _atom_site_fract_x
 _atom_site_fract_y
 _atom_site_fract_z
 _atom_site_occupancy
  Ti  Ti0  1  0.50000000  0.87500000  0.85135673  1
  Pb  Pb1  1  0.00000000  0.05958982  0.23304799  1
  Pb  Pb2  1  0.00000000  0.18594902  0.23134537  1
  Pb  Pb3  1  -0.00000000  0.31203507  0.23222958  1
  Pb  Pb4  1  0.00000000  0.56405098  0.23134537  1
  Pb  Pb5  1  -0.00000000  0.69041018  0.23304799  1
  Pb  Pb6  1  -0.00000000  0.93248574  0.25494340  1
  Pb  Pb7  1  0.50000000  0.12269639  0.76780270  1
  Pb  Pb8  1  0.50000000  0.24903593  0.76694695  1
  Pb  Pb9  1  0.50000000  0.37500000  0.76721828  1
  Pb  Pb10  1  0.50000000  0.50096407  0.76694695  1
  Pb  Pb11  1  0.50000000  0.62730361  0.76780270  1
  Pb  Pb12  1  0.50000000  0.75415963  0.77509582  1
  Pb  Pb13  1  0.50000000  0.99584037  0.77509582  1
  Pb  Pb14  1  -0.00000000  0.43796493  0.23222958  1
  Pb  Pb15  1  -0.00000000  0.81751426  0.25494340  1
  O  O16  1  -0.00000000  0.99622701  0.02162599  1
  O  O17  1  -0.00000000  0.12273468  0.01561001  1
  O  O18  1  -0.00000000  0.24901567  0.01461678  1
  O  O19  1  -0.00000000  0.50098433  0.01461678  1
  O  O20  1  -0.00000000  0.62726532  0.01561001  1
  O  O21  1  -0.00000000  0.87500000  0.97040645  1
  O  O22  1  0.50000000  0.05947540  0.98506742  1
  O  O23  1  0.50000000  0.18592125  0.98345336  1
  O  O24  1  0.50000000  0.31202348  0.98458712  1
  O  O25  1  0.50000000  0.43797652  0.98458712  1
  O  O26  1  0.50000000  0.56407875  0.98345336  1
  O  O27  1  0.50000000  0.81919070  0.98490309  1
  O  O28  1  0.50000000  0.69052460  0.98506742  1
  O  O29  1  0.50000000  0.87500000  0.50990838  1
  O  O30  1  0.50000000  0.93080930  0.98490309  1
  O  O31  1  -0.00000000  0.37500000  0.01485901  1
  O  O32  1  -0.00000000  0.75377299  0.02162599  1
