# generated using pymatgen
data_CaAs3F15
_symmetry_space_group_name_H-M   'P 1'
_cell_length_a   10.09713367
_cell_length_b   10.22810433
_cell_length_c   10.90194816
_cell_angle_alpha   90.00000000
_cell_angle_beta   90.00000000
_cell_angle_gamma   90.00000000
_symmetry_Int_Tables_number   1
_chemical_formula_structural   CaAs3F15
_chemical_formula_sum   'Ca4 As12 F60'
_cell_volume   1125.89364438
_cell_formula_units_Z   4
loop_
 _symmetry_equiv_pos_site_id
 _symmetry_equiv_pos_as_xyz
  1  'x, y, z'
loop_
 _atom_site_type_symbol
 _atom_site_label
 _atom_site_symmetry_multiplicity
 _atom_site_fract_x
 _atom_site_fract_y
 _atom_site_fract_z
 _atom_site_occupancy
  Ca  Ca0  1  0.00015711  0.13014566  0.87140545  1
  Ca  Ca1  1  -0.00015711  0.63014566  0.62859455  1
  Ca  Ca2  1  0.50015711  0.36985434  0.12859455  1
  Ca  Ca3  1  0.49984289  0.86985434  0.37140545  1
  As  As4  1  0.76040983  0.06317564  0.15942682  1
  As  As5  1  0.23959017  0.56317564  0.34057318  1
  As  As6  1  0.26040983  0.43682436  0.84057318  1
  As  As7  1  0.73959017  0.93682436  0.65942682  1
  As  As8  1  0.74162749  0.43520667  0.84167101  1
  As  As9  1  0.25837251  0.93520667  0.65832899  1
  As  As10  1  0.24162749  0.06479333  0.15832899  1
  As  As11  1  0.75837251  0.56479333  0.34167101  1
  As  As12  1  0.96698657  0.74871460  0.99424565  1
  As  As13  1  0.03301343  0.24871460  0.50575435  1
  As  As14  1  0.46698657  0.75128540  0.00575435  1
  As  As15  1  0.53301343  0.25128540  0.49424565  1
  F  F16  1  0.65755332  -0.00093640  0.27607692  1
  F  F17  1  0.34244668  0.49906360  0.22392308  1
  F  F18  1  0.15755332  0.50093640  0.72392308  1
  F  F19  1  0.84244668  0.00093640  0.77607692  1
  F  F20  1  0.85029280  0.50114912  0.73085982  1
  F  F21  1  0.14970720  0.00114912  0.76914018  1
  F  F22  1  0.35029280  -0.00114912  0.26914018  1
  F  F23  1  0.64970720  0.49885088  0.23085982  1
  F  F24  1  0.85785704  0.92469832  0.16634834  1
  F  F25  1  0.14214296  0.42469832  0.33365166  1
  F  F26  1  0.35785704  0.57530168  0.83365166  1
  F  F27  1  0.64214296  0.07530168  0.66634834  1
  F  F28  1  0.64602587  0.57325148  0.83376565  1
  F  F29  1  0.35397413  0.07325148  0.66623435  1
  F  F30  1  0.14602587  0.92674852  0.16623435  1
  F  F31  1  0.85397413  0.42674852  0.33376565  1
  F  F32  1  0.65696022  0.20352489  0.15484914  1
  F  F33  1  0.34303978  0.70352489  0.34515086  1
  F  F34  1  0.15696022  0.29647511  0.84515086  1
  F  F35  1  0.84303978  0.79647511  0.65484914  1
  F  F36  1  0.84438142  0.29505562  0.84711263  1
  F  F37  1  0.15561858  0.79505562  0.65288737  1
  F  F38  1  0.34438142  0.20494438  0.15288737  1
  F  F39  1  0.65561858  0.70494438  0.34711263  1
  F  F40  1  0.00557928  0.91184370  0.95366513  1
  F  F41  1  0.99442072  0.41184370  0.54633487  1
  F  F42  1  0.50557928  0.58815630  0.04633487  1
  F  F43  1  0.49442072  0.08815630  0.45366513  1
  F  F44  1  0.00181806  0.69852719  0.84160427  1
  F  F45  1  0.99818194  0.19852719  0.65839573  1
  F  F46  1  0.50181806  0.80147281  0.15839573  1
  F  F47  1  0.49818194  0.30147281  0.34160427  1
  F  F48  1  0.85633932  0.13990894  0.26666997  1
  F  F49  1  0.14366068  0.63990894  0.23333003  1
  F  F50  1  0.35633932  0.36009106  0.73333003  1
  F  F51  1  0.64366068  0.86009106  0.76666997  1
  F  F52  1  0.65249356  0.36035174  0.72737067  1
  F  F53  1  0.34750644  0.86035174  0.77262933  1
  F  F54  1  0.15249356  0.13964826  0.27262933  1
  F  F55  1  0.84750644  0.63964826  0.22737067  1
  F  F56  1  0.65978116  0.99457222  0.04928670  1
  F  F57  1  0.34021884  0.49457222  0.45071330  1
  F  F58  1  0.15978116  0.50542778  0.95071330  1
  F  F59  1  0.84021884  0.00542778  0.54928670  1
  F  F60  1  0.83855797  0.50033084  0.95771943  1
  F  F61  1  0.16144203  0.00033084  0.54228057  1
  F  F62  1  0.33855797  -0.00033084  0.04228057  1
  F  F63  1  0.66144203  0.49966916  0.45771943  1
  F  F64  1  0.85843787  0.13170241  0.04158970  1
  F  F65  1  0.14156213  0.63170241  0.45841030  1
  F  F66  1  0.35843787  0.36829759  0.95841030  1
  F  F67  1  0.64156213  0.86829759  0.54158970  1
  F  F68  1  0.63845829  0.36377103  0.95358899  1
  F  F69  1  0.36154171  0.86377103  0.54641101  1
  F  F70  1  0.13845829  0.13622897  0.04641101  1
  F  F71  1  0.86154171  0.63622897  0.45358899  1
  F  F72  1  0.80064526  0.76821261  0.96480465  1
  F  F73  1  0.19935474  0.26821161  0.53519535  1
  F  F74  1  0.30064526  0.73178739  0.03519535  1
  F  F75  1  0.69935474  0.23178739  0.46480465  1
