# generated using pymatgen
data_P
_symmetry_space_group_name_H-M   'P 1'
_cell_length_a   13.95852675
_cell_length_b   5.46090751
_cell_length_c   8.89613118
_cell_angle_alpha   115.61048612
_cell_angle_beta   141.67703720
_cell_angle_gamma   56.56646548
_symmetry_Int_Tables_number   1
_chemical_formula_structural   P
_chemical_formula_sum   P2
_cell_volume   350.91536977
_cell_formula_units_Z   2
loop_
 _symmetry_equiv_pos_site_id
 _symmetry_equiv_pos_as_xyz
  1  'x, y, z'
loop_
 _atom_site_type_symbol
 _atom_site_label
 _atom_site_symmetry_multiplicity
 _atom_site_fract_x
 _atom_site_fract_y
 _atom_site_fract_z
 _atom_site_occupancy
  P  P0  1  0.54302474  0.79401774  0.00000000  1
  P  P1  1  0.45697526  0.20598226  1.00000000  1
