# generated using pymatgen
data_Cs2Ti4O9
_symmetry_space_group_name_H-M   'P 1'
_cell_length_a   3.82760025
_cell_length_b   10.35244819
_cell_length_c   12.10094063
_cell_angle_alpha   106.79959799
_cell_angle_beta   89.99973612
_cell_angle_gamma   100.65324385
_symmetry_Int_Tables_number   1
_chemical_formula_structural   Cs2Ti4O9
_chemical_formula_sum   'Cs4 Ti8 O18'
_cell_volume   450.39593132
_cell_formula_units_Z   2
loop_
 _symmetry_equiv_pos_site_id
 _symmetry_equiv_pos_as_xyz
  1  'x, y, z'
loop_
 _atom_site_type_symbol
 _atom_site_label
 _atom_site_symmetry_multiplicity
 _atom_site_fract_x
 _atom_site_fract_y
 _atom_site_fract_z
 _atom_site_occupancy
  Cs  Cs0  1  0.58640532  0.17242778  0.58294090  1
  Cs  Cs1  1  0.41359371  0.82757454  0.41705791  1
  Cs  Cs2  1  0.51523993  0.03057331  0.83912869  1
  Cs  Cs3  1  0.48476155  0.96943213  0.16087478  1
  Ti  Ti4  1  0.75284393  0.50580995  0.33397621  1
  Ti  Ti5  1  0.24715867  0.49419164  0.66602381  1
  Ti  Ti6  1  0.20790770  0.41573159  0.89742243  1
  Ti  Ti7  1  0.79209200  0.58427017  0.10257945  1
  Ti  Ti8  1  0.82926206  0.65833246  0.87619425  1
  Ti  Ti9  1  0.17074057  0.34166739  0.12380446  1
  Ti  Ti10  1  0.86568004  0.73135864  0.64200897  1
  Ti  Ti11  1  0.13432146  0.26864209  0.35799095  1
  O  O12  1  0.76642141  0.53282328  0.70020968  1
  O  O13  1  0.23357558  0.46717380  0.29979171  1
  O  O14  1  0.82800416  0.65631172  0.25678283  1
  O  O15  1  0.17199506  0.34368527  0.74322117  1
  O  O16  1  0.13444975  0.26887231  0.96117499  1
  O  O17  1  0.86554846  0.73113034  0.03882717  1
  O  O18  1  0.30316050  0.60614211  0.85973178  1
  O  O19  1  0.69683999  0.39385487  0.14026845  1
  O  O20  1  0.94779642  0.89522788  0.62656811  1
  O  O21  1  0.05219621  0.10477209  0.37342631  1
  O  O22  1  0.81064825  0.62126724  0.47490785  1
  O  O23  1  0.18935065  0.37873241  0.52509200  1
  O  O24  1  0.73197171  0.46377554  0.92186796  1
  O  O25  1  0.26803055  0.53622054  0.07813269  1
  O  O26  1  0.65947654  0.31899477  0.35476291  1
  O  O27  1  0.34052164  0.68100209  0.64523554  1
  O  O28  1  0.90067536  0.80118950  0.82020175  1
  O  O29  1  0.09932979  0.19881255  0.17979630  1
