# generated using pymatgen
data_BaMnO3
_symmetry_space_group_name_H-M   'P 1'
_cell_length_a   7.73760550
_cell_length_b   7.73760550
_cell_length_c   7.73760486
_cell_angle_alpha   43.16578741
_cell_angle_beta   43.16578741
_cell_angle_gamma   43.16578577
_symmetry_Int_Tables_number   1
_chemical_formula_structural   BaMnO3
_chemical_formula_sum   'Ba3 Mn3 O9'
_cell_volume   196.58101952
_cell_formula_units_Z   3
loop_
 _symmetry_equiv_pos_site_id
 _symmetry_equiv_pos_as_xyz
  1  'x, y, z'
loop_
 _atom_site_type_symbol
 _atom_site_label
 _atom_site_symmetry_multiplicity
 _atom_site_fract_x
 _atom_site_fract_y
 _atom_site_fract_z
 _atom_site_occupancy
  Ba  Ba0  1  0.78147576  0.78147576  0.78147576  1
  Ba  Ba1  1  0.21852424  0.21852424  0.21852424  1
  Ba  Ba2  1  0.00000000  0.00000000  -0.00000000  1
  Mn  Mn3  1  0.61899801  0.61899801  0.61899801  1
  Mn  Mn4  1  0.38100199  0.38100199  0.38100199  1
  Mn  Mn5  1  0.50000000  0.50000000  0.50000000  1
  O  O6  1  0.00000000  0.50000000  0.50000000  1
  O  O7  1  0.50000000  0.00000000  0.50000000  1
  O  O8  1  0.50000000  0.50000000  -0.00000000  1
  O  O9  1  0.29514527  0.29514527  0.73427261  1
  O  O10  1  0.73427261  0.29514527  0.29514527  1
  O  O11  1  0.29514527  0.73427261  0.29514527  1
  O  O12  1  0.26572739  0.70485473  0.70485473  1
  O  O13  1  0.70485473  0.70485473  0.26572739  1
  O  O14  1  0.70485473  0.26572739  0.70485473  1
