# generated using pymatgen
data_SiBr2
_symmetry_space_group_name_H-M   'P 1'
_cell_length_a   10.66445078
_cell_length_b   10.66445078
_cell_length_c   14.66110160
_cell_angle_alpha   72.55431714
_cell_angle_beta   72.55431714
_cell_angle_gamma   57.58546985
_symmetry_Int_Tables_number   1
_chemical_formula_structural   SiBr2
_chemical_formula_sum   'Si12 Br24'
_cell_volume   1322.68965630
_cell_formula_units_Z   12
loop_
 _symmetry_equiv_pos_site_id
 _symmetry_equiv_pos_as_xyz
  1  'x, y, z'
loop_
 _atom_site_type_symbol
 _atom_site_label
 _atom_site_symmetry_multiplicity
 _atom_site_fract_x
 _atom_site_fract_y
 _atom_site_fract_z
 _atom_site_occupancy
  Si  Si0  1  0.75745584  0.55250523  0.07789716  1
  Si  Si1  1  0.44749477  0.24254416  0.42210284  1
  Si  Si2  1  0.24254416  0.44749477  0.92210284  1
  Si  Si3  1  0.55250523  0.75745584  0.57789716  1
  Si  Si4  1  0.82141772  0.74431991  0.00415260  1
  Si  Si5  1  0.25568009  0.17858228  0.49584740  1
  Si  Si6  1  0.17858228  0.25568009  0.99584740  1
  Si  Si7  1  0.74431991  0.82141772  0.50415260  1
  Si  Si8  1  0.92237505  0.33162766  0.00938524  1
  Si  Si9  1  0.66837234  0.07762495  0.49061476  1
  Si  Si10  1  0.07762495  0.66837234  0.99061476  1
  Si  Si11  1  0.33162766  0.92237505  0.50938524  1
  Br  Br12  1  0.77233374  0.50079091  0.23358187  1
  Br  Br13  1  0.49920909  0.22766626  0.26641813  1
  Br  Br14  1  0.22766626  0.49920909  0.76641813  1
  Br  Br15  1  0.50079091  0.77233374  0.73358187  1
  Br  Br16  1  0.68024753  0.92920335  0.08979896  1
  Br  Br17  1  0.07079665  0.31975247  0.41020104  1
  Br  Br18  1  0.31975247  0.07079665  0.91020104  1
  Br  Br19  1  0.92920335  0.68024753  0.58979896  1
  Br  Br20  1  0.77767332  0.82045314  0.85324983  1
  Br  Br21  1  0.17954686  0.22232668  0.64675017  1
  Br  Br22  1  0.22232668  0.17954686  0.14675017  1
  Br  Br23  1  0.82045314  0.77767332  0.35324983  1
  Br  Br24  1  0.87184403  0.38209317  0.86236488  1
  Br  Br25  1  0.61790683  0.12815597  0.63763512  1
  Br  Br26  1  0.12815597  0.61790683  0.13763512  1
  Br  Br27  1  0.38209317  0.87184403  0.36236488  1
  Br  Br28  1  0.88436978  0.14452706  0.10087320  1
  Br  Br29  1  0.85547294  0.11563022  0.39912680  1
  Br  Br30  1  0.11563022  0.85547294  0.89912680  1
  Br  Br31  1  0.14452706  0.88436978  0.60087320  1
  Br  Br32  1  0.52444528  0.63519524  0.06136253  1
  Br  Br33  1  0.36480476  0.47555472  0.43863747  1
  Br  Br34  1  0.47555472  0.36480476  0.93863747  1
  Br  Br35  1  0.63519524  0.52444528  0.56136253  1
