# generated using pymatgen
data_Ba2CaV2(Si2O7)2
_symmetry_space_group_name_H-M   'P 1'
_cell_length_a   5.93955217
_cell_length_b   7.29894467
_cell_length_c   8.65119907
_cell_angle_alpha   98.39632873
_cell_angle_beta   114.57740955
_cell_angle_gamma   77.54349553
_symmetry_Int_Tables_number   1
_chemical_formula_structural   Ba2CaV2(Si2O7)2
_chemical_formula_sum   'Ba2 Ca1 V2 Si4 O14'
_cell_volume   332.37225549
_cell_formula_units_Z   1
loop_
 _symmetry_equiv_pos_site_id
 _symmetry_equiv_pos_as_xyz
  1  'x, y, z'
loop_
 _atom_site_type_symbol
 _atom_site_label
 _atom_site_symmetry_multiplicity
 _atom_site_fract_x
 _atom_site_fract_y
 _atom_site_fract_z
 _atom_site_occupancy
  Ba  Ba0  1  0.78633600  0.75423500  0.57595000  1
  Ba  Ba1  1  0.28800500  0.24381700  0.42938500  1
  Ca  Ca2  1  0.10813700  0.96640900  0.03345100  1
  V  V3  1  0.06119500  0.60176100  0.16615200  1
  V  V4  1  0.99348700  0.36739600  0.84534300  1
  Si  Si5  1  0.42551700  0.51881200  0.80870800  1
  Si  Si6  1  0.63859100  0.46011600  0.21562100  1
  Si  Si7  1  0.35061200  0.96952000  0.78533300  1
  Si  Si8  1  0.69208300  0.01793800  0.18932400  1
  O  O9  1  0.17545400  0.42046200  0.71122800  1
  O  O10  1  0.43120200  0.55523700  0.29563100  1
  O  O11  1  0.06786900  0.07306800  0.77126200  1
  O  O12  1  0.51223700  0.95824600  0.26407800  1
  O  O13  1  0.54233700  0.48853600  0.01281700  1
  O  O14  1  0.55295600  0.02315100  0.97903300  1
  O  O15  1  0.98412700  0.65606000  0.94313400  1
  O  O16  1  0.08848600  0.31387200  0.07267400  1
  O  O17  1  0.32586100  0.74477000  0.78070500  1
  O  O18  1  0.73490700  0.23778600  0.26193000  1
  O  O19  1  0.62396700  0.43017100  0.71979300  1
  O  O20  1  0.89236000  0.55483500  0.31318300  1
  O  O21  1  0.44970200  0.99424800  0.64609500  1
  O  O22  1  0.97557400  0.89955400  0.23385700  1
