# generated using pymatgen
data_Rb2S
_symmetry_space_group_name_H-M   'P 1'
_cell_length_a   5.10033279
_cell_length_b   8.30578135
_cell_length_c   10.01335707
_cell_angle_alpha   90.00000000
_cell_angle_beta   90.00000000
_cell_angle_gamma   90.00000000
_symmetry_Int_Tables_number   1
_chemical_formula_structural   Rb2S
_chemical_formula_sum   'Rb8 S4'
_cell_volume   424.18832518
_cell_formula_units_Z   4
loop_
 _symmetry_equiv_pos_site_id
 _symmetry_equiv_pos_as_xyz
  1  'x, y, z'
loop_
 _atom_site_type_symbol
 _atom_site_label
 _atom_site_symmetry_multiplicity
 _atom_site_fract_x
 _atom_site_fract_y
 _atom_site_fract_z
 _atom_site_occupancy
  Rb  Rb0  1  0.75000000  0.47751559  0.67165334  1
  Rb  Rb1  1  0.75000000  0.97751559  0.82834666  1
  Rb  Rb2  1  0.25000000  0.52248441  0.32834666  1
  Rb  Rb3  1  0.25000000  0.02248441  0.17165334  1
  Rb  Rb4  1  0.75000000  0.35352808  0.07506143  1
  Rb  Rb5  1  0.75000000  0.85352808  0.42493857  1
  Rb  Rb6  1  0.25000000  0.64647192  0.92493857  1
  Rb  Rb7  1  0.25000000  0.14647192  0.57506143  1
  S  S8  1  0.75000000  0.25166358  0.38874019  1
  S  S9  1  0.75000000  0.75166358  0.11125981  1
  S  S10  1  0.25000000  0.74833642  0.61126081  1
  S  S11  1  0.25000000  0.24833642  0.88873919  1
