# generated using pymatgen
data_BeSe
_symmetry_space_group_name_H-M   'P 1'
_cell_length_a   3.65428432
_cell_length_b   3.65428307
_cell_length_c   3.65428332
_cell_angle_alpha   59.99999777
_cell_angle_beta   60.00000903
_cell_angle_gamma   60.00000014
_symmetry_Int_Tables_number   1
_chemical_formula_structural   BeSe
_chemical_formula_sum   'Be1 Se1'
_cell_volume   34.50577300
_cell_formula_units_Z   1
loop_
 _symmetry_equiv_pos_site_id
 _symmetry_equiv_pos_as_xyz
  1  'x, y, z'
loop_
 _atom_site_type_symbol
 _atom_site_label
 _atom_site_symmetry_multiplicity
 _atom_site_fract_x
 _atom_site_fract_y
 _atom_site_fract_z
 _atom_site_occupancy
  Be  Be0  1  0.00000000  0.00000000  -0.00000000  1
  Se  Se1  1  0.25000000  0.25000000  0.25000000  1
