# generated using pymatgen
data_RbNaTi2(PO5)2
_symmetry_space_group_name_H-M   'P 1'
_cell_length_a   6.39985799
_cell_length_b   12.98808031
_cell_length_c   10.70330523
_cell_angle_alpha   90.00000000
_cell_angle_beta   90.00000000
_cell_angle_gamma   90.00000000
_symmetry_Int_Tables_number   1
_chemical_formula_structural   RbNaTi2(PO5)2
_chemical_formula_sum   'Rb4 Na4 Ti8 P8 O40'
_cell_volume   889.67874105
_cell_formula_units_Z   4
loop_
 _symmetry_equiv_pos_site_id
 _symmetry_equiv_pos_as_xyz
  1  'x, y, z'
loop_
 _atom_site_type_symbol
 _atom_site_label
 _atom_site_symmetry_multiplicity
 _atom_site_fract_x
 _atom_site_fract_y
 _atom_site_fract_z
 _atom_site_occupancy
  Rb  Rb0  1  0.83851531  0.90246347  0.41860783  1
  Rb  Rb1  1  0.16148469  0.09753653  0.91860783  1
  Rb  Rb2  1  0.66148469  0.40246347  0.41860783  1
  Rb  Rb3  1  0.33851531  0.59753653  0.91860783  1
  Na  Na4  1  0.25851876  0.84925503  0.69857824  1
  Na  Na5  1  0.74148124  0.15074497  0.19857824  1
  Na  Na6  1  0.24148124  0.34925503  0.69857824  1
  Na  Na7  1  0.75851876  0.65074497  0.19857824  1
  Ti  Ti8  1  0.52449775  0.87242824  0.98899414  1
  Ti  Ti9  1  0.47550225  0.12757176  0.48899414  1
  Ti  Ti10  1  0.97550225  0.37242824  0.98899414  1
  Ti  Ti11  1  0.02449775  0.62757176  0.48899414  1
  Ti  Ti12  1  0.75231286  0.75047719  0.72994717  1
  Ti  Ti13  1  0.24768714  0.24952281  0.22994717  1
  Ti  Ti14  1  0.74768714  0.25047719  0.72994717  1
  Ti  Ti15  1  0.25231286  0.74952281  0.22994717  1
  P  P16  1  0.66183343  0.99992455  0.72579851  1
  P  P17  1  0.33816657  0.00007545  0.22579851  1
  P  P18  1  0.83816657  0.49992455  0.72579851  1
  P  P19  1  0.16183343  0.50007545  0.22579851  1
  P  P20  1  0.01686548  0.81524604  0.97352161  1
  P  P21  1  0.98313452  0.18475396  0.47352161  1
  P  P22  1  0.48313452  0.31524604  0.97352161  1
  P  P23  1  0.51686548  0.68475396  0.47352161  1
  O  O24  1  0.98548451  0.51019282  0.60956603  1
  O  O25  1  0.01451549  0.48980718  0.10956603  1
  O  O26  1  0.51451549  0.01019282  0.60956603  1
  O  O27  1  0.48548451  0.98980718  0.10956603  1
  O  O28  1  0.71299062  0.61917718  0.44682180  1
  O  O29  1  0.28700938  0.38082282  0.94682180  1
  O  O30  1  0.78700938  0.11917718  0.44682180  1
  O  O31  1  0.21299062  0.88082282  0.94682180  1
  O  O32  1  0.55493687  0.78087609  0.84297851  1
  O  O33  1  0.44506313  0.21912391  0.34297851  1
  O  O34  1  0.94506313  0.28087609  0.84297851  1
  O  O35  1  0.05493687  0.71912391  0.34297851  1
  O  O36  1  0.98672643  0.72797507  0.59967652  1
  O  O37  1  0.01327357  0.27202493  0.09967652  1
  O  O38  1  0.51327357  0.22797507  0.59967652  1
  O  O39  1  0.48672643  0.77202493  0.09967652  1
  O  O40  1  0.54911829  0.75948415  0.58508994  1
  O  O41  1  0.45088171  0.24051585  0.08508994  1
  O  O42  1  0.95088171  0.25948415  0.58508994  1
  O  O43  1  0.04911829  0.74051585  0.08508994  1
  O  O44  1  0.83126793  0.88728668  0.99980498  1
  O  O45  1  0.16873207  0.11271332  0.49980498  1
  O  O46  1  0.66873207  0.38728668  0.99980498  1
  O  O47  1  0.33126793  0.61271332  0.49980498  1
  O  O48  1  0.52601173  0.98512594  0.84221558  1
  O  O49  1  0.47398827  0.01487406  0.34221558  1
  O  O50  1  0.97398827  0.48512594  0.84221558  1
  O  O51  1  0.02601173  0.51487406  0.34221558  1
  O  O52  1  0.98062558  0.74858996  0.85428807  1
  O  O53  1  0.01937442  0.25141004  0.35428807  1
  O  O54  1  0.51937442  0.24858996  0.85428807  1
  O  O55  1  0.48062558  0.75141004  0.35428807  1
  O  O56  1  0.70334026  0.59951079  0.74017425  1
  O  O57  1  0.29665974  0.40048921  0.24017425  1
  O  O58  1  0.79665974  0.09951079  0.74017425  1
  O  O59  1  0.20334026  0.90048921  0.24017425  1
  O  O60  1  0.81115820  0.90668677  0.70213681  1
  O  O61  1  0.18884180  0.09331323  0.20213681  1
  O  O62  1  0.68884180  0.40668677  0.70213681  1
  O  O63  1  0.31115820  0.59331323  0.20213681  1
