# generated using pymatgen
data_Sr2V2O7
_symmetry_space_group_name_H-M   'P 1'
_cell_length_a   7.05737949
_cell_length_b   7.10315981
_cell_length_c   13.00697710
_cell_angle_alpha   99.30802613
_cell_angle_beta   93.63681183
_cell_angle_gamma   90.90526712
_symmetry_Int_Tables_number   1
_chemical_formula_structural   Sr2V2O7
_chemical_formula_sum   'Sr8 V8 O28'
_cell_volume   641.92985089
_cell_formula_units_Z   4
loop_
 _symmetry_equiv_pos_site_id
 _symmetry_equiv_pos_as_xyz
  1  'x, y, z'
loop_
 _atom_site_type_symbol
 _atom_site_label
 _atom_site_symmetry_multiplicity
 _atom_site_fract_x
 _atom_site_fract_y
 _atom_site_fract_z
 _atom_site_occupancy
  Sr  Sr0  1  0.75187192  0.26583232  0.34622009  1
  Sr  Sr1  1  0.24812952  0.73415959  0.65377837  1
  Sr  Sr2  1  0.07505579  0.34189382  0.84438284  1
  Sr  Sr3  1  0.92494384  0.65811720  0.15561521  1
  Sr  Sr4  1  0.67215514  0.71445146  0.86077533  1
  Sr  Sr5  1  0.32784401  0.28555791  0.13922310  1
  Sr  Sr6  1  0.63357743  0.12776394  0.63816639  1
  Sr  Sr7  1  0.36642617  0.87222947  0.36183365  1
  V  V8  1  0.83580169  0.80408023  0.41112899  1
  V  V9  1  0.16420105  0.19591298  0.58887383  1
  V  V10  1  0.84134232  0.18058095  0.08226759  1
  V  V11  1  0.15865656  0.81943476  0.91773471  1
  V  V12  1  0.55341351  0.19859648  0.88676680  1
  V  V13  1  0.44658148  0.80140791  0.11322976  1
  V  V14  1  0.78043400  0.60241026  0.60908200  1
  V  V15  1  0.21957094  0.39758119  0.39091790  1
  O  O16  1  0.68564341  0.39717014  0.54195921  1
  O  O17  1  0.31436139  0.60281737  0.45803996  1
  O  O18  1  0.92672892  0.56603621  0.71188032  1
  O  O19  1  0.07326750  0.43395817  0.28811975  1
  O  O20  1  0.69439188  0.06276272  0.96897816  1
  O  O21  1  0.30560626  0.93725213  0.03102244  1
  O  O22  1  0.45484528  0.03478661  0.78920849  1
  O  O23  1  0.54515755  0.96521058  0.21079263  1
  O  O24  1  0.99163366  0.67246099  0.95501155  1
  O  O25  1  0.00836408  0.32754873  0.04498973  1
  O  O26  1  0.60966531  0.75038053  0.65978715  1
  O  O27  1  0.39033622  0.24961054  0.34020892  1
  O  O28  1  0.30268516  0.36394170  0.66505508  1
  O  O29  1  0.69731152  0.63605129  0.33495125  1
  O  O30  1  0.04765365  0.97226055  0.85110806  1
  O  O31  1  0.95234168  0.02774781  0.14889304  1
  O  O32  1  0.00818224  0.87221563  0.33999121  1
  O  O33  1  0.99181679  0.12777286  0.66000618  1
  O  O34  1  0.30255503  0.65762473  0.17068142  1
  O  O35  1  0.69743834  0.34237786  0.82931519  1
  O  O36  1  0.92914982  0.71733739  0.52777381  1
  O  O37  1  0.07085647  0.28265794  0.47222968  1
  O  O38  1  0.30876199  0.00858256  0.55261758  1
  O  O39  1  0.61687300  0.67969550  0.04835704  1
  O  O40  1  0.69825738  0.32498808  0.15949626  1
  O  O41  1  0.30174370  0.67502121  0.84050450  1
  O  O42  1  0.69124595  0.99141002  0.44738490  1
  O  O43  1  0.38311945  0.32031071  0.95163992  1
