# generated using pymatgen
data_SbAsO5
_symmetry_space_group_name_H-M   'P 1'
_cell_length_a   4.92582480
_cell_length_b   8.81480547
_cell_length_c   9.19652929
_cell_angle_alpha   90.00000000
_cell_angle_beta   90.00000000
_cell_angle_gamma   90.00000000
_symmetry_Int_Tables_number   1
_chemical_formula_structural   SbAsO5
_chemical_formula_sum   'Sb4 As4 O20'
_cell_volume   399.31502512
_cell_formula_units_Z   4
loop_
 _symmetry_equiv_pos_site_id
 _symmetry_equiv_pos_as_xyz
  1  'x, y, z'
loop_
 _atom_site_type_symbol
 _atom_site_label
 _atom_site_symmetry_multiplicity
 _atom_site_fract_x
 _atom_site_fract_y
 _atom_site_fract_z
 _atom_site_occupancy
  Sb  Sb0  1  0.88233654  0.65251057  0.10329656  1
  Sb  Sb1  1  0.38233654  0.84748943  0.89670344  1
  Sb  Sb2  1  0.11766346  0.15251057  0.39670344  1
  Sb  Sb3  1  0.61766346  0.34748943  0.60329656  1
  As  As4  1  0.89167773  0.02872036  0.71132957  1
  As  As5  1  0.39167773  0.47127964  0.28867043  1
  As  As6  1  0.10832227  0.52872036  0.78867043  1
  As  As7  1  0.60832227  0.97127964  0.21132957  1
  O  O8  1  0.05164575  0.50123833  0.96953349  1
  O  O9  1  0.55164575  -0.00123833  0.03046651  1
  O  O10  1  0.94835425  0.00123833  0.53046651  1
  O  O11  1  0.44835425  0.49876167  0.46953349  1
  O  O12  1  0.22135507  0.70641924  0.74894465  1
  O  O13  1  0.72135507  0.79358076  0.25105535  1
  O  O14  1  0.77864493  0.20641924  0.75105535  1
  O  O15  1  0.27864493  0.29358076  0.24894465  1
  O  O16  1  0.91981903  0.32456953  0.47082938  1
  O  O17  1  0.41981903  0.17543047  0.52917062  1
  O  O18  1  0.08018097  0.82456953  0.02917062  1
  O  O19  1  0.58018097  0.67543047  0.97082938  1
  O  O20  1  0.17442656  0.61282302  0.24764661  1
  O  O21  1  0.67442656  0.88717698  0.75235339  1
  O  O22  1  0.82557344  0.11282302  0.25235339  1
  O  O23  1  0.32557344  0.38717698  0.74764661  1
  O  O24  1  0.68586293  0.48070446  0.19364423  1
  O  O25  1  0.18586293  0.01929554  0.80635577  1
  O  O26  1  0.31413707  0.98070446  0.30635577  1
  O  O27  1  0.81413707  0.51929554  0.69364423  1
