# generated using pymatgen
data_Sr3(GaAs2)2
_symmetry_space_group_name_H-M   'P 1'
_cell_length_a   8.58347524
_cell_length_b   8.58347524
_cell_length_c   6.83191627
_cell_angle_alpha   89.83920307
_cell_angle_beta   89.83920307
_cell_angle_gamma   75.62648191
_symmetry_Int_Tables_number   1
_chemical_formula_structural   Sr3(GaAs2)2
_chemical_formula_sum   'Sr6 Ga4 As8'
_cell_volume   487.58969189
_cell_formula_units_Z   2
loop_
 _symmetry_equiv_pos_site_id
 _symmetry_equiv_pos_as_xyz
  1  'x, y, z'
loop_
 _atom_site_type_symbol
 _atom_site_label
 _atom_site_symmetry_multiplicity
 _atom_site_fract_x
 _atom_site_fract_y
 _atom_site_fract_z
 _atom_site_occupancy
  Sr  Sr0  1  0.74911383  0.00385238  0.96485685  1
  Sr  Sr1  1  0.99614762  0.25088617  0.53514315  1
  Sr  Sr2  1  0.25088617  0.99614762  0.03514315  1
  Sr  Sr3  1  0.00385238  0.74911383  0.46485685  1
  Sr  Sr4  1  0.60003170  0.39996830  0.25000000  1
  Sr  Sr5  1  0.39996830  0.60003170  0.75000000  1
  Ga  Ga6  1  0.58299572  0.82453735  0.41656395  1
  Ga  Ga7  1  0.17546265  0.41700428  0.08343605  1
  Ga  Ga8  1  0.41700428  0.17546265  0.58343605  1
  Ga  Ga9  1  0.82453735  0.58299572  0.91656395  1
  As  As10  1  0.70699299  0.05808489  0.47676796  1
  As  As11  1  0.94191511  0.29300701  0.02323204  1
  As  As12  1  0.29300701  0.94191511  0.52323204  1
  As  As13  1  0.05808489  0.70699299  0.97676796  1
  As  As14  1  0.57240509  0.74069637  0.07233475  1
  As  As15  1  0.25930363  0.42759491  0.42766525  1
  As  As16  1  0.42759491  0.25930363  0.92766525  1
  As  As17  1  0.74069637  0.57240509  0.57233475  1
