# generated using pymatgen
data_Ca(LuTe2)2
_symmetry_space_group_name_H-M   'P 1'
_cell_length_a   4.34111242
_cell_length_b   7.41058924
_cell_length_c   7.69098676
_cell_angle_alpha   72.23499808
_cell_angle_beta   90.00000000
_cell_angle_gamma   90.00000000
_symmetry_Int_Tables_number   1
_chemical_formula_structural   Ca(LuTe2)2
_chemical_formula_sum   'Ca1 Lu2 Te4'
_cell_volume   235.62257230
_cell_formula_units_Z   1
loop_
 _symmetry_equiv_pos_site_id
 _symmetry_equiv_pos_as_xyz
  1  'x, y, z'
loop_
 _atom_site_type_symbol
 _atom_site_label
 _atom_site_symmetry_multiplicity
 _atom_site_fract_x
 _atom_site_fract_y
 _atom_site_fract_z
 _atom_site_occupancy
  Ca  Ca0  1  0.00000000  0.50000000  0.50000000  1
  Lu  Lu1  1  0.00000000  -0.00000000  -0.00000000  1
  Lu  Lu2  1  0.50000000  0.50000000  -0.00000000  1
  Te  Te3  1  0.50000000  0.76200719  0.23880840  1
  Te  Te4  1  -0.00000000  0.25587746  0.23247109  1
  Te  Te5  1  0.50000000  0.23799281  0.76119160  1
  Te  Te6  1  -0.00000000  0.74412254  0.76752891  1
