# generated using pymatgen
data_Na4Ca2P8O35
_symmetry_space_group_name_H-M   'P 1'
_cell_length_a   28.55613342
_cell_length_b   7.77551493
_cell_length_c   7.46464441
_cell_angle_alpha   90.00000000
_cell_angle_beta   90.00000000
_cell_angle_gamma   90.00000000
_symmetry_Int_Tables_number   1
_chemical_formula_structural   Na4Ca2P8O35
_chemical_formula_sum   'Na8 Ca4 P16 O70'
_cell_volume   1657.43950595
_cell_formula_units_Z   2
loop_
 _symmetry_equiv_pos_site_id
 _symmetry_equiv_pos_as_xyz
  1  'x, y, z'
loop_
 _atom_site_type_symbol
 _atom_site_label
 _atom_site_symmetry_multiplicity
 _atom_site_fract_x
 _atom_site_fract_y
 _atom_site_fract_z
 _atom_site_occupancy
  Na  Na0  1  0.87427054  0.96018257  0.10402268  1
  Na  Na1  1  0.12572946  0.03981743  0.10402268  1
  Na  Na2  1  0.62572946  0.96018257  0.10402268  1
  Na  Na3  1  0.37427054  0.03981743  0.10402268  1
  Na  Na4  1  0.63223439  0.48970013  0.59374573  1
  Na  Na5  1  0.36776561  0.51029987  0.59374573  1
  Na  Na6  1  0.86776561  0.48970013  0.59374573  1
  Na  Na7  1  0.13223439  0.51029987  0.59374573  1
  Ca  Ca8  1  0.50000000  -0.00000000  0.05575288  1
  Ca  Ca9  1  -0.00000000  -0.00000000  0.05575288  1
  Ca  Ca10  1  0.75000000  0.57796428  0.61688738  1
  Ca  Ca11  1  0.25000000  0.42203572  0.61688738  1
  P  P12  1  0.55061404  0.69200597  0.33701998  1
  P  P13  1  0.44938596  0.30799403  0.33701998  1
  P  P14  1  0.94938596  0.69200597  0.33701998  1
  P  P15  1  0.05061404  0.30799403  0.33701998  1
  P  P16  1  0.55299394  0.31043594  0.31863028  1
  P  P17  1  0.44700606  0.68956406  0.31863028  1
  P  P18  1  0.94700606  0.31043594  0.31863028  1
  P  P19  1  0.05299394  0.68956406  0.31863028  1
  P  P20  1  0.69731837  0.29152631  0.92638358  1
  P  P21  1  0.30268163  0.70847369  0.92638358  1
  P  P22  1  0.80268163  0.29152631  0.92638358  1
  P  P23  1  0.19731837  0.70847369  0.92638358  1
  P  P24  1  0.69740457  0.58169135  0.18931069  1
  P  P25  1  0.30259543  0.41830865  0.18931069  1
  P  P26  1  0.80259543  0.58169135  0.18931069  1
  P  P27  1  0.19740457  0.41830865  0.18931069  1
  O  O28  1  0.91527916  0.70330525  0.48817127  1
  O  O29  1  0.08472084  0.29669475  0.48817127  1
  O  O30  1  0.58472084  0.70330525  0.48817127  1
  O  O31  1  0.41527916  0.29669475  0.48817127  1
  O  O32  1  0.94568058  0.82229241  0.18755210  1
  O  O33  1  0.05431942  0.17770759  0.18755210  1
  O  O34  1  0.55431942  0.82229241  0.18755210  1
  O  O35  1  0.44568058  0.17770759  0.18755210  1
  O  O36  1  0.94803365  0.50591235  0.23935301  1
  O  O37  1  0.05196635  0.49408765  0.23935301  1
  O  O38  1  0.55196635  0.50591235  0.23935301  1
  O  O39  1  0.44803365  0.49408765  0.23935301  1
  O  O40  1  0.50198411  0.29871752  0.42023281  1
  O  O41  1  0.49801589  0.70128248  0.42023281  1
  O  O42  1  0.99801589  0.29871752  0.42023281  1
  O  O43  1  0.00198411  0.70128248  0.42023281  1
  O  O44  1  0.58971709  0.28661743  0.45728245  1
  O  O45  1  0.41028291  0.71338257  0.45728245  1
  O  O46  1  0.91028291  0.28661743  0.45728245  1
  O  O47  1  0.08971709  0.71338257  0.45728245  1
  O  O48  1  0.94747781  0.19634207  0.15487211  1
  O  O49  1  0.05252219  0.80365793  0.15487211  1
  O  O50  1  0.55252219  0.19634207  0.15487211  1
  O  O51  1  0.44747781  0.80365793  0.15487211  1
  O  O52  1  0.69617756  0.42608029  0.77851146  1
  O  O53  1  0.30382244  0.57391971  0.77851146  1
  O  O54  1  0.80382244  0.42608029  0.77851146  1
  O  O55  1  0.19617756  0.57391971  0.77851146  1
  O  O56  1  0.83601969  0.14521211  0.92004040  1
  O  O57  1  0.16398031  0.85478789  0.92004040  1
  O  O58  1  0.66398031  0.14521211  0.92004040  1
  O  O59  1  0.33601969  0.85478789  0.92004040  1
  O  O60  1  0.83556710  0.70139234  0.09948521  1
  O  O61  1  0.16443290  0.29860766  0.09948521  1
  O  O62  1  0.66443290  0.70139234  0.09948521  1
  O  O63  1  0.33556710  0.29860766  0.09948521  1
  O  O64  1  0.69682881  0.56485768  0.39193045  1
  O  O65  1  0.30317119  0.43514232  0.39193045  1
  O  O66  1  0.80317119  0.56485768  0.39193045  1
  O  O67  1  0.19682881  0.43514232  0.39193045  1
  O  O68  1  0.75000000  0.63087873  0.12095727  1
  O  O69  1  0.25000000  0.36912127  0.12095727  1
  O  O70  1  0.75000000  0.21221672  0.93691031  1
  O  O71  1  0.25000000  0.78778328  0.93691031  1
  O  O72  1  0.80822800  0.38467997  0.11939573  1
  O  O73  1  0.19177200  0.61532003  0.11939573  1
  O  O74  1  0.69177200  0.38467997  0.11939573  1
  O  O75  1  0.30822800  0.61532003  0.11939573  1
  O  O76  1  0.94059214  0.57177766  0.80931546  1
  O  O77  1  0.05940786  0.42822234  0.80931546  1
  O  O78  1  0.55940786  0.57177766  0.80931546  1
  O  O79  1  0.44059214  0.42822234  0.80931546  1
  O  O80  1  0.67705290  0.88284450  0.65603990  1
  O  O81  1  0.32294710  0.11715550  0.65603990  1
  O  O82  1  0.82294710  0.88284450  0.65603990  1
  O  O83  1  0.17705290  0.11715550  0.65603990  1
  O  O84  1  0.55198298  0.85374762  0.81648286  1
  O  O85  1  0.44801702  0.14625238  0.81648286  1
  O  O86  1  0.94801702  0.85374762  0.81648286  1
  O  O87  1  0.05198298  0.14625238  0.81648286  1
  O  O88  1  0.96739767  0.70073861  0.82585314  1
  O  O89  1  0.03260233  0.29926139  0.82585314  1
  O  O90  1  0.53260233  0.70073861  0.82585314  1
  O  O91  1  0.46739767  0.29926139  0.82585314  1
  O  O92  1  0.69870622  0.97153920  0.54599949  1
  O  O93  1  0.30129378  0.02846080  0.54599949  1
  O  O94  1  0.80129378  0.97153920  0.54599949  1
  O  O95  1  0.19870622  0.02846080  0.54599949  1
  O  O96  1  0.75000000  0.87960759  0.48912660  1
  O  O97  1  0.25000000  0.12039241  0.48912660  1
