# generated using pymatgen
data_YCr(BO3)2
_symmetry_space_group_name_H-M   'P 1'
_cell_length_a   4.82315214
_cell_length_b   4.82288401
_cell_length_c   21.17975099
_cell_angle_alpha   83.45617963
_cell_angle_beta   96.54022225
_cell_angle_gamma   120.00020863
_symmetry_Int_Tables_number   1
_chemical_formula_structural   YCr(BO3)2
_chemical_formula_sum   'Y4 Cr4 B8 O24'
_cell_volume   422.95797643
_cell_formula_units_Z   4
loop_
 _symmetry_equiv_pos_site_id
 _symmetry_equiv_pos_as_xyz
  1  'x, y, z'
loop_
 _atom_site_type_symbol
 _atom_site_label
 _atom_site_symmetry_multiplicity
 _atom_site_fract_x
 _atom_site_fract_y
 _atom_site_fract_z
 _atom_site_occupancy
  Y  Y0  1  0.24999400  0.75002800  0.75000500  1
  Y  Y1  1  0.50000500  0.49993300  0.50007300  1
  Y  Y2  1  0.99999900  0.00005200  0.99993200  1
  Y  Y3  1  0.75000700  0.24996100  0.24999900  1
  Cr  Cr4  1  0.62511600  0.37521200  0.87493100  1
  Cr  Cr5  1  0.87515300  0.12510900  0.62508900  1
  Cr  Cr6  1  0.37506200  0.62499400  0.12497700  1
  Cr  Cr7  1  0.12500100  0.87500600  0.37506000  1
  B  B8  1  0.94002100  0.06012800  0.81987400  1
  B  B9  1  0.18997300  0.80998900  0.56999900  1
  B  B10  1  0.68996800  0.31001600  0.06985300  1
  B  B11  1  0.43994400  0.55994900  0.31995600  1
  B  B12  1  0.31008600  0.69009000  0.92999600  1
  B  B13  1  0.56001800  0.43995800  0.68012300  1
  B  B14  1  0.06004400  0.93994900  0.18003600  1
  B  B15  1  0.81000700  0.18988800  0.43014100  1
  O  O16  1  0.91090200  0.33299700  0.81750500  1
  O  O17  1  0.16089200  0.08292800  0.56763900  1
  O  O18  1  0.66086900  0.58295300  0.06748900  1
  O  O19  1  0.41097000  0.83295300  0.31759300  1
  O  O20  1  0.33905900  0.41710000  0.93235800  1
  O  O21  1  0.58904000  0.16703400  0.68249100  1
  O  O22  1  0.08898900  0.66696300  0.18240600  1
  O  O23  1  0.83907300  0.91696700  0.43250800  1
  O  O24  1  0.66709700  0.76054900  0.81750500  1
  O  O25  1  0.91698200  0.51039300  0.56764600  1
  O  O26  1  0.41700400  0.01040500  0.06749700  1
  O  O27  1  0.16692600  0.26035800  0.31760500  1
  O  O28  1  0.58304000  0.98966200  0.93234700  1
  O  O29  1  0.83289600  0.73951100  0.68248500  1
  O  O30  1  0.33301900  0.23951800  0.18240000  1
  O  O31  1  0.08293600  0.48945500  0.43250700  1
  O  O32  1  0.23958500  0.08918300  0.81751300  1
  O  O33  1  0.48949300  0.83900400  0.56762400  1
  O  O34  1  0.98955800  0.33908000  0.06749200  1
  O  O35  1  0.73951900  0.58891500  0.31759100  1
  O  O36  1  0.01049800  0.66107700  0.93236400  1
  O  O37  1  0.26037800  0.41089400  0.68248200  1
  O  O38  1  0.76045500  0.91099300  0.18240300  1
  O  O39  1  0.51042200  0.16084500  0.43250700  1
