# generated using pymatgen
data_Ca3Al2O6
_symmetry_space_group_name_H-M   'P 1'
_cell_length_a   15.40889798
_cell_length_b   15.40889798
_cell_length_c   15.40889798
_cell_angle_alpha   90.00000000
_cell_angle_beta   90.00000000
_cell_angle_gamma   90.00000000
_symmetry_Int_Tables_number   1
_chemical_formula_structural   Ca3Al2O6
_chemical_formula_sum   'Ca72 Al48 O144'
_cell_volume   3658.59839336
_cell_formula_units_Z   24
loop_
 _symmetry_equiv_pos_site_id
 _symmetry_equiv_pos_as_xyz
  1  'x, y, z'
loop_
 _atom_site_type_symbol
 _atom_site_label
 _atom_site_symmetry_multiplicity
 _atom_site_fract_x
 _atom_site_fract_y
 _atom_site_fract_z
 _atom_site_occupancy
  O  O0  1  0.28449781  0.12307133  0.01128984  1
  O  O1  1  0.01128984  0.28449781  0.12307133  1
  O  O2  1  0.12307133  0.01128984  0.28449781  1
  O  O3  1  0.37692867  0.98871016  0.78449781  1
  O  O4  1  0.51128984  0.21550219  0.87692867  1
  O  O5  1  0.87692867  0.51128984  0.21550219  1
  O  O6  1  0.48871016  0.71550219  0.62307133  1
  O  O7  1  0.98871016  0.78449781  0.37692867  1
  O  O8  1  0.62307133  0.48871016  0.71550219  1
  O  O9  1  0.78449781  0.37692867  0.98871016  1
  O  O10  1  0.71550219  0.62307133  0.48871016  1
  O  O11  1  0.21550219  0.87692867  0.51128984  1
  O  O12  1  0.71550219  0.87692867  0.98871016  1
  O  O13  1  0.98871016  0.71550219  0.87692867  1
  O  O14  1  0.87692867  0.98871016  0.71550219  1
  O  O15  1  0.62307133  0.01128984  0.21550219  1
  O  O16  1  0.48871016  0.78449781  0.12307133  1
  O  O17  1  0.12307133  0.48871016  0.78449781  1
  O  O18  1  0.51128984  0.28449781  0.37692867  1
  O  O19  1  0.01128984  0.21550219  0.62307133  1
  O  O20  1  0.37692867  0.51128984  0.28449781  1
  O  O21  1  0.21550219  0.62307133  0.01128984  1
  O  O22  1  0.28449781  0.37692867  0.51128984  1
  O  O23  1  0.78449781  0.12307133  0.48871016  1
  O  O24  1  0.48256441  0.13104192  0.26057531  1
  O  O25  1  0.26057531  0.48256441  0.13104192  1
  O  O26  1  0.13104192  0.26057531  0.48256441  1
  O  O27  1  0.36895808  0.73942469  0.98256441  1
  O  O28  1  0.76057531  0.01743559  0.86895808  1
  O  O29  1  0.86895808  0.76057531  0.01743559  1
  O  O30  1  0.23942469  0.51743559  0.63104192  1
  O  O31  1  0.73942469  0.98256441  0.36895808  1
  O  O32  1  0.63104192  0.23942469  0.51743559  1
  O  O33  1  0.98256441  0.36895808  0.73942469  1
  O  O34  1  0.51743559  0.63104192  0.23942469  1
  O  O35  1  0.01743559  0.86895808  0.76057531  1
  O  O36  1  0.51743559  0.86895808  0.73942469  1
  O  O37  1  0.73942469  0.51743559  0.86895808  1
  O  O38  1  0.86895808  0.73942469  0.51743559  1
  O  O39  1  0.63104192  0.26057531  0.01743559  1
  O  O40  1  0.23942469  0.98256441  0.13104192  1
  O  O41  1  0.13104192  0.23942469  0.98256441  1
  O  O42  1  0.76057531  0.48256441  0.36895808  1
  O  O43  1  0.26057531  0.01743559  0.63104192  1
  O  O44  1  0.36895808  0.76057531  0.48256441  1
  O  O45  1  0.01743559  0.63104192  0.26057531  1
  O  O46  1  0.48256441  0.36895808  0.76057531  1
  O  O47  1  0.98256441  0.13104192  0.23942469  1
  O  O48  1  0.26360475  0.28313412  0.10430958  1
  O  O49  1  0.10430958  0.26360475  0.28313412  1
  O  O50  1  0.28313412  0.10430958  0.26360475  1
  O  O51  1  0.21686588  0.89569042  0.76360475  1
  O  O52  1  0.60430958  0.23639525  0.71686588  1
  O  O53  1  0.71686588  0.60430958  0.23639525  1
  O  O54  1  0.39569042  0.73639525  0.78313412  1
  O  O55  1  0.89569042  0.76360475  0.21686588  1
  O  O56  1  0.78313412  0.39569042  0.73639525  1
  O  O57  1  0.76360475  0.21686588  0.89569042  1
  O  O58  1  0.73639525  0.78313412  0.39569042  1
  O  O59  1  0.23639525  0.71686588  0.60430958  1
  O  O60  1  0.73639525  0.71686588  0.89569042  1
  O  O61  1  0.89569042  0.73639525  0.71686588  1
  O  O62  1  0.71686588  0.89569042  0.73639525  1
  O  O63  1  0.78313412  0.10430958  0.23639525  1
  O  O64  1  0.39569042  0.76360475  0.28313412  1
  O  O65  1  0.28313412  0.39569042  0.76360475  1
  O  O66  1  0.60430958  0.26360475  0.21686588  1
  O  O67  1  0.10430958  0.23639525  0.78313412  1
  O  O68  1  0.21686588  0.60430958  0.26360475  1
  O  O69  1  0.23639525  0.78313412  0.10430958  1
  O  O70  1  0.26360475  0.21686588  0.60430958  1
  O  O71  1  0.76360475  0.28313412  0.39569042  1
  O  O72  1  0.23637015  0.40387942  0.29039012  1
  O  O73  1  0.29039012  0.23637015  0.40387942  1
  O  O74  1  0.40387942  0.29039012  0.23637015  1
  O  O75  1  0.09612058  0.70960988  0.73637015  1
  O  O76  1  0.79039012  0.26362985  0.59612058  1
  O  O77  1  0.59612058  0.79039012  0.26362985  1
  O  O78  1  0.20960988  0.76362985  0.90387942  1
  O  O79  1  0.70960988  0.73637015  0.09612058  1
  O  O80  1  0.90387942  0.20960988  0.76362985  1
  O  O81  1  0.73637015  0.09612058  0.70960988  1
  O  O82  1  0.76362985  0.90387942  0.20960988  1
  O  O83  1  0.26362985  0.59612058  0.79039012  1
  O  O84  1  0.76362985  0.59612058  0.70960988  1
  O  O85  1  0.70960988  0.76362985  0.59612058  1
  O  O86  1  0.59612058  0.70960988  0.76362985  1
  O  O87  1  0.90387942  0.29039012  0.26362985  1
  O  O88  1  0.20960988  0.73637015  0.40387942  1
  O  O89  1  0.40387942  0.20960988  0.73637015  1
  O  O90  1  0.79039012  0.23637015  0.09612058  1
  O  O91  1  0.29039012  0.26362985  0.90387942  1
  O  O92  1  0.09612058  0.79039012  0.23637015  1
  O  O93  1  0.26362985  0.90387942  0.29039012  1
  O  O94  1  0.23637015  0.09612058  0.79039012  1
  O  O95  1  0.73637015  0.40387942  0.20960988  1
  O  O96  1  0.34747143  0.95632552  0.98832744  1
  O  O97  1  0.98832744  0.34747143  0.95632552  1
  O  O98  1  0.95632552  0.98832744  0.34747143  1
  O  O99  1  0.54367448  0.01167256  0.84747143  1
  O  O100  1  0.48832744  0.15252857  0.04367448  1
  O  O101  1  0.04367448  0.48832744  0.15252857  1
  O  O102  1  0.51167256  0.65252857  0.45632552  1
  O  O103  1  0.01167256  0.84747143  0.54367448  1
  O  O104  1  0.45632552  0.51167256  0.65252857  1
  O  O105  1  0.84747143  0.54367448  0.01167256  1
  O  O106  1  0.65252857  0.45632552  0.51167256  1
  O  O107  1  0.15252857  0.04367448  0.48832744  1
  O  O108  1  0.65252857  0.04367448  0.01167256  1
  O  O109  1  0.01167256  0.65252857  0.04367448  1
  O  O110  1  0.04367448  0.01167256  0.65252857  1
  O  O111  1  0.45632552  0.98832744  0.15252857  1
  O  O112  1  0.51167256  0.84747143  0.95632552  1
  O  O113  1  0.95632552  0.51167256  0.84747143  1
  O  O114  1  0.48832744  0.34747143  0.54367448  1
  O  O115  1  0.98832744  0.15252857  0.45632552  1
  O  O116  1  0.54367448  0.48832744  0.34747143  1
  O  O117  1  0.15252857  0.45632552  0.98832744  1
  O  O118  1  0.34747143  0.54367448  0.48832744  1
  O  O119  1  0.84747143  0.95632552  0.51167256  1
  O  O120  1  0.15129828  0.99454475  0.97022333  1
  O  O121  1  0.97022333  0.15129828  0.99454475  1
  O  O122  1  0.99454475  0.97022333  0.15129828  1
  O  O123  1  0.50545525  0.02977667  0.65129828  1
  O  O124  1  0.47022333  0.34870172  0.00545525  1
  O  O125  1  0.00545525  0.47022333  0.34870172  1
  O  O126  1  0.52977667  0.84870172  0.49454475  1
  O  O127  1  0.02977667  0.65129828  0.50545525  1
  O  O128  1  0.49454475  0.52977667  0.84870172  1
  O  O129  1  0.65129828  0.50545525  0.02977667  1
  O  O130  1  0.84870172  0.49454475  0.52977667  1
  O  O131  1  0.34870172  0.00545525  0.47022333  1
  O  O132  1  0.84870172  0.00545525  0.02977667  1
  O  O133  1  0.02977667  0.84870172  0.00545525  1
  O  O134  1  0.00545525  0.02977667  0.84870172  1
  O  O135  1  0.49454475  0.97022333  0.34870172  1
  O  O136  1  0.52977667  0.65129828  0.99454475  1
  O  O137  1  0.99454475  0.52977667  0.65129828  1
  O  O138  1  0.47022333  0.15129828  0.50545525  1
  O  O139  1  0.97022333  0.34870172  0.49454475  1
  O  O140  1  0.50545525  0.47022333  0.15129828  1
  O  O141  1  0.34870172  0.49454475  0.97022333  1
  O  O142  1  0.15129828  0.50545525  0.47022333  1
  O  O143  1  0.65129828  0.99454475  0.52977667  1
  Al  Al144  1  0.25187912  0.01320770  0.01986388  1
  Al  Al145  1  0.01986388  0.25187912  0.01320770  1
  Al  Al146  1  0.01320770  0.01986388  0.25187912  1
  Al  Al147  1  0.48679230  0.98013612  0.75187912  1
  Al  Al148  1  0.51986388  0.24812088  0.98679230  1
  Al  Al149  1  0.98679230  0.51986388  0.24812088  1
  Al  Al150  1  0.48013612  0.74812088  0.51320770  1
  Al  Al151  1  0.98013612  0.75187912  0.48679230  1
  Al  Al152  1  0.51320770  0.48013612  0.74812088  1
  Al  Al153  1  0.75187912  0.48679230  0.98013612  1
  Al  Al154  1  0.74812088  0.51320770  0.48013612  1
  Al  Al155  1  0.24812088  0.98679230  0.51986388  1
  Al  Al156  1  0.74812088  0.98679230  0.98013612  1
  Al  Al157  1  0.98013612  0.74812088  0.98679230  1
  Al  Al158  1  0.98679230  0.98013612  0.74812088  1
  Al  Al159  1  0.51320770  0.01986388  0.24812088  1
  Al  Al160  1  0.48013612  0.75187912  0.01320770  1
  Al  Al161  1  0.01320770  0.48013612  0.75187912  1
  Al  Al162  1  0.51986388  0.25187912  0.48679230  1
  Al  Al163  1  0.01986388  0.24812088  0.51320770  1
  Al  Al164  1  0.48679230  0.51986388  0.25187912  1
  Al  Al165  1  0.24812088  0.51320770  0.01986388  1
  Al  Al166  1  0.25187912  0.48679230  0.51986388  1
  Al  Al167  1  0.75187912  0.01320770  0.48013612  1
  Al  Al168  1  0.24423183  0.23112262  0.00460553  1
  Al  Al169  1  0.00460553  0.24423183  0.23112262  1
  Al  Al170  1  0.23112262  0.00460553  0.24423183  1
  Al  Al171  1  0.26887738  0.99539447  0.74423183  1
  Al  Al172  1  0.50460553  0.25576817  0.76887738  1
  Al  Al173  1  0.76887738  0.50460553  0.25576817  1
  Al  Al174  1  0.49539447  0.75576817  0.73112262  1
  Al  Al175  1  0.99539447  0.74423183  0.26887738  1
  Al  Al176  1  0.73112262  0.49539447  0.75576817  1
  Al  Al177  1  0.74423183  0.26887738  0.99539447  1
  Al  Al178  1  0.75576817  0.73112262  0.49539447  1
  Al  Al179  1  0.25576817  0.76887738  0.50460553  1
  Al  Al180  1  0.75576817  0.76887738  0.99539447  1
  Al  Al181  1  0.99539447  0.75576817  0.76887738  1
  Al  Al182  1  0.76887738  0.99539447  0.75576817  1
  Al  Al183  1  0.73112262  0.00460553  0.25576817  1
  Al  Al184  1  0.49539447  0.74423183  0.23112262  1
  Al  Al185  1  0.23112262  0.49539447  0.74423183  1
  Al  Al186  1  0.50460553  0.24423183  0.26887738  1
  Al  Al187  1  0.00460553  0.25576817  0.73112262  1
  Al  Al188  1  0.26887738  0.50460553  0.24423183  1
  Al  Al189  1  0.25576817  0.73112262  0.00460553  1
  Al  Al190  1  0.24423183  0.26887738  0.50460553  1
  Al  Al191  1  0.74423183  0.23112262  0.49539447  1
  Ca  Ca192  1  0.00000000  0.00000000  0.00000000  1
  Ca  Ca193  1  0.50000000  0.00000000  0.50000000  1
  Ca  Ca194  1  0.50000000  0.50000000  0.00000000  1
  Ca  Ca195  1  0.00000000  0.50000000  0.50000000  1
  Ca  Ca196  1  0.50000000  0.00000000  0.00000000  1
  Ca  Ca197  1  0.00000000  0.50000000  0.00000000  1
  Ca  Ca198  1  0.00000000  0.00000000  0.50000000  1
  Ca  Ca199  1  0.50000000  0.50000000  0.50000000  1
  Ca  Ca200  1  0.25314376  0.25314376  0.25314376  1
  Ca  Ca201  1  0.24685624  0.74685624  0.75314376  1
  Ca  Ca202  1  0.75314376  0.24685624  0.74685624  1
  Ca  Ca203  1  0.74685624  0.75314376  0.24685624  1
  Ca  Ca204  1  0.74685624  0.74685624  0.74685624  1
  Ca  Ca205  1  0.75314376  0.25314376  0.24685624  1
  Ca  Ca206  1  0.24685624  0.75314376  0.25314376  1
  Ca  Ca207  1  0.25314376  0.24685624  0.75314376  1
  Ca  Ca208  1  0.37047253  0.37047253  0.37047253  1
  Ca  Ca209  1  0.12952747  0.62952747  0.87047253  1
  Ca  Ca210  1  0.87047253  0.12952747  0.62952747  1
  Ca  Ca211  1  0.62952747  0.87047253  0.12952747  1
  Ca  Ca212  1  0.62952747  0.62952747  0.62952747  1
  Ca  Ca213  1  0.87047253  0.37047253  0.12952747  1
  Ca  Ca214  1  0.12952747  0.87047253  0.37047253  1
  Ca  Ca215  1  0.37047253  0.12952747  0.87047253  1
  Ca  Ca216  1  0.14070856  0.37992681  0.12499914  1
  Ca  Ca217  1  0.12499914  0.14070856  0.37992681  1
  Ca  Ca218  1  0.37992681  0.12499914  0.14070856  1
  Ca  Ca219  1  0.12007319  0.87500086  0.64070856  1
  Ca  Ca220  1  0.62499914  0.35929144  0.62007319  1
  Ca  Ca221  1  0.62007319  0.62499914  0.35929144  1
  Ca  Ca222  1  0.37500086  0.85929144  0.87992681  1
  Ca  Ca223  1  0.87500086  0.64070856  0.12007319  1
  Ca  Ca224  1  0.87992681  0.37500086  0.85929144  1
  Ca  Ca225  1  0.64070856  0.12007319  0.87500086  1
  Ca  Ca226  1  0.85929144  0.87992681  0.37500086  1
  Ca  Ca227  1  0.35929144  0.62007319  0.62499914  1
  Ca  Ca228  1  0.85929144  0.62007319  0.87500086  1
  Ca  Ca229  1  0.87500086  0.85929144  0.62007319  1
  Ca  Ca230  1  0.62007319  0.87500086  0.85929144  1
  Ca  Ca231  1  0.87992681  0.12499914  0.35929144  1
  Ca  Ca232  1  0.37500086  0.64070856  0.37992681  1
  Ca  Ca233  1  0.37992681  0.37500086  0.64070856  1
  Ca  Ca234  1  0.62499914  0.14070856  0.12007319  1
  Ca  Ca235  1  0.12499914  0.35929144  0.87992681  1
  Ca  Ca236  1  0.12007319  0.62499914  0.14070856  1
  Ca  Ca237  1  0.35929144  0.87992681  0.12499914  1
  Ca  Ca238  1  0.14070856  0.12007319  0.62499914  1
  Ca  Ca239  1  0.64070856  0.37992681  0.37500086  1
  Ca  Ca240  1  0.38040016  0.37871322  0.12058855  1
  Ca  Ca241  1  0.12058855  0.38040016  0.37871322  1
  Ca  Ca242  1  0.37871322  0.12058855  0.38040016  1
  Ca  Ca243  1  0.12128678  0.87941145  0.88040016  1
  Ca  Ca244  1  0.62058855  0.11959984  0.62128678  1
  Ca  Ca245  1  0.62128678  0.62058855  0.11959984  1
  Ca  Ca246  1  0.37941145  0.61959984  0.87871322  1
  Ca  Ca247  1  0.87941145  0.88040016  0.12128678  1
  Ca  Ca248  1  0.87871322  0.37941145  0.61959984  1
  Ca  Ca249  1  0.88040016  0.12128678  0.87941145  1
  Ca  Ca250  1  0.61959984  0.87871322  0.37941145  1
  Ca  Ca251  1  0.11959984  0.62128678  0.62058855  1
  Ca  Ca252  1  0.61959984  0.62128678  0.87941145  1
  Ca  Ca253  1  0.87941145  0.61959984  0.62128678  1
  Ca  Ca254  1  0.62128678  0.87941145  0.61959984  1
  Ca  Ca255  1  0.87871322  0.12058855  0.11959984  1
  Ca  Ca256  1  0.37941145  0.88040016  0.37871322  1
  Ca  Ca257  1  0.37871322  0.37941145  0.88040016  1
  Ca  Ca258  1  0.62058855  0.38040016  0.12128678  1
  Ca  Ca259  1  0.12058855  0.11959984  0.87871322  1
  Ca  Ca260  1  0.12128678  0.62058855  0.38040016  1
  Ca  Ca261  1  0.11959984  0.87871322  0.12058855  1
  Ca  Ca262  1  0.38040016  0.12128678  0.62058855  1
  Ca  Ca263  1  0.88040016  0.37871322  0.37941145  1
