# generated using pymatgen
data_K2Zn3S4
_symmetry_space_group_name_H-M   'P 1'
_cell_length_a   6.09572221
_cell_length_b   9.99988628
_cell_length_c   13.48063056
_cell_angle_alpha   90.00000000
_cell_angle_beta   90.00000000
_cell_angle_gamma   90.00000000
_symmetry_Int_Tables_number   1
_chemical_formula_structural   K2Zn3S4
_chemical_formula_sum   'K8 Zn12 S16'
_cell_volume   821.73244625
_cell_formula_units_Z   4
loop_
 _symmetry_equiv_pos_site_id
 _symmetry_equiv_pos_as_xyz
  1  'x, y, z'
loop_
 _atom_site_type_symbol
 _atom_site_label
 _atom_site_symmetry_multiplicity
 _atom_site_fract_x
 _atom_site_fract_y
 _atom_site_fract_z
 _atom_site_occupancy
  K  K0  1  -0.00000000  0.00000000  0.00000000  1
  K  K1  1  0.50000000  0.50000000  0.50000000  1
  K  K2  1  -0.00000000  0.50000000  0.00000000  1
  K  K3  1  0.50000000  0.00000000  0.50000000  1
  K  K4  1  0.02415857  0.25000000  0.53526539  1
  K  K5  1  0.47584143  0.25000000  0.03526539  1
  K  K6  1  0.97584143  0.75000000  0.46473461  1
  K  K7  1  0.52415857  0.75000000  0.96473461  1
  Zn  Zn8  1  0.74251726  0.25000000  0.79117444  1
  Zn  Zn9  1  0.75748274  0.25000000  0.29117444  1
  Zn  Zn10  1  0.25748274  0.75000000  0.20882556  1
  Zn  Zn11  1  0.24251726  0.75000000  0.70882556  1
  Zn  Zn12  1  0.81459904  0.90272647  0.75625020  1
  Zn  Zn13  1  0.68540096  0.59727353  0.25625020  1
  Zn  Zn14  1  0.18540096  0.40272647  0.24374980  1
  Zn  Zn15  1  0.31459904  0.09727353  0.74374980  1
  Zn  Zn16  1  0.18540096  0.09727353  0.24374980  1
  Zn  Zn17  1  0.31459904  0.40272647  0.74374980  1
  Zn  Zn18  1  0.81459904  0.59727353  0.75625020  1
  Zn  Zn19  1  0.68540096  0.90272647  0.25625020  1
  S  S20  1  0.10427239  0.25000000  0.83678551  1
  S  S21  1  0.39572761  0.25000000  0.33678551  1
  S  S22  1  0.89572761  0.75000000  0.16321449  1
  S  S23  1  0.60427239  0.75000000  0.66321449  1
  S  S24  1  0.53620012  0.25000000  0.64200566  1
  S  S25  1  0.96379988  0.25000000  0.14200566  1
  S  S26  1  0.46379988  0.75000000  0.35799434  1
  S  S27  1  0.03620012  0.75000000  0.85799434  1
  S  S28  1  0.09804026  0.96013304  0.64660994  1
  S  S29  1  0.40195974  0.53986696  0.14660994  1
  S  S30  1  0.90195974  0.46013304  0.35339006  1
  S  S31  1  0.59804026  0.03986696  0.85339006  1
  S  S32  1  0.90195974  0.03986696  0.35339006  1
  S  S33  1  0.59804026  0.46013304  0.85339006  1
  S  S34  1  0.09804026  0.53986696  0.64660994  1
  S  S35  1  0.40195974  0.96013304  0.14660994  1
