# generated using pymatgen
data_MgAg20(BiO4)4
_symmetry_space_group_name_H-M   'P 1'
_cell_length_a   6.09014315
_cell_length_b   8.99879389
_cell_length_c   13.50375975
_cell_angle_alpha   84.87861308
_cell_angle_beta   86.06348324
_cell_angle_gamma   85.79789235
_symmetry_Int_Tables_number   1
_chemical_formula_structural   MgAg20(BiO4)4
_chemical_formula_sum   'Mg1 Ag20 Bi4 O16'
_cell_volume   733.68488143
_cell_formula_units_Z   1
loop_
 _symmetry_equiv_pos_site_id
 _symmetry_equiv_pos_as_xyz
  1  'x, y, z'
loop_
 _atom_site_type_symbol
 _atom_site_label
 _atom_site_symmetry_multiplicity
 _atom_site_fract_x
 _atom_site_fract_y
 _atom_site_fract_z
 _atom_site_occupancy
  Mg  Mg0  1  0.75054126  0.05078715  0.03685285  1
  Ag  Ag1  1  0.21415056  0.74444519  0.12358519  1
  Ag  Ag2  1  0.73539418  0.75342398  0.62007335  1
  Ag  Ag3  1  0.00609883  0.50341955  0.99937456  1
  Ag  Ag4  1  0.50259218  0.00311042  0.50123745  1
  Ag  Ag5  1  0.00263244  0.12875829  0.64559911  1
  Ag  Ag6  1  0.42090866  0.60015298  0.82232109  1
  Ag  Ag7  1  0.01583765  0.87705724  0.35506812  1
  Ag  Ag8  1  0.58182085  0.39025152  0.17535058  1
  Ag  Ag9  1  0.59040663  0.01958174  0.26991713  1
  Ag  Ag10  1  0.99995985  0.51400854  0.25497152  1
  Ag  Ag11  1  0.43158113  0.98298396  0.73720727  1
  Ag  Ag12  1  0.01116225  0.49488224  0.74182934  1
  Ag  Ag13  1  0.40625157  0.95237761  0.97030723  1
  Ag  Ag14  1  0.00401878  0.50409012  0.49827181  1
  Ag  Ag15  1  0.26517923  0.24655076  0.87872141  1
  Ag  Ag16  1  0.22634115  0.75917866  0.61901078  1
  Ag  Ag17  1  0.70578018  0.73305185  0.11831460  1
  Ag  Ag18  1  0.79160421  0.24982392  0.37765543  1
  Ag  Ag19  1  0.75675861  0.28368160  0.87381359  1
  Ag  Ag20  1  0.28195867  0.25463559  0.37709909  1
  Bi  Bi21  1  0.50841847  0.36456185  0.61353041  1
  Bi  Bi22  1  0.92963682  0.85038509  0.85740181  1
  Bi  Bi23  1  0.50167763  0.64074307  0.38336418  1
  Bi  Bi24  1  0.11478353  0.15858464  0.14202026  1
  O  O25  1  0.14618599  0.39215815  0.13208647  1
  O  O26  1  0.41708726  0.88389839  0.38055736  1
  O  O27  1  0.87333294  0.61899214  0.86670580  1
  O  O28  1  0.58982936  0.12233838  0.62089140  1
  O  O29  1  0.95503149  0.88298501  0.68734504  1
  O  O30  1  0.49975862  0.37516219  0.78471342  1
  O  O31  1  0.98540586  0.17916365  0.97471848  1
  O  O32  1  0.49979917  0.63491945  0.55485594  1
  O  O33  1  0.95461402  0.86221647  0.04033224  1
  O  O34  1  0.51638932  0.37393327  0.44045709  1
  O  O35  1  0.74428231  0.16579362  0.15602048  1
  O  O36  1  0.86298853  0.65117631  0.37550928  1
  O  O37  1  0.28552755  0.82028554  0.84678226  1
  O  O38  1  0.14625686  0.35641758  0.62005265  1
  O  O39  1  0.06374334  0.12454486  0.31092547  1
  O  O40  1  0.46468906  0.61691644  0.20994046  1
