# generated using pymatgen
data_MgCr4Hg4(H2O9)2
_symmetry_space_group_name_H-M   'P 1'
_cell_length_a   6.50957037
_cell_length_b   6.55663218
_cell_length_c   15.28705377
_cell_angle_alpha   61.52921116
_cell_angle_beta   116.52547817
_cell_angle_gamma   126.58874362
_symmetry_Int_Tables_number   1
_chemical_formula_structural   MgCr4Hg4(H2O9)2
_chemical_formula_sum   'Mg1 Cr4 Hg4 H4 O18'
_cell_volume   448.16524220
_cell_formula_units_Z   1
loop_
 _symmetry_equiv_pos_site_id
 _symmetry_equiv_pos_as_xyz
  1  'x, y, z'
loop_
 _atom_site_type_symbol
 _atom_site_label
 _atom_site_symmetry_multiplicity
 _atom_site_fract_x
 _atom_site_fract_y
 _atom_site_fract_z
 _atom_site_occupancy
  Mg  Mg0  1  0.66092300  0.60499500  0.35042500  1
  Cr  Cr1  1  0.74693800  0.37426000  0.60383500  1
  Cr  Cr2  1  0.35191500  0.73992600  0.91400500  1
  Cr  Cr3  1  0.27821800  0.67329400  0.41589000  1
  Cr  Cr4  1  0.62768300  0.22524000  0.09443400  1
  Hg  Hg5  1  0.94414300  0.96742700  0.62632800  1
  Hg  Hg6  1  0.92047300  0.96514900  0.85532800  1
  Hg  Hg7  1  0.11720500  0.09207800  0.41255600  1
  Hg  Hg8  1  0.02029600  0.02819200  0.11104000  1
  H  H9  1  0.55728000  0.41191500  0.79326500  1
  H  H10  1  0.42367600  0.57828800  0.71019900  1
  H  H11  1  0.40080700  0.53737500  0.16834700  1
  H  H12  1  0.57577600  0.40364300  0.22035600  1
  O  O13  1  0.95249000  0.21841900  0.67593900  1
  O  O14  1  0.23432600  0.95870300  0.84585800  1
  O  O15  1  0.04733900  0.80715300  0.35901400  1
  O  O16  1  0.75824300  0.01108000  0.15830000  1
  O  O17  1  0.51630200  0.21276900  0.66453100  1
  O  O18  1  0.22030500  0.53028800  0.85264500  1
  O  O19  1  0.46087100  0.76385400  0.33807600  1
  O  O20  1  0.74657400  0.41708000  0.16371400  1
  O  O21  1  0.96278600  0.71876600  0.58511700  1
  O  O22  1  0.69211400  0.92580700  0.93123800  1
  O  O23  1  0.03322700  0.33154200  0.42851400  1
  O  O24  1  0.28932100  0.03768200  0.07132400  1
  O  O25  1  0.60414200  0.32714500  0.48184900  1
  O  O26  1  0.28315500  0.57600100  0.02739200  1
  O  O27  1  0.43518600  0.70250300  0.53033800  1
  O  O28  1  0.71189400  0.40830000  0.98706800  1
  O  O29  1  0.59149600  0.59522900  0.75773700  1
  O  O30  1  0.46489500  0.43589600  0.23616800  1
