# generated using pymatgen
data_LaSc3(BO3)4
_symmetry_space_group_name_H-M   'P 1'
_cell_length_a   6.26298072
_cell_length_b   6.26298099
_cell_length_c   6.26297985
_cell_angle_alpha   103.44839901
_cell_angle_beta   103.44840115
_cell_angle_gamma   103.44839999
_symmetry_Int_Tables_number   1
_chemical_formula_structural   LaSc3(BO3)4
_chemical_formula_sum   'La1 Sc3 B4 O12'
_cell_volume   221.44966945
_cell_formula_units_Z   1
loop_
 _symmetry_equiv_pos_site_id
 _symmetry_equiv_pos_as_xyz
  1  'x, y, z'
loop_
 _atom_site_type_symbol
 _atom_site_label
 _atom_site_symmetry_multiplicity
 _atom_site_fract_x
 _atom_site_fract_y
 _atom_site_fract_z
 _atom_site_occupancy
  La  La0  1  0.50000000  0.50000000  0.50000000  1
  Sc  Sc1  1  0.04874620  0.50000000  0.95125380  1
  Sc  Sc2  1  0.50000000  0.95125380  0.04874620  1
  Sc  Sc3  1  0.95125380  0.04874620  0.50000000  1
  B  B4  1  0.00000000  0.00000000  0.00000000  1
  B  B5  1  0.44926993  -0.00000000  0.55073007  1
  B  B6  1  0.00000000  0.55073007  0.44926993  1
  B  B7  1  0.55073007  0.44926993  0.00000000  1
  O  O8  1  0.85979382  0.00000000  0.14020618  1
  O  O9  1  0.41066274  0.58933726  0.00000000  1
  O  O10  1  0.00000000  0.41066274  0.58933726  1
  O  O11  1  0.58933726  -0.00000000  0.41066274  1
  O  O12  1  0.53074396  0.29744708  0.12551486  1
  O  O13  1  0.12551486  0.53074396  0.29744708  1
  O  O14  1  0.29744708  0.12551486  0.53074396  1
  O  O15  1  0.70255292  0.46925604  0.87448514  1
  O  O16  1  0.87448514  0.70255292  0.46925604  1
  O  O17  1  0.46925604  0.87448514  0.70255292  1
  O  O18  1  0.14020618  0.85979382  -0.00000000  1
  O  O19  1  -0.00000000  0.14020618  0.85979382  1
