# generated using pymatgen
data_BN
_symmetry_space_group_name_H-M   'P 1'
_cell_length_a   3.66929968
_cell_length_b   3.66929904
_cell_length_c   3.66930074
_cell_angle_alpha   39.87198093
_cell_angle_beta   39.87199350
_cell_angle_gamma   39.87199580
_symmetry_Int_Tables_number   1
_chemical_formula_structural   BN
_chemical_formula_sum   'B1 N1'
_cell_volume   18.28932895
_cell_formula_units_Z   1
loop_
 _symmetry_equiv_pos_site_id
 _symmetry_equiv_pos_as_xyz
  1  'x, y, z'
loop_
 _atom_site_type_symbol
 _atom_site_label
 _atom_site_symmetry_multiplicity
 _atom_site_fract_x
 _atom_site_fract_y
 _atom_site_fract_z
 _atom_site_occupancy
  B  B0  1  0.99967120  0.99967120  0.99967120  1
  N  N1  1  0.33276180  0.33276180  0.33276180  1
