# generated using pymatgen
data_TaBi(P2O7)2
_symmetry_space_group_name_H-M   'P 1'
_cell_length_a   8.42791849
_cell_length_b   8.44155955
_cell_length_c   8.59020581
_cell_angle_alpha   88.72474745
_cell_angle_beta   90.00000000
_cell_angle_gamma   90.00000000
_symmetry_Int_Tables_number   1
_chemical_formula_structural   TaBi(P2O7)2
_chemical_formula_sum   'Ta2 Bi2 P8 O28'
_cell_volume   610.99689502
_cell_formula_units_Z   2
loop_
 _symmetry_equiv_pos_site_id
 _symmetry_equiv_pos_as_xyz
  1  'x, y, z'
loop_
 _atom_site_type_symbol
 _atom_site_label
 _atom_site_symmetry_multiplicity
 _atom_site_fract_x
 _atom_site_fract_y
 _atom_site_fract_z
 _atom_site_occupancy
  Ta  Ta0  1  0.00000000  -0.00000000  0.00000000  1
  Ta  Ta1  1  0.50000000  0.50000000  0.00000000  1
  Bi  Bi2  1  0.00000000  0.50000000  0.50000000  1
  Bi  Bi3  1  0.50000000  -0.00000000  0.50000000  1
  P  P4  1  0.61613849  0.11262512  0.08817170  1
  P  P5  1  0.11613849  0.38737488  0.91182830  1
  P  P6  1  0.41235047  0.60070965  0.37160500  1
  P  P7  1  0.91235047  0.89929035  0.62839500  1
  P  P8  1  0.38386151  0.88737488  0.91182830  1
  P  P9  1  0.88386151  0.61262512  0.08817170  1
  P  P10  1  0.58764953  0.39929035  0.62839500  1
  P  P11  1  0.08764953  0.10070965  0.37160500  1
  O  O12  1  0.77989568  0.07502994  0.02314691  1
  O  O13  1  0.27989568  0.42497006  0.97685309  1
  O  O14  1  0.23758234  0.58608053  0.39518840  1
  O  O15  1  0.73758234  0.91391947  0.60481160  1
  O  O16  1  0.47778825  0.76527322  0.36931522  1
  O  O17  1  0.57120636  0.27950359  0.03198839  1
  O  O18  1  0.07120636  0.22049641  0.96801161  1
  O  O19  1  0.97778825  0.73472678  0.63068478  1
  O  O20  1  0.10594708  0.41051236  0.74085258  1
  O  O21  1  0.46365930  0.51714236  0.22084166  1
  O  O22  1  0.60594708  0.08948764  0.25914742  1
  O  O23  1  0.96365930  0.98285764  0.77915834  1
  O  O24  1  0.22010432  0.92497006  0.97685309  1
  O  O25  1  0.72010432  0.57502994  0.02314691  1
  O  O26  1  0.76241766  0.41391947  0.60481160  1
  O  O27  1  0.26241766  0.08608053  0.39518840  1
  O  O28  1  0.52221175  0.23472678  0.63068478  1
  O  O29  1  0.42879364  0.72049641  0.96801161  1
  O  O30  1  0.92879364  0.77950359  0.03198839  1
  O  O31  1  0.02221175  0.26527322  0.36931522  1
  O  O32  1  0.89405292  0.58948764  0.25914742  1
  O  O33  1  0.53634070  0.48285764  0.77915834  1
  O  O34  1  0.39405292  0.91051236  0.74085258  1
  O  O35  1  0.03634070  0.01714236  0.22084166  1
  O  O36  1  0.50000000  -0.00000000  0.00000000  1
  O  O37  1  0.00000000  0.50000000  0.00000000  1
  O  O38  1  0.50000000  0.50000000  0.50000000  1
  O  O39  1  0.00000000  -0.00000000  0.50000000  1
