# generated using pymatgen
data_Sm2MgMo2(I4O15)2
_symmetry_space_group_name_H-M   'P 1'
_cell_length_a   6.99722710
_cell_length_b   7.26203630
_cell_length_c   14.49419233
_cell_angle_alpha   88.59332615
_cell_angle_beta   91.77371296
_cell_angle_gamma   114.59905537
_symmetry_Int_Tables_number   1
_chemical_formula_structural   Sm2MgMo2(I4O15)2
_chemical_formula_sum   'Sm2 Mg1 Mo2 I8 O30'
_cell_volume   669.29017398
_cell_formula_units_Z   1
loop_
 _symmetry_equiv_pos_site_id
 _symmetry_equiv_pos_as_xyz
  1  'x, y, z'
loop_
 _atom_site_type_symbol
 _atom_site_label
 _atom_site_symmetry_multiplicity
 _atom_site_fract_x
 _atom_site_fract_y
 _atom_site_fract_z
 _atom_site_occupancy
  Sm  Sm0  1  0.12190120  0.47287017  0.44512841  1
  Sm  Sm1  1  0.91331707  0.57236441  0.94256899  1
  Mg  Mg2  1  0.66174752  0.11041514  0.38526799  1
  Mo  Mo3  1  0.57924579  0.74761255  0.25730157  1
  Mo  Mo4  1  0.40646964  0.21763788  0.77980664  1
  I  I5  1  0.52110561  0.75545356  0.02295896  1
  I  I6  1  0.48229042  0.26535973  0.54539562  1
  I  I7  1  0.73972625  0.26923306  0.18005822  1
  I  I8  1  0.24335279  0.70655808  0.69835487  1
  I  I9  1  0.15145898  0.96021779  0.30855435  1
  I  I10  1  0.84963808  0.06501752  0.82030700  1
  I  I11  1  0.78294088  0.88063580  0.54117094  1
  I  I12  1  0.22933763  0.12781086  0.04581509  1
  O  O13  1  0.39689145  0.69480885  0.14073704  1
  O  O14  1  0.62494346  0.32152046  0.65586370  1
  O  O15  1  0.27819663  0.63957163  0.95635433  1
  O  O16  1  0.70691538  0.34948836  0.46599110  1
  O  O17  1  0.59850658  0.54223529  0.02510116  1
  O  O18  1  0.43208067  0.49389221  0.52756215  1
  O  O19  1  0.75536252  0.01860626  0.16902408  1
  O  O20  1  0.25172288  0.96704725  0.67996872  1
  O  O21  1  0.94084588  0.41081208  0.09863376  1
  O  O22  1  0.09500548  0.60827267  0.59105989  1
  O  O23  1  0.87353116  0.32179014  0.29792174  1
  O  O24  1  0.03781392  0.61365594  0.78281973  1
  O  O25  1  0.43056884  0.98558065  0.29066845  1
  O  O26  1  0.56869205  0.02202780  0.79896033  1
  O  O27  1  0.24175966  0.18704819  0.37746015  1
  O  O28  1  0.77106515  0.82079149  0.88034561  1
  O  O29  1  0.09832061  0.77178019  0.40353038  1
  O  O30  1  0.90526777  0.23555230  0.91821645  1
  O  O31  1  0.54982499  0.92606249  0.50147708  1
  O  O32  1  0.47609898  0.09462151  0.03911622  1
  O  O33  1  0.74098804  0.86237781  0.66355544  1
  O  O34  1  0.24277561  0.17866725  0.16957495  1
  O  O35  1  0.97498508  0.14464101  0.52271330  1
  O  O36  1  0.03788609  0.86294899  0.04320761  1
  O  O37  1  0.77200670  0.90804416  0.34689433  1
  O  O38  1  0.21110926  0.07617875  0.86386854  1
  O  O39  1  0.37154833  0.58617836  0.32759710  1
  O  O40  1  0.60838358  0.40179343  0.84600479  1
  O  O41  1  0.72215201  0.61282858  0.22493695  1
  O  O42  1  0.26888635  0.34739634  0.72283126  1
