# generated using pymatgen
data_HfTlF5
_symmetry_space_group_name_H-M   'P 1'
_cell_length_a   7.84694204
_cell_length_b   7.44744872
_cell_length_c   7.84485279
_cell_angle_alpha   63.09320160
_cell_angle_beta   90.00000000
_cell_angle_gamma   90.00000000
_symmetry_Int_Tables_number   1
_chemical_formula_structural   HfTlF5
_chemical_formula_sum   'Hf4 Tl4 F20'
_cell_volume   408.82070507
_cell_formula_units_Z   4
loop_
 _symmetry_equiv_pos_site_id
 _symmetry_equiv_pos_as_xyz
  1  'x, y, z'
loop_
 _atom_site_type_symbol
 _atom_site_label
 _atom_site_symmetry_multiplicity
 _atom_site_fract_x
 _atom_site_fract_y
 _atom_site_fract_z
 _atom_site_occupancy
  Hf  Hf0  1  0.83707381  0.99219822  0.33872906  1
  Hf  Hf1  1  0.16292619  0.00780178  0.66127094  1
  Hf  Hf2  1  0.33707381  0.00780178  0.16127094  1
  Hf  Hf3  1  0.66292619  0.99219822  0.83872906  1
  Tl  Tl4  1  0.52917614  0.43008994  0.29567665  1
  Tl  Tl5  1  0.47082386  0.56991006  0.70432335  1
  Tl  Tl6  1  0.02917614  0.56991006  0.20432335  1
  Tl  Tl7  1  0.97082386  0.43008994  0.79567665  1
  F  F8  1  0.78924983  0.28195779  0.15909095  1
  F  F9  1  0.21075017  0.71804221  0.84090905  1
  F  F10  1  0.28924983  0.71804221  0.34090905  1
  F  F11  1  0.71075017  0.28195779  0.65909095  1
  F  F12  1  0.56497283  0.99478093  0.29170704  1
  F  F13  1  0.43502717  0.00521907  0.70829296  1
  F  F14  1  0.06497283  0.00521907  0.20829296  1
  F  F15  1  0.93502717  0.99478093  0.79170704  1
  F  F16  1  0.79020642  0.98745222  0.06761118  1
  F  F17  1  0.20979358  0.01254778  0.93238882  1
  F  F18  1  0.29020642  0.01254778  0.43238882  1
  F  F19  1  0.70979358  0.98745222  0.56761118  1
  F  F20  1  0.49441993  0.82501589  0.07258009  1
  F  F21  1  0.50558007  0.17498411  0.92741991  1
  F  F22  1  0.99441993  0.17498411  0.42741991  1
  F  F23  1  0.00558007  0.82501589  0.57258009  1
  F  F24  1  0.79266898  0.70180107  0.41314539  1
  F  F25  1  0.20733102  0.29819893  0.58685461  1
  F  F26  1  0.29266898  0.29819893  0.08685461  1
  F  F27  1  0.70733102  0.70180107  0.91314539  1
