# generated using pymatgen
data_AsAuO4
_symmetry_space_group_name_H-M   'P 1'
_cell_length_a   4.97472518
_cell_length_b   4.97472518
_cell_length_c   7.85344417
_cell_angle_alpha   85.10153337
_cell_angle_beta   85.10153337
_cell_angle_gamma   72.03025537
_symmetry_Int_Tables_number   1
_chemical_formula_structural   AsAuO4
_chemical_formula_sum   'As2 Au2 O8'
_cell_volume   183.84232181
_cell_formula_units_Z   2
loop_
 _symmetry_equiv_pos_site_id
 _symmetry_equiv_pos_as_xyz
  1  'x, y, z'
loop_
 _atom_site_type_symbol
 _atom_site_label
 _atom_site_symmetry_multiplicity
 _atom_site_fract_x
 _atom_site_fract_y
 _atom_site_fract_z
 _atom_site_occupancy
  As  As0  1  0.06462731  0.93537269  0.75000000  1
  As  As1  1  0.93537269  0.06462731  0.25000000  1
  Au  Au2  1  -0.00000000  0.50000000  0.50000000  1
  Au  Au3  1  0.50000000  0.00000000  0.00000000  1
  O  O4  1  0.25019600  0.79069241  0.92680858  1
  O  O5  1  0.20930759  0.74980400  0.57319142  1
  O  O6  1  0.74980400  0.20930759  0.07319142  1
  O  O7  1  0.79069241  0.25019600  0.42680858  1
  O  O8  1  0.73034692  0.90655320  0.78112575  1
  O  O9  1  0.09344680  0.26965308  0.71887425  1
  O  O10  1  0.26965308  0.09344680  0.21887425  1
  O  O11  1  0.90655320  0.73034692  0.28112575  1
