# generated using pymatgen
data_TbCuSe2
_symmetry_space_group_name_H-M   'P 1'
_cell_length_a   4.09101601
_cell_length_b   4.09101419
_cell_length_c   6.39531261
_cell_angle_alpha   90.00134072
_cell_angle_beta   89.99864374
_cell_angle_gamma   119.99784401
_symmetry_Int_Tables_number   1
_chemical_formula_structural   TbCuSe2
_chemical_formula_sum   'Tb1 Cu1 Se2'
_cell_volume   92.69664375
_cell_formula_units_Z   1
loop_
 _symmetry_equiv_pos_site_id
 _symmetry_equiv_pos_as_xyz
  1  'x, y, z'
loop_
 _atom_site_type_symbol
 _atom_site_label
 _atom_site_symmetry_multiplicity
 _atom_site_fract_x
 _atom_site_fract_y
 _atom_site_fract_z
 _atom_site_occupancy
  Tb  Tb0  1  0.00000138  -0.00000146  0.80210975  1
  Cu  Cu1  1  0.66667041  0.33332949  0.18416393  1
  Se  Se2  1  0.33332980  0.66666969  0.07600650  1
  Se  Se3  1  0.66666540  0.33333529  0.56372082  1
