# generated using pymatgen
data_K3AsSe4
_symmetry_space_group_name_H-M   'P 1'
_cell_length_a   9.48981742
_cell_length_b   9.90913182
_cell_length_c   10.98814487
_cell_angle_alpha   90.00000000
_cell_angle_beta   90.00000000
_cell_angle_gamma   90.00000000
_symmetry_Int_Tables_number   1
_chemical_formula_structural   K3AsSe4
_chemical_formula_sum   'K12 As4 Se16'
_cell_volume   1033.27956214
_cell_formula_units_Z   4
loop_
 _symmetry_equiv_pos_site_id
 _symmetry_equiv_pos_as_xyz
  1  'x, y, z'
loop_
 _atom_site_type_symbol
 _atom_site_label
 _atom_site_symmetry_multiplicity
 _atom_site_fract_x
 _atom_site_fract_y
 _atom_site_fract_z
 _atom_site_occupancy
  K  K0  1  0.64024215  0.41911331  0.75000000  1
  K  K1  1  0.14024215  0.08088669  0.75000000  1
  K  K2  1  0.35975785  0.58088669  0.25000000  1
  K  K3  1  0.85975785  0.91911331  0.25000000  1
  K  K4  1  0.56819464  0.19475004  0.04523360  1
  K  K5  1  0.06819464  0.30524996  0.45476640  1
  K  K6  1  0.43180536  0.80524996  0.54523360  1
  K  K7  1  0.93180536  0.69475004  0.95476640  1
  K  K8  1  0.43180536  0.80524996  0.95476640  1
  K  K9  1  0.93180536  0.69475004  0.54523360  1
  K  K10  1  0.56819464  0.19475004  0.45476640  1
  K  K11  1  0.06819464  0.30524996  0.04523360  1
  As  As12  1  0.72236986  0.97616105  0.75000000  1
  As  As13  1  0.22236986  0.52383895  0.75000000  1
  As  As14  1  0.27763014  0.02383895  0.25000000  1
  As  As15  1  0.77763014  0.47616105  0.25000000  1
  Se  Se16  1  0.84980647  0.02880348  0.57540052  1
  Se  Se17  1  0.34980647  0.47119652  0.92459948  1
  Se  Se18  1  0.15019353  0.97119652  0.07540052  1
  Se  Se19  1  0.65019353  0.52880348  0.42459948  1
  Se  Se20  1  0.15019353  0.97119652  0.42459948  1
  Se  Se21  1  0.65019353  0.52880348  0.07540052  1
  Se  Se22  1  0.84980647  0.02880348  0.92459948  1
  Se  Se23  1  0.34980647  0.47119652  0.57540052  1
  Se  Se24  1  0.67581766  0.74634252  0.75000000  1
  Se  Se25  1  0.17581766  0.75365748  0.75000000  1
  Se  Se26  1  0.32418234  0.25365748  0.25000000  1
  Se  Se27  1  0.82418234  0.24634252  0.25000000  1
  Se  Se28  1  0.50853648  0.09433126  0.75000000  1
  Se  Se29  1  0.00853648  0.40566874  0.75000000  1
  Se  Se30  1  0.49146352  0.90566874  0.25000000  1
  Se  Se31  1  0.99146352  0.59433126  0.25000000  1
