# generated using pymatgen
data_Sr2MgZn2Sn2(PO4)4
_symmetry_space_group_name_H-M   'P 1'
_cell_length_a   5.60780253
_cell_length_b   7.90435767
_cell_length_c   9.73694898
_cell_angle_alpha   107.01984426
_cell_angle_beta   103.16310866
_cell_angle_gamma   86.48006424
_symmetry_Int_Tables_number   1
_chemical_formula_structural   Sr2MgZn2Sn2(PO4)4
_chemical_formula_sum   'Sr2 Mg1 Zn2 Sn2 P4 O16'
_cell_volume   401.84836676
_cell_formula_units_Z   1
loop_
 _symmetry_equiv_pos_site_id
 _symmetry_equiv_pos_as_xyz
  1  'x, y, z'
loop_
 _atom_site_type_symbol
 _atom_site_label
 _atom_site_symmetry_multiplicity
 _atom_site_fract_x
 _atom_site_fract_y
 _atom_site_fract_z
 _atom_site_occupancy
  Sr  Sr0  1  0.12302073  0.74450034  0.98319533  1
  Sr  Sr1  1  0.87697927  0.25549966  0.01680467  1
  Mg  Mg2  1  0.00000000  0.00000000  0.50000000  1
  Zn  Zn3  1  0.03028034  0.43511074  0.60300637  1
  Zn  Zn4  1  0.96971966  0.56488926  0.39699363  1
  Sn  Sn5  1  0.59222306  0.81931286  0.57466893  1
  Sn  Sn6  1  0.40777694  0.18068714  0.42533107  1
  P  P7  1  0.40564361  0.47376460  0.24057274  1
  P  P8  1  0.59435639  0.52623540  0.75942726  1
  P  P9  1  0.73800534  0.93494645  0.22920410  1
  P  P10  1  0.26199466  0.06505355  0.77079590  1
  O  O11  1  0.76995777  0.49691104  0.89455681  1
  O  O12  1  0.67660151  0.45598334  0.22806686  1
  O  O13  1  0.69115317  0.70457612  0.74689991  1
  O  O14  1  0.08603133  0.18908404  0.69176209  1
  O  O15  1  0.32339849  0.54401666  0.77193314  1
  O  O16  1  0.24223154  0.88550077  0.63064390  1
  O  O17  1  0.75776846  0.11449923  0.36935610  1
  O  O18  1  0.15233192  0.02521799  0.88773801  1
  O  O19  1  0.30884683  0.29542388  0.25310009  1
  O  O20  1  0.84766808  0.97478201  0.11226199  1
  O  O21  1  0.23004223  0.50308796  0.10544319  1
  O  O22  1  0.37137172  0.61653385  0.38761431  1
  O  O23  1  0.62862828  0.38346615  0.61238569  1
  O  O24  1  0.46989722  0.88173192  0.18562641  1
  O  O25  1  0.91396867  0.81091596  0.30823791  1
  O  O26  1  0.53010278  0.11826808  0.81437359  1
