# generated using pymatgen
data_Sr8MgP4(IO4)4
_symmetry_space_group_name_H-M   'P 1'
_cell_length_a   9.19229924
_cell_length_b   8.90432056
_cell_length_c   9.79479831
_cell_angle_alpha   89.08099209
_cell_angle_beta   116.21036982
_cell_angle_gamma   91.29022937
_symmetry_Int_Tables_number   1
_chemical_formula_structural   Sr8MgP4(IO4)4
_chemical_formula_sum   'Sr8 Mg1 P4 I4 O16'
_cell_volume   719.08316762
_cell_formula_units_Z   1
loop_
 _symmetry_equiv_pos_site_id
 _symmetry_equiv_pos_as_xyz
  1  'x, y, z'
loop_
 _atom_site_type_symbol
 _atom_site_label
 _atom_site_symmetry_multiplicity
 _atom_site_fract_x
 _atom_site_fract_y
 _atom_site_fract_z
 _atom_site_occupancy
  Sr  Sr0  1  0.96312169  0.80334829  0.84408361  1
  Sr  Sr1  1  0.47323093  0.34586036  0.29427120  1
  Sr  Sr2  1  0.03981442  0.17948842  0.11454686  1
  Sr  Sr3  1  0.46113122  0.68066169  0.87785238  1
  Sr  Sr4  1  0.48389740  0.84961397  0.24140977  1
  Sr  Sr5  1  0.04237017  0.32636120  0.74635440  1
  Sr  Sr6  1  0.51335380  0.15988786  0.75909404  1
  Sr  Sr7  1  0.96398173  0.66648787  0.22492438  1
  Mg  Mg8  1  0.70123072  0.30200393  0.14278421  1
  P  P9  1  0.23126143  0.56058654  0.04031152  1
  P  P10  1  0.26734038  0.06250890  0.96241956  1
  P  P11  1  0.77064369  0.44939944  0.92102158  1
  P  P12  1  0.73851138  0.93822662  0.02712409  1
  I  I13  1  0.22009154  0.36510866  0.48077336  1
  I  I14  1  0.27414251  0.86634109  0.48942157  1
  I  I15  1  0.79317514  0.61688038  0.49994210  1
  I  I16  1  0.71352573  0.07863000  0.53954705  1
  O  O17  1  0.17116674  0.58031009  0.86439770  1
  O  O18  1  0.33717754  0.09770491  0.13773901  1
  O  O19  1  0.87671464  0.41471093  0.09693333  1
  O  O20  1  0.62288286  0.90621890  0.85826411  1
  O  O21  1  0.78385875  0.61867721  0.89540364  1
  O  O22  1  0.73230382  0.11064482  0.04946705  1
  O  O23  1  0.19832331  0.39567525  0.07318534  1
  O  O24  1  0.31274872  0.89849259  0.94887724  1
  O  O25  1  0.31878646  0.17624495  0.87031679  1
  O  O26  1  0.14742479  0.67538788  0.09794752  1
  O  O27  1  0.68828136  0.83388342  0.12887789  1
  O  O28  1  0.82510200  0.34154399  0.83146802  1
  O  O29  1  0.91918477  0.90642716  0.06755178  1
  O  O30  1  0.59115644  0.41146437  0.89017193  1
  O  O31  1  0.07735759  0.07524672  0.89543793  1
  O  O32  1  0.41858134  0.59168559  0.12379304  1
