# generated using pymatgen
data_Na7As11O31
_symmetry_space_group_name_H-M   'P 1'
_cell_length_a   11.39584453
_cell_length_b   11.41330449
_cell_length_c   16.47133041
_cell_angle_alpha   89.87433120
_cell_angle_beta   90.34184135
_cell_angle_gamma   120.16682749
_symmetry_Int_Tables_number   1
_chemical_formula_structural   Na7As11O31
_chemical_formula_sum   'Na21 As33 O93'
_cell_volume   1852.15265365
_cell_formula_units_Z   3
loop_
 _symmetry_equiv_pos_site_id
 _symmetry_equiv_pos_as_xyz
  1  'x, y, z'
loop_
 _atom_site_type_symbol
 _atom_site_label
 _atom_site_symmetry_multiplicity
 _atom_site_fract_x
 _atom_site_fract_y
 _atom_site_fract_z
 _atom_site_occupancy
  Na  Na0  1  0.22860065  0.77397063  0.33158104  1
  Na  Na1  1  0.23186586  0.76885633  0.66370551  1
  Na  Na2  1  0.22967164  0.77126448  0.99653503  1
  Na  Na3  1  0.23058241  0.45922155  0.32995406  1
  Na  Na4  1  0.98247274  0.97631072  0.34212326  1
  Na  Na5  1  0.22800477  0.45196788  0.66300708  1
  Na  Na6  1  0.22861624  0.45408048  0.99743270  1
  Na  Na7  1  0.98575467  0.01457261  0.67205231  1
  Na  Na8  1  0.54646669  0.77329894  0.33005884  1
  Na  Na9  1  0.54739463  0.77242751  0.66295687  1
  Na  Na10  1  0.54881101  0.77372636  0.99608777  1
  Na  Na11  1  0.45758966  0.22151633  0.00173777  1
  Na  Na12  1  0.45837378  0.23633658  0.33506286  1
  Na  Na13  1  0.45678229  0.23728001  0.66834713  1
  Na  Na14  1  0.98832201  0.00819785  0.01346361  1
  Na  Na15  1  0.77136906  0.54643120  0.00451362  1
  Na  Na16  1  0.76181587  0.54263446  0.66856633  1
  Na  Na17  1  0.76374604  0.54524773  0.33402802  1
  Na  Na18  1  0.76364470  0.21808485  0.00115581  1
  Na  Na19  1  0.77060794  0.22574294  0.33815104  1
  Na  Na20  1  0.77436706  0.22445447  0.67005995  1
  As  As21  1  0.00185809  0.50872789  0.16697362  1
  As  As22  1  0.00190617  0.49294460  0.49952710  1
  As  As23  1  0.00169504  0.49432253  0.83310373  1
  As  As24  1  0.27691039  0.02282347  0.49297449  1
  As  As25  1  0.24974757  0.99463375  0.16702785  1
  As  As26  1  0.27609865  0.02325852  0.82597893  1
  As  As27  1  0.97643798  0.25487330  0.16199725  1
  As  As28  1  0.99954952  0.24655267  0.49821912  1
  As  As29  1  0.99935551  0.24804314  0.83398249  1
  As  As30  1  0.33375356  0.66769483  0.15898580  1
  As  As31  1  0.33393949  0.66592681  0.49157384  1
  As  As32  1  0.33370916  0.66606969  0.82529397  1
  As  As33  1  0.50106775  0.00239452  0.17024416  1
  As  As34  1  0.50649365  0.99795013  0.49994738  1
  As  As35  1  0.50573319  0.99823147  0.83280218  1
  As  As36  1  0.27676249  0.25338727  0.16090400  1
  As  As37  1  0.24912509  0.25401169  0.49875496  1
  As  As38  1  0.24885483  0.25479425  0.83384644  1
  As  As39  1  0.50094449  0.49841782  0.50221050  1
  As  As40  1  0.50633737  0.50840447  0.16697035  1
  As  As41  1  0.50127174  0.49911429  0.83609042  1
  As  As42  1  0.75355436  0.75338574  0.16699621  1
  As  As43  1  0.74513817  0.75005559  0.50092337  1
  As  As44  1  0.74560196  0.75138069  0.83368646  1
  As  As45  1  0.66763846  0.33400333  0.17462632  1
  As  As46  1  0.66768276  0.33257531  0.50759116  1
  As  As47  1  0.66748402  0.33362695  0.84066111  1
  As  As48  1  0.99962757  0.75283420  0.16627189  1
  As  As49  1  0.97691764  0.72176132  0.49402110  1
  As  As50  1  0.97677158  0.72349700  0.82606769  1
  As  As51  1  0.74442940  0.99475658  0.16876823  1
  As  As52  1  0.75319929  0.00009429  0.49931652  1
  As  As53  1  0.75264559  0.00074831  0.83376815  1
  O  O54  1  0.09721862  0.90602055  0.23141948  1
  O  O55  1  0.05963254  0.65422549  0.23270225  1
  O  O56  1  0.04999898  0.64692160  0.89602396  1
  O  O57  1  0.05090717  0.64591798  0.56331632  1
  O  O58  1  0.15523708  0.84471043  0.10315880  1
  O  O59  1  0.14253532  0.85615462  0.46501080  1
  O  O60  1  0.14386212  0.85603983  0.79703598  1
  O  O61  1  0.05037198  0.40476102  0.23081153  1
  O  O62  1  0.05953249  0.40486573  0.56491959  1
  O  O63  1  0.05922194  0.40659423  0.89963895  1
  O  O64  1  0.35055112  0.94441355  0.23503814  1
  O  O65  1  0.35398076  0.95033955  0.56317305  1
  O  O66  1  0.35428406  0.95181288  0.89630794  1
  O  O67  1  0.17483842  0.58994535  0.44182023  1
  O  O68  1  0.17460177  0.58494140  0.10912608  1
  O  O69  1  0.17465261  0.59018615  0.77536799  1
  O  O70  1  0.33334611  0.66686986  0.59304877  1
  O  O71  1  0.33283133  0.66500410  0.26031567  1
  O  O72  1  0.33307655  0.66800199  0.92664269  1
  O  O73  1  0.14187592  0.28492954  0.13379349  1
  O  O74  1  0.15536409  0.31077960  0.43520345  1
  O  O75  1  0.09656794  0.18958539  0.56272004  1
  O  O76  1  0.15444459  0.31103837  0.77098108  1
  O  O77  1  0.09658906  0.19101927  0.89885785  1
  O  O78  1  0.41244285  0.82556164  0.11085949  1
  O  O79  1  0.40909127  0.82479636  0.77562415  1
  O  O80  1  0.40939100  0.82453880  0.44236022  1
  O  O81  1  0.40909694  0.58458472  0.10986040  1
  O  O82  1  0.41250621  0.58711013  0.44344999  1
  O  O83  1  0.41214010  0.58732819  0.77709460  1
  O  O84  1  0.59421489  0.94509317  0.23600153  1
  O  O85  1  0.59556628  0.94182235  0.56597592  1
  O  O86  1  0.59475458  0.94283870  0.89972181  1
  O  O87  1  0.20261113  0.09988115  0.09923589  1
  O  O88  1  0.20247288  0.10212805  0.43123161  1
  O  O89  1  0.20112542  0.10280428  0.76535692  1
  O  O90  1  0.35518081  0.40277370  0.23092443  1
  O  O91  1  0.35109036  0.40588295  0.90152119  1
  O  O92  1  0.35102511  0.40465978  0.56719997  1
  O  O93  1  0.41311930  0.35718786  0.09505634  1
  O  O94  1  0.40801744  0.34977008  0.43624726  1
  O  O95  1  0.40715074  0.35004425  0.77051588  1
  O  O96  1  0.30152727  0.15276317  0.23356567  1
  O  O97  1  0.30061499  0.14707823  0.56587130  1
  O  O98  1  0.30063743  0.14741109  0.89950576  1
  O  O99  1  0.68782944  0.84472908  0.10532498  1
  O  O100  1  0.68813056  0.84322586  0.43753391  1
  O  O101  1  0.68813843  0.84492797  0.77095089  1
  O  O102  1  0.59590406  0.65258195  0.23366471  1
  O  O103  1  0.59514910  0.64956271  0.90137884  1
  O  O104  1  0.59498192  0.64830199  0.56841907  1
  O  O105  1  0.65162818  0.59709107  0.10104709  1
  O  O106  1  0.64963289  0.59139327  0.43737531  1
  O  O107  1  0.64946920  0.59227968  0.77038047  1
  O  O108  1  0.81131193  0.90702385  0.23206709  1
  O  O109  1  0.81152508  0.90412867  0.56427087  1
  O  O110  1  0.81104621  0.90472593  0.89805918  1
  O  O111  1  0.40812329  0.05842183  0.10433551  1
  O  O112  1  0.41358978  0.05614691  0.42761729  1
  O  O113  1  0.41285362  0.05670174  0.76047252  1
  O  O114  1  0.58753423  0.41239255  0.22257079  1
  O  O115  1  0.58950706  0.41039332  0.55901479  1
  O  O116  1  0.58950017  0.41118762  0.89232079  1
  O  O117  1  0.84652660  0.69173820  0.22928576  1
  O  O118  1  0.85406836  0.69981781  0.56737626  1
  O  O119  1  0.85340927  0.69998449  0.89957508  1
  O  O120  1  0.66608220  0.33187238  0.07307324  1
  O  O121  1  0.90504234  0.81139338  0.10129659  1
  O  O122  1  0.89522982  0.79397244  0.43274756  1
  O  O123  1  0.66620560  0.33448654  0.40596781  1
  O  O124  1  0.66577564  0.33350837  0.73894685  1
  O  O125  1  0.89667108  0.79782544  0.76523376  1
  O  O126  1  0.58935438  0.17818261  0.22674662  1
  O  O127  1  0.58703554  0.17385725  0.55551198  1
  O  O128  1  0.58687230  0.17477892  0.88872579  1
  O  O129  1  0.82684066  0.41311459  0.22296755  1
  O  O130  1  0.82703665  0.41343223  0.55565315  1
  O  O131  1  0.82662278  0.41425006  0.88888518  1
  O  O132  1  0.64948993  0.05842706  0.10520468  1
  O  O133  1  0.65135635  0.05472934  0.43367897  1
  O  O134  1  0.65114590  0.05541383  0.76726180  1
  O  O135  1  0.94367087  0.59660319  0.10076164  1
  O  O136  1  0.94252080  0.58526274  0.42801450  1
  O  O137  1  0.94245192  0.58625856  0.76055835  1
  O  O138  1  0.85298981  0.15353887  0.23514672  1
  O  O139  1  0.84655774  0.15448918  0.56159128  1
  O  O140  1  0.84560807  0.15514829  0.89639860  1
  O  O141  1  0.94226761  0.35713755  0.09557423  1
  O  O142  1  0.94386675  0.34827294  0.76753068  1
  O  O143  1  0.94379279  0.34756431  0.43300824  1
  O  O144  1  0.89460071  0.10130806  0.10054377  1
  O  O145  1  0.90349621  0.09651273  0.76840265  1
  O  O146  1  0.90435432  0.09385123  0.43325571  1
