# generated using pymatgen
data_KSr2Br5
_symmetry_space_group_name_H-M   'P 1'
_cell_length_a   8.35147725
_cell_length_b   9.31956186
_cell_length_c   13.42117377
_cell_angle_alpha   89.92211180
_cell_angle_beta   90.00000000
_cell_angle_gamma   90.00000000
_symmetry_Int_Tables_number   1
_chemical_formula_structural   KSr2Br5
_chemical_formula_sum   'K4 Sr8 Br20'
_cell_volume   1044.59729304
_cell_formula_units_Z   4
loop_
 _symmetry_equiv_pos_site_id
 _symmetry_equiv_pos_as_xyz
  1  'x, y, z'
loop_
 _atom_site_type_symbol
 _atom_site_label
 _atom_site_symmetry_multiplicity
 _atom_site_fract_x
 _atom_site_fract_y
 _atom_site_fract_z
 _atom_site_occupancy
  K  K0  1  0.46331041  0.49421210  0.82839880  1
  K  K1  1  0.53668959  0.50578790  0.17160120  1
  K  K2  1  0.96331041  0.50578790  0.67160120  1
  K  K3  1  0.03668959  0.49421210  0.32839880  1
  Sr  Sr4  1  0.47753687  0.99869709  0.82192177  1
  Sr  Sr5  1  0.52246313  0.00130291  0.17807823  1
  Sr  Sr6  1  0.97753687  0.00130291  0.67807823  1
  Sr  Sr7  1  0.02246313  0.99869709  0.32192177  1
  Sr  Sr8  1  0.43049972  0.74915923  0.50598385  1
  Sr  Sr9  1  0.56950028  0.25084077  0.49401615  1
  Sr  Sr10  1  0.93049972  0.25084077  0.99401615  1
  Sr  Sr11  1  0.06950028  0.74915923  0.00598385  1
  Br  Br12  1  0.33220648  0.46292975  0.59268008  1
  Br  Br13  1  0.66779352  0.53707025  0.40731992  1
  Br  Br14  1  0.83220648  0.53707025  0.90731992  1
  Br  Br15  1  0.16779352  0.46292975  0.09268008  1
  Br  Br16  1  0.66959218  0.77967857  0.68310017  1
  Br  Br17  1  0.33040782  0.22032143  0.31689983  1
  Br  Br18  1  0.16959218  0.22032143  0.81689983  1
  Br  Br19  1  0.83040782  0.77967857  0.18310017  1
  Br  Br20  1  0.19384992  0.76836599  0.78429521  1
  Br  Br21  1  0.80615008  0.23163401  0.21570479  1
  Br  Br22  1  0.69384992  0.23163401  0.71570479  1
  Br  Br23  1  0.30615008  0.76836599  0.28429521  1
  Br  Br24  1  0.04364534  0.77887318  0.50290839  1
  Br  Br25  1  0.95635466  0.22112682  0.49709161  1
  Br  Br26  1  0.54364534  0.22112682  0.99709161  1
  Br  Br27  1  0.45635466  0.77887318  0.00290839  1
  Br  Br28  1  0.83898259  0.96068385  0.89984939  1
  Br  Br29  1  0.16101741  0.03931615  0.10015061  1
  Br  Br30  1  0.33898259  0.03931615  0.60015061  1
  Br  Br31  1  0.66101741  0.96068385  0.39984939  1
