# generated using pymatgen
data_MgZn3O4
_symmetry_space_group_name_H-M   'P 1'
_cell_length_a   6.12033387
_cell_length_b   6.12033387
_cell_length_c   5.61554645
_cell_angle_alpha   62.66825634
_cell_angle_beta   62.66825634
_cell_angle_gamma   30.83722332
_symmetry_Int_Tables_number   1
_chemical_formula_structural   MgZn3O4
_chemical_formula_sum   'Mg1 Zn3 O4'
_cell_volume   94.81007502
_cell_formula_units_Z   1
loop_
 _symmetry_equiv_pos_site_id
 _symmetry_equiv_pos_as_xyz
  1  'x, y, z'
loop_
 _atom_site_type_symbol
 _atom_site_label
 _atom_site_symmetry_multiplicity
 _atom_site_fract_x
 _atom_site_fract_y
 _atom_site_fract_z
 _atom_site_occupancy
  Mg  Mg0  1  0.74868381  0.74868381  0.58267823  1
  Zn  Zn1  1  0.24936905  0.24936905  0.08554036  1
  Zn  Zn2  1  0.50073319  0.50073319  0.16834162  1
  Zn  Zn3  1  0.00016392  0.00016392  0.66453707  1
  O  O4  1  0.93863828  0.93863828  0.39384913  1
  O  O5  1  0.44150623  0.44150623  0.89187996  1
  O  O6  1  0.19129210  0.19129210  0.47739899  1
  O  O7  1  0.69165441  0.69165441  0.97377564  1
