# generated using pymatgen
data_Na2MoO6
_symmetry_space_group_name_H-M   'P 1'
_cell_length_a   8.59226867
_cell_length_b   10.46334375
_cell_length_c   15.64952329
_cell_angle_alpha   90.00000000
_cell_angle_beta   90.00000000
_cell_angle_gamma   90.00000000
_symmetry_Int_Tables_number   1
_chemical_formula_structural   Na2MoO6
_chemical_formula_sum   'Na16 Mo8 O48'
_cell_volume   1406.95256168
_cell_formula_units_Z   8
loop_
 _symmetry_equiv_pos_site_id
 _symmetry_equiv_pos_as_xyz
  1  'x, y, z'
loop_
 _atom_site_type_symbol
 _atom_site_label
 _atom_site_symmetry_multiplicity
 _atom_site_fract_x
 _atom_site_fract_y
 _atom_site_fract_z
 _atom_site_occupancy
  Na  Na0  1  0.16663216  0.49606866  0.05608875  1
  Na  Na1  1  0.66663216  0.00393134  0.94391125  1
  Na  Na2  1  0.83336784  0.99606866  0.44391125  1
  Na  Na3  1  0.33336784  0.50393134  0.55608875  1
  Na  Na4  1  0.83336784  0.50393134  0.94391125  1
  Na  Na5  1  0.33336784  0.99606866  0.05608875  1
  Na  Na6  1  0.16663216  0.00393134  0.55608875  1
  Na  Na7  1  0.66663216  0.49606866  0.44391125  1
  Na  Na8  1  0.28344795  0.42964741  0.86968080  1
  Na  Na9  1  0.78344795  0.07035259  0.13031920  1
  Na  Na10  1  0.71655205  0.92964741  0.63031920  1
  Na  Na11  1  0.21655205  0.57035259  0.36968080  1
  Na  Na12  1  0.71655205  0.57035259  0.13031920  1
  Na  Na13  1  0.21655205  0.92964741  0.86968080  1
  Na  Na14  1  0.28344795  0.07035259  0.36968080  1
  Na  Na15  1  0.78344795  0.42964741  0.63031920  1
  Mo  Mo16  1  0.02118936  0.20495971  0.96874062  1
  Mo  Mo17  1  0.52118936  0.29504029  0.03125938  1
  Mo  Mo18  1  0.97881064  0.70495971  0.53125938  1
  Mo  Mo19  1  0.47881064  0.79504029  0.46874062  1
  Mo  Mo20  1  0.97881064  0.79504029  0.03125938  1
  Mo  Mo21  1  0.47881064  0.70495971  0.96874062  1
  Mo  Mo22  1  0.02118936  0.29504029  0.46874062  1
  Mo  Mo23  1  0.52118936  0.20495971  0.53125938  1
  O  O24  1  0.05729448  0.37247470  0.93997554  1
  O  O25  1  0.55729448  0.12752530  0.06002446  1
  O  O26  1  0.94270552  0.87247470  0.56002446  1
  O  O27  1  0.44270552  0.62752530  0.43997554  1
  O  O28  1  0.94270552  0.62752530  0.06002446  1
  O  O29  1  0.44270552  0.87247470  0.93997554  1
  O  O30  1  0.05729448  0.12752530  0.43997554  1
  O  O31  1  0.55729448  0.37247470  0.56002446  1
  O  O32  1  0.97749376  0.19294256  0.07987001  1
  O  O33  1  0.47749376  0.30705744  0.92012999  1
  O  O34  1  0.02250624  0.69294256  0.42012999  1
  O  O35  1  0.52250624  0.80705744  0.57987001  1
  O  O36  1  0.02250624  0.80705744  0.92012999  1
  O  O37  1  0.52250624  0.69294256  0.07987001  1
  O  O38  1  0.97749376  0.30705744  0.57987001  1
  O  O39  1  0.47749376  0.19294256  0.42012999  1
  O  O40  1  0.19193088  0.10984085  0.94763898  1
  O  O41  1  0.69193088  0.39015915  0.05236102  1
  O  O42  1  0.80806912  0.60984085  0.55236102  1
  O  O43  1  0.30806912  0.89015915  0.44763898  1
  O  O44  1  0.80806912  0.89015915  0.05236102  1
  O  O45  1  0.30806912  0.60984085  0.94763898  1
  O  O46  1  0.19193088  0.39015915  0.44763898  1
  O  O47  1  0.69193088  0.10984085  0.55236102  1
  O  O48  1  0.86201160  0.14488279  0.90758482  1
  O  O49  1  0.36201160  0.35511721  0.09241518  1
  O  O50  1  0.13798840  0.64488279  0.59241518  1
  O  O51  1  0.63798840  0.85511721  0.40758482  1
  O  O52  1  0.13798840  0.85511721  0.09241518  1
  O  O53  1  0.63798840  0.64488279  0.90758482  1
  O  O54  1  0.86201160  0.35511721  0.40758482  1
  O  O55  1  0.36201160  0.14488279  0.59241518  1
  O  O56  1  0.65286795  0.09083985  0.28523131  1
  O  O57  1  0.15286795  0.40916015  0.71476869  1
  O  O58  1  0.34713205  0.59083985  0.21476869  1
  O  O59  1  0.84713205  0.90916015  0.78523131  1
  O  O60  1  0.34713205  0.90916015  0.71476869  1
  O  O61  1  0.84713205  0.59083985  0.28523131  1
  O  O62  1  0.65286795  0.40916015  0.78523131  1
  O  O63  1  0.15286795  0.09083985  0.21476869  1
  O  O64  1  0.95412609  0.52115930  0.26027013  1
  O  O65  1  0.45412609  0.97884070  0.73972987  1
  O  O66  1  0.04587391  0.02115930  0.23972987  1
  O  O67  1  0.54587391  0.47884070  0.76027013  1
  O  O68  1  0.04587391  0.47884070  0.73972987  1
  O  O69  1  0.54587391  0.02115930  0.26027013  1
  O  O70  1  0.95412609  0.97884070  0.76027013  1
  O  O71  1  0.45412609  0.52115930  0.23972987  1
