# generated using pymatgen
data_ZnCu2GeS4
_symmetry_space_group_name_H-M   'P 1'
_cell_length_a   6.15208290
_cell_length_b   6.46984060
_cell_length_c   7.40295560
_cell_angle_alpha   90.00000000
_cell_angle_beta   90.00000000
_cell_angle_gamma   90.00000000
_symmetry_Int_Tables_number   1
_chemical_formula_structural   ZnCu2GeS4
_chemical_formula_sum   'Zn2 Cu4 Ge2 S8'
_cell_volume   294.65981007
_cell_formula_units_Z   2
loop_
 _symmetry_equiv_pos_site_id
 _symmetry_equiv_pos_as_xyz
  1  'x, y, z'
loop_
 _atom_site_type_symbol
 _atom_site_label
 _atom_site_symmetry_multiplicity
 _atom_site_fract_x
 _atom_site_fract_y
 _atom_site_fract_z
 _atom_site_occupancy
  Zn  Zn0  1  -0.00061229  0.15675728  0.50000000  1
  Zn  Zn1  1  0.49938771  0.84324272  0.00000000  1
  Cu  Cu2  1  0.50603672  0.32754561  0.25363856  1
  Cu  Cu3  1  0.50603672  0.32754561  0.74636144  1
  Cu  Cu4  1  0.00603672  0.67245439  0.24636144  1
  Cu  Cu5  1  0.00603672  0.67245439  0.75363856  1
  Ge  Ge6  1  0.50031900  0.83060837  0.50000000  1
  Ge  Ge7  1  0.00031900  0.16939163  0.00000000  1
  S  S8  1  0.86656234  0.82177569  0.50000000  1
  S  S9  1  0.36656234  0.17822431  0.00000000  1
  S  S10  1  0.37894500  0.15736978  0.50000000  1
  S  S11  1  0.87894500  0.84263022  0.00000000  1
  S  S12  1  0.87585625  0.33925169  0.24504748  1
  S  S13  1  0.87585625  0.33925169  0.75495252  1
  S  S14  1  0.37585625  0.66074831  0.25495252  1
  S  S15  1  0.37585625  0.66074831  0.74504748  1
