# generated using pymatgen
data_Na3MnP8O23
_symmetry_space_group_name_H-M   'P 1'
_cell_length_a   12.14942645
_cell_length_b   12.14942645
_cell_length_c   12.14942645
_cell_angle_alpha   90.00000000
_cell_angle_beta   90.00000000
_cell_angle_gamma   90.00000000
_symmetry_Int_Tables_number   1
_chemical_formula_structural   Na3MnP8O23
_chemical_formula_sum   'Na12 Mn4 P32 O92'
_cell_volume   1793.35938034
_cell_formula_units_Z   4
loop_
 _symmetry_equiv_pos_site_id
 _symmetry_equiv_pos_as_xyz
  1  'x, y, z'
loop_
 _atom_site_type_symbol
 _atom_site_label
 _atom_site_symmetry_multiplicity
 _atom_site_fract_x
 _atom_site_fract_y
 _atom_site_fract_z
 _atom_site_occupancy
  Na  Na0  1  0.12500000  0.04340053  0.29340053  1
  Na  Na1  1  0.37500000  0.95659947  0.79340053  1
  Na  Na2  1  0.87500000  0.54340053  0.20659947  1
  Na  Na3  1  0.29340053  0.12500000  0.04340053  1
  Na  Na4  1  0.79340053  0.37500000  0.95659947  1
  Na  Na5  1  0.62500000  0.45659947  0.70659947  1
  Na  Na6  1  0.70659947  0.62500000  0.45659947  1
  Na  Na7  1  0.20659947  0.87500000  0.54340053  1
  Na  Na8  1  0.04340053  0.29340053  0.12500000  1
  Na  Na9  1  0.54340053  0.20659947  0.87500000  1
  Na  Na10  1  0.45659947  0.70659947  0.62500000  1
  Na  Na11  1  0.95659947  0.79340053  0.37500000  1
  Mn  Mn12  1  0.37500000  0.37500000  0.37500000  1
  Mn  Mn13  1  0.12500000  0.62500000  0.87500000  1
  Mn  Mn14  1  0.62500000  0.87500000  0.12500000  1
  Mn  Mn15  1  0.87500000  0.12500000  0.62500000  1
  P  P16  1  0.01791433  0.01791433  0.01791433  1
  P  P17  1  0.48208567  0.98208567  0.51791433  1
  P  P18  1  0.98208567  0.51791433  0.48208567  1
  P  P19  1  0.76791433  0.26791433  0.23208567  1
  P  P20  1  0.51791433  0.48208567  0.98208567  1
  P  P21  1  0.73208567  0.73208567  0.73208567  1
  P  P22  1  0.26791433  0.23208567  0.76791433  1
  P  P23  1  0.23208567  0.76791433  0.26791433  1
  P  P24  1  0.10882930  0.31866257  0.39602000  1
  P  P25  1  0.39117070  0.68133743  0.89602000  1
  P  P26  1  0.89117070  0.81866257  0.10398000  1
  P  P27  1  0.39602000  0.10882930  0.31866257  1
  P  P28  1  0.06866257  0.35882930  0.85398000  1
  P  P29  1  0.60882930  0.18133743  0.60398000  1
  P  P30  1  0.89602000  0.39117070  0.68133743  1
  P  P31  1  0.43133743  0.64117070  0.35398000  1
  P  P32  1  0.10398000  0.89117070  0.81866257  1
  P  P33  1  0.56866257  0.14117070  0.14602000  1
  P  P34  1  0.60398000  0.60882930  0.18133743  1
  P  P35  1  0.93133743  0.85882930  0.64602000  1
  P  P36  1  0.31866257  0.39602000  0.10882930  1
  P  P37  1  0.85882930  0.64602000  0.93133743  1
  P  P38  1  0.81866257  0.10398000  0.89117070  1
  P  P39  1  0.64117070  0.35398000  0.43133743  1
  P  P40  1  0.18133743  0.60398000  0.60882930  1
  P  P41  1  0.35882930  0.85398000  0.06866257  1
  P  P42  1  0.68133743  0.89602000  0.39117070  1
  P  P43  1  0.14117070  0.14602000  0.56866257  1
  P  P44  1  0.85398000  0.06866257  0.35882930  1
  P  P45  1  0.35398000  0.43133743  0.64117070  1
  P  P46  1  0.64602000  0.93133743  0.85882930  1
  P  P47  1  0.14602000  0.56866257  0.14117070  1
  O  O48  1  0.20860109  0.38728995  0.37032434  1
  O  O49  1  0.29139891  0.61271005  0.87032434  1
  O  O50  1  0.79139891  0.88728995  0.12967566  1
  O  O51  1  0.37032434  0.20860109  0.38728995  1
  O  O52  1  0.13728995  0.45860109  0.87967566  1
  O  O53  1  0.70860109  0.11271005  0.62967566  1
  O  O54  1  0.87032434  0.29139891  0.61271005  1
  O  O55  1  0.36271005  0.54139891  0.37967566  1
  O  O56  1  0.12967566  0.79139891  0.88728995  1
  O  O57  1  0.63728995  0.04139891  0.12032434  1
  O  O58  1  0.62967566  0.70860109  0.11271005  1
  O  O59  1  0.86271005  0.95860109  0.62032434  1
  O  O60  1  0.38728995  0.37032434  0.20860109  1
  O  O61  1  0.95860109  0.62032434  0.86271005  1
  O  O62  1  0.88728995  0.12967566  0.79139891  1
  O  O63  1  0.54139891  0.37967566  0.36271005  1
  O  O64  1  0.11271005  0.62967566  0.70860109  1
  O  O65  1  0.45860109  0.87967566  0.13728995  1
  O  O66  1  0.61271005  0.87032434  0.29139891  1
  O  O67  1  0.04139891  0.12032434  0.63728995  1
  O  O68  1  0.87967566  0.13728995  0.45860109  1
  O  O69  1  0.37967566  0.36271005  0.54139891  1
  O  O70  1  0.62032434  0.86271005  0.95860109  1
  O  O71  1  0.12032434  0.63728995  0.04139891  1
  O  O72  1  0.12500000  0.26653658  0.51653658  1
  O  O73  1  0.37500000  0.73346342  0.01653658  1
  O  O74  1  0.87500000  0.76653658  0.98346342  1
  O  O75  1  0.51653658  0.12500000  0.26653658  1
  O  O76  1  0.01653658  0.37500000  0.73346342  1
  O  O77  1  0.62500000  0.23346342  0.48346342  1
  O  O78  1  0.48346342  0.62500000  0.23346342  1
  O  O79  1  0.98346342  0.87500000  0.76653658  1
  O  O80  1  0.26653658  0.51653658  0.12500000  1
  O  O81  1  0.76653658  0.98346342  0.87500000  1
  O  O82  1  0.23346342  0.48346342  0.62500000  1
  O  O83  1  0.73346342  0.01653658  0.37500000  1
  O  O84  1  0.00862417  0.40458587  0.42423122  1
  O  O85  1  0.49137583  0.59541413  0.92423122  1
  O  O86  1  0.99137583  0.90458587  0.07576878  1
  O  O87  1  0.42423122  0.00862417  0.40458587  1
  O  O88  1  0.15458587  0.25862417  0.82576878  1
  O  O89  1  0.50862417  0.09541413  0.57576878  1
  O  O90  1  0.92423122  0.49137583  0.59541413  1
  O  O91  1  0.34541413  0.74137583  0.32576878  1
  O  O92  1  0.07576878  0.99137583  0.90458587  1
  O  O93  1  0.65458587  0.24137583  0.17423122  1
  O  O94  1  0.57576878  0.50862417  0.09541413  1
  O  O95  1  0.84541413  0.75862417  0.67423122  1
  O  O96  1  0.40458587  0.42423122  0.00862417  1
  O  O97  1  0.75862417  0.67423122  0.84541413  1
  O  O98  1  0.90458587  0.07576878  0.99137583  1
  O  O99  1  0.74137583  0.32576878  0.34541413  1
  O  O100  1  0.09541413  0.57576878  0.50862417  1
  O  O101  1  0.25862417  0.82576878  0.15458587  1
  O  O102  1  0.59541413  0.92423122  0.49137583  1
  O  O103  1  0.24137583  0.17423122  0.65458587  1
  O  O104  1  0.82576878  0.15458587  0.25862417  1
  O  O105  1  0.32576878  0.34541413  0.74137583  1
  O  O106  1  0.67423122  0.84541413  0.75862417  1
  O  O107  1  0.17423122  0.65458587  0.24137583  1
  O  O108  1  0.06786149  0.23799954  0.31367965  1
  O  O109  1  0.43213851  0.76200046  0.81367965  1
  O  O110  1  0.93213851  0.73799954  0.18632035  1
  O  O111  1  0.31367965  0.06786149  0.23799954  1
  O  O112  1  0.98799954  0.31786149  0.93632035  1
  O  O113  1  0.56786149  0.26200046  0.68632035  1
  O  O114  1  0.81367965  0.43213851  0.76200046  1
  O  O115  1  0.51200046  0.68213851  0.43632035  1
  O  O116  1  0.18632035  0.93213851  0.73799954  1
  O  O117  1  0.48799954  0.18213851  0.06367965  1
  O  O118  1  0.68632035  0.56786149  0.26200046  1
  O  O119  1  0.01200046  0.81786149  0.56367965  1
  O  O120  1  0.23799954  0.31367965  0.06786149  1
  O  O121  1  0.81786149  0.56367965  0.01200046  1
  O  O122  1  0.73799954  0.18632035  0.93213851  1
  O  O123  1  0.68213851  0.43632035  0.51200046  1
  O  O124  1  0.26200046  0.68632035  0.56786149  1
  O  O125  1  0.31786149  0.93632035  0.98799954  1
  O  O126  1  0.76200046  0.81367965  0.43213851  1
  O  O127  1  0.18213851  0.06367965  0.48799954  1
  O  O128  1  0.93632035  0.98799954  0.31786149  1
  O  O129  1  0.43632035  0.51200046  0.68213851  1
  O  O130  1  0.56367965  0.01200046  0.81786149  1
  O  O131  1  0.06367965  0.48799954  0.18213851  1
  O  O132  1  0.08828048  0.08828048  0.08828048  1
  O  O133  1  0.41171952  0.91171952  0.58828048  1
  O  O134  1  0.91171952  0.58828048  0.41171952  1
  O  O135  1  0.83828048  0.33828048  0.16171952  1
  O  O136  1  0.58828048  0.41171952  0.91171952  1
  O  O137  1  0.66171952  0.66171952  0.66171952  1
  O  O138  1  0.33828048  0.16171952  0.83828048  1
  O  O139  1  0.16171952  0.83828048  0.33828048  1
