# generated using pymatgen
data_Zn2SeS
_symmetry_space_group_name_H-M   'P 1'
_cell_length_a   6.77056442
_cell_length_b   6.77056442
_cell_length_c   6.77056485
_cell_angle_alpha   33.54415748
_cell_angle_beta   33.54415748
_cell_angle_gamma   33.54415903
_symmetry_Int_Tables_number   1
_chemical_formula_structural   Zn2SeS
_chemical_formula_sum   'Zn2 Se1 S1'
_cell_volume   84.41074412
_cell_formula_units_Z   1
loop_
 _symmetry_equiv_pos_site_id
 _symmetry_equiv_pos_as_xyz
  1  'x, y, z'
loop_
 _atom_site_type_symbol
 _atom_site_label
 _atom_site_symmetry_multiplicity
 _atom_site_fract_x
 _atom_site_fract_y
 _atom_site_fract_z
 _atom_site_occupancy
  Zn  Zn0  1  0.00374386  0.00374386  0.00374386  1
  Zn  Zn1  1  0.49637739  0.49637739  0.49637739  1
  Se  Se2  1  0.62452694  0.62452694  0.62452694  1
  S  S3  1  0.12535081  0.12535081  0.12535081  1
