# generated using pymatgen
data_CaMoF6
_symmetry_space_group_name_H-M   'P 1'
_cell_length_a   5.91768106
_cell_length_b   5.91767455
_cell_length_c   5.91767879
_cell_angle_alpha   56.53885972
_cell_angle_beta   56.53885766
_cell_angle_gamma   56.53877252
_symmetry_Int_Tables_number   1
_chemical_formula_structural   CaMoF6
_chemical_formula_sum   'Ca1 Mo1 F6'
_cell_volume   134.81363083
_cell_formula_units_Z   1
loop_
 _symmetry_equiv_pos_site_id
 _symmetry_equiv_pos_as_xyz
  1  'x, y, z'
loop_
 _atom_site_type_symbol
 _atom_site_label
 _atom_site_symmetry_multiplicity
 _atom_site_fract_x
 _atom_site_fract_y
 _atom_site_fract_z
 _atom_site_occupancy
  Ca  Ca0  1  0.50000000  0.50000000  0.50000000  1
  Mo  Mo1  1  0.00000000  0.00000000  -0.00000000  1
  F  F2  1  0.86523345  0.22669209  0.67275811  1
  F  F3  1  0.22669209  0.67275911  0.86523345  1
  F  F4  1  0.32724189  0.13476755  0.77330691  1
  F  F5  1  0.77330791  0.32724089  0.13476655  1
  F  F6  1  0.13476655  0.77330791  0.32724189  1
  F  F7  1  0.67275811  0.86523245  0.22669309  1
