# generated using pymatgen
data_RbGeBr3
_symmetry_space_group_name_H-M   'P 1'
_cell_length_a   7.45264327
_cell_length_b   6.15217892
_cell_length_c   8.14561922
_cell_angle_alpha   74.17955810
_cell_angle_beta   90.00000000
_cell_angle_gamma   90.00000000
_symmetry_Int_Tables_number   1
_chemical_formula_structural   RbGeBr3
_chemical_formula_sum   'Rb2 Ge2 Br6'
_cell_volume   359.32959998
_cell_formula_units_Z   2
loop_
 _symmetry_equiv_pos_site_id
 _symmetry_equiv_pos_as_xyz
  1  'x, y, z'
loop_
 _atom_site_type_symbol
 _atom_site_label
 _atom_site_symmetry_multiplicity
 _atom_site_fract_x
 _atom_site_fract_y
 _atom_site_fract_z
 _atom_site_occupancy
  Rb  Rb0  1  0.75000000  0.67746219  0.70550763  1
  Rb  Rb1  1  0.25000000  0.32253781  0.29449237  1
  Ge  Ge2  1  0.75000000  0.93589666  0.11250603  1
  Ge  Ge3  1  0.25000000  0.06410334  0.88749397  1
  Br  Br4  1  0.75000000  0.33429079  0.12913211  1
  Br  Br5  1  0.25000000  0.66570921  0.87086789  1
  Br  Br6  1  0.49974535  0.18729282  0.68044457  1
  Br  Br7  1  -0.00025465  0.81270718  0.31955543  1
  Br  Br8  1  0.00025465  0.18729282  0.68044457  1
  Br  Br9  1  0.50025465  0.81270718  0.31955543  1
