# generated using pymatgen
data_RbCu2I3
_symmetry_space_group_name_H-M   'P 1'
_cell_length_a   8.89323958
_cell_length_b   8.89323958
_cell_length_c   5.34806769
_cell_angle_alpha   90.00000000
_cell_angle_beta   90.00000000
_cell_angle_gamma   101.93683401
_symmetry_Int_Tables_number   1
_chemical_formula_structural   RbCu2I3
_chemical_formula_sum   'Rb2 Cu4 I6'
_cell_volume   413.83075913
_cell_formula_units_Z   2
loop_
 _symmetry_equiv_pos_site_id
 _symmetry_equiv_pos_as_xyz
  1  'x, y, z'
loop_
 _atom_site_type_symbol
 _atom_site_label
 _atom_site_symmetry_multiplicity
 _atom_site_fract_x
 _atom_site_fract_y
 _atom_site_fract_z
 _atom_site_occupancy
  Rb  Rb0  1  0.30871267  0.69128733  0.75000000  1
  Rb  Rb1  1  0.69128733  0.30871267  0.25000000  1
  Cu  Cu2  1  0.84002164  0.84002164  0.50000000  1
  Cu  Cu3  1  0.84002164  0.84002164  -0.00000000  1
  Cu  Cu4  1  0.15997836  0.15997836  0.50000000  1
  Cu  Cu5  1  0.15997836  0.15997836  0.00000000  1
  I  I6  1  0.58918902  0.84052741  0.25000000  1
  I  I7  1  0.84052741  0.58918902  0.75000000  1
  I  I8  1  0.41081098  0.15947259  0.75000000  1
  I  I9  1  0.15947259  0.41081098  0.25000000  1
  I  I10  1  0.88989529  0.11010471  0.75000000  1
  I  I11  1  0.11010471  0.88989529  0.25000000  1
