# generated using pymatgen
data_HfBr4
_symmetry_space_group_name_H-M   'P 1'
_cell_length_a   11.75194528
_cell_length_b   11.75194528
_cell_length_c   11.75194528
_cell_angle_alpha   90.00000000
_cell_angle_beta   90.00000000
_cell_angle_gamma   90.00000000
_symmetry_Int_Tables_number   1
_chemical_formula_structural   HfBr4
_chemical_formula_sum   'Hf8 Br32'
_cell_volume   1623.04021906
_cell_formula_units_Z   8
loop_
 _symmetry_equiv_pos_site_id
 _symmetry_equiv_pos_as_xyz
  1  'x, y, z'
loop_
 _atom_site_type_symbol
 _atom_site_label
 _atom_site_symmetry_multiplicity
 _atom_site_fract_x
 _atom_site_fract_y
 _atom_site_fract_z
 _atom_site_occupancy
  Hf  Hf0  1  0.12786654  0.12786654  0.12786654  1
  Hf  Hf1  1  0.87213346  0.87213346  0.87213346  1
  Hf  Hf2  1  0.37213346  0.87213346  0.62786654  1
  Hf  Hf3  1  0.87213346  0.62786654  0.37213346  1
  Hf  Hf4  1  0.62786654  0.12786654  0.37213346  1
  Hf  Hf5  1  0.12786654  0.37213346  0.62786654  1
  Hf  Hf6  1  0.62786654  0.37213346  0.87213346  1
  Hf  Hf7  1  0.37213346  0.62786654  0.12786654  1
  Br  Br8  1  0.99052115  0.50530481  0.25288227  1
  Br  Br9  1  0.00947885  0.49469519  0.74711773  1
  Br  Br10  1  0.50947885  0.49469519  0.75288227  1
  Br  Br11  1  0.00947885  0.00530481  0.24711773  1
  Br  Br12  1  0.25288227  0.99052115  0.50530481  1
  Br  Br13  1  0.49052115  0.50530481  0.24711773  1
  Br  Br14  1  0.99052115  0.99469519  0.75288227  1
  Br  Br15  1  0.74711773  0.00947885  0.49469519  1
  Br  Br16  1  0.49052115  0.99469519  0.74711773  1
  Br  Br17  1  0.75288227  0.50947885  0.49469519  1
  Br  Br18  1  0.50947885  0.00530481  0.25288227  1
  Br  Br19  1  0.24711773  0.49052115  0.50530481  1
  Br  Br20  1  0.24711773  0.00947885  0.00530481  1
  Br  Br21  1  0.75288227  0.99052115  0.99469519  1
  Br  Br22  1  0.74711773  0.49052115  0.99469519  1
  Br  Br23  1  0.25288227  0.50947885  0.00530481  1
  Br  Br24  1  0.50530481  0.25288227  0.99052115  1
  Br  Br25  1  0.49469519  0.74711773  0.00947885  1
  Br  Br26  1  0.00530481  0.24711773  0.00947885  1
  Br  Br27  1  0.99469519  0.75288227  0.99052115  1
  Br  Br28  1  0.99469519  0.74711773  0.49052115  1
  Br  Br29  1  0.00530481  0.25288227  0.50947885  1
  Br  Br30  1  0.49469519  0.75288227  0.50947885  1
  Br  Br31  1  0.50530481  0.24711773  0.49052115  1
  Br  Br32  1  0.24793615  0.24793615  0.24793615  1
  Br  Br33  1  0.75206385  0.75206385  0.75206385  1
  Br  Br34  1  0.25206385  0.75206385  0.74793615  1
  Br  Br35  1  0.75206385  0.74793615  0.25206385  1
  Br  Br36  1  0.74793615  0.24793615  0.25206385  1
  Br  Br37  1  0.24793615  0.25206385  0.74793615  1
  Br  Br38  1  0.74793615  0.25206385  0.75206385  1
  Br  Br39  1  0.25206385  0.74793615  0.24793615  1
