# generated using pymatgen
data_Ca3Ga2(Ge2O7)2
_symmetry_space_group_name_H-M   'P 1'
_cell_length_a   8.05349351
_cell_length_b   8.05349351
_cell_length_c   4.98169759
_cell_angle_alpha   88.71731054
_cell_angle_beta   88.71731054
_cell_angle_gamma   61.02253073
_symmetry_Int_Tables_number   1
_chemical_formula_structural   Ca3Ga2(Ge2O7)2
_chemical_formula_sum   'Ca3 Ga2 Ge4 O14'
_cell_volume   282.56164861
_cell_formula_units_Z   1
loop_
 _symmetry_equiv_pos_site_id
 _symmetry_equiv_pos_as_xyz
  1  'x, y, z'
loop_
 _atom_site_type_symbol
 _atom_site_label
 _atom_site_symmetry_multiplicity
 _atom_site_fract_x
 _atom_site_fract_y
 _atom_site_fract_z
 _atom_site_occupancy
  Ca  Ca0  1  0.57714798  0.99463696  0.99938605  1
  Ca  Ca1  1  0.00536304  0.42285202  0.00061395  1
  Ca  Ca2  1  0.41014398  0.58985602  0.00000000  1
  Ga  Ga3  1  0.23726092  0.98956480  0.51791070  1
  Ga  Ga4  1  0.01043520  0.76273908  0.48208930  1
  Ge  Ge5  1  0.75459139  0.24540861  0.50000000  1
  Ge  Ge6  1  -0.00033224  0.00033224  0.00000000  1
  Ge  Ge7  1  0.67070615  0.66745104  0.53360869  1
  Ge  Ge8  1  0.33254896  0.32929385  0.46639131  1
  O  O9  1  0.77995588  0.08373451  0.75578600  1
  O  O10  1  0.07582463  0.14335523  0.78302820  1
  O  O11  1  0.13576353  0.79589073  0.76273338  1
  O  O12  1  0.91626549  0.22004412  0.24421400  1
  O  O13  1  0.20410927  0.86423647  0.23726662  1
  O  O14  1  0.85664477  0.92417537  0.21697180  1
  O  O15  1  0.66394012  0.66622039  0.18967171  1
  O  O16  1  0.33377961  0.33605988  0.81032829  1
  O  O17  1  0.54284858  0.31444750  0.31289249  1
  O  O18  1  0.32113943  0.13978711  0.31833889  1
  O  O19  1  0.15918047  0.53308155  0.29952003  1
  O  O20  1  0.68555350  0.45715142  0.68710751  1
  O  O21  1  0.46691845  0.84081953  0.70047997  1
  O  O22  1  0.86021289  0.67886057  0.68166111  1
