# generated using pymatgen
data_K4MgZn4H16(Br3O2)4
_symmetry_space_group_name_H-M   'P 1'
_cell_length_a   7.59663426
_cell_length_b   13.16522234
_cell_length_c   13.81045297
_cell_angle_alpha   88.23687381
_cell_angle_beta   135.55690955
_cell_angle_gamma   89.70615025
_symmetry_Int_Tables_number   1
_chemical_formula_structural   K4MgZn4H16(Br3O2)4
_chemical_formula_sum   'K4 Mg1 Zn4 H16 Br12 O8'
_cell_volume   965.93605964
_cell_formula_units_Z   1
loop_
 _symmetry_equiv_pos_site_id
 _symmetry_equiv_pos_as_xyz
  1  'x, y, z'
loop_
 _atom_site_type_symbol
 _atom_site_label
 _atom_site_symmetry_multiplicity
 _atom_site_fract_x
 _atom_site_fract_y
 _atom_site_fract_z
 _atom_site_occupancy
  K  K0  1  0.29065515  0.80379435  0.00984503  1
  K  K1  1  0.67580198  0.32507515  0.48870975  1
  K  K2  1  0.76442662  0.15222916  0.00298905  1
  K  K3  1  0.28310064  0.71081260  0.50391265  1
  Mg  Mg4  1  0.79513105  0.47417156  0.26721275  1
  Zn  Zn5  1  0.48334932  0.93075564  0.75096087  1
  Zn  Zn6  1  0.48574118  0.41842101  0.75428546  1
  Zn  Zn7  1  0.51978080  0.06541552  0.25811516  1
  Zn  Zn8  1  0.55108346  0.55656107  0.30895198  1
  H  H9  1  0.77840380  0.26791667  0.78535126  1
  H  H10  1  0.20244143  0.78021423  0.71115054  1
  H  H11  1  0.28713742  0.73396382  0.24365280  1
  H  H12  1  0.78559638  0.22256523  0.29592271  1
  H  H13  1  0.92740485  0.32387094  0.93066010  1
  H  H14  1  0.03694787  0.85425100  0.57057888  1
  H  H15  1  0.10259569  0.65303844  0.13768288  1
  H  H16  1  0.95441685  0.15924488  0.44058395  1
  H  H17  1  0.94051412  0.15483691  0.74532620  1
  H  H18  1  0.07014404  0.65519222  0.74003036  1
  H  H19  1  0.09453622  0.85507046  0.24153081  1
  H  H20  1  0.88449148  0.34543835  0.17077569  1
  H  H21  1  0.65529351  0.13659910  0.64201714  1
  H  H22  1  0.36500542  0.65561380  0.85183054  1
  H  H23  1  0.37296831  0.88091643  0.36349366  1
  H  H24  1  0.58905542  0.34833308  0.06752078  1
  Br  Br25  1  0.22497719  0.38626616  0.50586605  1
  Br  Br26  1  0.71516205  0.90349809  0.99163766  1
  Br  Br27  1  0.69523683  0.58106712  0.54114126  1
  Br  Br28  1  0.29425755  0.09893977  0.02105500  1
  Br  Br29  1  0.29230474  0.35620796  0.82656173  1
  Br  Br30  1  0.71917931  0.89804641  0.69951093  1
  Br  Br31  1  0.81609782  0.62942734  0.16542937  1
  Br  Br32  1  0.32185777  0.08369279  0.33492972  1
  Br  Br33  1  0.27628245  0.09808252  0.66849767  1
  Br  Br34  1  0.63785616  0.58467948  0.81506297  1
  Br  Br35  1  0.73748463  0.90078219  0.33216277  1
  Br  Br36  1  0.14823134  0.35921347  0.15902504  1
  O  O37  1  0.20733041  0.82513978  0.65179901  1
  O  O38  1  0.76099889  0.30637821  0.83975303  1
  O  O39  1  0.78016636  0.18335757  0.35544602  1
  O  O40  1  0.26480277  0.68247573  0.18372613  1
  O  O41  1  0.21511724  0.69862640  0.80764684  1
  O  O42  1  0.77620463  0.19081245  0.68366279  1
  O  O43  1  0.74719230  0.34639501  0.16838766  1
  O  O44  1  0.26027356  0.82365196  0.32275031  1
