# generated using pymatgen
data_Ta2Tl4S11
_symmetry_space_group_name_H-M   'P 1'
_cell_length_a   8.00189746
_cell_length_b   9.01650556
_cell_length_c   13.31928775
_cell_angle_alpha   107.86513655
_cell_angle_beta   89.20872485
_cell_angle_gamma   94.74945225
_symmetry_Int_Tables_number   1
_chemical_formula_structural   Ta2Tl4S11
_chemical_formula_sum   'Ta4 Tl8 S22'
_cell_volume   911.42964042
_cell_formula_units_Z   2
loop_
 _symmetry_equiv_pos_site_id
 _symmetry_equiv_pos_as_xyz
  1  'x, y, z'
loop_
 _atom_site_type_symbol
 _atom_site_label
 _atom_site_symmetry_multiplicity
 _atom_site_fract_x
 _atom_site_fract_y
 _atom_site_fract_z
 _atom_site_occupancy
  Ta  Ta0  1  0.33555600  0.89056681  0.19074397  1
  Ta  Ta1  1  0.66444400  0.10943319  0.80925603  1
  Ta  Ta2  1  0.12458577  0.63707760  0.30496429  1
  Ta  Ta3  1  0.87541423  0.36292240  0.69503571  1
  Tl  Tl4  1  0.24211576  0.57968912  0.58509300  1
  Tl  Tl5  1  0.75788424  0.42031088  0.41490700  1
  Tl  Tl6  1  0.50125356  0.72635714  0.88573863  1
  Tl  Tl7  1  0.49874644  0.27364286  0.11426137  1
  Tl  Tl8  1  0.21604470  0.03567867  0.57292823  1
  Tl  Tl9  1  0.78395530  0.96432133  0.42707177  1
  Tl  Tl10  1  0.05832772  0.23843612  0.97623170  1
  Tl  Tl11  1  0.94167228  0.76156388  0.02376830  1
  S  S12  1  0.00489292  0.29274192  0.53389514  1
  S  S13  1  0.99510708  0.70725808  0.46610486  1
  S  S14  1  0.38933918  0.80819261  0.37159924  1
  S  S15  1  0.61066082  0.19180739  0.62840076  1
  S  S16  1  0.04542970  0.35581165  0.24561878  1
  S  S17  1  0.95457030  0.64418835  0.75438122  1
  S  S18  1  0.10461149  0.51103586  0.81341562  1
  S  S19  1  0.89538851  0.48896414  0.18658438  1
  S  S20  1  0.39514003  0.57158265  0.35162680  1
  S  S21  1  0.60485997  0.42841735  0.64837320  1
  S  S22  1  0.36654958  0.13896331  0.33178479  1
  S  S23  1  0.63345042  0.86103669  0.66821521  1
  S  S24  1  0.72786768  0.04282247  0.95598766  1
  S  S25  1  0.27213232  0.95717753  0.04401234  1
  S  S26  1  0.52230087  0.68431184  0.11871685  1
  S  S27  1  0.47769913  0.31568816  0.88128315  1
  S  S28  1  0.72747915  0.39798111  0.88810184  1
  S  S29  1  0.27252085  0.60201889  0.11189816  1
  S  S30  1  0.95555264  0.13278897  0.74545371  1
  S  S31  1  0.04444736  0.86721103  0.25454629  1
  S  S32  1  0.58740748  0.07157750  0.25288262  1
  S  S33  1  0.41259252  0.92842250  0.74711738  1
