# generated using pymatgen
data_Tb2MgS4
_symmetry_space_group_name_H-M   'P 1'
_cell_length_a   7.89971645
_cell_length_b   7.89971612
_cell_length_c   7.89971754
_cell_angle_alpha   60.00012303
_cell_angle_beta   60.00013200
_cell_angle_gamma   60.00014198
_symmetry_Int_Tables_number   1
_chemical_formula_structural   Tb2MgS4
_chemical_formula_sum   'Tb4 Mg2 S8'
_cell_volume   348.59476107
_cell_formula_units_Z   2
loop_
 _symmetry_equiv_pos_site_id
 _symmetry_equiv_pos_as_xyz
  1  'x, y, z'
loop_
 _atom_site_type_symbol
 _atom_site_label
 _atom_site_symmetry_multiplicity
 _atom_site_fract_x
 _atom_site_fract_y
 _atom_site_fract_z
 _atom_site_occupancy
  Tb  Tb0  1  0.12500012  0.62500022  0.12500007  1
  Tb  Tb1  1  0.12499994  0.12499990  0.62500038  1
  Tb  Tb2  1  0.62500077  0.12499980  0.12499993  1
  Tb  Tb3  1  0.12500009  0.12499976  0.12499970  1
  Mg  Mg4  1  0.50000195  0.50000223  0.50000205  1
  Mg  Mg5  1  0.74999810  0.74999813  0.74999800  1
  S  S6  1  0.87934193  0.87934195  0.87934202  1
  S  S7  1  0.36198119  0.87934036  0.87934066  1
  S  S8  1  0.87934043  0.36198116  0.87934065  1
  S  S9  1  0.87934044  0.87934051  0.36198124  1
  S  S10  1  0.37066311  0.37066337  0.88800941  1
  S  S11  1  0.37066329  0.88800937  0.37066315  1
  S  S12  1  0.88800925  0.37066346  0.37066320  1
  S  S13  1  0.37066138  0.37066177  0.37066154  1
