# generated using pymatgen
data_NaCrF4
_symmetry_space_group_name_H-M   'P 1'
_cell_length_a   5.26977655
_cell_length_b   7.34750879
_cell_length_c   7.75626063
_cell_angle_alpha   79.35811962
_cell_angle_beta   90.00000000
_cell_angle_gamma   90.00000000
_symmetry_Int_Tables_number   1
_chemical_formula_structural   NaCrF4
_chemical_formula_sum   'Na4 Cr4 F16'
_cell_volume   295.15499269
_cell_formula_units_Z   4
loop_
 _symmetry_equiv_pos_site_id
 _symmetry_equiv_pos_as_xyz
  1  'x, y, z'
loop_
 _atom_site_type_symbol
 _atom_site_label
 _atom_site_symmetry_multiplicity
 _atom_site_fract_x
 _atom_site_fract_y
 _atom_site_fract_z
 _atom_site_occupancy
  Na  Na0  1  0.21756394  0.88878226  0.36171252  1
  Na  Na1  1  0.71756394  0.61121774  0.63828748  1
  Na  Na2  1  0.78243606  0.11121774  0.63828748  1
  Na  Na3  1  0.28243606  0.38878226  0.36171252  1
  Cr  Cr4  1  0.74023577  0.70156350  0.16972013  1
  Cr  Cr5  1  0.24023577  0.79843650  0.83027987  1
  Cr  Cr6  1  0.25976423  0.29843650  0.83027987  1
  Cr  Cr7  1  0.75976423  0.20156350  0.16972013  1
  F  F8  1  0.48023973  0.12265048  0.30910396  1
  F  F9  1  0.98023973  0.37734952  0.69089604  1
  F  F10  1  0.51976027  0.87734952  0.69089604  1
  F  F11  1  0.01976027  0.62265048  0.30910396  1
  F  F12  1  0.95695849  0.18854250  0.37345820  1
  F  F13  1  0.45695849  0.31145750  0.62654180  1
  F  F14  1  0.04304151  0.81145750  0.62654180  1
  F  F15  1  0.54304151  0.68854250  0.37345820  1
  F  F16  1  0.86584277  0.95020246  0.16850293  1
  F  F17  1  0.36584277  0.54979754  0.83149707  1
  F  F18  1  0.13415723  0.04979754  0.83149707  1
  F  F19  1  0.63415723  0.45020246  0.16850293  1
  F  F20  1  0.43384920  0.79835932  0.04293080  1
  F  F21  1  0.93384920  0.70164068  0.95706920  1
  F  F22  1  0.56615080  0.20164068  0.95706920  1
  F  F23  1  0.06615080  0.29835932  0.04293080  1
