# generated using pymatgen
data_Tb2S3
_symmetry_space_group_name_H-M   'P 1'
_cell_length_a   3.89965659
_cell_length_b   7.32802302
_cell_length_c   15.22144391
_cell_angle_alpha   90.00000000
_cell_angle_beta   90.00000000
_cell_angle_gamma   90.00000000
_symmetry_Int_Tables_number   1
_chemical_formula_structural   Tb2S3
_chemical_formula_sum   'Tb8 S12'
_cell_volume   434.97975133
_cell_formula_units_Z   4
loop_
 _symmetry_equiv_pos_site_id
 _symmetry_equiv_pos_as_xyz
  1  'x, y, z'
loop_
 _atom_site_type_symbol
 _atom_site_label
 _atom_site_symmetry_multiplicity
 _atom_site_fract_x
 _atom_site_fract_y
 _atom_site_fract_z
 _atom_site_occupancy
  Tb  Tb0  1  0.75000000  0.73374485  0.04316646  1
  Tb  Tb1  1  0.75000000  0.23374485  0.45683354  1
  Tb  Tb2  1  0.25000000  0.26625515  0.95683354  1
  Tb  Tb3  1  0.25000000  0.76625515  0.54316646  1
  Tb  Tb4  1  0.75000000  0.35783868  0.70430552  1
  Tb  Tb5  1  0.75000000  0.85783868  0.79569448  1
  Tb  Tb6  1  0.25000000  0.64216132  0.29569448  1
  Tb  Tb7  1  0.25000000  0.14216132  0.20430552  1
  S  S8  1  0.75000000  0.48961185  0.89218369  1
  S  S9  1  0.75000000  0.98961185  0.60781631  1
  S  S10  1  0.25000000  0.51038815  0.10781631  1
  S  S11  1  0.25000000  0.01038815  0.39218369  1
  S  S12  1  0.75000000  0.35006981  0.28161633  1
  S  S13  1  0.75000000  0.85006981  0.21838367  1
  S  S14  1  0.25000000  0.64993019  0.71838367  1
  S  S15  1  0.25000000  0.14993019  0.78161633  1
  S  S16  1  0.75000000  0.12415969  0.06744411  1
  S  S17  1  0.75000000  0.62415969  0.43255589  1
  S  S18  1  0.25000000  0.87584031  0.93255589  1
  S  S19  1  0.25000000  0.37584031  0.56744411  1
