# generated using pymatgen
data_CaV4(PO5)4
_symmetry_space_group_name_H-M   'P 1'
_cell_length_a   5.40163619
_cell_length_b   10.35144988
_cell_length_c   7.35255462
_cell_angle_alpha   69.90680222
_cell_angle_beta   68.44278803
_cell_angle_gamma   75.06135658
_symmetry_Int_Tables_number   1
_chemical_formula_structural   CaV4(PO5)4
_chemical_formula_sum   'Ca1 V4 P4 O20'
_cell_volume   354.99063306
_cell_formula_units_Z   1
loop_
 _symmetry_equiv_pos_site_id
 _symmetry_equiv_pos_as_xyz
  1  'x, y, z'
loop_
 _atom_site_type_symbol
 _atom_site_label
 _atom_site_symmetry_multiplicity
 _atom_site_fract_x
 _atom_site_fract_y
 _atom_site_fract_z
 _atom_site_occupancy
  Ca  Ca0  1  0.50000000  0.75000000  0.25000000  1
  V  V1  1  0.03226500  0.49132500  0.99989900  1
  V  V2  1  0.00000000  0.75000000  0.25000000  1
  V  V3  1  0.50000000  0.24999900  0.75000000  1
  V  V4  1  0.96773600  0.00867500  0.50010100  1
  P  P5  1  0.60894500  0.06553200  0.18834000  1
  P  P6  1  0.39105600  0.43446900  0.31166000  1
  P  P7  1  0.36036900  0.94547400  0.79414800  1
  P  P8  1  0.63963200  0.55452700  0.70585200  1
  O  O9  1  0.30354600  0.06743000  0.30286600  1
  O  O10  1  0.23496500  0.39789200  0.20395400  1
  O  O11  1  0.06517100  0.84513200  0.39030500  1
  O  O12  1  0.30638300  0.83137500  0.00038100  1
  O  O13  1  0.26113400  0.58046200  0.34613700  1
  O  O14  1  0.30343400  0.09104500  0.82628000  1
  O  O15  1  0.37155100  0.32739800  0.52255600  1
  O  O16  1  0.17561000  0.35067800  0.90753500  1
  O  O17  1  0.76503600  0.10210800  0.29604600  1
  O  O18  1  0.17786300  0.92832200  0.68435300  1
  O  O19  1  0.69645500  0.43257000  0.19713500  1
  O  O20  1  0.33592000  0.58851000  0.82478700  1
  O  O21  1  0.82438900  0.14932200  0.59246600  1
  O  O22  1  0.62844800  0.17260200  0.97744500  1
  O  O23  1  0.82213700  0.57167900  0.81564700  1
  O  O24  1  0.73886700  0.91953700  0.15386300  1
  O  O25  1  0.69361700  0.66862600  0.49961900  1
  O  O26  1  0.93483100  0.65486700  0.10969500  1
  O  O27  1  0.66408100  0.91148900  0.67521200  1
  O  O28  1  0.69656700  0.40895500  0.67372000  1
