# generated using pymatgen
data_ZnSn2(PO4)2
_symmetry_space_group_name_H-M   'P 1'
_cell_length_a   9.62693557
_cell_length_b   9.62693557
_cell_length_c   18.68877739
_cell_angle_alpha   61.95940040
_cell_angle_beta   61.95940040
_cell_angle_gamma   31.54135029
_symmetry_Int_Tables_number   1
_chemical_formula_structural   ZnSn2(PO4)2
_chemical_formula_sum   'Zn4 Sn8 P8 O32'
_cell_volume   790.59595855
_cell_formula_units_Z   4
loop_
 _symmetry_equiv_pos_site_id
 _symmetry_equiv_pos_as_xyz
  1  'x, y, z'
loop_
 _atom_site_type_symbol
 _atom_site_label
 _atom_site_symmetry_multiplicity
 _atom_site_fract_x
 _atom_site_fract_y
 _atom_site_fract_z
 _atom_site_occupancy
  Zn  Zn0  1  0.06967200  0.62135000  0.66045600  1
  Zn  Zn1  1  0.37865000  0.93032800  0.83954400  1
  Zn  Zn2  1  0.62135000  0.06967200  0.16045600  1
  Zn  Zn3  1  0.93032800  0.37865000  0.33954400  1
  Sn  Sn4  1  0.37605500  0.81434000  0.51072200  1
  Sn  Sn5  1  0.18566000  0.62394500  0.98927800  1
  Sn  Sn6  1  0.62394500  0.18566000  0.48927800  1
  Sn  Sn7  1  0.00000000  0.50000000  0.50000000  1
  Sn  Sn8  1  0.81434000  0.37605500  0.01072200  1
  Sn  Sn9  1  0.66035200  0.34629000  0.24885900  1
  Sn  Sn10  1  0.33964800  0.65371000  0.75114100  1
  Sn  Sn11  1  0.50000000  0.00000000  0.00000000  1
  P  P12  1  0.53538300  0.91390500  0.63869500  1
  P  P13  1  0.75973700  0.30997400  0.87675900  1
  P  P14  1  0.46461700  0.08609500  0.36130500  1
  P  P15  1  0.30997400  0.75973700  0.37675900  1
  P  P16  1  0.91390500  0.53538300  0.13869500  1
  P  P17  1  0.08609500  0.46461700  0.86130500  1
  P  P18  1  0.24026300  0.69002600  0.12324100  1
  P  P19  1  0.69002600  0.24026300  0.62324100  1
  O  O20  1  0.16289200  0.27130600  0.38977200  1
  O  O21  1  0.45875000  0.35824900  0.60361800  1
  O  O22  1  0.27130600  0.16289200  0.88977200  1
  O  O23  1  0.62388200  0.26415300  0.94686400  1
  O  O24  1  0.62258100  0.83537700  0.43106100  1
  O  O25  1  0.69698900  0.39694300  0.79238000  1
  O  O26  1  0.73584700  0.37611800  0.55313600  1
  O  O27  1  0.04498300  0.06747200  0.37870900  1
  O  O28  1  0.37611800  0.73584700  0.05313600  1
  O  O29  1  0.64175100  0.54125000  0.89638200  1
  O  O30  1  0.46098600  0.24821000  0.36890400  1
  O  O31  1  0.00099000  0.42069400  0.22098100  1
  O  O32  1  0.54125000  0.64175100  0.39638200  1
  O  O33  1  0.06747200  0.04498300  0.87870900  1
  O  O34  1  0.83710800  0.72869400  0.61022800  1
  O  O35  1  0.53901400  0.75179000  0.63109600  1
  O  O36  1  0.42069400  0.00099000  0.72098100  1
  O  O37  1  0.26415300  0.62388200  0.44686400  1
  O  O38  1  0.24821000  0.46098600  0.86890400  1
  O  O39  1  0.99901000  0.57930600  0.77901900  1
  O  O40  1  0.93252800  0.95501700  0.12129100  1
  O  O41  1  0.83537700  0.62258100  0.93106100  1
  O  O42  1  0.95501700  0.93252800  0.62129100  1
  O  O43  1  0.39694300  0.69698900  0.29238000  1
  O  O44  1  0.35824900  0.45875000  0.10361800  1
  O  O45  1  0.72869400  0.83710800  0.11022800  1
  O  O46  1  0.57930600  0.99901000  0.27901900  1
  O  O47  1  0.16462300  0.37741900  0.06893900  1
  O  O48  1  0.37741900  0.16462300  0.56893900  1
  O  O49  1  0.60305700  0.30301100  0.70762000  1
  O  O50  1  0.30301100  0.60305700  0.20762000  1
  O  O51  1  0.75179000  0.53901400  0.13109600  1
