# generated using pymatgen
data_Ho2SiO5
_symmetry_space_group_name_H-M   'P 1'
_cell_length_a   6.80257933
_cell_length_b   6.65013374
_cell_length_c   9.01989358
_cell_angle_alpha   74.57878326
_cell_angle_beta   90.00000000
_cell_angle_gamma   90.00000000
_symmetry_Int_Tables_number   1
_chemical_formula_structural   Ho2SiO5
_chemical_formula_sum   'Ho8 Si4 O20'
_cell_volume   393.35175427
_cell_formula_units_Z   4
loop_
 _symmetry_equiv_pos_site_id
 _symmetry_equiv_pos_as_xyz
  1  'x, y, z'
loop_
 _atom_site_type_symbol
 _atom_site_label
 _atom_site_symmetry_multiplicity
 _atom_site_fract_x
 _atom_site_fract_y
 _atom_site_fract_z
 _atom_site_occupancy
  Ho  Ho0  1  0.12447673  0.73153627  0.47167234  1
  Ho  Ho1  1  0.62447673  0.76846373  0.52832766  1
  Ho  Ho2  1  0.87552327  0.26846373  0.52832766  1
  Ho  Ho3  1  0.37552327  0.23153627  0.47167234  1
  Ho  Ho4  1  0.63893749  0.94626723  0.87251604  1
  Ho  Ho5  1  0.13893749  0.55373277  0.12748396  1
  Ho  Ho6  1  0.36106251  0.05373277  0.12748396  1
  Ho  Ho7  1  0.86106251  0.44626723  0.87251604  1
  Si  Si8  1  0.09007731  0.97588327  0.79932350  1
  Si  Si9  1  0.59007731  0.52411673  0.20067650  1
  Si  Si10  1  0.90992269  0.02411673  0.20067650  1
  Si  Si11  1  0.40992269  0.47588327  0.79932350  1
  O  O12  1  0.88114104  0.56235321  0.61351756  1
  O  O13  1  0.38114104  0.93764679  0.38648244  1
  O  O14  1  0.11885896  0.43764679  0.38648244  1
  O  O15  1  0.61885896  0.06235321  0.61351756  1
  O  O16  1  0.28513692  0.98247581  0.89619564  1
  O  O17  1  0.78513692  0.51752419  0.10380436  1
  O  O18  1  0.71486308  0.01752419  0.10380436  1
  O  O19  1  0.21486308  0.48247581  0.89619564  1
  O  O20  1  0.13757592  0.00922877  0.61477102  1
  O  O21  1  0.63757592  0.49077123  0.38522898  1
  O  O22  1  0.86242408  0.99077123  0.38522898  1
  O  O23  1  0.36242408  0.50922877  0.61477102  1
  O  O24  1  0.56984149  0.66604012  0.79059840  1
  O  O25  1  0.06984149  0.83395988  0.20940160  1
  O  O26  1  0.43015851  0.33395988  0.20940160  1
  O  O27  1  0.93015851  0.16604012  0.79059840  1
  O  O28  1  0.55222901  0.27843951  0.87305133  1
  O  O29  1  0.05222901  0.22156049  0.12694867  1
  O  O30  1  0.44777099  0.72156049  0.12694867  1
  O  O31  1  0.94777099  0.77843951  0.87305133  1
