# generated using pymatgen
data_MgAl(Bi3O5)4
_symmetry_space_group_name_H-M   'P 1'
_cell_length_a   8.68972287
_cell_length_b   9.10160916
_cell_length_c   8.78700335
_cell_angle_alpha   108.12606634
_cell_angle_beta   110.50659794
_cell_angle_gamma   107.46661583
_symmetry_Int_Tables_number   1
_chemical_formula_structural   MgAl(Bi3O5)4
_chemical_formula_sum   'Mg1 Al1 Bi12 O20'
_cell_volume   549.41004292
_cell_formula_units_Z   1
loop_
 _symmetry_equiv_pos_site_id
 _symmetry_equiv_pos_as_xyz
  1  'x, y, z'
loop_
 _atom_site_type_symbol
 _atom_site_label
 _atom_site_symmetry_multiplicity
 _atom_site_fract_x
 _atom_site_fract_y
 _atom_site_fract_z
 _atom_site_occupancy
  Mg  Mg0  1  0.15666555  0.11224812  0.33140378  1
  Al  Al1  1  0.99136114  0.99053916  0.96886343  1
  Bi  Bi2  1  0.81622302  0.63696512  0.50277762  1
  Bi  Bi3  1  0.24497434  0.76938287  0.88718455  1
  Bi  Bi4  1  0.78184153  0.27160885  0.08144756  1
  Bi  Bi5  1  0.63239461  0.48357218  0.79380737  1
  Bi  Bi6  1  0.14398572  0.41880634  0.54514259  1
  Bi  Bi7  1  0.68900275  0.85015230  0.21855518  1
  Bi  Bi8  1  0.25170522  0.09031246  0.74020006  1
  Bi  Bi9  1  0.29531810  0.44780980  0.15955439  1
  Bi  Bi10  1  0.52810396  0.81181580  0.65705100  1
  Bi  Bi11  1  0.11416092  0.75482503  0.30385934  1
  Bi  Bi12  1  0.50403094  0.15814253  0.30259928  1
  Bi  Bi13  1  0.85497893  0.21116124  0.70920778  1
  O  O14  1  0.17801762  0.19954445  0.15411999  1
  O  O15  1  0.79150756  0.01702883  0.94404095  1
  O  O16  1  0.04939946  0.88252634  0.10011936  1
  O  O17  1  0.02315129  0.94961876  0.77673458  1
  O  O18  1  0.66130990  0.76093168  0.40715916  1
  O  O19  1  0.40227817  0.78026752  0.14301975  1
  O  O20  1  0.59915608  0.22053291  0.81864014  1
  O  O21  1  0.75418909  0.38280409  0.63653325  1
  O  O22  1  0.35456718  0.31763945  0.57109368  1
  O  O23  1  0.75260990  0.11876366  0.37413161  1
  O  O24  1  0.24029502  0.83794857  0.62224964  1
  O  O25  1  0.27711192  0.56547128  0.39752792  1
  O  O26  1  0.42203256  0.67437513  0.79362721  1
  O  O27  1  0.84908728  0.58111924  0.22409205  1
  O  O28  1  0.57447170  0.38887510  0.28076434  1
  O  O29  1  0.12805926  0.33998848  0.75612731  1
  O  O30  1  0.68059997  0.66138196  0.67490210  1
  O  O31  1  0.44051037  0.03990885  0.01542022  1
  O  O32  1  0.99347875  0.39273036  0.01194167  1
  O  O33  1  0.05913420  0.97405854  0.43895811  1
