# generated using pymatgen
data_Al2GaN3
_symmetry_space_group_name_H-M   'P 1'
_cell_length_a   5.94925049
_cell_length_b   5.94925049
_cell_length_c   7.41438521
_cell_angle_alpha   75.71690406
_cell_angle_beta   75.71690406
_cell_angle_gamma   30.52477267
_symmetry_Int_Tables_number   1
_chemical_formula_structural   Al2GaN3
_chemical_formula_sum   'Al4 Ga2 N6'
_cell_volume   128.85468721
_cell_formula_units_Z   2
loop_
 _symmetry_equiv_pos_site_id
 _symmetry_equiv_pos_as_xyz
  1  'x, y, z'
loop_
 _atom_site_type_symbol
 _atom_site_label
 _atom_site_symmetry_multiplicity
 _atom_site_fract_x
 _atom_site_fract_y
 _atom_site_fract_z
 _atom_site_occupancy
  Al  Al0  1  0.05590277  0.05590277  0.38928931  1
  Al  Al1  1  0.11107136  0.11107136  0.77663881  1
  Al  Al2  1  0.77706652  0.77706652  0.44440250  1
  Al  Al3  1  0.44593661  0.44593661  0.11331442  1
  Ga  Ga4  1  0.72264731  0.72264731  0.05782160  1
  Ga  Ga5  1  0.39042860  0.39042860  0.72164919  1
  N  N6  1  0.85257350  0.85257350  0.18519421  1
  N  N7  1  0.51865507  0.51865507  0.85286684  1
  N  N8  1  0.18175624  0.18175624  0.51489646  1
  N  N9  1  0.23520772  0.23520772  0.90124682  1
  N  N10  1  0.90495916  0.90495916  0.56368919  1
  N  N11  1  0.56843014  0.56843014  0.24379164  1
