# generated using pymatgen
data_Ba4MgMn4(P2O7)4
_symmetry_space_group_name_H-M   'P 1'
_cell_length_a   5.74158054
_cell_length_b   8.75333689
_cell_length_c   13.28988104
_cell_angle_alpha   91.52520228
_cell_angle_beta   89.17568977
_cell_angle_gamma   90.22809427
_symmetry_Int_Tables_number   1
_chemical_formula_structural   Ba4MgMn4(P2O7)4
_chemical_formula_sum   'Ba4 Mg1 Mn4 P8 O28'
_cell_volume   667.61263145
_cell_formula_units_Z   1
loop_
 _symmetry_equiv_pos_site_id
 _symmetry_equiv_pos_as_xyz
  1  'x, y, z'
loop_
 _atom_site_type_symbol
 _atom_site_label
 _atom_site_symmetry_multiplicity
 _atom_site_fract_x
 _atom_site_fract_y
 _atom_site_fract_z
 _atom_site_occupancy
  Ba  Ba0  1  0.77343688  0.35264157  0.21419552  1
  Ba  Ba1  1  0.70843090  0.86242577  0.27801789  1
  Ba  Ba2  1  0.23084910  0.64289039  0.78510397  1
  Ba  Ba3  1  0.28903799  0.14148306  0.72481247  1
  Mg  Mg4  1  0.25765174  0.44667943  0.53455631  1
  Mn  Mn5  1  0.68105271  0.82764315  0.60831892  1
  Mn  Mn6  1  0.31474508  0.17072211  0.39999508  1
  Mn  Mn7  1  0.80694059  0.34136317  0.89166658  1
  Mn  Mn8  1  0.18232315  0.66543818  0.10207508  1
  P  P9  1  0.30052480  0.30435854  0.02084710  1
  P  P10  1  0.18609492  0.81566055  0.47686293  1
  P  P11  1  0.69973148  0.70055833  0.98103244  1
  P  P12  1  0.79553731  0.18099000  0.52380637  1
  P  P13  1  0.23701984  0.55659157  0.32083713  1
  P  P14  1  0.75496892  0.94719099  0.83211341  1
  P  P15  1  0.77004797  0.44197342  0.67927292  1
  P  P16  1  0.24515381  0.05352649  0.16841011  1
  O  O17  1  0.23698185  0.63793029  0.43393765  1
  O  O18  1  0.26182194  0.13009929  0.05871677  1
  O  O19  1  0.77137791  0.35805269  0.56814616  1
  O  O20  1  0.73921977  0.87424122  0.94303215  1
  O  O21  1  0.47840768  0.58160486  0.27509058  1
  O  O22  1  0.99854241  0.08111745  0.20971294  1
  O  O23  1  0.54891009  0.40654144  0.74058052  1
  O  O24  1  0.99742797  0.91458616  0.78807538  1
  O  O25  1  0.17313607  0.41265561  0.09696503  1
  O  O26  1  0.30543321  0.91734611  0.39940995  1
  O  O27  1  0.83379538  0.59255327  0.90763494  1
  O  O28  1  0.66675598  0.07767699  0.59783621  1
  O  O29  1  0.80949769  0.70319104  0.08603027  1
  O  O30  1  0.68733344  0.18336554  0.41858504  1
  O  O31  1  0.18521491  0.30393254  0.91745773  1
  O  O32  1  0.30487898  0.81651781  0.57958831  1
  O  O33  1  0.56331067  0.87084548  0.76641718  1
  O  O34  1  0.97708288  0.37778519  0.73806631  1
  O  O35  1  0.43097340  0.13040878  0.23677876  1
  O  O36  1  0.04359338  0.62978190  0.25998562  1
  O  O37  1  0.80550879  0.61099765  0.65652315  1
  O  O38  1  0.70127891  0.11663499  0.84856927  1
  O  O39  1  0.43561564  0.67082109  0.98079583  1
  O  O40  1  0.30535443  0.88477631  0.15061976  1
  O  O41  1  0.91972165  0.82665694  0.48048488  1
  O  O42  1  0.56539977  0.33195897  0.01950582  1
  O  O43  1  0.05820446  0.15081156  0.51969561  1
  O  O44  1  0.17595954  0.39068713  0.34616093  1
