# generated using pymatgen
data_RbSr2I5
_symmetry_space_group_name_H-M   'P 1'
_cell_length_a   9.15189610
_cell_length_b   10.13243247
_cell_length_c   14.49495817
_cell_angle_alpha   89.78482906
_cell_angle_beta   90.00000000
_cell_angle_gamma   90.00000000
_symmetry_Int_Tables_number   1
_chemical_formula_structural   RbSr2I5
_chemical_formula_sum   'Rb4 Sr8 I20'
_cell_volume   1344.12204217
_cell_formula_units_Z   4
loop_
 _symmetry_equiv_pos_site_id
 _symmetry_equiv_pos_as_xyz
  1  'x, y, z'
loop_
 _atom_site_type_symbol
 _atom_site_label
 _atom_site_symmetry_multiplicity
 _atom_site_fract_x
 _atom_site_fract_y
 _atom_site_fract_z
 _atom_site_occupancy
  Rb  Rb0  1  0.45499293  0.49436565  0.82960525  1
  Rb  Rb1  1  0.54500707  0.50563435  0.17039475  1
  Rb  Rb2  1  0.95499293  0.50563435  0.67039475  1
  Rb  Rb3  1  0.04500707  0.49436565  0.32960525  1
  Sr  Sr4  1  0.47703656  0.99702745  0.81989979  1
  Sr  Sr5  1  0.52296344  0.00297255  0.18010021  1
  Sr  Sr6  1  0.97703656  0.00297255  0.68010021  1
  Sr  Sr7  1  0.02296344  0.99702745  0.31989979  1
  Sr  Sr8  1  0.42664334  0.75151171  0.50594512  1
  Sr  Sr9  1  0.57335666  0.24848829  0.49405488  1
  Sr  Sr10  1  0.92664334  0.24848829  0.99405488  1
  Sr  Sr11  1  0.07335666  0.75151171  0.00594512  1
  I  I12  1  0.32859488  0.46133163  0.58451868  1
  I  I13  1  0.67140512  0.53866837  0.41548132  1
  I  I14  1  0.82859488  0.53866837  0.91548132  1
  I  I15  1  0.17140512  0.46133163  0.08451868  1
  I  I16  1  0.66578367  0.78201894  0.68184615  1
  I  I17  1  0.33421633  0.21798106  0.31815385  1
  I  I18  1  0.16578367  0.21798106  0.81815385  1
  I  I19  1  0.83421633  0.78201894  0.18184615  1
  I  I20  1  0.19194758  0.77075395  0.78316602  1
  I  I21  1  0.80805242  0.22924605  0.21683398  1
  I  I22  1  0.69194758  0.22924605  0.71683398  1
  I  I23  1  0.30805242  0.77075395  0.28316602  1
  I  I24  1  0.04365900  0.78436635  0.50274030  1
  I  I25  1  0.95634100  0.21563365  0.49725970  1
  I  I26  1  0.54365900  0.21563365  0.99725970  1
  I  I27  1  0.45634100  0.78436635  0.00274030  1
  I  I28  1  0.83992211  0.95825986  0.90064831  1
  I  I29  1  0.16007789  0.04174014  0.09935169  1
  I  I30  1  0.33992211  0.04174014  0.59935169  1
  I  I31  1  0.66007789  0.95825986  0.40064831  1
