# generated using pymatgen
data_KGaS2
_symmetry_space_group_name_H-M   'P 1'
_cell_length_a   7.39468663
_cell_length_b   7.39468663
_cell_length_c   14.84406581
_cell_angle_alpha   82.74819570
_cell_angle_beta   82.74819570
_cell_angle_gamma   90.00549165
_symmetry_Int_Tables_number   1
_chemical_formula_structural   KGaS2
_chemical_formula_sum   'K8 Ga8 S16'
_cell_volume   798.65458764
_cell_formula_units_Z   8
loop_
 _symmetry_equiv_pos_site_id
 _symmetry_equiv_pos_as_xyz
  1  'x, y, z'
loop_
 _atom_site_type_symbol
 _atom_site_label
 _atom_site_symmetry_multiplicity
 _atom_site_fract_x
 _atom_site_fract_y
 _atom_site_fract_z
 _atom_site_occupancy
  K  K0  1  0.65360348  0.77692887  0.88916584  1
  K  K1  1  0.22307113  0.34639652  0.61083416  1
  K  K2  1  0.15215899  0.77480476  0.89060407  1
  K  K3  1  0.77480476  0.15215899  0.39060407  1
  K  K4  1  0.22519524  0.84784101  0.60939593  1
  K  K5  1  0.84784101  0.22519524  0.10939593  1
  K  K6  1  0.77692887  0.65360348  0.38916584  1
  K  K7  1  0.34639652  0.22307113  0.11083416  1
  Ga  Ga8  1  0.91288899  0.29021057  0.83657696  1
  Ga  Ga9  1  0.29021057  0.91288899  0.33657696  1
  Ga  Ga10  1  0.29034713  0.41853867  0.33695332  1
  Ga  Ga11  1  0.41853867  0.29034713  0.83695332  1
  Ga  Ga12  1  0.70965287  0.58146133  0.66304668  1
  Ga  Ga13  1  0.58146133  0.70965287  0.16304668  1
  Ga  Ga14  1  0.08711101  0.70978943  0.16342304  1
  Ga  Ga15  1  0.70978943  0.08711101  0.66342304  1
  S  S16  1  0.43277397  0.05699971  0.75035378  1
  S  S17  1  0.05699971  0.43277397  0.25035378  1
  S  S18  1  0.64201345  0.26598236  0.93156101  1
  S  S19  1  0.26598236  0.64201345  0.43156101  1
  S  S20  1  0.94300029  0.56722603  0.74964622  1
  S  S21  1  0.56722603  0.94300029  0.24964622  1
  S  S22  1  0.26789293  0.14228910  0.42855188  1
  S  S23  1  0.14228910  0.26789293  0.92855188  1
  S  S24  1  0.56721208  0.43278792  0.25000000  1
  S  S25  1  0.43278792  0.56721208  0.75000000  1
  S  S26  1  0.73401764  0.35798655  0.56843899  1
  S  S27  1  0.94319555  0.05680445  0.75000000  1
  S  S28  1  0.85771090  0.73210707  0.07144812  1
  S  S29  1  0.73210707  0.85771090  0.57144812  1
  S  S30  1  0.05680445  0.94319555  0.25000000  1
  S  S31  1  0.35798655  0.73401764  0.06843899  1
