# generated using pymatgen
data_PrTaO4
_symmetry_space_group_name_H-M   'P 1'
_cell_length_a   5.53050971
_cell_length_b   7.63413347
_cell_length_c   7.75797181
_cell_angle_alpha   79.65396533
_cell_angle_beta   90.00000000
_cell_angle_gamma   90.00000000
_symmetry_Int_Tables_number   1
_chemical_formula_structural   PrTaO4
_chemical_formula_sum   'Pr4 Ta4 O16'
_cell_volume   322.22104629
_cell_formula_units_Z   4
loop_
 _symmetry_equiv_pos_site_id
 _symmetry_equiv_pos_as_xyz
  1  'x, y, z'
loop_
 _atom_site_type_symbol
 _atom_site_label
 _atom_site_symmetry_multiplicity
 _atom_site_fract_x
 _atom_site_fract_y
 _atom_site_fract_z
 _atom_site_occupancy
  Pr  Pr0  1  0.22390974  0.34654995  0.90047203  1
  Pr  Pr1  1  0.72390974  0.65345005  0.59952797  1
  Pr  Pr2  1  0.77609026  0.65345005  0.09952797  1
  Pr  Pr3  1  0.27609026  0.34654995  0.40047203  1
  Ta  Ta4  1  0.73202547  0.16576692  0.69542080  1
  Ta  Ta5  1  0.23202547  0.83423308  0.80457920  1
  Ta  Ta6  1  0.26797453  0.83423308  0.30457920  1
  Ta  Ta7  1  0.76797453  0.16576692  0.19542080  1
  O  O8  1  0.51075067  0.33223653  0.13166714  1
  O  O9  1  0.01075067  0.66776347  0.36833286  1
  O  O10  1  0.48924933  0.66776347  0.86833286  1
  O  O11  1  0.98924933  0.33223653  0.63166714  1
  O  O12  1  0.98492341  0.38279228  0.16962817  1
  O  O13  1  0.48492341  0.61720772  0.33037183  1
  O  O14  1  0.01507659  0.61720772  0.83037183  1
  O  O15  1  0.51507659  0.38279228  0.66962817  1
  O  O16  1  0.84594474  0.16611908  0.94525788  1
  O  O17  1  0.34594474  0.83388092  0.55474212  1
  O  O18  1  0.15405526  0.83388092  0.05474212  1
  O  O19  1  0.65405526  0.16611908  0.44525788  1
  O  O20  1  0.40985768  0.05765220  0.79631654  1
  O  O21  1  0.90985768  0.94234780  0.70368346  1
  O  O22  1  0.59014232  0.94234780  0.20368346  1
  O  O23  1  0.09014232  0.05765220  0.29631654  1
