# generated using pymatgen
data_Bi2(SO4)3
_symmetry_space_group_name_H-M   'P 1'
_cell_length_a   9.30099952
_cell_length_b   9.30099952
_cell_length_c   8.25113094
_cell_angle_alpha   79.26585869
_cell_angle_beta   79.26585869
_cell_angle_gamma   42.79705538
_symmetry_Int_Tables_number   1
_chemical_formula_structural   Bi2(SO4)3
_chemical_formula_sum   'Bi4 S6 O24'
_cell_volume   475.15180570
_cell_formula_units_Z   2
loop_
 _symmetry_equiv_pos_site_id
 _symmetry_equiv_pos_as_xyz
  1  'x, y, z'
loop_
 _atom_site_type_symbol
 _atom_site_label
 _atom_site_symmetry_multiplicity
 _atom_site_fract_x
 _atom_site_fract_y
 _atom_site_fract_z
 _atom_site_occupancy
  Bi  Bi0  1  0.54788048  0.75243183  0.45218624  1
  Bi  Bi1  1  0.24756817  0.45211952  0.04781376  1
  Bi  Bi2  1  0.45211952  0.24756817  0.54781376  1
  Bi  Bi3  1  0.75243183  0.54788048  0.95218624  1
  S  S4  1  0.09875970  0.27821236  0.30853281  1
  S  S5  1  0.72178764  0.90124030  0.19146719  1
  S  S6  1  0.90124030  0.72178764  0.69146719  1
  S  S7  1  0.27821236  0.09875970  0.80853281  1
  S  S8  1  0.57680407  0.42319593  0.25000000  1
  S  S9  1  0.42319593  0.57680407  0.75000000  1
  O  O10  1  0.90770685  0.39528930  0.41929040  1
  O  O11  1  0.60471070  0.09229315  0.08070960  1
  O  O12  1  0.09229315  0.60471070  0.58070960  1
  O  O13  1  0.39528930  0.90770685  0.91929040  1
  O  O14  1  0.21729881  0.32553302  0.32728862  1
  O  O15  1  0.67446698  0.78270119  0.17271138  1
  O  O16  1  0.78270119  0.67446698  0.67271138  1
  O  O17  1  0.32553302  0.21729881  0.82728862  1
  O  O18  1  0.04911552  0.34678517  0.13091521  1
  O  O19  1  0.65321483  0.95088448  0.36908479  1
  O  O20  1  0.95088448  0.65321483  0.86908479  1
  O  O21  1  0.34678517  0.04911552  0.63091521  1
  O  O22  1  0.23402750  0.04992360  0.33470384  1
  O  O23  1  0.95007640  0.76597250  0.16529616  1
  O  O24  1  0.76597250  0.95007640  0.66529616  1
  O  O25  1  0.04992360  0.23402750  0.83470384  1
  O  O26  1  0.52120498  0.61897360  0.25370410  1
  O  O27  1  0.38102640  0.47879502  0.24629590  1
  O  O28  1  0.47879502  0.38102640  0.74629590  1
  O  O29  1  0.61897360  0.52120498  0.75370410  1
  O  O30  1  0.67543900  0.28300712  0.40122511  1
  O  O31  1  0.71699288  0.32456100  0.09877489  1
  O  O32  1  0.32456100  0.71699288  0.59877489  1
  O  O33  1  0.28300712  0.67543900  0.90122511  1
