# generated using pymatgen
data_FeH20C8NCl4
_symmetry_space_group_name_H-M   'P 1'
_cell_length_a   8.13850652
_cell_length_b   12.93537486
_cell_length_c   14.01654097
_cell_angle_alpha   90.00000000
_cell_angle_beta   90.00000000
_cell_angle_gamma   90.00000000
_symmetry_Int_Tables_number   1
_chemical_formula_structural   FeH20C8NCl4
_chemical_formula_sum   'Fe4 H80 C32 N4 Cl16'
_cell_volume   1475.58620145
_cell_formula_units_Z   4
loop_
 _symmetry_equiv_pos_site_id
 _symmetry_equiv_pos_as_xyz
  1  'x, y, z'
loop_
 _atom_site_type_symbol
 _atom_site_label
 _atom_site_symmetry_multiplicity
 _atom_site_fract_x
 _atom_site_fract_y
 _atom_site_fract_z
 _atom_site_occupancy
  Fe  Fe0  1  0.72174173  0.22267347  0.74038377  1
  Fe  Fe1  1  0.27825827  0.72267347  0.25961623  1
  Fe  Fe2  1  0.72174173  0.72267347  0.75961623  1
  Fe  Fe3  1  0.27825827  0.22267347  0.24038377  1
  H  H4  1  0.26658401  0.32189245  0.91787529  1
  H  H5  1  0.73341599  0.82189245  0.08212471  1
  H  H6  1  0.26658401  0.82189245  0.58212471  1
  H  H7  1  0.73341599  0.32189245  0.41787529  1
  H  H8  1  0.23804866  0.37934320  0.03081173  1
  H  H9  1  0.76195134  0.87934320  0.96918827  1
  H  H10  1  0.23804866  0.87934320  0.46918827  1
  H  H11  1  0.76195134  0.37934320  0.53081173  1
  H  H12  1  0.51464839  0.45836921  0.02539448  1
  H  H13  1  0.48535161  0.95836921  0.97460552  1
  H  H14  1  0.51464839  0.95836921  0.47460552  1
  H  H15  1  0.48535161  0.45836921  0.52539448  1
  H  H16  1  0.52136440  0.32365329  0.00759680  1
  H  H17  1  0.47863560  0.82365329  0.99240320  1
  H  H18  1  0.52136440  0.82365329  0.49240320  1
  H  H19  1  0.47863560  0.32365329  0.50759680  1
  H  H20  1  0.54861918  0.40656544  0.90926701  1
  H  H21  1  0.45138082  0.90656544  0.09073299  1
  H  H22  1  0.54861918  0.90656544  0.59073299  1
  H  H23  1  0.45138082  0.40656544  0.40926701  1
  H  H24  1  0.41474002  0.51770229  0.82438390  1
  H  H25  1  0.58525998  0.01770229  0.17561610  1
  H  H26  1  0.41474002  0.01770229  0.67561610  1
  H  H27  1  0.58525998  0.51770229  0.32438390  1
  H  H28  1  0.22341880  0.56939838  0.78999443  1
  H  H29  1  0.77658120  0.06939838  0.21000557  1
  H  H30  1  0.22341880  0.06939838  0.71000557  1
  H  H31  1  0.77658120  0.56939838  0.28999443  1
  H  H32  1  0.12999565  0.39759995  0.73104676  1
  H  H33  1  0.87000435  0.89759995  0.26895324  1
  H  H34  1  0.12999565  0.89759995  0.76895324  1
  H  H35  1  0.87000435  0.39759995  0.23104676  1
  H  H36  1  0.31778106  0.43578367  0.67912086  1
  H  H37  1  0.68221894  0.93578367  0.32087914  1
  H  H38  1  0.31778106  0.93578367  0.82087914  1
  H  H39  1  0.68221894  0.43578367  0.17912086  1
  H  H40  1  0.31862603  0.34072698  0.76844055  1
  H  H41  1  0.68137397  0.84072698  0.23155945  1
  H  H42  1  0.31862603  0.84072698  0.73155945  1
  H  H43  1  0.68137397  0.34072698  0.26844055  1
  H  H44  1  0.98360147  0.52231586  0.86365777  1
  H  H45  1  0.01639853  0.02231586  0.13634223  1
  H  H46  1  0.98360147  0.02231586  0.63634223  1
  H  H47  1  0.01639853  0.52231586  0.36365777  1
  H  H48  1  0.02081726  0.38840713  0.87147901  1
  H  H49  1  0.97918274  0.88840713  0.12852099  1
  H  H50  1  0.02081726  0.88840713  0.62852099  1
  H  H51  1  0.97918274  0.38840713  0.37147901  1
  H  H52  1  0.95254174  0.53011121  0.04350895  1
  H  H53  1  0.04745826  0.03011121  0.95649105  1
  H  H54  1  0.95254174  0.03011121  0.45649105  1
  H  H55  1  0.04745826  0.53011121  0.54350895  1
  H  H56  1  0.81606406  0.44355543  0.98850498  1
  H  H57  1  0.18393594  0.94355543  0.01149502  1
  H  H58  1  0.81606406  0.94355543  0.51149502  1
  H  H59  1  0.18393594  0.44355543  0.48850498  1
  H  H60  1  0.98853046  0.39519544  0.04981726  1
  H  H61  1  0.01146954  0.89519544  0.95018274  1
  H  H62  1  0.98853046  0.89519544  0.45018274  1
  H  H63  1  0.01146954  0.39519544  0.54981726  1
  H  H64  1  0.38720441  0.58745911  0.97070095  1
  H  H65  1  0.61279559  0.08745911  0.02929905  1
  H  H66  1  0.38720441  0.08745911  0.52929905  1
  H  H67  1  0.61279559  0.58745911  0.47070095  1
  H  H68  1  0.22579213  0.55526790  0.04906983  1
  H  H69  1  0.77420787  0.05526790  0.95093017  1
  H  H70  1  0.22579213  0.05526790  0.45093017  1
  H  H71  1  0.77420787  0.55526790  0.54906983  1
  H  H72  1  0.03349489  0.66768988  0.94950519  1
  H  H73  1  0.96650511  0.16768988  0.05049481  1
  H  H74  1  0.03349489  0.16768988  0.55049481  1
  H  H75  1  0.96650511  0.66768988  0.44950519  1
  H  H76  1  0.20287059  0.73330682  0.99845795  1
  H  H77  1  0.79712941  0.23330682  0.00154205  1
  H  H78  1  0.20287059  0.23330682  0.50154205  1
  H  H79  1  0.79712941  0.73330682  0.49845795  1
  H  H80  1  0.20271917  0.70169908  0.87617028  1
  H  H81  1  0.79728083  0.20169908  0.12382972  1
  H  H82  1  0.20271917  0.20169908  0.62382972  1
  H  H83  1  0.79728083  0.70169908  0.37617028  1
  C  C84  1  0.29797105  0.38839591  0.96194444  1
  C  C85  1  0.70202895  0.88839591  0.03805556  1
  C  C86  1  0.29797105  0.88839591  0.53805556  1
  C  C87  1  0.70202895  0.38839591  0.46194444  1
  C  C88  1  0.48171029  0.39660097  0.97603129  1
  C  C89  1  0.51828971  0.89660097  0.02396871  1
  C  C90  1  0.48171029  0.89660097  0.52396871  1
  C  C91  1  0.51828971  0.39660097  0.47603129  1
  C  C92  1  0.28466528  0.50000590  0.81573885  1
  C  C93  1  0.71533472  0.00000590  0.18426115  1
  C  C94  1  0.28466528  0.00000590  0.68426115  1
  C  C95  1  0.71533472  0.50000590  0.31573885  1
  C  C96  1  0.25948583  0.41228156  0.74585564  1
  C  C97  1  0.74051417  0.91228156  0.25414436  1
  C  C98  1  0.25948583  0.91228156  0.75414436  1
  C  C99  1  0.74051417  0.41228156  0.24585564  1
  C  C100  1  0.03410009  0.46169069  0.90909969  1
  C  C101  1  0.96589991  0.96169069  0.09090031  1
  C  C102  1  0.03410009  0.96169069  0.59090031  1
  C  C103  1  0.96589991  0.46169069  0.40909969  1
  C  C104  1  0.94551145  0.45769412  0.00399784  1
  C  C105  1  0.05448855  0.95769412  0.99600216  1
  C  C106  1  0.94551145  0.95769412  0.49600216  1
  C  C107  1  0.05448855  0.45769412  0.50399784  1
  C  C108  1  0.25498768  0.57624440  0.97568705  1
  C  C109  1  0.74501232  0.07624440  0.02431295  1
  C  C110  1  0.25498768  0.07624440  0.52431295  1
  C  C111  1  0.74501232  0.57624440  0.47568705  1
  C  C112  1  0.16695244  0.67439090  0.94677097  1
  C  C113  1  0.83304756  0.17439090  0.05322903  1
  C  C114  1  0.16695244  0.17439090  0.55322903  1
  C  C115  1  0.83304756  0.67439090  0.44677097  1
  N  N116  1  0.21763573  0.48159650  0.91543832  1
  N  N117  1  0.78236427  0.98159650  0.08456168  1
  N  N118  1  0.21763573  0.98159650  0.58456168  1
  N  N119  1  0.78236427  0.48159650  0.41543832  1
  Cl  Cl120  1  0.72217259  0.39238463  0.72928855  1
  Cl  Cl121  1  0.27782741  0.89238463  0.27071145  1
  Cl  Cl122  1  0.72217259  0.89238463  0.77071145  1
  Cl  Cl123  1  0.27782741  0.39238463  0.22928855  1
  Cl  Cl124  1  0.95934026  0.17437409  0.80145736  1
  Cl  Cl125  1  0.04065974  0.67437409  0.19854264  1
  Cl  Cl126  1  0.95934026  0.67437409  0.69854264  1
  Cl  Cl127  1  0.04065974  0.17437409  0.30145736  1
  Cl  Cl128  1  0.69059416  0.15559520  0.59729593  1
  Cl  Cl129  1  0.30940584  0.65559520  0.40270407  1
  Cl  Cl130  1  0.69059416  0.65559520  0.90270407  1
  Cl  Cl131  1  0.30940584  0.15559520  0.09729593  1
  Cl  Cl132  1  0.51806173  0.17081893  0.83142454  1
  Cl  Cl133  1  0.48193827  0.67081893  0.16857546  1
  Cl  Cl134  1  0.51806173  0.67081893  0.66857546  1
  Cl  Cl135  1  0.48193827  0.17081893  0.33142454  1
