# generated using pymatgen
data_Ca2CdAs2
_symmetry_space_group_name_H-M   'P 1'
_cell_length_a   4.29637513
_cell_length_b   10.96221832
_cell_length_c   14.36943386
_cell_angle_alpha   109.57782871
_cell_angle_beta   90.00000000
_cell_angle_gamma   101.30097357
_symmetry_Int_Tables_number   1
_chemical_formula_structural   Ca2CdAs2
_chemical_formula_sum   'Ca10 Cd5 As10'
_cell_volume   623.69859663
_cell_formula_units_Z   5
loop_
 _symmetry_equiv_pos_site_id
 _symmetry_equiv_pos_as_xyz
  1  'x, y, z'
loop_
 _atom_site_type_symbol
 _atom_site_label
 _atom_site_symmetry_multiplicity
 _atom_site_fract_x
 _atom_site_fract_y
 _atom_site_fract_z
 _atom_site_occupancy
  Ca  Ca0  1  0.98127817  0.96255734  0.38562512  1
  Ca  Ca1  1  0.83856457  0.67712913  0.49849842  1
  Ca  Ca2  1  0.80970558  0.61941215  0.23024674  1
  Ca  Ca3  1  0.43556246  0.87112592  0.78773906  1
  Ca  Ca4  1  0.40540942  0.81081984  0.06388988  1
  Ca  Ca5  1  0.27698525  0.55397050  0.80714198  1
  Ca  Ca6  1  0.17336103  0.34672207  0.42065235  1
  Ca  Ca7  1  0.14681658  0.29363416  0.14790728  1
  Ca  Ca8  1  0.11505172  0.23010145  0.87680646  1
  Ca  Ca9  1  0.10590993  0.21181886  0.63349372  1
  Cd  Cd10  1  -0.00005679  -0.00011358  0.99985896  1
  Cd  Cd11  1  0.76523895  0.53047690  0.96764403  1
  Cd  Cd12  1  0.71846053  0.43692305  0.61665467  1
  Cd  Cd13  1  0.56585634  0.13171269  0.27012580  1
  Cd  Cd14  1  0.47262741  0.94525382  0.56172450  1
  As  As15  1  0.99328491  0.98657081  0.18983971  1
  As  As16  1  0.98207038  0.96413876  0.67597862  1
  As  As17  1  0.87334584  0.74669168  0.89412726  1
  As  As18  1  0.69614579  0.39229157  0.29862351  1
  As  As19  1  0.67381289  0.34762478  0.77847608  1
  As  As20  1  0.58598618  0.17197236  0.48098193  1
  As  As21  1  0.56841748  0.13683596  0.97861525  1
  As  As22  1  0.38153352  0.76306504  0.37886436  1
  As  As23  1  0.28977882  0.57955863  0.60973789  1
  As  As24  1  0.26413205  0.52826510  0.07216240  1
