# generated using pymatgen
data_Ba(GdTe2)2
_symmetry_space_group_name_H-M   'P 1'
_cell_length_a   4.52994123
_cell_length_b   13.84577281
_cell_length_c   16.41514142
_cell_angle_alpha   90.00000000
_cell_angle_beta   90.00000000
_cell_angle_gamma   90.00000000
_symmetry_Int_Tables_number   1
_chemical_formula_structural   Ba(GdTe2)2
_chemical_formula_sum   'Ba4 Gd8 Te16'
_cell_volume   1029.56648665
_cell_formula_units_Z   4
loop_
 _symmetry_equiv_pos_site_id
 _symmetry_equiv_pos_as_xyz
  1  'x, y, z'
loop_
 _atom_site_type_symbol
 _atom_site_label
 _atom_site_symmetry_multiplicity
 _atom_site_fract_x
 _atom_site_fract_y
 _atom_site_fract_z
 _atom_site_occupancy
  Ba  Ba0  1  0.25000000  0.23994298  0.33212894  1
  Ba  Ba1  1  0.25000000  0.73994298  0.16787106  1
  Ba  Ba2  1  0.75000000  0.76005702  0.66787106  1
  Ba  Ba3  1  0.75000000  0.26005702  0.83212894  1
  Gd  Gd4  1  0.25000000  0.08056380  0.59740915  1
  Gd  Gd5  1  0.25000000  0.58056380  0.90259085  1
  Gd  Gd6  1  0.75000000  0.91943620  0.40259085  1
  Gd  Gd7  1  0.75000000  0.41943620  0.09740915  1
  Gd  Gd8  1  0.25000000  0.56188196  0.39036517  1
  Gd  Gd9  1  0.25000000  0.06188196  0.10963483  1
  Gd  Gd10  1  0.75000000  0.43811804  0.60963483  1
  Gd  Gd11  1  0.75000000  0.93811804  0.89036517  1
  Te  Te12  1  0.25000000  0.08841179  0.92271479  1
  Te  Te13  1  0.25000000  0.58841179  0.57728521  1
  Te  Te14  1  0.75000000  0.91158821  0.07728521  1
  Te  Te15  1  0.75000000  0.41158821  0.42271479  1
  Te  Te16  1  0.25000000  0.29456156  0.66447933  1
  Te  Te17  1  0.25000000  0.79456156  0.83552067  1
  Te  Te18  1  0.75000000  0.70543844  0.33552067  1
  Te  Te19  1  0.75000000  0.20543844  0.16447933  1
  Te  Te20  1  0.25000000  0.37187645  0.97204629  1
  Te  Te21  1  0.25000000  0.87187645  0.52795371  1
  Te  Te22  1  0.75000000  0.62812355  0.02795371  1
  Te  Te23  1  0.75000000  0.12812355  0.47204629  1
  Te  Te24  1  0.25000000  0.47426685  0.21598721  1
  Te  Te25  1  0.25000000  0.97426685  0.28401279  1
  Te  Te26  1  0.75000000  0.52573315  0.78401279  1
  Te  Te27  1  0.75000000  0.02573315  0.71598721  1
