# generated using pymatgen
data_Pr3TaO7
_symmetry_space_group_name_H-M   'P 1'
_cell_length_a   6.69851025
_cell_length_b   6.69851025
_cell_length_c   7.71443655
_cell_angle_alpha   90.00000000
_cell_angle_beta   90.00000000
_cell_angle_gamma   111.52577053
_symmetry_Int_Tables_number   1
_chemical_formula_structural   Pr3TaO7
_chemical_formula_sum   'Pr6 Ta2 O14'
_cell_volume   322.00422446
_cell_formula_units_Z   2
loop_
 _symmetry_equiv_pos_site_id
 _symmetry_equiv_pos_as_xyz
  1  'x, y, z'
loop_
 _atom_site_type_symbol
 _atom_site_label
 _atom_site_symmetry_multiplicity
 _atom_site_fract_x
 _atom_site_fract_y
 _atom_site_fract_z
 _atom_site_occupancy
  Pr  Pr0  1  0.00000000  0.00000000  -0.00000000  1
  Pr  Pr1  1  0.00000000  0.00000000  0.50000000  1
  Pr  Pr2  1  0.47593579  0.92765439  0.75000000  1
  Pr  Pr3  1  0.52406421  0.07234561  0.25000000  1
  Pr  Pr4  1  0.92765439  0.47593579  0.75000000  1
  Pr  Pr5  1  0.07234561  0.52406421  0.25000000  1
  Ta  Ta6  1  0.50000000  0.50000000  -0.00000000  1
  Ta  Ta7  1  0.50000000  0.50000000  0.50000000  1
  O  O8  1  0.56775435  0.56775435  0.75000000  1
  O  O9  1  0.43224565  0.43224565  0.25000000  1
  O  O10  1  0.84541864  0.10699167  0.75000000  1
  O  O11  1  0.15458136  0.89300833  0.25000000  1
  O  O12  1  0.10699167  0.84541864  0.75000000  1
  O  O13  1  0.89300833  0.15458136  0.25000000  1
  O  O14  1  0.43921592  0.18854889  0.96525782  1
  O  O15  1  0.56078408  0.81145111  0.46525782  1
  O  O16  1  0.18854889  0.43921592  0.96525782  1
  O  O17  1  0.81145111  0.56078408  0.46525782  1
  O  O18  1  0.43921592  0.18854889  0.53474218  1
  O  O19  1  0.56078408  0.81145111  0.03474218  1
  O  O20  1  0.81145111  0.56078408  0.03474218  1
  O  O21  1  0.18854889  0.43921592  0.53474218  1
