# generated using pymatgen
data_Sm(AlBr4)3
_symmetry_space_group_name_H-M   'P 1'
_cell_length_a   10.53563060
_cell_length_b   10.53567766
_cell_length_c   18.46456672
_cell_angle_alpha   89.98942147
_cell_angle_beta   90.01016441
_cell_angle_gamma   119.98008276
_symmetry_Int_Tables_number   1
_chemical_formula_structural   Sm(AlBr4)3
_chemical_formula_sum   'Sm3 Al9 Br36'
_cell_volume   1775.33322535
_cell_formula_units_Z   3
loop_
 _symmetry_equiv_pos_site_id
 _symmetry_equiv_pos_as_xyz
  1  'x, y, z'
loop_
 _atom_site_type_symbol
 _atom_site_label
 _atom_site_symmetry_multiplicity
 _atom_site_fract_x
 _atom_site_fract_y
 _atom_site_fract_z
 _atom_site_occupancy
  Sm  Sm0  1  0.73009415  0.00009566  0.33330146  1
  Sm  Sm1  1  0.00010357  0.73008738  0.66669433  1
  Sm  Sm2  1  0.26978820  0.26979025  0.00000328  1
  Al  Al3  1  0.30209229  0.63205757  0.72070687  1
  Al  Al4  1  0.36800721  0.67004324  0.05395744  1
  Al  Al5  1  0.63203413  0.30207573  0.27929418  1
  Al  Al6  1  0.32978514  0.69808077  0.38736644  1
  Al  Al7  1  0.67001800  0.36799085  0.94602892  1
  Al  Al8  1  0.69806954  0.32977942  0.61263777  1
  Al  Al9  1  0.10074672  0.00005982  0.83333754  1
  Al  Al10  1  0.00005751  0.10074602  0.16667360  1
  Al  Al11  1  0.89909424  0.89908322  0.49999867  1
  Br  Br12  1  0.07522579  0.19826877  0.86381118  1
  Br  Br13  1  0.80164587  0.87721969  0.19695476  1
  Br  Br14  1  0.19825395  0.07521027  0.13619440  1
  Br  Br15  1  0.12288344  0.92463121  0.53030537  1
  Br  Br16  1  0.87721071  0.80165400  0.80304397  1
  Br  Br17  1  0.92464753  0.12287514  0.46968267  1
  Br  Br18  1  0.08034963  0.58690343  0.77864943  1
  Br  Br19  1  0.41285231  0.49292916  0.11180700  1
  Br  Br20  1  0.58688110  0.08032418  0.22135409  1
  Br  Br21  1  0.50687134  0.91994329  0.44510682  1
  Br  Br22  1  0.49289728  0.41284891  0.88820698  1
  Br  Br23  1  0.91991349  0.50687374  0.55488176  1
  Br  Br24  1  0.50372534  0.27992739  0.54241575  1
  Br  Br25  1  0.71998039  0.22372615  0.87568375  1
  Br  Br26  1  0.28000645  0.50377373  0.45759808  1
  Br  Br27  1  0.77651775  0.49643478  0.20913719  1
  Br  Br28  1  0.22372540  0.71999692  0.12428703  1
  Br  Br29  1  0.49644499  0.77652745  0.79087167  1
  Br  Br30  1  0.23276988  0.52308863  0.95489655  1
  Br  Br31  1  0.47710351  0.70990396  0.28843005  1
  Br  Br32  1  0.52307907  0.23275500  0.04508899  1
  Br  Br33  1  0.29010150  0.76714042  0.62158200  1
  Br  Br34  1  0.70991340  0.47709574  0.71158135  1
  Br  Br35  1  0.76713927  0.29010339  0.37841997  1
  Br  Br36  1  0.23505270  0.02709558  0.72944602  1
  Br  Br37  1  0.97281881  0.20823471  0.06295393  1
  Br  Br38  1  0.02710598  0.23503031  0.27057228  1
  Br  Br39  1  0.79195962  0.76493480  0.39607256  1
  Br  Br40  1  0.20816702  0.97277361  0.93706496  1
  Br  Br41  1  0.76490649  0.79191544  0.60390790  1
  Br  Br42  1  0.28086389  0.41889495  0.68254775  1
  Br  Br43  1  0.58119932  0.86173524  0.01570611  1
  Br  Br44  1  0.41888068  0.28086981  0.31744283  1
  Br  Br45  1  0.13805469  0.71922020  0.34884313  1
  Br  Br46  1  0.86173123  0.58119042  0.98429840  1
  Br  Br47  1  0.71923148  0.13805764  0.65115382  1
