# generated using pymatgen
data_Ca3(AlAs2)2
_symmetry_space_group_name_H-M   'P 1'
_cell_length_a   8.23920954
_cell_length_b   8.23920954
_cell_length_c   6.63528127
_cell_angle_alpha   89.36362436
_cell_angle_beta   89.36362436
_cell_angle_gamma   75.72525860
_symmetry_Int_Tables_number   1
_chemical_formula_structural   Ca3(AlAs2)2
_chemical_formula_sum   'Ca6 Al4 As8'
_cell_volume   436.48270187
_cell_formula_units_Z   2
loop_
 _symmetry_equiv_pos_site_id
 _symmetry_equiv_pos_as_xyz
  1  'x, y, z'
loop_
 _atom_site_type_symbol
 _atom_site_label
 _atom_site_symmetry_multiplicity
 _atom_site_fract_x
 _atom_site_fract_y
 _atom_site_fract_z
 _atom_site_occupancy
  Ca  Ca0  1  0.59930607  0.40069393  0.75000000  1
  Ca  Ca1  1  0.40069393  0.59930607  0.25000000  1
  Ca  Ca2  1  0.00636109  0.75075949  0.97300681  1
  Ca  Ca3  1  0.24924051  0.99363891  0.52699319  1
  Ca  Ca4  1  0.99363891  0.24924051  0.02699319  1
  Ca  Ca5  1  0.75075949  0.00636109  0.47300681  1
  Al  Al6  1  0.17193797  0.42038980  0.58902066  1
  Al  Al7  1  0.57961020  0.82806203  0.91097934  1
  Al  Al8  1  0.82806203  0.57961020  0.41097934  1
  Al  Al9  1  0.42038980  0.17193797  0.08902066  1
  As  As10  1  0.56707017  0.74257473  0.56198033  1
  As  As11  1  0.25742527  0.43292983  0.93801967  1
  As  As12  1  0.43292983  0.25742527  0.43801967  1
  As  As13  1  0.74257473  0.56707017  0.06198033  1
  As  As14  1  0.94118932  0.28237120  0.52399207  1
  As  As15  1  0.71762880  0.05881068  0.97600793  1
  As  As16  1  0.05881068  0.71762880  0.47600793  1
  As  As17  1  0.28237120  0.94118932  0.02399207  1
