# generated using pymatgen
data_Sm4(GeS4)3
_symmetry_space_group_name_H-M   'P 1'
_cell_length_a   11.45448913
_cell_length_b   11.45448913
_cell_length_c   11.45448911
_cell_angle_alpha   114.87629021
_cell_angle_beta   114.87629021
_cell_angle_gamma   114.87628133
_symmetry_Int_Tables_number   1
_chemical_formula_structural   Sm4(GeS4)3
_chemical_formula_sum   'Sm8 Ge6 S24'
_cell_volume   850.50621198
_cell_formula_units_Z   2
loop_
 _symmetry_equiv_pos_site_id
 _symmetry_equiv_pos_as_xyz
  1  'x, y, z'
loop_
 _atom_site_type_symbol
 _atom_site_label
 _atom_site_symmetry_multiplicity
 _atom_site_fract_x
 _atom_site_fract_y
 _atom_site_fract_z
 _atom_site_occupancy
  Sm  Sm0  1  0.49525710  0.49525710  0.49525710  1
  Sm  Sm1  1  0.99525710  0.99525710  0.99525710  1
  Sm  Sm2  1  0.71588166  0.93777742  0.47541223  1
  Sm  Sm3  1  0.47541223  0.71588166  0.93777742  1
  Sm  Sm4  1  0.93777742  0.47541223  0.71588166  1
  Sm  Sm5  1  0.97541223  0.43777742  0.21588166  1
  Sm  Sm6  1  0.21588166  0.97541223  0.43777742  1
  Sm  Sm7  1  0.43777742  0.21588166  0.97541223  1
  Ge  Ge8  1  0.85642192  0.64528349  0.47073311  1
  Ge  Ge9  1  0.47073311  0.85642192  0.64528349  1
  Ge  Ge10  1  0.64528349  0.47073311  0.85642192  1
  Ge  Ge11  1  0.97073311  0.14528349  0.35642192  1
  Ge  Ge12  1  0.35642192  0.97073311  0.14528349  1
  Ge  Ge13  1  0.14528349  0.35642192  0.97073311  1
  S  S14  1  0.81022048  0.88573042  0.27984533  1
  S  S15  1  0.27984533  0.81022048  0.88573042  1
  S  S16  1  0.88573042  0.27984533  0.81022048  1
  S  S17  1  0.77984533  0.38573042  0.31022048  1
  S  S18  1  0.31022048  0.77984533  0.38573042  1
  S  S19  1  0.38573042  0.31022048  0.77984533  1
  S  S20  1  0.86799512  0.68107331  0.68549078  1
  S  S21  1  0.68549078  0.86799512  0.68107331  1
  S  S22  1  0.68107331  0.68549078  0.86799512  1
  S  S23  1  0.18549078  0.18107331  0.36799512  1
  S  S24  1  0.36799512  0.18549078  0.18107331  1
  S  S25  1  0.18107331  0.36799512  0.18549078  1
  S  S26  1  0.61331022  0.58758436  0.29704993  1
  S  S27  1  0.29704993  0.61331022  0.58758436  1
  S  S28  1  0.58758436  0.29704993  0.61331022  1
  S  S29  1  0.79704993  0.08758436  0.11331022  1
  S  S30  1  0.11331022  0.79704993  0.08758436  1
  S  S31  1  0.08758436  0.11331022  0.79704993  1
  S  S32  1  0.08919336  0.35565775  0.63307902  1
  S  S33  1  0.63307902  0.08919336  0.35565775  1
  S  S34  1  0.35565775  0.63307902  0.08919336  1
  S  S35  1  0.13307902  0.85565775  0.58919336  1
  S  S36  1  0.58919336  0.13307902  0.85565775  1
  S  S37  1  0.85565775  0.58919336  0.13307902  1
