# generated using pymatgen
data_SbTeRh
_symmetry_space_group_name_H-M   'P 1'
_cell_length_a   6.44668078
_cell_length_b   6.44668078
_cell_length_c   6.44668078
_cell_angle_alpha   90.00000000
_cell_angle_beta   90.00000000
_cell_angle_gamma   90.00000000
_symmetry_Int_Tables_number   1
_chemical_formula_structural   SbTeRh
_chemical_formula_sum   'Sb4 Te4 Rh4'
_cell_volume   267.92207460
_cell_formula_units_Z   4
loop_
 _symmetry_equiv_pos_site_id
 _symmetry_equiv_pos_as_xyz
  1  'x, y, z'
loop_
 _atom_site_type_symbol
 _atom_site_label
 _atom_site_symmetry_multiplicity
 _atom_site_fract_x
 _atom_site_fract_y
 _atom_site_fract_z
 _atom_site_occupancy
  Sb  Sb0  1  0.12673073  0.87326927  0.37326927  1
  Sb  Sb1  1  0.87326927  0.37326927  0.12673073  1
  Sb  Sb2  1  0.37326927  0.12673073  0.87326927  1
  Sb  Sb3  1  0.62673073  0.62673073  0.62673073  1
  Te  Te4  1  0.87394142  0.12605858  0.62605858  1
  Te  Te5  1  0.12605858  0.62605858  0.87394142  1
  Te  Te6  1  0.62605858  0.87394142  0.12605858  1
  Te  Te7  1  0.37394142  0.37394142  0.37394142  1
  Rh  Rh8  1  0.50205790  0.49794210  0.99794210  1
  Rh  Rh9  1  0.49794210  0.99794210  0.50205790  1
  Rh  Rh10  1  0.99794210  0.50205790  0.49794210  1
  Rh  Rh11  1  0.00205790  0.00205790  0.00205790  1
