# generated using pymatgen
data_Tl2B2Se7
_symmetry_space_group_name_H-M   'P 1'
_cell_length_a   8.56012515
_cell_length_b   8.56012515
_cell_length_c   12.17243934
_cell_angle_alpha   62.62030705
_cell_angle_beta   62.62030705
_cell_angle_gamma   49.93493692
_symmetry_Int_Tables_number   1
_chemical_formula_structural   Tl2B2Se7
_chemical_formula_sum   'Tl4 B4 Se14'
_cell_volume   588.26197536
_cell_formula_units_Z   2
loop_
 _symmetry_equiv_pos_site_id
 _symmetry_equiv_pos_as_xyz
  1  'x, y, z'
loop_
 _atom_site_type_symbol
 _atom_site_label
 _atom_site_symmetry_multiplicity
 _atom_site_fract_x
 _atom_site_fract_y
 _atom_site_fract_z
 _atom_site_occupancy
  Tl  Tl0  1  0.11430373  0.67681479  0.53074031  1
  Tl  Tl1  1  0.32318521  0.88569627  0.96925969  1
  Tl  Tl2  1  0.88569627  0.32318521  0.46925969  1
  Tl  Tl3  1  0.67681479  0.11430373  0.03074031  1
  B  B4  1  0.60461998  0.16283581  0.34962626  1
  B  B5  1  0.83716419  0.39538002  0.15037374  1
  B  B6  1  0.39538002  0.83716419  0.65037374  1
  B  B7  1  0.16283581  0.60461998  0.84962626  1
  Se  Se8  1  0.17661091  0.56321490  0.02475987  1
  Se  Se9  1  0.43678510  0.82338909  0.47524013  1
  Se  Se10  1  0.82338909  0.43678510  0.97524013  1
  Se  Se11  1  0.56321490  0.17661091  0.52475987  1
  Se  Se12  1  0.15085002  0.38692406  0.83102160  1
  Se  Se13  1  0.61307594  0.84914998  0.66897840  1
  Se  Se14  1  0.84914998  0.61307594  0.16897840  1
  Se  Se15  1  0.38692406  0.15085002  0.33102160  1
  Se  Se16  1  0.93596884  0.89740107  0.77117869  1
  Se  Se17  1  0.10259893  0.06403116  0.72882131  1
  Se  Se18  1  0.06403116  0.10259893  0.22882131  1
  Se  Se19  1  0.89740107  0.93596884  0.27117869  1
  Se  Se20  1  0.46270789  0.53729211  0.75000000  1
  Se  Se21  1  0.53729211  0.46270789  0.25000000  1
