# generated using pymatgen
data_ScAlCO
_symmetry_space_group_name_H-M   'P 1'
_cell_length_a   3.24090781
_cell_length_b   3.24090781
_cell_length_c   10.17230395
_cell_angle_alpha   90.00000000
_cell_angle_beta   90.00000000
_cell_angle_gamma   120.00008072
_symmetry_Int_Tables_number   1
_chemical_formula_structural   ScAlCO
_chemical_formula_sum   'Sc2 Al2 C2 O2'
_cell_volume   92.53008537
_cell_formula_units_Z   2
loop_
 _symmetry_equiv_pos_site_id
 _symmetry_equiv_pos_as_xyz
  1  'x, y, z'
loop_
 _atom_site_type_symbol
 _atom_site_label
 _atom_site_symmetry_multiplicity
 _atom_site_fract_x
 _atom_site_fract_y
 _atom_site_fract_z
 _atom_site_occupancy
  Sc  Sc0  1  0.66667965  0.33332035  0.80386436  1
  Sc  Sc1  1  0.33332035  0.66667965  0.30386436  1
  Al  Al2  1  0.00000912  0.99999088  0.52044164  1
  Al  Al3  1  0.99999088  0.00000912  0.02044164  1
  C  C4  1  0.33332570  0.66667430  0.94225338  1
  C  C5  1  0.66667430  0.33332570  0.44225338  1
  O  O6  1  0.00000503  0.99999497  0.69675963  1
  O  O7  1  0.99999497  0.00000503  0.19675963  1
