# generated using pymatgen
data_B2Mo(PbO2)6
_symmetry_space_group_name_H-M   'P 1'
_cell_length_a   9.77427764
_cell_length_b   9.77427764
_cell_length_c   11.83436645
_cell_angle_alpha   90.00000000
_cell_angle_beta   90.00000000
_cell_angle_gamma   142.19656082
_symmetry_Int_Tables_number   1
_chemical_formula_structural   B2Mo(PbO2)6
_chemical_formula_sum   'B4 Mo2 Pb12 O24'
_cell_volume   693.01491193
_cell_formula_units_Z   2
loop_
 _symmetry_equiv_pos_site_id
 _symmetry_equiv_pos_as_xyz
  1  'x, y, z'
loop_
 _atom_site_type_symbol
 _atom_site_label
 _atom_site_symmetry_multiplicity
 _atom_site_fract_x
 _atom_site_fract_y
 _atom_site_fract_z
 _atom_site_occupancy
  B  B0  1  0.74651584  0.25348416  0.50000000  1
  B  B1  1  0.74651584  0.25348416  -0.00000000  1
  B  B2  1  0.25348416  0.74651584  0.50000000  1
  B  B3  1  0.25348416  0.74651584  -0.00000000  1
  Mo  Mo4  1  0.26862694  0.26862694  0.25000000  1
  Mo  Mo5  1  0.73137306  0.73137306  0.75000000  1
  Pb  Pb6  1  0.08958245  0.50572276  0.25000000  1
  Pb  Pb7  1  0.49427724  0.91041755  0.75000000  1
  Pb  Pb8  1  0.91041755  0.49427724  0.75000000  1
  Pb  Pb9  1  0.50572276  0.08958245  0.25000000  1
  Pb  Pb10  1  0.86611023  0.65500401  0.40689868  1
  Pb  Pb11  1  0.34499599  0.13388977  0.59310132  1
  Pb  Pb12  1  0.86611023  0.65500401  0.09310132  1
  Pb  Pb13  1  0.34499599  0.13388977  0.90689868  1
  Pb  Pb14  1  0.13388977  0.34499599  0.59310132  1
  Pb  Pb15  1  0.65500401  0.86611023  0.40689868  1
  Pb  Pb16  1  0.13388977  0.34499599  0.90689868  1
  Pb  Pb17  1  0.65500401  0.86611023  0.09310132  1
  O  O18  1  0.15918689  0.72544105  0.40360181  1
  O  O19  1  0.27455895  0.84081311  0.59639819  1
  O  O20  1  0.15918689  0.72544105  0.09639819  1
  O  O21  1  0.27455895  0.84081311  0.90360181  1
  O  O22  1  0.84081311  0.27455895  0.59639819  1
  O  O23  1  0.72544105  0.15918689  0.40360181  1
  O  O24  1  0.84081311  0.27455895  0.90360181  1
  O  O25  1  0.72544105  0.15918689  0.09639819  1
  O  O26  1  0.67111789  0.32888211  0.50000000  1
  O  O27  1  0.67111789  0.32888211  -0.00000000  1
  O  O28  1  0.32888211  0.67111789  0.50000000  1
  O  O29  1  0.32888211  0.67111789  -0.00000000  1
  O  O30  1  0.77878094  0.47986658  0.25000000  1
  O  O31  1  0.52013342  0.22121906  0.75000000  1
  O  O32  1  0.22121906  0.52013342  0.75000000  1
  O  O33  1  0.47986658  0.77878094  0.25000000  1
  O  O34  1  0.17704216  0.02270351  0.25000000  1
  O  O35  1  0.97729649  0.82295784  0.75000000  1
  O  O36  1  0.82295784  0.97729649  0.75000000  1
  O  O37  1  0.02270351  0.17704216  0.25000000  1
  O  O38  1  0.42953196  0.42953196  0.37178225  1
  O  O39  1  0.57046804  0.57046804  0.62821775  1
  O  O40  1  0.42953196  0.42953196  0.12821775  1
  O  O41  1  0.57046804  0.57046804  0.87178225  1
