# generated using pymatgen
data_PAuO4
_symmetry_space_group_name_H-M   'P 1'
_cell_length_a   4.80145954
_cell_length_b   4.80145954
_cell_length_c   7.75963611
_cell_angle_alpha   84.07456712
_cell_angle_beta   84.07456712
_cell_angle_gamma   72.22115872
_symmetry_Int_Tables_number   1
_chemical_formula_structural   PAuO4
_chemical_formula_sum   'P2 Au2 O8'
_cell_volume   168.95083379
_cell_formula_units_Z   2
loop_
 _symmetry_equiv_pos_site_id
 _symmetry_equiv_pos_as_xyz
  1  'x, y, z'
loop_
 _atom_site_type_symbol
 _atom_site_label
 _atom_site_symmetry_multiplicity
 _atom_site_fract_x
 _atom_site_fract_y
 _atom_site_fract_z
 _atom_site_occupancy
  P  P0  1  0.07504784  0.92495216  0.75000000  1
  P  P1  1  0.92495216  0.07504784  0.25000000  1
  Au  Au2  1  -0.00000000  0.50000000  0.50000000  1
  Au  Au3  1  0.50000000  0.00000000  0.00000000  1
  O  O4  1  0.24876049  0.79281763  0.91080159  1
  O  O5  1  0.20718237  0.75123951  0.58919841  1
  O  O6  1  0.75123951  0.20718237  0.08919841  1
  O  O7  1  0.79281763  0.24876049  0.41080159  1
  O  O8  1  0.76033881  0.90387002  0.78475039  1
  O  O9  1  0.09612998  0.23966119  0.71524961  1
  O  O10  1  0.23966119  0.09612998  0.21524961  1
  O  O11  1  0.90387002  0.76033881  0.28475039  1
