# generated using pymatgen
data_KCaI3
_symmetry_space_group_name_H-M   'P 1'
_cell_length_a   7.93655237
_cell_length_b   7.93655237
_cell_length_c   11.69103370
_cell_angle_alpha   90.00000000
_cell_angle_beta   90.00000000
_cell_angle_gamma   146.32668306
_symmetry_Int_Tables_number   1
_chemical_formula_structural   KCaI3
_chemical_formula_sum   'K2 Ca2 I6'
_cell_volume   408.30480750
_cell_formula_units_Z   2
loop_
 _symmetry_equiv_pos_site_id
 _symmetry_equiv_pos_as_xyz
  1  'x, y, z'
loop_
 _atom_site_type_symbol
 _atom_site_label
 _atom_site_symmetry_multiplicity
 _atom_site_fract_x
 _atom_site_fract_y
 _atom_site_fract_z
 _atom_site_occupancy
  K  K0  1  0.24948358  0.75051642  0.25000000  1
  K  K1  1  0.75051642  0.24948358  0.75000000  1
  Ca  Ca2  1  -0.00000000  0.00000000  -0.00000000  1
  Ca  Ca3  1  -0.00000000  0.00000000  0.50000000  1
  I  I4  1  0.63585905  0.36414095  0.05704685  1
  I  I5  1  0.36414095  0.63585905  0.94295315  1
  I  I6  1  0.36414095  0.63585905  0.55704685  1
  I  I7  1  0.63585905  0.36414095  0.44295315  1
  I  I8  1  0.92520720  0.07479280  0.25000000  1
  I  I9  1  0.07479280  0.92520720  0.75000000  1
