# generated using pymatgen
data_MgV6O5F19
_symmetry_space_group_name_H-M   'P 1'
_cell_length_a   5.43231504
_cell_length_b   5.35764378
_cell_length_c   15.54660233
_cell_angle_alpha   90.03275619
_cell_angle_beta   100.87219733
_cell_angle_gamma   89.01078092
_symmetry_Int_Tables_number   1
_chemical_formula_structural   MgV6O5F19
_chemical_formula_sum   'Mg1 V6 O5 F19'
_cell_volume   444.28502502
_cell_formula_units_Z   1
loop_
 _symmetry_equiv_pos_site_id
 _symmetry_equiv_pos_as_xyz
  1  'x, y, z'
loop_
 _atom_site_type_symbol
 _atom_site_label
 _atom_site_symmetry_multiplicity
 _atom_site_fract_x
 _atom_site_fract_y
 _atom_site_fract_z
 _atom_site_occupancy
  Mg  Mg0  1  0.14673100  0.75396800  0.81540800  1
  V  V1  1  0.04600400  0.97139500  0.01455500  1
  V  V2  1  0.12003400  0.46727900  0.32958100  1
  V  V3  1  0.34050200  0.00887400  0.65622500  1
  V  V4  1  0.53235500  0.46816000  0.00717600  1
  V  V5  1  0.65112000  0.98612900  0.33423500  1
  V  V6  1  0.81869300  0.44677300  0.65384500  1
  O  O7  1  0.03199100  0.22325600  0.64263100  1
  O  O8  1  0.54266400  0.29154900  0.65132000  1
  O  O9  1  0.71631400  0.24541500  0.98236000  1
  O  O10  1  0.28422200  0.76576100  0.02289400  1
  O  O11  1  0.87384100  0.28744800  0.31114300  1
  F  F12  1  0.23207100  0.27616600  0.98673900  1
  F  F13  1  0.13202500  0.71676900  0.68388600  1
  F  F14  1  0.03394600  0.09383500  0.12162200  1
  F  F15  1  0.23087700  0.42187500  0.44326200  1
  F  F16  1  0.34616700  0.03779400  0.77850000  1
  F  F17  1  0.12587100  0.59273700  0.22493400  1
  F  F18  1  0.27402200  0.92492600  0.54593000  1
  F  F19  1  0.42471800  0.57687900  0.88653700  1
  F  F20  1  0.35698600  0.21307700  0.30844900  1
  F  F21  1  0.46269800  0.71695100  0.35691400  1
  F  F22  1  0.63291700  0.79877500  0.68322000  1
  F  F23  1  0.56287900  0.42077600  0.12046200  1
  F  F24  1  0.71866900  0.09263800  0.44401600  1
  F  F25  1  0.91070300  0.47388100  0.77752100  1
  F  F26  1  0.62554500  0.92686400  0.22143000  1
  F  F27  1  0.77217400  0.58774100  0.54973400  1
  F  F28  1  0.95190400  0.93127300  0.88523000  1
  F  F29  1  0.77471700  0.72301400  0.02333100  1
  F  F30  1  0.95758900  0.77051800  0.35834100  1
