# generated using pymatgen
data_Sr3P14
_symmetry_space_group_name_H-M   'P 1'
_cell_length_a   6.36835152
_cell_length_b   9.92603614
_cell_length_c   12.80169940
_cell_angle_alpha   90.00000000
_cell_angle_beta   90.00000000
_cell_angle_gamma   89.80179759
_symmetry_Int_Tables_number   1
_chemical_formula_structural   Sr3P14
_chemical_formula_sum   'Sr6 P28'
_cell_volume   809.22241876
_cell_formula_units_Z   2
loop_
 _symmetry_equiv_pos_site_id
 _symmetry_equiv_pos_as_xyz
  1  'x, y, z'
loop_
 _atom_site_type_symbol
 _atom_site_label
 _atom_site_symmetry_multiplicity
 _atom_site_fract_x
 _atom_site_fract_y
 _atom_site_fract_z
 _atom_site_occupancy
  Sr  Sr0  1  0.50000000  0.50000000  0.00000000  1
  Sr  Sr1  1  -0.00000000  0.00000000  0.50000000  1
  Sr  Sr2  1  0.69318543  0.11271637  0.84305160  1
  Sr  Sr3  1  0.80681457  0.38728363  0.34305160  1
  Sr  Sr4  1  0.30681457  0.88728363  0.15694840  1
  Sr  Sr5  1  0.19318543  0.61271637  0.65694840  1
  P  P6  1  0.33693422  0.04919572  0.67676018  1
  P  P7  1  0.16306578  0.45080428  0.17676018  1
  P  P8  1  0.66306578  0.95080428  0.32323982  1
  P  P9  1  0.83693422  0.54919572  0.82323982  1
  P  P10  1  0.57570283  0.14118630  0.58297962  1
  P  P11  1  0.92429717  0.35881370  0.08297962  1
  P  P12  1  0.42429717  0.85881370  0.41702038  1
  P  P13  1  0.07570283  0.64118630  0.91702038  1
  P  P14  1  0.14686739  0.22868615  0.70863852  1
  P  P15  1  0.35313261  0.27131385  0.20863852  1
  P  P16  1  0.85313261  0.77131385  0.29136148  1
  P  P17  1  0.64686739  0.72868615  0.79136148  1
  P  P18  1  0.10365330  0.31841790  0.55282015  1
  P  P19  1  0.39634670  0.18158210  0.05282015  1
  P  P20  1  0.89634670  0.68158210  0.44717985  1
  P  P21  1  0.60365330  0.81841790  0.94717985  1
  P  P22  1  0.38829359  0.36132252  0.77326853  1
  P  P23  1  0.11170641  0.13867748  0.27326853  1
  P  P24  1  0.61170641  0.63867748  0.22673147  1
  P  P25  1  0.88829359  0.86132252  0.72673147  1
  P  P26  1  0.07318834  0.18457282  0.00316668  1
  P  P27  1  0.42681166  0.31542718  0.50316668  1
  P  P28  1  0.92681166  0.81542718  0.99683332  1
  P  P29  1  0.57318834  0.68457282  0.49683332  1
  P  P30  1  0.61424548  0.35320565  0.64791438  1
  P  P31  1  0.88575452  0.14679435  0.14791438  1
  P  P32  1  0.38575452  0.64679435  0.35208562  1
  P  P33  1  0.11424548  0.85320565  0.85208562  1
