# generated using pymatgen
data_Th(SeO3)2
_symmetry_space_group_name_H-M   'P 1'
_cell_length_a   6.68505970
_cell_length_b   7.23942395
_cell_length_c   11.16286354
_cell_angle_alpha   90.00000000
_cell_angle_beta   90.00000000
_cell_angle_gamma   90.00000000
_symmetry_Int_Tables_number   1
_chemical_formula_structural   Th(SeO3)2
_chemical_formula_sum   'Th4 Se8 O24'
_cell_volume   540.23773513
_cell_formula_units_Z   4
loop_
 _symmetry_equiv_pos_site_id
 _symmetry_equiv_pos_as_xyz
  1  'x, y, z'
loop_
 _atom_site_type_symbol
 _atom_site_label
 _atom_site_symmetry_multiplicity
 _atom_site_fract_x
 _atom_site_fract_y
 _atom_site_fract_z
 _atom_site_occupancy
  Th  Th0  1  0.05503173  0.64889139  0.85328909  1
  Th  Th1  1  0.55503173  0.35110861  0.14671091  1
  Th  Th2  1  0.55503173  0.85110861  0.35328909  1
  Th  Th3  1  0.05503173  0.14889139  0.64671091  1
  Se  Se4  1  0.06617988  0.54856496  0.18376703  1
  Se  Se5  1  0.56617988  0.45143504  0.81623297  1
  Se  Se6  1  0.56617988  0.95143504  0.68376703  1
  Se  Se7  1  0.06617988  0.04856496  0.31623297  1
  Se  Se8  1  0.10779100  0.64605265  0.54099271  1
  Se  Se9  1  0.60779100  0.35394735  0.45900729  1
  Se  Se10  1  0.60779100  0.85394735  0.04099271  1
  Se  Se11  1  0.10779100  0.14605265  0.95900729  1
  O  O12  1  0.08282623  0.81179074  0.65328614  1
  O  O13  1  0.58282623  0.18820926  0.34671386  1
  O  O14  1  0.58282623  0.68820926  0.15328614  1
  O  O15  1  0.08282623  0.31179074  0.84671386  1
  O  O16  1  0.17181963  0.56876831  0.04411746  1
  O  O17  1  0.67181963  0.43123169  0.95588254  1
  O  O18  1  0.67181963  0.93123169  0.54411746  1
  O  O19  1  0.17181963  0.06876831  0.45588254  1
  O  O20  1  0.15705632  0.47094241  0.64087931  1
  O  O21  1  0.65705632  0.52905759  0.35912069  1
  O  O22  1  0.65705632  0.02905759  0.14087931  1
  O  O23  1  0.15705632  0.97094241  0.85912069  1
  O  O24  1  0.33882872  0.69244977  0.48847927  1
  O  O25  1  0.83882872  0.30755023  0.51152073  1
  O  O26  1  0.83882872  0.80755023  0.98847927  1
  O  O27  1  0.33882872  0.19244977  0.01152073  1
  O  O28  1  0.25718300  0.42804915  0.25004633  1
  O  O29  1  0.75718300  0.57195085  0.74995367  1
  O  O30  1  0.75718300  0.07195085  0.75004633  1
  O  O31  1  0.25718300  0.92804915  0.24995367  1
  O  O32  1  0.89997450  0.37444070  0.15834251  1
  O  O33  1  0.39997450  0.62555930  0.84165749  1
  O  O34  1  0.39997450  0.12555930  0.65834251  1
  O  O35  1  0.89997450  0.87444070  0.34165749  1
