# generated using pymatgen
data_Sr2MgZn2Sn2(PO4)4
_symmetry_space_group_name_H-M   'P 1'
_cell_length_a   5.76441267
_cell_length_b   8.28429952
_cell_length_c   9.62302159
_cell_angle_alpha   110.00907781
_cell_angle_beta   104.85589069
_cell_angle_gamma   87.77376957
_symmetry_Int_Tables_number   1
_chemical_formula_structural   Sr2MgZn2Sn2(PO4)4
_chemical_formula_sum   'Sr2 Mg1 Zn2 Sn2 P4 O16'
_cell_volume   416.76201011
_cell_formula_units_Z   1
loop_
 _symmetry_equiv_pos_site_id
 _symmetry_equiv_pos_as_xyz
  1  'x, y, z'
loop_
 _atom_site_type_symbol
 _atom_site_label
 _atom_site_symmetry_multiplicity
 _atom_site_fract_x
 _atom_site_fract_y
 _atom_site_fract_z
 _atom_site_occupancy
  Sr  Sr0  1  0.04524395  0.77875700  0.01220742  1
  Sr  Sr1  1  0.85750613  0.31588424  0.98151977  1
  Mg  Mg2  1  0.46293930  0.12221144  0.07848284  1
  Zn  Zn3  1  0.04652323  0.30839520  0.61849364  1
  Zn  Zn4  1  0.07970667  0.68210669  0.44355126  1
  Sn  Sn5  1  0.68498048  0.76794327  0.52045454  1
  Sn  Sn6  1  0.47431215  0.10290346  0.48301433  1
  P  P7  1  0.36839348  0.46176992  0.19885161  1
  P  P8  1  0.57763383  0.52780110  0.73378894  1
  P  P9  1  0.78006065  0.99034936  0.26145347  1
  P  P10  1  0.24795229  0.03547069  0.77882443  1
  O  O11  1  0.68086007  0.56685119  0.90653771  1
  O  O12  1  0.62161744  0.41447436  0.18201793  1
  O  O13  1  0.66136823  0.68701057  0.70305593  1
  O  O14  1  0.06130526  0.17275010  0.75590745  1
  O  O15  1  0.29961970  0.49268175  0.67818432  1
  O  O16  1  0.24934653  0.89906440  0.62428110  1
  O  O17  1  0.82910372  0.14126864  0.42030233  1
  O  O18  1  0.18541008  0.96524000  0.89723705  1
  O  O19  1  0.23579435  0.29058724  0.17660784  1
  O  O20  1  0.81232706  0.04762388  0.12942864  1
  O  O21  1  0.21657728  0.54010950  0.08437266  1
  O  O22  1  0.37581052  0.59437925  0.36835179  1
  O  O23  1  0.70119523  0.36455894  0.64673474  1
  O  O24  1  0.49566428  0.95923326  0.22242906  1
  O  O25  1  0.93169010  0.83678011  0.26903361  1
  O  O26  1  0.49920100  0.12823743  0.86550058  1
