# generated using pymatgen
data_Ba(SmS2)2
_symmetry_space_group_name_H-M   'P 1'
_cell_length_a   4.14375172
_cell_length_b   12.37614667
_cell_length_c   14.78997259
_cell_angle_alpha   90.00000000
_cell_angle_beta   90.00000000
_cell_angle_gamma   90.00000000
_symmetry_Int_Tables_number   1
_chemical_formula_structural   Ba(SmS2)2
_chemical_formula_sum   'Ba4 Sm8 S16'
_cell_volume   758.48420748
_cell_formula_units_Z   4
loop_
 _symmetry_equiv_pos_site_id
 _symmetry_equiv_pos_as_xyz
  1  'x, y, z'
loop_
 _atom_site_type_symbol
 _atom_site_label
 _atom_site_symmetry_multiplicity
 _atom_site_fract_x
 _atom_site_fract_y
 _atom_site_fract_z
 _atom_site_occupancy
  Ba  Ba0  1  0.25000000  0.75400895  0.34073980  1
  Ba  Ba1  1  0.25000000  0.25400895  0.15926020  1
  Ba  Ba2  1  0.75000000  0.24599105  0.65926020  1
  Ba  Ba3  1  0.75000000  0.74599105  0.84073980  1
  Sm  Sm4  1  0.25000000  0.42411885  0.89605843  1
  Sm  Sm5  1  0.25000000  0.92411885  0.60394157  1
  Sm  Sm6  1  0.75000000  0.57588115  0.10394157  1
  Sm  Sm7  1  0.75000000  0.07588115  0.39605843  1
  Sm  Sm8  1  0.25000000  0.42512036  0.39226585  1
  Sm  Sm9  1  0.25000000  0.92512036  0.10773415  1
  Sm  Sm10  1  0.75000000  0.57487964  0.60773415  1
  Sm  Sm11  1  0.75000000  0.07487964  0.89226585  1
  S  S12  1  0.25000000  0.21100069  0.82951806  1
  S  S13  1  0.25000000  0.71100069  0.67048194  1
  S  S14  1  0.75000000  0.78899931  0.17048194  1
  S  S15  1  0.75000000  0.28899931  0.32951806  1
  S  S16  1  0.25000000  0.12879346  0.52117325  1
  S  S17  1  0.25000000  0.62879346  0.97882675  1
  S  S18  1  0.75000000  0.87120654  0.47882675  1
  S  S19  1  0.75000000  0.37120654  0.02117325  1
  S  S20  1  0.25000000  0.51718739  0.21752346  1
  S  S21  1  0.25000000  0.01718739  0.28247654  1
  S  S22  1  0.75000000  0.48281261  0.78247654  1
  S  S23  1  0.75000000  0.98281261  0.71752346  1
  S  S24  1  0.25000000  0.42236799  0.57922354  1
  S  S25  1  0.25000000  0.92236799  0.92077646  1
  S  S26  1  0.75000000  0.57763201  0.42077646  1
  S  S27  1  0.75000000  0.07763201  0.07922354  1
