# generated using pymatgen
data_Rb3H(SO4)2
_symmetry_space_group_name_H-M   'P 1'
_cell_length_a   8.22898144
_cell_length_b   11.41436524
_cell_length_c   11.41436524
_cell_angle_alpha   60.62088672
_cell_angle_beta   70.69229853
_cell_angle_gamma   70.69229853
_symmetry_Int_Tables_number   1
_chemical_formula_structural   Rb3H(SO4)2
_chemical_formula_sum   'Rb12 H4 S8 O32'
_cell_volume   863.01454246
_cell_formula_units_Z   4
loop_
 _symmetry_equiv_pos_site_id
 _symmetry_equiv_pos_as_xyz
  1  'x, y, z'
loop_
 _atom_site_type_symbol
 _atom_site_label
 _atom_site_symmetry_multiplicity
 _atom_site_fract_x
 _atom_site_fract_y
 _atom_site_fract_z
 _atom_site_occupancy
  Rb  Rb0  1  -0.00000000  0.22930975  0.77069025  1
  Rb  Rb1  1  -0.00000000  0.77069025  0.22930975  1
  Rb  Rb2  1  0.48200371  0.76296740  0.76296740  1
  Rb  Rb3  1  0.51799629  0.23703260  0.23703260  1
  Rb  Rb4  1  0.88166662  0.35877336  0.35877336  1
  Rb  Rb5  1  0.11833338  0.64122664  0.64122664  1
  Rb  Rb6  1  0.59531633  0.66071542  0.14408423  1
  Rb  Rb7  1  0.59531633  0.14408423  0.66071542  1
  Rb  Rb8  1  0.40468367  0.33928458  0.85591577  1
  Rb  Rb9  1  0.40468367  0.85591577  0.33928458  1
  Rb  Rb10  1  0.07751564  0.14215440  0.14215440  1
  Rb  Rb11  1  0.92248436  0.85784560  0.85784560  1
  H  H12  1  0.73404955  0.51141328  0.76836118  1
  H  H13  1  0.73404955  0.76836118  0.51141328  1
  H  H14  1  0.26595045  0.48858672  0.23163882  1
  H  H15  1  0.26595045  0.23163882  0.48858672  1
  S  S16  1  0.83322524  0.47260204  0.93794005  1
  S  S17  1  0.83322524  0.93794005  0.47260204  1
  S  S18  1  0.16677476  0.52739796  0.06205995  1
  S  S19  1  0.16677476  0.06205995  0.52739796  1
  S  S20  1  0.32155568  0.95378500  0.95378500  1
  S  S21  1  0.67844432  0.04621500  0.04621500  1
  S  S22  1  0.66663975  0.55434314  0.55434314  1
  S  S23  1  0.33336025  0.44565686  0.44565686  1
  O  O24  1  0.70376700  0.45649559  0.87202085  1
  O  O25  1  0.70376700  0.87202085  0.45649559  1
  O  O26  1  0.29623300  0.54350441  0.12797915  1
  O  O27  1  0.29623300  0.12797915  0.54350441  1
  O  O28  1  0.81536347  0.61941736  0.88639620  1
  O  O29  1  0.81536347  0.88639620  0.61941736  1
  O  O30  1  0.18463653  0.38058264  0.11360380  1
  O  O31  1  0.18463653  0.11360380  0.38058264  1
  O  O32  1  0.00778601  0.40601190  0.88952475  1
  O  O33  1  0.00778601  0.88952475  0.40601190  1
  O  O34  1  -0.00778601  0.59398810  0.11047425  1
  O  O35  1  -0.00778601  0.11047425  0.59398810  1
  O  O36  1  0.77029819  0.40435109  0.08437742  1
  O  O37  1  0.77029819  0.08437742  0.40435109  1
  O  O38  1  0.22970181  0.59564891  0.91562258  1
  O  O39  1  0.22970181  0.91562258  0.59564891  1
  O  O40  1  0.50373685  0.89833665  0.89833665  1
  O  O41  1  0.49626315  0.10166335  0.10166335  1
  O  O42  1  0.29309373  0.89523079  0.10501095  1
  O  O43  1  0.29309373  0.10501095  0.89523079  1
  O  O44  1  0.70690527  0.10476921  0.89498905  1
  O  O45  1  0.70690527  0.89498905  0.10476921  1
  O  O46  1  0.19673547  0.91618615  0.91618615  1
  O  O47  1  0.80326453  0.08381385  0.08381385  1
  O  O48  1  0.71250555  0.40424744  0.61483990  1
  O  O49  1  0.71250555  0.61483990  0.40424744  1
  O  O50  1  0.28749445  0.59575256  0.38516010  1
  O  O51  1  0.28749445  0.38516010  0.59575256  1
  O  O52  1  0.77203557  0.60368791  0.60368791  1
  O  O53  1  0.22796443  0.39631209  0.39631209  1
  O  O54  1  0.48051554  0.60396116  0.60396116  1
  O  O55  1  0.51948446  0.39603884  0.39603884  1
