# generated using pymatgen
data_Sm4(SiS4)3
_symmetry_space_group_name_H-M   'P 1'
_cell_length_a   11.32814575
_cell_length_b   11.32814575
_cell_length_c   11.32814672
_cell_angle_alpha   114.81363799
_cell_angle_beta   114.81363799
_cell_angle_gamma   114.81363581
_symmetry_Int_Tables_number   1
_chemical_formula_structural   Sm4(SiS4)3
_chemical_formula_sum   'Sm8 Si6 S24'
_cell_volume   827.22238451
_cell_formula_units_Z   2
loop_
 _symmetry_equiv_pos_site_id
 _symmetry_equiv_pos_as_xyz
  1  'x, y, z'
loop_
 _atom_site_type_symbol
 _atom_site_label
 _atom_site_symmetry_multiplicity
 _atom_site_fract_x
 _atom_site_fract_y
 _atom_site_fract_z
 _atom_site_occupancy
  Sm  Sm0  1  0.50558941  0.50558941  0.50558941  1
  Sm  Sm1  1  0.00558941  0.00558941  0.00558941  1
  Sm  Sm2  1  0.06556851  0.28918658  0.52720023  1
  Sm  Sm3  1  0.28918658  0.52720023  0.06556851  1
  Sm  Sm4  1  0.52720023  0.06556851  0.28918658  1
  Sm  Sm5  1  0.56556851  0.02720023  0.78918658  1
  Sm  Sm6  1  0.02720023  0.78918658  0.56556851  1
  Sm  Sm7  1  0.78918658  0.56556851  0.02720023  1
  Si  Si8  1  0.35914633  0.14659338  0.53166033  1
  Si  Si9  1  0.14659338  0.53166033  0.35914633  1
  Si  Si10  1  0.53166033  0.35914633  0.14659338  1
  Si  Si11  1  0.85914633  0.03166033  0.64659338  1
  Si  Si12  1  0.03166033  0.64659338  0.85914633  1
  Si  Si13  1  0.64659338  0.85914633  0.03166033  1
  S  S14  1  0.10880405  0.18498137  0.71751733  1
  S  S15  1  0.18498137  0.71751733  0.10880405  1
  S  S16  1  0.71751733  0.10880405  0.18498137  1
  S  S17  1  0.60880405  0.21751733  0.68498137  1
  S  S18  1  0.21751733  0.68498137  0.60880405  1
  S  S19  1  0.68498137  0.60880405  0.21751733  1
  S  S20  1  0.31812058  0.13156448  0.31973808  1
  S  S21  1  0.13156448  0.31973808  0.31812058  1
  S  S22  1  0.31973808  0.31812058  0.13156448  1
  S  S23  1  0.81812058  0.81973808  0.63156448  1
  S  S24  1  0.81973808  0.63156448  0.81812058  1
  S  S25  1  0.63156448  0.81812058  0.81973808  1
  S  S26  1  0.41238820  0.37951137  0.69927513  1
  S  S27  1  0.37951137  0.69927513  0.41238820  1
  S  S28  1  0.69927513  0.41238820  0.37951137  1
  S  S29  1  0.91238820  0.19927513  0.87951137  1
  S  S30  1  0.19927513  0.87951137  0.91238820  1
  S  S31  1  0.87951137  0.91238820  0.19927513  1
  S  S32  1  0.65019499  0.91796065  0.38199901  1
  S  S33  1  0.91796065  0.38199901  0.65019499  1
  S  S34  1  0.38199901  0.65019499  0.91796065  1
  S  S35  1  0.15019499  0.88199901  0.41796065  1
  S  S36  1  0.88199901  0.41796065  0.15019499  1
  S  S37  1  0.41796065  0.15019499  0.88199901  1
