# generated using pymatgen
data_ErWBrO4
_symmetry_space_group_name_H-M   'P 1'
_cell_length_a   6.93117509
_cell_length_b   7.18731653
_cell_length_c   10.79880739
_cell_angle_alpha   102.28807926
_cell_angle_beta   108.46692813
_cell_angle_gamma   95.15689788
_symmetry_Int_Tables_number   1
_chemical_formula_structural   ErWBrO4
_chemical_formula_sum   'Er4 W4 Br4 O16'
_cell_volume   491.33435405
_cell_formula_units_Z   4
loop_
 _symmetry_equiv_pos_site_id
 _symmetry_equiv_pos_as_xyz
  1  'x, y, z'
loop_
 _atom_site_type_symbol
 _atom_site_label
 _atom_site_symmetry_multiplicity
 _atom_site_fract_x
 _atom_site_fract_y
 _atom_site_fract_z
 _atom_site_occupancy
  Er  Er0  1  0.66846540  0.09977786  0.73214333  1
  Er  Er1  1  0.33153460  0.90022214  0.26785667  1
  Er  Er2  1  0.37632189  0.66551540  0.76481654  1
  Er  Er3  1  0.62367811  0.33448460  0.23518346  1
  W  W4  1  0.72488155  0.81630413  0.13254052  1
  W  W5  1  0.27511845  0.18369587  0.86745948  1
  W  W6  1  0.76723186  0.58422744  0.62551539  1
  W  W7  1  0.23276814  0.41577256  0.37448461  1
  Br  Br8  1  0.26495385  0.01505675  0.52126973  1
  Br  Br9  1  0.73504615  0.98494325  0.47873027  1
  Br  Br10  1  0.18681559  0.72413007  0.98274309  1
  Br  Br11  1  0.81318441  0.27586993  0.01725691  1
  O  O12  1  0.65084320  0.73554782  0.95478852  1
  O  O13  1  0.34915680  0.26445218  0.04521148  1
  O  O14  1  0.99578503  0.89244357  0.20346412  1
  O  O15  1  0.00421497  0.10755643  0.79653588  1
  O  O16  1  0.65268572  0.62484877  0.19842682  1
  O  O17  1  0.34731428  0.37515123  0.80157318  1
  O  O18  1  0.40931249  0.99092712  0.81445027  1
  O  O19  1  0.59068751  0.00907288  0.18554973  1
  O  O20  1  0.03595076  0.65219529  0.66650172  1
  O  O21  1  0.96404924  0.34780471  0.33349828  1
  O  O22  1  0.72948153  0.39058029  0.69825976  1
  O  O23  1  0.27051847  0.60941971  0.30174024  1
  O  O24  1  0.65888291  0.49909174  0.44543059  1
  O  O25  1  0.34111709  0.50090826  0.55456941  1
  O  O26  1  0.65758396  0.77979160  0.70466366  1
  O  O27  1  0.34241604  0.22020840  0.29533634  1
