# generated using pymatgen
data_CeSe2
_symmetry_space_group_name_H-M   'P 1'
_cell_length_a   8.60927065
_cell_length_b   20.43673792
_cell_length_c   21.62144054
_cell_angle_alpha   108.05345535
_cell_angle_beta   101.48381261
_cell_angle_gamma   89.99999999
_symmetry_Int_Tables_number   1
_chemical_formula_structural   CeSe2
_chemical_formula_sum   'Ce14 Se28'
_cell_volume   3536.71759879
_cell_formula_units_Z   14
loop_
 _symmetry_equiv_pos_site_id
 _symmetry_equiv_pos_as_xyz
  1  'x, y, z'
loop_
 _atom_site_type_symbol
 _atom_site_label
 _atom_site_symmetry_multiplicity
 _atom_site_fract_x
 _atom_site_fract_y
 _atom_site_fract_z
 _atom_site_occupancy
  Ce  Ce0  1  0.07146696  0.15932258  0.14293393  1
  Ce  Ce1  1  0.92853304  0.84067742  0.85706607  1
  Ce  Ce2  1  0.06235020  0.91330055  0.12470040  1
  Ce  Ce3  1  0.93764980  0.08669945  0.87529960  1
  Ce  Ce4  1  0.36938908  0.70889835  0.73877817  1
  Ce  Ce5  1  0.63061092  0.29110165  0.26122183  1
  Ce  Ce6  1  0.38070519  0.12031090  0.76141037  1
  Ce  Ce7  1  0.61929481  0.87968910  0.23858963  1
  Ce  Ce8  1  0.29333838  0.86556515  0.58667676  1
  Ce  Ce9  1  0.70666162  0.13443485  0.41332324  1
  Ce  Ce10  1  0.27903084  0.20974673  0.55806168  1
  Ce  Ce11  1  0.72096916  0.79025327  0.44193832  1
  Ce  Ce12  1  0.28423515  0.47821280  0.56847029  1
  Ce  Ce13  1  0.71576485  0.52178720  0.43152971  1
  Se  Se14  1  0.09647814  0.05133605  0.19295628  1
  Se  Se15  1  0.90352186  0.94866395  0.80704372  1
  Se  Se16  1  0.00444484  0.10848979  0.00888967  1
  Se  Se17  1  0.99555516  0.89151021  0.99111033  1
  Se  Se18  1  0.84180587  0.24401108  0.18219988  1
  Se  Se19  1  0.34039402  0.24401108  0.18219988  1
  Se  Se20  1  0.15819413  0.75598892  0.81780012  1
  Se  Se21  1  0.65960598  0.75598892  0.81780012  1
  Se  Se22  1  0.31551695  0.75466803  0.63103390  1
  Se  Se23  1  0.68448305  0.24533197  0.36896610  1
  Se  Se24  1  0.67160270  0.15174403  0.84382391  1
  Se  Se25  1  0.17222121  0.15174403  0.84382391  1
  Se  Se26  1  0.32839730  0.84825597  0.15617609  1
  Se  Se27  1  0.82777879  0.84825597  0.15617609  1
  Se  Se28  1  0.34705092  0.56877678  0.69410185  1
  Se  Se29  1  0.65294908  0.43122322  0.30589815  1
  Se  Se30  1  0.00000000  0.50000000  0.50000000  1
  Se  Se31  1  0.50000000  0.50000000  0.50000000  1
  Se  Se32  1  0.99651712  0.13898013  0.49292469  1
  Se  Se33  1  0.49640757  0.13898013  0.49292469  1
  Se  Se34  1  0.00348288  0.86101987  0.50707531  1
  Se  Se35  1  0.50359243  0.86101987  0.50707531  1
  Se  Se36  1  0.34225120  0.20505055  0.68450239  1
  Se  Se37  1  0.65774880  0.79494945  0.31549761  1
  Se  Se38  1  0.34487769  0.98452830  0.68975537  1
  Se  Se39  1  0.65512231  0.01547170  0.31024463  1
  Se  Se40  1  0.28311971  0.34513615  0.56623943  1
  Se  Se41  1  0.71688029  0.65486385  0.43376057  1
