# generated using pymatgen
data_K2PbCl6
_symmetry_space_group_name_H-M   'P 1'
_cell_length_a   7.44590604
_cell_length_b   7.16400573
_cell_length_c   12.26387551
_cell_angle_alpha   54.92349649
_cell_angle_beta   90.00000000
_cell_angle_gamma   90.00000000
_symmetry_Int_Tables_number   1
_chemical_formula_structural   K2PbCl6
_chemical_formula_sum   'K4 Pb2 Cl12'
_cell_volume   535.37626106
_cell_formula_units_Z   2
loop_
 _symmetry_equiv_pos_site_id
 _symmetry_equiv_pos_as_xyz
  1  'x, y, z'
loop_
 _atom_site_type_symbol
 _atom_site_label
 _atom_site_symmetry_multiplicity
 _atom_site_fract_x
 _atom_site_fract_y
 _atom_site_fract_z
 _atom_site_occupancy
  K  K0  1  0.06947098  0.72893101  0.75146023  1
  K  K1  1  0.93052902  0.27106899  0.24853977  1
  K  K2  1  0.56947098  0.27106899  0.74853977  1
  K  K3  1  0.43052902  0.72893101  0.25146023  1
  Pb  Pb4  1  0.50000000  0.00000000  0.50000000  1
  Pb  Pb5  1  -0.00000000  0.00000000  -0.00000000  1
  Cl  Cl6  1  0.30681894  0.67014065  0.54146024  1
  Cl  Cl7  1  0.69318106  0.32985935  0.45853976  1
  Cl  Cl8  1  0.80681894  0.32985935  0.95853976  1
  Cl  Cl9  1  0.19318106  0.67014065  0.04146024  1
  Cl  Cl10  1  0.78513506  0.77294571  0.53485530  1
  Cl  Cl11  1  0.21486494  0.22705429  0.46514470  1
  Cl  Cl12  1  0.28513506  0.22705429  0.96514470  1
  Cl  Cl13  1  0.71486494  0.77294571  0.03485530  1
  Cl  Cl14  1  0.49154819  0.83020501  0.74697931  1
  Cl  Cl15  1  0.50845181  0.16979499  0.25302069  1
  Cl  Cl16  1  0.99154819  0.16979499  0.75302069  1
  Cl  Cl17  1  0.00845181  0.83020501  0.24697931  1
