# generated using pymatgen
data_Rb3LuCl6
_symmetry_space_group_name_H-M   'P 1'
_cell_length_a   13.42884897
_cell_length_b   13.42880885
_cell_length_c   12.68389735
_cell_angle_alpha   80.88146379
_cell_angle_beta   80.88129830
_cell_angle_gamma   34.03940874
_symmetry_Int_Tables_number   1
_chemical_formula_structural   Rb3LuCl6
_chemical_formula_sum   'Rb12 Lu4 Cl24'
_cell_volume   1262.65564586
_cell_formula_units_Z   4
loop_
 _symmetry_equiv_pos_site_id
 _symmetry_equiv_pos_as_xyz
  1  'x, y, z'
loop_
 _atom_site_type_symbol
 _atom_site_label
 _atom_site_symmetry_multiplicity
 _atom_site_fract_x
 _atom_site_fract_y
 _atom_site_fract_z
 _atom_site_occupancy
  Rb  Rb0  1  0.29411799  0.80902680  0.56402076  1
  Rb  Rb1  1  0.70581252  0.19104486  0.43596725  1
  Rb  Rb2  1  0.19108306  0.70578302  0.93596376  1
  Rb  Rb3  1  0.80904476  0.29411161  0.06401636  1
  Rb  Rb4  1  0.47134967  0.83654700  0.85481106  1
  Rb  Rb5  1  0.52862597  0.16346529  0.14519886  1
  Rb  Rb6  1  0.16346414  0.52862613  0.64519604  1
  Rb  Rb7  1  0.83653480  0.47135344  0.35481289  1
  Rb  Rb8  1  0.65318218  0.02224144  0.80176341  1
  Rb  Rb9  1  0.34680964  0.97775044  0.19823045  1
  Rb  Rb10  1  0.97775087  0.34681035  0.69822563  1
  Rb  Rb11  1  0.02225043  0.65317863  0.30176668  1
  Lu  Lu12  1  0.78948734  0.21049079  0.75001750  1
  Lu  Lu13  1  0.21048366  0.78949499  0.25001142  1
  Lu  Lu14  1  0.50000047  0.00001160  0.49998928  1
  Lu  Lu15  1  0.00001048  0.50001581  -0.00000497  1
  Cl  Cl16  1  0.62131235  0.72410236  0.57722382  1
  Cl  Cl17  1  0.37869720  0.27592651  0.42274968  1
  Cl  Cl18  1  0.27592177  0.37870324  0.92275793  1
  Cl  Cl19  1  0.72408854  0.62134375  0.07723886  1
  Cl  Cl20  1  0.50571385  0.37656327  0.68106659  1
  Cl  Cl21  1  0.49428432  0.62338318  0.31893420  1
  Cl  Cl22  1  0.62338258  0.49429267  0.81894010  1
  Cl  Cl23  1  0.37655668  0.50571310  0.18107172  1
  Cl  Cl24  1  0.78476665  0.85740090  0.53316117  1
  Cl  Cl25  1  0.21522742  0.14265190  0.46680521  1
  Cl  Cl26  1  0.14264555  0.21524006  0.96682343  1
  Cl  Cl27  1  0.85739612  0.78478240  0.03316823  1
  Cl  Cl28  1  0.90742140  0.97409785  0.19860603  1
  Cl  Cl29  1  0.09253314  0.02591628  0.80141562  1
  Cl  Cl30  1  0.02591275  0.09253561  0.30141008  1
  Cl  Cl31  1  0.97410122  0.90741692  0.69863088  1
  Cl  Cl32  1  0.72689871  0.16000489  0.93554588  1
  Cl  Cl33  1  0.27308546  0.83999105  0.06446956  1
  Cl  Cl34  1  0.84001833  0.27305533  0.56447145  1
  Cl  Cl35  1  0.15998250  0.72691823  0.43554823  1
  Cl  Cl36  1  0.36746145  0.13280049  0.68678958  1
  Cl  Cl37  1  0.63257071  0.86718447  0.31319301  1
  Cl  Cl38  1  0.86719743  0.63255985  0.81319772  1
  Cl  Cl39  1  0.13281592  0.36745848  0.18679663  1
