# generated using pymatgen
data_ZnMoO4
_symmetry_space_group_name_H-M   'P 1'
_cell_length_a   6.95798299
_cell_length_b   8.34620095
_cell_length_c   9.67951398
_cell_angle_alpha   96.65702341
_cell_angle_beta   107.09008490
_cell_angle_gamma   101.76318406
_symmetry_Int_Tables_number   1
_chemical_formula_structural   ZnMoO4
_chemical_formula_sum   'Zn6 Mo6 O24'
_cell_volume   516.64108008
_cell_formula_units_Z   6
loop_
 _symmetry_equiv_pos_site_id
 _symmetry_equiv_pos_as_xyz
  1  'x, y, z'
loop_
 _atom_site_type_symbol
 _atom_site_label
 _atom_site_symmetry_multiplicity
 _atom_site_fract_x
 _atom_site_fract_y
 _atom_site_fract_z
 _atom_site_occupancy
  Zn  Zn0  1  0.25372947  0.69472973  0.91012417  1
  Zn  Zn1  1  0.74627053  0.30527027  0.08987583  1
  Zn  Zn2  1  0.53555553  0.69496515  0.48740923  1
  Zn  Zn3  1  0.46444447  0.30503485  0.51259077  1
  Zn  Zn4  1  0.96911011  0.88598125  0.71393339  1
  Zn  Zn5  1  0.03088989  0.11401875  0.28606661  1
  Mo  Mo6  1  0.50539771  0.98778641  0.75612459  1
  Mo  Mo7  1  0.49460229  0.01221359  0.24387541  1
  Mo  Mo8  1  0.69970213  0.60368479  0.84036632  1
  Mo  Mo9  1  0.30029787  0.39631521  0.15963368  1
  Mo  Mo10  1  0.97889670  0.70441642  0.37482852  1
  Mo  Mo11  1  0.02110330  0.29558358  0.62517148  1
  O  O12  1  0.26449994  0.86565783  0.76258914  1
  O  O13  1  0.73550006  0.13434217  0.23741086  1
  O  O14  1  0.55947043  0.71143712  0.92396202  1
  O  O15  1  0.44052957  0.28856288  0.07603798  1
  O  O16  1  0.55317990  0.52269187  0.65007869  1
  O  O17  1  0.44682010  0.47730813  0.34992131  1
  O  O18  1  0.55156127  0.86813068  0.35520724  1
  O  O19  1  0.44843873  0.13186932  0.64479276  1
  O  O20  1  0.65941353  0.09521816  0.92930768  1
  O  O21  1  0.34058647  0.90478184  0.07069232  1
  O  O22  1  0.65095266  0.86193513  0.68302021  1
  O  O23  1  0.34904734  0.13806487  0.31697979  1
  O  O24  1  0.02365091  0.12380138  0.71585810  1
  O  O25  1  0.97634909  0.87619862  0.28414190  1
  O  O26  1  0.04792595  0.26790624  0.14130699  1
  O  O27  1  0.95207405  0.73209376  0.85869301  1
  O  O28  1  0.14958283  0.48051498  0.75258519  1
  O  O29  1  0.85041717  0.51948502  0.24741481  1
  O  O30  1  0.14116606  0.27164061  0.48389129  1
  O  O31  1  0.85883394  0.72835939  0.51610871  1
  O  O32  1  0.25600801  0.56150349  0.07271989  1
  O  O33  1  0.74399199  0.43849651  0.92728011  1
  O  O34  1  0.23685299  0.70407653  0.46130921  1
  O  O35  1  0.76314701  0.29592347  0.53869079  1
