# generated using pymatgen
data_MgV8(OF)8
_symmetry_space_group_name_H-M   'P 1'
_cell_length_a   4.89197986
_cell_length_b   10.43710669
_cell_length_c   5.71995701
_cell_angle_alpha   84.79877974
_cell_angle_beta   89.40803983
_cell_angle_gamma   89.75571120
_symmetry_Int_Tables_number   1
_chemical_formula_structural   MgV8(OF)8
_chemical_formula_sum   'Mg1 V8 O8 F8'
_cell_volume   290.83055467
_cell_formula_units_Z   1
loop_
 _symmetry_equiv_pos_site_id
 _symmetry_equiv_pos_as_xyz
  1  'x, y, z'
loop_
 _atom_site_type_symbol
 _atom_site_label
 _atom_site_symmetry_multiplicity
 _atom_site_fract_x
 _atom_site_fract_y
 _atom_site_fract_z
 _atom_site_occupancy
  Mg  Mg0  1  0.00007458  0.73790651  0.24393388  1
  V  V1  1  0.47415284  0.26611629  0.74884252  1
  V  V2  1  0.52428162  0.99279120  0.49269659  1
  V  V3  1  0.51091068  0.73745516  0.25138051  1
  V  V4  1  0.48521936  0.51499950  0.01292360  1
  V  V5  1  0.98135838  0.23614706  0.24912931  1
  V  V6  1  0.02696320  0.76988282  0.73936713  1
  V  V7  1  0.97993511  0.47507267  0.53204046  1
  V  V8  1  0.01063958  0.02647012  0.98182144  1
  O  O9  1  0.79449898  0.31911603  0.52521516  1
  O  O10  1  0.77993836  0.07468665  0.26536986  1
  O  O11  1  0.75057135  0.82133900  0.48907808  1
  O  O12  1  0.75298700  0.58131163  0.26951377  1
  O  O13  1  0.29749373  0.43508331  0.74122736  1
  O  O14  1  0.25473647  0.67925940  0.00185645  1
  O  O15  1  0.21771820  0.92726506  0.72393660  1
  O  O16  1  0.21744527  0.18846259  0.97997436  1
  F  F17  1  0.79406374  0.58942634  0.77523880  1
  F  F18  1  0.78316854  0.83886282  0.00144895  1
  F  F19  1  0.69365292  0.08524297  0.75771926  1
  F  F20  1  0.70003035  0.33998072  0.01702005  1
  F  F21  1  0.27022704  0.90522847  0.24018163  1
  F  F22  1  0.29385019  0.16668371  0.48219142  1
  F  F23  1  0.22626292  0.66426381  0.50074120  1
  F  F24  1  0.20759761  0.41444618  0.25096161  1
