# generated using pymatgen
data_K9Gd3Si12(O16F)2
_symmetry_space_group_name_H-M   'P 1'
_cell_length_a   6.88683610
_cell_length_b   11.38715099
_cell_length_c   11.46221291
_cell_angle_alpha   87.50181643
_cell_angle_beta   89.61155908
_cell_angle_gamma   80.26455019
_symmetry_Int_Tables_number   1
_chemical_formula_structural   K9Gd3Si12(O16F)2
_chemical_formula_sum   'K9 Gd3 Si12 O32 F2'
_cell_volume   885.09633144
_cell_formula_units_Z   1
loop_
 _symmetry_equiv_pos_site_id
 _symmetry_equiv_pos_as_xyz
  1  'x, y, z'
loop_
 _atom_site_type_symbol
 _atom_site_label
 _atom_site_symmetry_multiplicity
 _atom_site_fract_x
 _atom_site_fract_y
 _atom_site_fract_z
 _atom_site_occupancy
  K  K0  1  0.77063291  0.11414352  0.51893750  1
  K  K1  1  0.22936709  0.88585648  0.48106250  1
  K  K2  1  0.66978121  0.30606484  0.27867333  1
  K  K3  1  0.33021879  0.69393516  0.72132667  1
  K  K4  1  0.33225330  0.65311306  0.28559772  1
  K  K5  1  0.66774670  0.34688694  0.71440228  1
  K  K6  1  0.00000000  0.50000000  0.50000000  1
  K  K7  1  0.51439072  0.83059386  0.01226971  1
  K  K8  1  0.48560928  0.16940614  0.98773029  1
  Gd  Gd9  1  0.01405446  0.01405799  0.16393512  1
  Gd  Gd10  1  0.98594554  0.98594201  0.83606488  1
  Gd  Gd11  1  0.50000000  0.50000000  0.00000000  1
  Si  Si12  1  0.21526762  0.16542456  0.38295079  1
  Si  Si13  1  0.78473238  0.83457544  0.61704921  1
  Si  Si14  1  0.18792534  0.19615115  0.66129123  1
  Si  Si15  1  0.81207466  0.80384885  0.33870877  1
  Si  Si16  1  0.51736489  0.01564759  0.24242913  1
  Si  Si17  1  0.48263511  0.98435241  0.75757087  1
  Si  Si18  1  0.15660012  0.41051216  0.80309478  1
  Si  Si19  1  0.84339988  0.58948784  0.19690522  1
  Si  Si20  1  0.05361942  0.73248433  0.01146871  1
  Si  Si21  1  0.94638058  0.26751567  0.98853129  1
  Si  Si22  1  0.16297372  0.36174600  0.18950827  1
  Si  Si23  1  0.83702628  0.63825400  0.81049173  1
  O  O24  1  0.35647986  0.37056342  0.11715171  1
  O  O25  1  0.64352014  0.62943658  0.88284829  1
  O  O26  1  0.65674292  0.53106598  0.16978435  1
  O  O27  1  0.34325708  0.46893402  0.83021565  1
  O  O28  1  0.20401708  0.18464790  0.52146317  1
  O  O29  1  0.79598292  0.81535210  0.47853683  1
  O  O30  1  0.68898778  0.07988555  0.18929120  1
  O  O31  1  0.31101222  0.92011445  0.81070880  1
  O  O32  1  0.39789006  0.12508669  0.71576756  1
  O  O33  1  0.60210994  0.87491331  0.28423244  1
  O  O34  1  0.43352576  0.08287150  0.36341206  1
  O  O35  1  0.56647424  0.91712850  0.63658794  1
  O  O36  1  0.26811965  0.66194394  0.04283408  1
  O  O37  1  0.73188035  0.33805606  0.95716592  1
  O  O38  1  0.00935231  0.28945726  0.12542350  1
  O  O39  1  0.99064769  0.71054274  0.87457650  1
  O  O40  1  0.03054535  0.87544878  0.01731892  1
  O  O41  1  0.96945465  0.12455122  0.98268108  1
  O  O42  1  0.04163005  0.10151872  0.34163979  1
  O  O43  1  0.95836995  0.89848128  0.65836021  1
  O  O44  1  0.21739507  0.29593546  0.31813433  1
  O  O45  1  0.78260493  0.70406454  0.68186567  1
  O  O46  1  0.18952064  0.33769004  0.68187448  1
  O  O47  1  0.81047936  0.66230996  0.31812552  1
  O  O48  1  0.99839135  0.15087624  0.71443950  1
  O  O49  1  0.00160865  0.84912376  0.28556050  1
  O  O50  1  0.04381428  0.49292500  0.22391727  1
  O  O51  1  0.95618572  0.50707500  0.77608273  1
  O  O52  1  0.11607143  0.31532213  0.90651754  1
  O  O53  1  0.88392857  0.68467787  0.09348246  1
  O  O54  1  0.34143218  0.01394549  0.15244836  1
  O  O55  1  0.65856782  0.98605451  0.84755164  1
  F  F56  1  0.24753179  0.65789689  0.50433726  1
  F  F57  1  0.75246821  0.34210311  0.49566274  1
