# generated using pymatgen
data_Mo(PO4)2
_symmetry_space_group_name_H-M   'P 1'
_cell_length_a   4.89302940
_cell_length_b   7.34336480
_cell_length_c   7.69644103
_cell_angle_alpha   90.00000000
_cell_angle_beta   90.00000000
_cell_angle_gamma   90.00000000
_symmetry_Int_Tables_number   1
_chemical_formula_structural   Mo(PO4)2
_chemical_formula_sum   'Mo2 P4 O16'
_cell_volume   276.54313051
_cell_formula_units_Z   2
loop_
 _symmetry_equiv_pos_site_id
 _symmetry_equiv_pos_as_xyz
  1  'x, y, z'
loop_
 _atom_site_type_symbol
 _atom_site_label
 _atom_site_symmetry_multiplicity
 _atom_site_fract_x
 _atom_site_fract_y
 _atom_site_fract_z
 _atom_site_occupancy
  Mo  Mo0  1  0.50000000  0.75000000  0.78524322  1
  Mo  Mo1  1  -0.00000000  0.25000000  0.21475678  1
  P  P2  1  0.25631125  0.63818925  0.35992893  1
  P  P3  1  0.75631125  0.36181075  0.64007107  1
  P  P4  1  0.74368875  0.86181075  0.35992893  1
  P  P5  1  0.24368875  0.13818925  0.64007107  1
  O  O6  1  0.27859213  0.63062823  0.55153069  1
  O  O7  1  0.77859213  0.36937177  0.44846931  1
  O  O8  1  0.72140787  0.86937177  0.55153069  1
  O  O9  1  0.22140787  0.13062823  0.44846931  1
  O  O10  1  0.28620597  0.64051875  0.91855646  1
  O  O11  1  0.78620597  0.35948125  0.08144354  1
  O  O12  1  0.71379403  0.85948125  0.91855646  1
  O  O13  1  0.21379403  0.14051875  0.08144354  1
  O  O14  1  0.25091376  0.95976582  0.73354535  1
  O  O15  1  0.75091376  0.04023418  0.26645465  1
  O  O16  1  0.74908624  0.54023418  0.73354535  1
  O  O17  1  0.24908624  0.45976582  0.26645465  1
  O  O18  1  0.50000000  0.75000000  0.27672500  1
  O  O19  1  -0.00000000  0.25000000  0.72327500  1
  O  O20  1  0.50000000  0.25000000  0.70342954  1
  O  O21  1  -0.00000000  0.75000000  0.29657046  1
