# generated using pymatgen
data_Sr4GeAs4
_symmetry_space_group_name_H-M   'P 1'
_cell_length_a   12.85444129
_cell_length_b   12.85444129
_cell_length_c   12.85444129
_cell_angle_alpha   90.00000000
_cell_angle_beta   90.00000000
_cell_angle_gamma   90.00000000
_symmetry_Int_Tables_number   1
_chemical_formula_structural   Sr4GeAs4
_chemical_formula_sum   'Sr32 Ge8 As32'
_cell_volume   2124.02495621
_cell_formula_units_Z   8
loop_
 _symmetry_equiv_pos_site_id
 _symmetry_equiv_pos_as_xyz
  1  'x, y, z'
loop_
 _atom_site_type_symbol
 _atom_site_label
 _atom_site_symmetry_multiplicity
 _atom_site_fract_x
 _atom_site_fract_y
 _atom_site_fract_z
 _atom_site_occupancy
  Sr  Sr0  1  0.13126181  0.64323986  0.09774580  1
  Sr  Sr1  1  0.35676014  0.90225420  0.13126181  1
  Sr  Sr2  1  0.09774580  0.86873819  0.35676014  1
  Sr  Sr3  1  0.86873819  0.35676014  0.09774580  1
  Sr  Sr4  1  0.64323986  0.09774580  0.13126181  1
  Sr  Sr5  1  0.90225420  0.13126181  0.35676014  1
  Sr  Sr6  1  0.13126181  0.35676014  0.90225420  1
  Sr  Sr7  1  0.35676014  0.09774580  0.86873819  1
  Sr  Sr8  1  0.09774580  0.13126181  0.64323986  1
  Sr  Sr9  1  0.86873819  0.64323986  0.90225420  1
  Sr  Sr10  1  0.64323986  0.90225420  0.86873819  1
  Sr  Sr11  1  0.90225420  0.86873819  0.64323986  1
  Sr  Sr12  1  0.63126181  0.59774580  0.14323986  1
  Sr  Sr13  1  0.85676014  0.63126181  0.40225420  1
  Sr  Sr14  1  0.59774580  0.85676014  0.36873819  1
  Sr  Sr15  1  0.36873819  0.59774580  0.85676014  1
  Sr  Sr16  1  0.14323986  0.63126181  0.59774580  1
  Sr  Sr17  1  0.40225420  0.85676014  0.63126181  1
  Sr  Sr18  1  0.63126181  0.40225420  0.85676014  1
  Sr  Sr19  1  0.85676014  0.36873819  0.59774580  1
  Sr  Sr20  1  0.59774580  0.14323986  0.63126181  1
  Sr  Sr21  1  0.36873819  0.40225420  0.14323986  1
  Sr  Sr22  1  0.14323986  0.36873819  0.40225420  1
  Sr  Sr23  1  0.40225420  0.14323986  0.36873819  1
  Sr  Sr24  1  0.85666685  0.14333315  0.85666685  1
  Sr  Sr25  1  0.14333315  0.85666685  0.85666685  1
  Sr  Sr26  1  0.85666685  0.85666685  0.14333315  1
  Sr  Sr27  1  0.14333315  0.14333315  0.14333315  1
  Sr  Sr28  1  0.35666685  0.35666685  0.64333315  1
  Sr  Sr29  1  0.64333315  0.35666685  0.35666685  1
  Sr  Sr30  1  0.35666685  0.64333315  0.35666685  1
  Sr  Sr31  1  0.64333315  0.64333315  0.64333315  1
  Ge  Ge32  1  -0.00000000  0.50000000  0.25000000  1
  Ge  Ge33  1  0.50000000  0.75000000  -0.00000000  1
  Ge  Ge34  1  0.25000000  -0.00000000  0.50000000  1
  Ge  Ge35  1  0.50000000  0.25000000  -0.00000000  1
  Ge  Ge36  1  0.75000000  -0.00000000  0.50000000  1
  Ge  Ge37  1  -0.00000000  0.50000000  0.75000000  1
  Ge  Ge38  1  0.50000000  0.50000000  0.50000000  1
  Ge  Ge39  1  -0.00000000  -0.00000000  -0.00000000  1
  As  As40  1  0.10837517  0.61939401  0.35365548  1
  As  As41  1  0.38060599  0.64634452  0.10837517  1
  As  As42  1  0.35365548  0.89162483  0.38060599  1
  As  As43  1  0.89162483  0.38060599  0.35365548  1
  As  As44  1  0.61939401  0.35365548  0.10837517  1
  As  As45  1  0.64634452  0.10837517  0.38060599  1
  As  As46  1  0.10837517  0.38060599  0.64634452  1
  As  As47  1  0.38060599  0.35365548  0.89162483  1
  As  As48  1  0.35365548  0.10837517  0.61939401  1
  As  As49  1  0.89162483  0.61939401  0.64634452  1
  As  As50  1  0.61939401  0.64634452  0.89162483  1
  As  As51  1  0.64634452  0.89162483  0.61939401  1
  As  As52  1  0.60837517  0.85365548  0.11939401  1
  As  As53  1  0.88060599  0.60837517  0.14634452  1
  As  As54  1  0.85365548  0.88060599  0.39162483  1
  As  As55  1  0.39162483  0.85365548  0.88060599  1
  As  As56  1  0.11939401  0.60837517  0.85365548  1
  As  As57  1  0.14634452  0.88060599  0.60837517  1
  As  As58  1  0.60837517  0.14634452  0.88060599  1
  As  As59  1  0.88060599  0.39162483  0.85365548  1
  As  As60  1  0.85365548  0.11939401  0.60837517  1
  As  As61  1  0.39162483  0.14634452  0.11939401  1
  As  As62  1  0.11939401  0.39162483  0.14634452  1
  As  As63  1  0.14634452  0.11939401  0.39162483  1
  As  As64  1  0.11007765  0.88992235  0.11007765  1
  As  As65  1  0.88992235  0.11007765  0.11007765  1
  As  As66  1  0.11007765  0.11007765  0.88992235  1
  As  As67  1  0.88992235  0.88992235  0.88992235  1
  As  As68  1  0.61007765  0.61007765  0.38992235  1
  As  As69  1  0.38992235  0.61007765  0.61007765  1
  As  As70  1  0.61007765  0.38992235  0.61007765  1
  As  As71  1  0.38992235  0.38992235  0.38992235  1
