# generated using pymatgen
data_Sr2TlBr5
_symmetry_space_group_name_H-M   'P 1'
_cell_length_a   8.35195422
_cell_length_b   9.36059218
_cell_length_c   13.40028773
_cell_angle_alpha   90.10974560
_cell_angle_beta   90.00000000
_cell_angle_gamma   90.00000000
_symmetry_Int_Tables_number   1
_chemical_formula_structural   Sr2TlBr5
_chemical_formula_sum   'Sr8 Tl4 Br20'
_cell_volume   1047.62235357
_cell_formula_units_Z   4
loop_
 _symmetry_equiv_pos_site_id
 _symmetry_equiv_pos_as_xyz
  1  'x, y, z'
loop_
 _atom_site_type_symbol
 _atom_site_label
 _atom_site_symmetry_multiplicity
 _atom_site_fract_x
 _atom_site_fract_y
 _atom_site_fract_z
 _atom_site_occupancy
  Sr  Sr0  1  0.47483796  -0.00124147  0.82163795  1
  Sr  Sr1  1  0.52516204  0.00124147  0.17836205  1
  Sr  Sr2  1  0.97483796  0.00124147  0.67836205  1
  Sr  Sr3  1  0.02516204  -0.00124147  0.32163795  1
  Sr  Sr4  1  0.42941135  0.75014427  0.50558780  1
  Sr  Sr5  1  0.57058865  0.24985573  0.49441220  1
  Sr  Sr6  1  0.92941135  0.24985573  0.99441220  1
  Sr  Sr7  1  0.07058865  0.75014427  0.00558780  1
  Tl  Tl8  1  0.46809322  0.49415916  0.82922246  1
  Tl  Tl9  1  0.53190678  0.50584084  0.17077754  1
  Tl  Tl10  1  0.96809322  0.50584084  0.67077754  1
  Tl  Tl11  1  0.03190678  0.49415916  0.32922246  1
  Br  Br12  1  0.33454588  0.46372531  0.59325457  1
  Br  Br13  1  0.66545412  0.53627469  0.40674543  1
  Br  Br14  1  0.83454588  0.53627469  0.90674543  1
  Br  Br15  1  0.16545412  0.46372531  0.09325457  1
  Br  Br16  1  0.66756176  0.78045810  0.68335263  1
  Br  Br17  1  0.33243824  0.21954190  0.31664737  1
  Br  Br18  1  0.16756176  0.21954190  0.81664737  1
  Br  Br19  1  0.83243824  0.78045810  0.18335263  1
  Br  Br20  1  0.19193393  0.77024456  0.78274480  1
  Br  Br21  1  0.80806607  0.22975544  0.21725520  1
  Br  Br22  1  0.69193393  0.22975544  0.71725520  1
  Br  Br23  1  0.30806607  0.77024456  0.28274480  1
  Br  Br24  1  0.04471587  0.78069696  0.50236682  1
  Br  Br25  1  0.95528413  0.21930304  0.49763318  1
  Br  Br26  1  0.54471587  0.21930304  0.99763318  1
  Br  Br27  1  0.45528413  0.78069696  0.00236682  1
  Br  Br28  1  0.83751079  0.95944894  0.90079142  1
  Br  Br29  1  0.16248921  0.04055106  0.09920858  1
  Br  Br30  1  0.33751079  0.04055106  0.59920858  1
  Br  Br31  1  0.66248921  0.95944894  0.40079142  1
