# generated using pymatgen
data_Mg6AlFeO8
_symmetry_space_group_name_H-M   'P 1'
_cell_length_a   8.59899831
_cell_length_b   4.25066817
_cell_length_c   4.25066817
_cell_angle_alpha   90.00000000
_cell_angle_beta   90.00000000
_cell_angle_gamma   90.00000000
_symmetry_Int_Tables_number   1
_chemical_formula_structural   Mg6AlFeO8
_chemical_formula_sum   'Mg6 Al1 Fe1 O8'
_cell_volume   155.36824835
_cell_formula_units_Z   1
loop_
 _symmetry_equiv_pos_site_id
 _symmetry_equiv_pos_as_xyz
  1  'x, y, z'
loop_
 _atom_site_type_symbol
 _atom_site_label
 _atom_site_symmetry_multiplicity
 _atom_site_fract_x
 _atom_site_fract_y
 _atom_site_fract_z
 _atom_site_occupancy
  Mg  Mg0  1  0.00000000  0.50000000  0.50000000  1
  Mg  Mg1  1  0.50000000  0.50000000  0.50000000  1
  Mg  Mg2  1  0.25780846  0.00000000  0.50000000  1
  Mg  Mg3  1  0.74219154  0.00000000  0.50000000  1
  Mg  Mg4  1  0.25780846  0.50000000  0.00000000  1
  Mg  Mg5  1  0.74219154  0.50000000  0.00000000  1
  Al  Al6  1  0.00000000  0.00000000  0.00000000  1
  Fe  Fe7  1  0.50000000  0.00000000  0.00000000  1
  O  O8  1  0.21107492  0.00000000  0.00000000  1
  O  O9  1  0.78892508  0.00000000  0.00000000  1
  O  O10  1  0.24879263  0.50000000  0.50000000  1
  O  O11  1  0.75120737  0.50000000  0.50000000  1
  O  O12  1  0.00000000  0.00000000  0.50000000  1
  O  O13  1  0.50000000  0.00000000  0.50000000  1
  O  O14  1  0.00000000  0.50000000  0.00000000  1
  O  O15  1  0.50000000  0.50000000  0.00000000  1
