# generated using pymatgen
data_Na2SmCl5
_symmetry_space_group_name_H-M   'P 1'
_cell_length_a   7.68415653
_cell_length_b   8.30175440
_cell_length_c   12.00980329
_cell_angle_alpha   90.00000000
_cell_angle_beta   90.00000000
_cell_angle_gamma   90.00000000
_symmetry_Int_Tables_number   1
_chemical_formula_structural   Na2SmCl5
_chemical_formula_sum   'Na8 Sm4 Cl20'
_cell_volume   766.12913468
_cell_formula_units_Z   4
loop_
 _symmetry_equiv_pos_site_id
 _symmetry_equiv_pos_as_xyz
  1  'x, y, z'
loop_
 _atom_site_type_symbol
 _atom_site_label
 _atom_site_symmetry_multiplicity
 _atom_site_fract_x
 _atom_site_fract_y
 _atom_site_fract_z
 _atom_site_occupancy
  Na  Na0  1  0.52097770  0.50355947  0.67744239  1
  Na  Na1  1  0.47902230  0.49644053  0.32255761  1
  Na  Na2  1  0.02097770  0.49644053  0.82255761  1
  Na  Na3  1  0.47902230  0.00355947  0.32255761  1
  Na  Na4  1  0.97902230  0.50355947  0.17744239  1
  Na  Na5  1  0.52097770  -0.00355947  0.67744239  1
  Na  Na6  1  0.97902230  -0.00355947  0.17744239  1
  Na  Na7  1  0.02097770  0.00355947  0.82255761  1
  Sm  Sm8  1  0.58610235  0.75000000  0.99342052  1
  Sm  Sm9  1  0.41389765  0.25000000  0.00657948  1
  Sm  Sm10  1  0.08610235  0.25000000  0.50657948  1
  Sm  Sm11  1  0.91389765  0.75000000  0.49342052  1
  Cl  Cl12  1  0.35551782  0.75000000  0.81940408  1
  Cl  Cl13  1  0.64448218  0.25000000  0.18059592  1
  Cl  Cl14  1  0.85551782  0.25000000  0.68059592  1
  Cl  Cl15  1  0.14448218  0.75000000  0.31940408  1
  Cl  Cl16  1  0.66277621  0.45425799  0.90866250  1
  Cl  Cl17  1  0.33722379  0.54574201  0.09133750  1
  Cl  Cl18  1  0.16277621  0.54574201  0.59133750  1
  Cl  Cl19  1  0.33722379  0.95425799  0.09133750  1
  Cl  Cl20  1  0.83722379  0.45425799  0.40866250  1
  Cl  Cl21  1  0.66277621  0.04574201  0.90866250  1
  Cl  Cl22  1  0.83722379  0.04574201  0.40866250  1
  Cl  Cl23  1  0.16277621  0.95425799  0.59133750  1
  Cl  Cl24  1  0.94610481  0.75000000  0.99501198  1
  Cl  Cl25  1  0.05389519  0.25000000  0.00498802  1
  Cl  Cl26  1  0.44610481  0.25000000  0.50498802  1
  Cl  Cl27  1  0.55389519  0.75000000  0.49501198  1
  Cl  Cl28  1  0.81685240  0.75000000  0.71508579  1
  Cl  Cl29  1  0.18314760  0.25000000  0.28491421  1
  Cl  Cl30  1  0.31685240  0.25000000  0.78491421  1
  Cl  Cl31  1  0.68314760  0.75000000  0.21508579  1
