# generated using pymatgen
data_KSm(WO4)2
_symmetry_space_group_name_H-M   'P 1'
_cell_length_a   7.54024558
_cell_length_b   7.54024558
_cell_length_c   7.58852449
_cell_angle_alpha   62.20348966
_cell_angle_beta   62.20348966
_cell_angle_gamma   88.85876869
_symmetry_Int_Tables_number   1
_chemical_formula_structural   KSm(WO4)2
_chemical_formula_sum   'K2 Sm2 W4 O16'
_cell_volume   326.68705132
_cell_formula_units_Z   2
loop_
 _symmetry_equiv_pos_site_id
 _symmetry_equiv_pos_as_xyz
  1  'x, y, z'
loop_
 _atom_site_type_symbol
 _atom_site_label
 _atom_site_symmetry_multiplicity
 _atom_site_fract_x
 _atom_site_fract_y
 _atom_site_fract_z
 _atom_site_occupancy
  K  K0  1  0.20344125  0.79655875  0.75000000  1
  K  K1  1  0.79655875  0.20344125  0.25000000  1
  Sm  Sm2  1  0.77236445  0.22763555  0.75000000  1
  Sm  Sm3  1  0.22763555  0.77236445  0.25000000  1
  W  W4  1  0.69547580  0.69493492  0.76514975  1
  W  W5  1  0.30452420  0.30506508  0.23485025  1
  W  W6  1  0.30506508  0.30452420  0.73485025  1
  W  W7  1  0.69493492  0.69547580  0.26514975  1
  O  O8  1  0.61816733  0.76218200  0.55545636  1
  O  O9  1  0.38183267  0.23781800  0.44454364  1
  O  O10  1  0.23781800  0.38183267  0.94454364  1
  O  O11  1  0.76218200  0.61816733  0.05545636  1
  O  O12  1  0.38631273  0.07135856  0.86874156  1
  O  O13  1  0.61368727  0.92864144  0.13125844  1
  O  O14  1  0.92864144  0.61368727  0.63125844  1
  O  O15  1  0.07135856  0.38631273  0.36874156  1
  O  O16  1  0.58289262  0.36886225  0.97462284  1
  O  O17  1  0.41710738  0.63113775  0.02537716  1
  O  O18  1  0.63113775  0.41710738  0.52537716  1
  O  O19  1  0.36886225  0.58289262  0.47462284  1
  O  O20  1  0.79286142  0.95220992  0.68499642  1
  O  O21  1  0.20713858  0.04779008  0.31500358  1
  O  O22  1  0.04779008  0.20713858  0.81500358  1
  O  O23  1  0.95220992  0.79286142  0.18499642  1
