# generated using pymatgen
data_Ge19(SbBr)4
_symmetry_space_group_name_H-M   'P 1'
_cell_length_a   10.98573612
_cell_length_b   10.98573612
_cell_length_c   10.98573612
_cell_angle_alpha   90.00000000
_cell_angle_beta   90.00000000
_cell_angle_gamma   90.00000000
_symmetry_Int_Tables_number   1
_chemical_formula_structural   Ge19(SbBr)4
_chemical_formula_sum   'Ge38 Sb8 Br8'
_cell_volume   1325.82892278
_cell_formula_units_Z   2
loop_
 _symmetry_equiv_pos_site_id
 _symmetry_equiv_pos_as_xyz
  1  'x, y, z'
loop_
 _atom_site_type_symbol
 _atom_site_label
 _atom_site_symmetry_multiplicity
 _atom_site_fract_x
 _atom_site_fract_y
 _atom_site_fract_z
 _atom_site_occupancy
  Ge  Ge0  1  0.32317456  0.32317456  0.32317456  1
  Ge  Ge1  1  0.67682544  0.67682544  0.32317456  1
  Ge  Ge2  1  0.67682544  0.32317456  0.67682544  1
  Ge  Ge3  1  0.82317456  0.82317456  0.82317456  1
  Ge  Ge4  1  0.32317456  0.67682544  0.67682544  1
  Ge  Ge5  1  0.17682544  0.17682544  0.82317456  1
  Ge  Ge6  1  0.82317456  0.17682544  0.17682544  1
  Ge  Ge7  1  0.17682544  0.82317456  0.17682544  1
  Ge  Ge8  1  0.99060188  0.11448129  0.31530665  1
  Ge  Ge9  1  0.00939812  0.88551871  0.31530665  1
  Ge  Ge10  1  0.00939812  0.11448129  0.68469335  1
  Ge  Ge11  1  0.31530665  0.99060188  0.11448129  1
  Ge  Ge12  1  0.61448129  0.49060188  0.81530665  1
  Ge  Ge13  1  0.99060188  0.88551871  0.68469335  1
  Ge  Ge14  1  0.31530665  0.00939812  0.88551871  1
  Ge  Ge15  1  0.38551871  0.50939812  0.81530665  1
  Ge  Ge16  1  0.68469335  0.00939812  0.11448129  1
  Ge  Ge17  1  0.61448129  0.50939812  0.18469335  1
  Ge  Ge18  1  0.68469335  0.99060188  0.88551871  1
  Ge  Ge19  1  0.38551871  0.49060188  0.18469335  1
  Ge  Ge20  1  0.11448129  0.31530665  0.99060188  1
  Ge  Ge21  1  0.49060188  0.81530665  0.61448129  1
  Ge  Ge22  1  0.11448129  0.68469335  0.00939812  1
  Ge  Ge23  1  0.50939812  0.18469335  0.61448129  1
  Ge  Ge24  1  0.88551871  0.68469335  0.99060188  1
  Ge  Ge25  1  0.49060188  0.18469335  0.38551871  1
  Ge  Ge26  1  0.88551871  0.31530665  0.00939812  1
  Ge  Ge27  1  0.50939812  0.81530665  0.38551871  1
  Ge  Ge28  1  0.81530665  0.61448129  0.49060188  1
  Ge  Ge29  1  0.81530665  0.38551871  0.50939812  1
  Ge  Ge30  1  0.18469335  0.38551871  0.49060188  1
  Ge  Ge31  1  0.18469335  0.61448129  0.50939812  1
  Ge  Ge32  1  0.25000000  0.50000000  -0.00000000  1
  Ge  Ge33  1  0.75000000  0.50000000  -0.00000000  1
  Ge  Ge34  1  -0.00000000  0.25000000  0.50000000  1
  Ge  Ge35  1  -0.00000000  0.75000000  0.50000000  1
  Ge  Ge36  1  0.50000000  -0.00000000  0.25000000  1
  Ge  Ge37  1  0.50000000  -0.00000000  0.75000000  1
  Sb  Sb38  1  0.18424369  0.18424369  0.18424369  1
  Sb  Sb39  1  0.81575631  0.81575631  0.18424369  1
  Sb  Sb40  1  0.81575631  0.18424369  0.81575631  1
  Sb  Sb41  1  0.68424369  0.68424369  0.68424369  1
  Sb  Sb42  1  0.18424369  0.81575631  0.81575631  1
  Sb  Sb43  1  0.31575631  0.31575631  0.68424369  1
  Sb  Sb44  1  0.68424369  0.31575631  0.31575631  1
  Sb  Sb45  1  0.31575631  0.68424369  0.31575631  1
  Br  Br46  1  0.25000000  -0.00000000  0.50000000  1
  Br  Br47  1  0.75000000  -0.00000000  0.50000000  1
  Br  Br48  1  0.50000000  0.25000000  -0.00000000  1
  Br  Br49  1  0.50000000  0.75000000  -0.00000000  1
  Br  Br50  1  -0.00000000  0.50000000  0.25000000  1
  Br  Br51  1  -0.00000000  0.50000000  0.75000000  1
  Br  Br52  1  -0.00000000  -0.00000000  -0.00000000  1
  Br  Br53  1  0.50000000  0.50000000  0.50000000  1
