# generated using pymatgen
data_Sr2MgZn2Sn2(PO4)4
_symmetry_space_group_name_H-M   'P 1'
_cell_length_a   6.36594681
_cell_length_b   7.72298107
_cell_length_c   9.48922617
_cell_angle_alpha   104.40818034
_cell_angle_beta   109.75021370
_cell_angle_gamma   106.13308737
_symmetry_Int_Tables_number   1
_chemical_formula_structural   Sr2MgZn2Sn2(PO4)4
_chemical_formula_sum   'Sr2 Mg1 Zn2 Sn2 P4 O16'
_cell_volume   390.31352433
_cell_formula_units_Z   1
loop_
 _symmetry_equiv_pos_site_id
 _symmetry_equiv_pos_as_xyz
  1  'x, y, z'
loop_
 _atom_site_type_symbol
 _atom_site_label
 _atom_site_symmetry_multiplicity
 _atom_site_fract_x
 _atom_site_fract_y
 _atom_site_fract_z
 _atom_site_occupancy
  Sr  Sr0  1  0.24267958  0.63727165  0.93929040  1
  Sr  Sr1  1  0.75732042  0.36272835  0.06070960  1
  Mg  Mg2  1  0.00000000  0.00000000  0.00000000  1
  Zn  Zn3  1  0.16214857  0.26224139  0.57114968  1
  Zn  Zn4  1  0.83785143  0.73775861  0.42885032  1
  Sn  Sn5  1  0.52370326  0.82094305  0.52545168  1
  Sn  Sn6  1  0.47629674  0.17905695  0.47454832  1
  P  P7  1  0.30999390  0.39305483  0.19728749  1
  P  P8  1  0.69000610  0.60694517  0.80271251  1
  P  P9  1  0.75787995  0.01774677  0.26013181  1
  P  P10  1  0.24212005  0.98225323  0.73986819  1
  O  O11  1  0.88285305  0.68227030  0.98260581  1
  O  O12  1  0.56514718  0.51200418  0.21292763  1
  O  O13  1  0.68599257  0.79787831  0.77529255  1
  O  O14  1  0.06390243  0.07908625  0.67679062  1
  O  O15  1  0.43485282  0.48799582  0.78707237  1
  O  O16  1  0.17538001  0.78721667  0.59231653  1
  O  O17  1  0.82461999  0.21278333  0.40768347  1
  O  O18  1  0.20407862  0.92890729  0.87906465  1
  O  O19  1  0.31400743  0.20212169  0.22470745  1
  O  O20  1  0.79592138  0.07109271  0.12093535  1
  O  O21  1  0.11714695  0.31772870  0.01739419  1
  O  O22  1  0.22513268  0.51740847  0.30362726  1
  O  O23  1  0.77486732  0.48259153  0.69637274  1
  O  O24  1  0.49338222  0.88670829  0.20796627  1
  O  O25  1  0.93609757  0.92091375  0.32320938  1
  O  O26  1  0.50661778  0.11329171  0.79203373  1
