# generated using pymatgen
data_TlCl3
_symmetry_space_group_name_H-M   'P 1'
_cell_length_a   6.49378151
_cell_length_b   6.64574023
_cell_length_c   6.64341525
_cell_angle_alpha   59.98841951
_cell_angle_beta   80.45092985
_cell_angle_gamma   70.62991902
_symmetry_Int_Tables_number   1
_chemical_formula_structural   TlCl3
_chemical_formula_sum   'Tl2 Cl6'
_cell_volume   234.21051778
_cell_formula_units_Z   2
loop_
 _symmetry_equiv_pos_site_id
 _symmetry_equiv_pos_as_xyz
  1  'x, y, z'
loop_
 _atom_site_type_symbol
 _atom_site_label
 _atom_site_symmetry_multiplicity
 _atom_site_fract_x
 _atom_site_fract_y
 _atom_site_fract_z
 _atom_site_occupancy
  Tl  Tl0  1  -0.00000000  0.16645222  0.66709556  1
  Tl  Tl1  1  0.00000000  0.83354778  0.33290444  1
  Cl  Cl2  1  0.24209901  0.06938378  0.35225089  1
  Cl  Cl3  1  0.75790099  0.93061622  0.64774911  1
  Cl  Cl4  1  0.75790099  0.57836432  0.35225089  1
  Cl  Cl5  1  0.24209901  0.42163568  0.64774911  1
  Cl  Cl6  1  0.24461257  0.77518246  -0.00000000  1
  Cl  Cl7  1  0.75538743  0.22481754  0.00000000  1
