# generated using pymatgen
data_RbAg2SbS4
_symmetry_space_group_name_H-M   'P 1'
_cell_length_a   6.66367908
_cell_length_b   6.66367908
_cell_length_c   16.77187190
_cell_angle_alpha   90.00000000
_cell_angle_beta   90.00000000
_cell_angle_gamma   119.99999302
_symmetry_Int_Tables_number   1
_chemical_formula_structural   RbAg2SbS4
_chemical_formula_sum   'Rb3 Ag6 Sb3 S12'
_cell_volume   644.97123414
_cell_formula_units_Z   3
loop_
 _symmetry_equiv_pos_site_id
 _symmetry_equiv_pos_as_xyz
  1  'x, y, z'
loop_
 _atom_site_type_symbol
 _atom_site_label
 _atom_site_symmetry_multiplicity
 _atom_site_fract_x
 _atom_site_fract_y
 _atom_site_fract_z
 _atom_site_occupancy
  Rb  Rb0  1  1.00000000  0.55695483  0.83333300  1
  Rb  Rb1  1  0.55695483  1.00000000  0.16666700  1
  Rb  Rb2  1  0.44304517  0.44304517  0.50000000  1
  Ag  Ag3  1  0.90773775  0.60123350  0.07279865  1
  Ag  Ag4  1  0.69349574  0.09226225  0.40613265  1
  Ag  Ag5  1  0.39876650  0.30650426  0.73946565  1
  Ag  Ag6  1  0.09226225  0.69349574  0.59386735  1
  Ag  Ag7  1  0.60123350  0.90773775  0.92720135  1
  Ag  Ag8  1  0.30650426  0.39876650  0.26053435  1
  Sb  Sb9  1  0.71998053  0.00000000  0.66666700  1
  Sb  Sb10  1  0.00000000  0.71998053  0.33333300  1
  Sb  Sb11  1  0.28001947  0.28001947  0.00000000  1
  S  S12  1  0.66829639  0.76192444  0.32709164  1
  S  S13  1  0.23807556  0.90637195  0.99375864  1
  S  S14  1  0.09362805  0.33170361  0.66042464  1
  S  S15  1  0.90637195  0.23807556  0.00624136  1
  S  S16  1  0.33170361  0.09362805  0.33957536  1
  S  S17  1  0.76192444  0.66829639  0.67290836  1
  S  S18  1  0.97722605  0.50084517  0.44694874  1
  S  S19  1  0.50084517  0.97722605  0.55305126  1
  S  S20  1  0.52361913  0.02277395  0.78028174  1
  S  S21  1  0.47638087  0.49915483  0.88638526  1
  S  S22  1  0.02277395  0.52361913  0.21971826  1
  S  S23  1  0.49915483  0.47638087  0.11361474  1
