# generated using pymatgen
data_Cs4PbCl6
_symmetry_space_group_name_H-M   'P 1'
_cell_length_a   9.47071137
_cell_length_b   9.47071137
_cell_length_c   9.47071175
_cell_angle_alpha   88.78880868
_cell_angle_beta   88.78880868
_cell_angle_gamma   88.78880632
_symmetry_Int_Tables_number   1
_chemical_formula_structural   Cs4PbCl6
_chemical_formula_sum   'Cs8 Pb2 Cl12'
_cell_volume   848.90807848
_cell_formula_units_Z   2
loop_
 _symmetry_equiv_pos_site_id
 _symmetry_equiv_pos_as_xyz
  1  'x, y, z'
loop_
 _atom_site_type_symbol
 _atom_site_label
 _atom_site_symmetry_multiplicity
 _atom_site_fract_x
 _atom_site_fract_y
 _atom_site_fract_z
 _atom_site_occupancy
  Cs  Cs0  1  0.25000000  0.25000000  0.25000000  1
  Cs  Cs1  1  0.75000000  0.75000000  0.75000000  1
  Cs  Cs2  1  0.87718787  0.62281213  0.25000000  1
  Cs  Cs3  1  0.25000000  0.87718787  0.62281213  1
  Cs  Cs4  1  0.62281213  0.25000000  0.87718787  1
  Cs  Cs5  1  0.75000000  0.12281213  0.37718787  1
  Cs  Cs6  1  0.37718787  0.75000000  0.12281213  1
  Cs  Cs7  1  0.12281213  0.37718787  0.75000000  1
  Pb  Pb8  1  0.50000000  0.50000000  0.50000000  1
  Pb  Pb9  1  -0.00000000  -0.00000000  0.00000000  1
  Cl  Cl10  1  0.20880474  0.56222414  0.42635125  1
  Cl  Cl11  1  0.42635125  0.20880474  0.56222414  1
  Cl  Cl12  1  0.56222414  0.42635125  0.20880474  1
  Cl  Cl13  1  0.92635125  0.06222414  0.70880474  1
  Cl  Cl14  1  0.70880474  0.92635125  0.06222414  1
  Cl  Cl15  1  0.06222414  0.70880474  0.92635125  1
  Cl  Cl16  1  0.79119526  0.43777586  0.57364875  1
  Cl  Cl17  1  0.57364875  0.79119526  0.43777586  1
  Cl  Cl18  1  0.43777586  0.57364875  0.79119526  1
  Cl  Cl19  1  0.07364875  0.93777586  0.29119526  1
  Cl  Cl20  1  0.29119526  0.07364875  0.93777586  1
  Cl  Cl21  1  0.93777586  0.29119526  0.07364875  1
