# generated using pymatgen
data_SbTeIr
_symmetry_space_group_name_H-M   'P 1'
_cell_length_a   6.44788170
_cell_length_b   6.44788170
_cell_length_c   6.44788170
_cell_angle_alpha   90.00000000
_cell_angle_beta   90.00000000
_cell_angle_gamma   90.00000000
_symmetry_Int_Tables_number   1
_chemical_formula_structural   SbTeIr
_chemical_formula_sum   'Sb4 Te4 Ir4'
_cell_volume   268.07183209
_cell_formula_units_Z   4
loop_
 _symmetry_equiv_pos_site_id
 _symmetry_equiv_pos_as_xyz
  1  'x, y, z'
loop_
 _atom_site_type_symbol
 _atom_site_label
 _atom_site_symmetry_multiplicity
 _atom_site_fract_x
 _atom_site_fract_y
 _atom_site_fract_z
 _atom_site_occupancy
  Sb  Sb0  1  0.87319151  0.37319151  0.12680849  1
  Sb  Sb1  1  0.37319151  0.12680849  0.87319151  1
  Sb  Sb2  1  0.12680849  0.87319151  0.37319151  1
  Sb  Sb3  1  0.62680849  0.62680849  0.62680849  1
  Te  Te4  1  0.12520138  0.62520138  0.87479862  1
  Te  Te5  1  0.62520138  0.87479862  0.12520138  1
  Te  Te6  1  0.87479862  0.12520138  0.62520138  1
  Te  Te7  1  0.37479862  0.37479862  0.37479862  1
  Ir  Ir8  1  0.49793218  0.99793218  0.50206782  1
  Ir  Ir9  1  0.99793218  0.50206782  0.49793218  1
  Ir  Ir10  1  0.50206782  0.49793218  0.99793218  1
  Ir  Ir11  1  0.00206782  0.00206782  0.00206782  1
