# generated using pymatgen
data_Te6IrBr3
_symmetry_space_group_name_H-M   'P 1'
_cell_length_a   9.30018628
_cell_length_b   9.30018628
_cell_length_c   9.30018661
_cell_angle_alpha   108.11488521
_cell_angle_beta   108.11488521
_cell_angle_gamma   108.11488403
_symmetry_Int_Tables_number   1
_chemical_formula_structural   Te6IrBr3
_chemical_formula_sum   'Te12 Ir2 Br6'
_cell_volume   648.46449358
_cell_formula_units_Z   2
loop_
 _symmetry_equiv_pos_site_id
 _symmetry_equiv_pos_as_xyz
  1  'x, y, z'
loop_
 _atom_site_type_symbol
 _atom_site_label
 _atom_site_symmetry_multiplicity
 _atom_site_fract_x
 _atom_site_fract_y
 _atom_site_fract_z
 _atom_site_occupancy
  Te  Te0  1  0.92667040  0.17007714  0.18881301  1
  Te  Te1  1  0.18881301  0.92667040  0.17007714  1
  Te  Te2  1  0.17007714  0.18881301  0.92667040  1
  Te  Te3  1  0.68881301  0.67007714  0.42667040  1
  Te  Te4  1  0.42667040  0.68881301  0.67007714  1
  Te  Te5  1  0.67007714  0.42667040  0.68881301  1
  Te  Te6  1  0.07332960  0.82992286  0.81118699  1
  Te  Te7  1  0.81118699  0.07332960  0.82992286  1
  Te  Te8  1  0.82992286  0.81118699  0.07332960  1
  Te  Te9  1  0.31118699  0.32992286  0.57332960  1
  Te  Te10  1  0.57332960  0.31118699  0.32992286  1
  Te  Te11  1  0.32992286  0.57332960  0.31118699  1
  Ir  Ir12  1  0.25000000  0.25000000  0.25000000  1
  Ir  Ir13  1  0.75000000  0.75000000  0.75000000  1
  Br  Br14  1  0.98325168  0.51674832  0.25000000  1
  Br  Br15  1  0.25000000  0.98325168  0.51674832  1
  Br  Br16  1  0.51674832  0.25000000  0.98325168  1
  Br  Br17  1  0.75000000  0.01674832  0.48325168  1
  Br  Br18  1  0.48325168  0.75000000  0.01674832  1
  Br  Br19  1  0.01674832  0.48325168  0.75000000  1
