# generated using pymatgen
data_Sc2(MoO4)3
_symmetry_space_group_name_H-M   'P 1'
_cell_length_a   9.59257344
_cell_length_b   9.68452672
_cell_length_c   13.27235624
_cell_angle_alpha   90.00000000
_cell_angle_beta   90.00000000
_cell_angle_gamma   90.00000000
_symmetry_Int_Tables_number   1
_chemical_formula_structural   Sc2(MoO4)3
_chemical_formula_sum   'Sc8 Mo12 O48'
_cell_volume   1232.99570703
_cell_formula_units_Z   4
loop_
 _symmetry_equiv_pos_site_id
 _symmetry_equiv_pos_as_xyz
  1  'x, y, z'
loop_
 _atom_site_type_symbol
 _atom_site_label
 _atom_site_symmetry_multiplicity
 _atom_site_fract_x
 _atom_site_fract_y
 _atom_site_fract_z
 _atom_site_occupancy
  Sc  Sc0  1  0.25083978  0.46426867  0.11983386  1
  Sc  Sc1  1  0.25083978  0.03573133  0.88016614  1
  Sc  Sc2  1  0.24916022  0.96426867  0.38016614  1
  Sc  Sc3  1  0.24916022  0.53573133  0.61983386  1
  Sc  Sc4  1  0.74916022  0.53573133  0.88016614  1
  Sc  Sc5  1  0.74916022  0.96426867  0.11983386  1
  Sc  Sc6  1  0.75083978  0.03573133  0.61983386  1
  Sc  Sc7  1  0.75083978  0.46426867  0.38016614  1
  Mo  Mo8  1  0.39730484  0.88077280  0.64458957  1
  Mo  Mo9  1  0.39730484  0.61922720  0.35541043  1
  Mo  Mo10  1  0.10269516  0.38077280  0.85541043  1
  Mo  Mo11  1  0.10269516  0.11922720  0.14458957  1
  Mo  Mo12  1  0.89730484  0.88077280  0.85541043  1
  Mo  Mo13  1  0.89730484  0.61922720  0.14458957  1
  Mo  Mo14  1  0.60269516  0.38077280  0.64458957  1
  Mo  Mo15  1  0.60269516  0.11922720  0.35541043  1
  Mo  Mo16  1  0.02626817  0.25000000  0.50000000  1
  Mo  Mo17  1  0.47373183  0.75000000  0.00000000  1
  Mo  Mo18  1  0.97373183  0.75000000  0.50000000  1
  Mo  Mo19  1  0.52626817  0.25000000  0.00000000  1
  O  O20  1  0.13153516  0.12621547  0.43982892  1
  O  O21  1  0.13153516  0.37378453  0.56017108  1
  O  O22  1  0.36846484  0.62621547  0.06017108  1
  O  O23  1  0.36846484  0.87378453  0.93982892  1
  O  O24  1  0.86846484  0.87378453  0.56017108  1
  O  O25  1  0.86846484  0.62621547  0.43982892  1
  O  O26  1  0.63153516  0.37378453  0.93982892  1
  O  O27  1  0.63153516  0.12621547  0.06017108  1
  O  O28  1  0.91925536  0.33045786  0.40957042  1
  O  O29  1  0.91925536  0.16954214  0.59042958  1
  O  O30  1  0.58074464  0.83045786  0.09042958  1
  O  O31  1  0.58074464  0.66954214  0.90957042  1
  O  O32  1  0.08074464  0.66954214  0.59042958  1
  O  O33  1  0.08074464  0.83045786  0.40957042  1
  O  O34  1  0.41925536  0.16954214  0.90957042  1
  O  O35  1  0.41925536  0.33045786  0.09042958  1
  O  O36  1  0.17446756  0.07881254  0.02637788  1
  O  O37  1  0.17446756  0.42118746  0.97362212  1
  O  O38  1  0.32553244  0.57881254  0.47362212  1
  O  O39  1  0.32553244  0.92118746  0.52637788  1
  O  O40  1  0.82553244  0.92118746  0.97362212  1
  O  O41  1  0.82553244  0.57881254  0.02637788  1
  O  O42  1  0.67446756  0.42118746  0.52637788  1
  O  O43  1  0.67446756  0.07881254  0.47362212  1
  O  O44  1  0.92123073  0.09270739  0.14146770  1
  O  O45  1  0.92123073  0.40729261  0.85853230  1
  O  O46  1  0.57876927  0.59270739  0.35853230  1
  O  O47  1  0.57876927  0.90729261  0.64146770  1
  O  O48  1  0.07876927  0.90729261  0.85853230  1
  O  O49  1  0.07876927  0.59270739  0.14146770  1
  O  O50  1  0.42123073  0.40729261  0.64146770  1
  O  O51  1  0.42123073  0.09270739  0.35853230  1
  O  O52  1  0.17793413  0.01197806  0.23688545  1
  O  O53  1  0.17793413  0.48802194  0.76311455  1
  O  O54  1  0.32206587  0.51197806  0.26311455  1
  O  O55  1  0.32206587  0.98802194  0.73688545  1
  O  O56  1  0.82206587  0.98802194  0.76311455  1
  O  O57  1  0.82206587  0.51197806  0.23688545  1
  O  O58  1  0.67793413  0.48802194  0.73688545  1
  O  O59  1  0.67793413  0.01197806  0.26311455  1
  O  O60  1  0.13663730  0.29389833  0.17221162  1
  O  O61  1  0.13663730  0.20610167  0.82778838  1
  O  O62  1  0.36336270  0.79389833  0.32778838  1
  O  O63  1  0.36336270  0.70610167  0.67221162  1
  O  O64  1  0.86336270  0.70610167  0.82778838  1
  O  O65  1  0.86336270  0.79389833  0.17221162  1
  O  O66  1  0.63663730  0.20610167  0.67221162  1
  O  O67  1  0.63663730  0.29389833  0.32778838  1
