# generated using pymatgen
data_MoWS4
_symmetry_space_group_name_H-M   'P 1'
_cell_length_a   3.18263671
_cell_length_b   3.18263671
_cell_length_c   34.81060479
_cell_angle_alpha   90.00000000
_cell_angle_beta   90.00000000
_cell_angle_gamma   119.99999240
_symmetry_Int_Tables_number   1
_chemical_formula_structural   MoWS4
_chemical_formula_sum   'Mo2 W2 S8'
_cell_volume   305.36296963
_cell_formula_units_Z   2
loop_
 _symmetry_equiv_pos_site_id
 _symmetry_equiv_pos_as_xyz
  1  'x, y, z'
loop_
 _atom_site_type_symbol
 _atom_site_label
 _atom_site_symmetry_multiplicity
 _atom_site_fract_x
 _atom_site_fract_y
 _atom_site_fract_z
 _atom_site_occupancy
  Mo  Mo0  1  0.00000000  -0.00000000  0.09424752  1
  Mo  Mo1  1  0.33333300  0.66666700  0.28170748  1
  W  W2  1  0.00000000  -0.00000000  0.46934119  1
  W  W3  1  0.33333300  0.66666700  0.65759097  1
  S  S4  1  0.00000000  0.00000000  0.32630245  1
  S  S5  1  0.00000000  0.00000000  0.70240192  1
  S  S6  1  0.33333300  0.66666700  0.04968113  1
  S  S7  1  0.33333300  0.66666700  0.42455261  1
  S  S8  1  0.33333300  0.66666700  0.13883647  1
  S  S9  1  0.33333300  0.66666700  0.51417000  1
  S  S10  1  -0.00000000  -0.00000000  0.23712865  1
  S  S11  1  -0.00000000  0.00000000  0.61278563  1
