# generated using pymatgen
data_NaTlO
_symmetry_space_group_name_H-M   'P 1'
_cell_length_a   3.48438652
_cell_length_b   3.48438652
_cell_length_c   11.39459163
_cell_angle_alpha   90.00000000
_cell_angle_beta   90.00000000
_cell_angle_gamma   119.99999612
_symmetry_Int_Tables_number   1
_chemical_formula_structural   NaTlO
_chemical_formula_sum   'Na2 Tl2 O2'
_cell_volume   119.80696389
_cell_formula_units_Z   2
loop_
 _symmetry_equiv_pos_site_id
 _symmetry_equiv_pos_as_xyz
  1  'x, y, z'
loop_
 _atom_site_type_symbol
 _atom_site_label
 _atom_site_symmetry_multiplicity
 _atom_site_fract_x
 _atom_site_fract_y
 _atom_site_fract_z
 _atom_site_occupancy
  Na  Na0  1  0.33333300  0.66666700  0.39388529  1
  Na  Na1  1  0.66666700  0.33333300  0.89388529  1
  Tl  Tl2  1  0.66666700  0.33333300  0.61571903  1
  Tl  Tl3  1  0.33333300  0.66666700  0.11571903  1
  O  O4  1  -0.00000000  -0.00000000  0.49039568  1
  O  O5  1  -0.00000000  -0.00000000  0.99039568  1
