# generated using pymatgen
data_SrMg3SiN4
_symmetry_space_group_name_H-M   'P 1'
_cell_length_a   10.59657791
_cell_length_b   10.59657791
_cell_length_c   10.59657791
_cell_angle_alpha   114.06784592
_cell_angle_beta   114.06784592
_cell_angle_gamma   100.62404067
_symmetry_Int_Tables_number   1
_chemical_formula_structural   SrMg3SiN4
_chemical_formula_sum   'Sr8 Mg24 Si8 N32'
_cell_volume   899.94356501
_cell_formula_units_Z   8
loop_
 _symmetry_equiv_pos_site_id
 _symmetry_equiv_pos_as_xyz
  1  'x, y, z'
loop_
 _atom_site_type_symbol
 _atom_site_label
 _atom_site_symmetry_multiplicity
 _atom_site_fract_x
 _atom_site_fract_y
 _atom_site_fract_z
 _atom_site_occupancy
  Sr  Sr0  1  0.56209349  0.04188384  0.99959458  1
  Sr  Sr1  1  0.04228926  0.56249891  0.00040542  1
  Sr  Sr2  1  0.31249891  0.81209349  0.02020965  1
  Sr  Sr3  1  0.79188384  0.29228926  0.97979035  1
  Sr  Sr4  1  0.18790651  0.20811616  0.50040542  1
  Sr  Sr5  1  0.70771074  0.68750109  0.49959458  1
  Sr  Sr6  1  0.43750109  0.43790651  0.47979035  1
  Sr  Sr7  1  0.95811616  0.95771074  0.52020965  1
  Mg  Mg8  1  0.83945305  0.15808785  0.37170039  1
  Mg  Mg9  1  0.78638746  0.46775267  0.62829961  1
  Mg  Mg10  1  0.21775267  0.08945305  0.18136521  1
  Mg  Mg11  1  0.90808785  0.03638746  0.81863479  1
  Mg  Mg12  1  0.91054695  0.09191215  0.12829961  1
  Mg  Mg13  1  0.96361254  0.78224733  0.87170039  1
  Mg  Mg14  1  0.53224733  0.16054695  0.31863479  1
  Mg  Mg15  1  0.84191215  0.21361254  0.68136521  1
  Mg  Mg16  1  0.58593251  0.94947478  0.64585696  1
  Mg  Mg17  1  0.30361782  0.94007655  0.35414304  1
  Mg  Mg18  1  0.69007655  0.83593251  0.13645873  1
  Mg  Mg19  1  0.69947478  0.55361782  0.86354127  1
  Mg  Mg20  1  0.16406749  0.30052522  0.85414304  1
  Mg  Mg21  1  0.44638218  0.30992345  0.14585696  1
  Mg  Mg22  1  0.05992345  0.41406749  0.36354127  1
  Mg  Mg23  1  0.05052522  0.69638218  0.63645873  1
  Mg  Mg24  1  0.29266501  0.97517303  0.63863040  1
  Mg  Mg25  1  0.33654264  0.65403562  0.36136960  1
  Mg  Mg26  1  0.40403562  0.54266501  0.81749298  1
  Mg  Mg27  1  0.72517303  0.58654264  0.18250702  1
  Mg  Mg28  1  0.45733499  0.27482697  0.86136960  1
  Mg  Mg29  1  0.41345736  0.59596438  0.13863040  1
  Mg  Mg30  1  0.34596438  0.70733499  0.68250702  1
  Mg  Mg31  1  0.02482697  0.66345736  0.31749298  1
  Si  Si32  1  0.75526536  0.39634904  0.28794253  1
  Si  Si33  1  0.10840751  0.46732382  0.71205747  1
  Si  Si34  1  0.21732382  0.00526536  0.85891632  1
  Si  Si35  1  0.14634904  0.35840751  0.14108368  1
  Si  Si36  1  0.99473464  0.85365096  0.21205747  1
  Si  Si37  1  0.64159249  0.78267618  0.78794253  1
  Si  Si38  1  0.53267618  0.24473464  0.64108368  1
  Si  Si39  1  0.60365096  0.89159249  0.35891632  1
  N  N40  1  0.61513557  0.35911354  0.09514006  1
  N  N41  1  0.26397248  0.51999551  0.90485994  1
  N  N42  1  0.26999551  0.86513557  0.75602303  1
  N  N43  1  0.10911354  0.51397248  0.24397697  1
  N  N44  1  0.13486443  0.89088646  0.40485994  1
  N  N45  1  0.48602752  0.73000449  0.59514006  1
  N  N46  1  0.48000449  0.38486443  0.74397697  1
  N  N47  1  0.64088646  0.73602752  0.25602303  1
  N  N48  1  0.75168983  0.97792444  0.88020150  1
  N  N49  1  0.09772394  0.87148833  0.11979850  1
  N  N50  1  0.62148833  0.00168983  0.27376440  1
  N  N51  1  0.72792444  0.34772394  0.72623560  1
  N  N52  1  0.99831017  0.27207556  0.61979850  1
  N  N53  1  0.65227606  0.37851167  0.38020150  1
  N  N54  1  0.12851167  0.24831017  0.22623560  1
  N  N55  1  0.02207556  0.90227606  0.77376440  1
  N  N56  1  0.83420741  0.26366724  0.24354472  1
  N  N57  1  0.02012252  0.59066269  0.75645528  1
  N  N58  1  0.34066269  0.08420741  0.07054017  1
  N  N59  1  0.01366724  0.27012252  0.92945983  1
  N  N60  1  0.91579259  0.98633276  0.25645528  1
  N  N61  1  0.72987748  0.65933731  0.74354472  1
  N  N62  1  0.40933731  0.16579259  0.42945983  1
  N  N63  1  0.73633276  0.97987748  0.57054017  1
  N  N64  1  0.50205068  0.11216285  0.69901101  1
  N  N65  1  0.41315284  0.80303967  0.30098899  1
  N  N66  1  0.55303967  0.75205068  0.88988783  1
  N  N67  1  0.86216285  0.66315284  0.11011217  1
  N  N68  1  0.24794932  0.13783615  0.80098899  1
  N  N69  1  0.33684716  0.44696033  0.19901101  1
  N  N70  1  0.19696033  0.49794932  0.61011217  1
  N  N71  1  0.88783615  0.58684716  0.38988783  1
