# generated using pymatgen
data_Cs2CaCl4
_symmetry_space_group_name_H-M   'P 1'
_cell_length_a   5.39162792
_cell_length_b   5.39162792
_cell_length_c   9.45763697
_cell_angle_alpha   106.56130045
_cell_angle_beta   106.56130045
_cell_angle_gamma   90.00000000
_symmetry_Int_Tables_number   1
_chemical_formula_structural   Cs2CaCl4
_chemical_formula_sum   'Cs2 Ca1 Cl4'
_cell_volume   251.60294121
_cell_formula_units_Z   1
loop_
 _symmetry_equiv_pos_site_id
 _symmetry_equiv_pos_as_xyz
  1  'x, y, z'
loop_
 _atom_site_type_symbol
 _atom_site_label
 _atom_site_symmetry_multiplicity
 _atom_site_fract_x
 _atom_site_fract_y
 _atom_site_fract_z
 _atom_site_occupancy
  Cs  Cs0  1  0.35648404  0.35648404  0.71296808  1
  Cs  Cs1  1  0.64351596  0.64351596  0.28703192  1
  Ca  Ca2  1  -0.00000000  -0.00000000  -0.00000000  1
  Cl  Cl3  1  0.15765065  0.15765065  0.31530329  1
  Cl  Cl4  1  0.84234935  0.84234935  0.68469671  1
  Cl  Cl5  1  -0.00000000  0.50000000  -0.00000000  1
  Cl  Cl6  1  0.50000000  -0.00000000  -0.00000000  1
