# generated using pymatgen
data_MgV5(MoO5)5
_symmetry_space_group_name_H-M   'P 1'
_cell_length_a   19.05693859
_cell_length_b   5.49068884
_cell_length_c   6.43741403
_cell_angle_alpha   99.62049847
_cell_angle_beta   104.74174884
_cell_angle_gamma   47.09790316
_symmetry_Int_Tables_number   1
_chemical_formula_structural   MgV5(MoO5)5
_chemical_formula_sum   'Mg1 V5 Mo5 O25'
_cell_volume   477.15244060
_cell_formula_units_Z   1
loop_
 _symmetry_equiv_pos_site_id
 _symmetry_equiv_pos_as_xyz
  1  'x, y, z'
loop_
 _atom_site_type_symbol
 _atom_site_label
 _atom_site_symmetry_multiplicity
 _atom_site_fract_x
 _atom_site_fract_y
 _atom_site_fract_z
 _atom_site_occupancy
  Mg  Mg0  1  0.17291200  0.61707400  0.28371900  1
  V  V1  1  0.02953100  0.18078500  0.60841300  1
  V  V2  1  0.22771400  0.19085500  0.61970600  1
  V  V3  1  0.41427700  0.90883300  0.98632000  1
  V  V4  1  0.59790700  0.96599100  0.97881200  1
  V  V5  1  0.78043200  0.04619800  0.98224000  1
  Mo  Mo6  1  0.97439600  0.10025900  0.00796600  1
  Mo  Mo7  1  0.18266200  0.08277900  0.01170700  1
  Mo  Mo8  1  0.42892900  0.12502100  0.57920500  1
  Mo  Mo9  1  0.63589600  0.11077100  0.57867600  1
  Mo  Mo10  1  0.83601500  0.12393000  0.57860100  1
  O  O11  1  0.03038900  0.06141000  0.29816800  1
  O  O12  1  0.05177100  0.16682800  0.92054200  1
  O  O13  1  0.14650900  0.12327100  0.67697400  1
  O  O14  1  0.08476100  0.61039900  0.00935700  1
  O  O15  1  0.22436300  0.16353000  0.31442500  1
  O  O16  1  0.15488000  0.61389900  0.60849700  1
  O  O17  1  0.28322100  0.05373000  0.93358200  1
  O  O18  1  0.36358200  0.01334300  0.66477000  1
  O  O19  1  0.23131300  0.69484800  0.10172300  1
  O  O20  1  0.41863600  0.04460700  0.29194300  1
  O  O21  1  0.33443100  0.55554700  0.56971600  1
  O  O22  1  0.47627900  0.04584100  0.91531300  1
  O  O23  1  0.54840800  0.06281200  0.64893900  1
  O  O24  1  0.49441500  0.49750200  0.00319700  1
  O  O25  1  0.62279500  0.02225000  0.29656600  1
  O  O26  1  0.55120400  0.54461100  0.57627400  1
  O  O27  1  0.67451900  0.04921100  0.91117400  1
  O  O28  1  0.75455900  0.04130200  0.64275500  1
  O  O29  1  0.68185900  0.54197500  0.97772400  1
  O  O30  1  0.81209800  0.09017700  0.29681500  1
  O  O31  1  0.74444400  0.55926900  0.60563100  1
  O  O32  1  0.88248400  0.03749200  0.92735100  1
  O  O33  1  0.94590200  0.09285600  0.65030000  1
  O  O34  1  0.87557800  0.55090600  0.01194600  1
  O  O35  1  0.94125800  0.59513000  0.57304500  1
