# generated using pymatgen
data_MgV2O6
_symmetry_space_group_name_H-M   'P 1'
_cell_length_a   4.80548237
_cell_length_b   5.56755229
_cell_length_c   13.59193481
_cell_angle_alpha   90.00000000
_cell_angle_beta   90.00000000
_cell_angle_gamma   90.00000000
_symmetry_Int_Tables_number   1
_chemical_formula_structural   MgV2O6
_chemical_formula_sum   'Mg4 V8 O24'
_cell_volume   363.64914914
_cell_formula_units_Z   4
loop_
 _symmetry_equiv_pos_site_id
 _symmetry_equiv_pos_as_xyz
  1  'x, y, z'
loop_
 _atom_site_type_symbol
 _atom_site_label
 _atom_site_symmetry_multiplicity
 _atom_site_fract_x
 _atom_site_fract_y
 _atom_site_fract_z
 _atom_site_occupancy
  Mg  Mg0  1  0.25000000  0.18364501  0.00000000  1
  Mg  Mg1  1  0.75000000  0.31635499  0.50000000  1
  Mg  Mg2  1  0.75000000  0.81635499  0.00000000  1
  Mg  Mg3  1  0.25000000  0.68364501  0.50000000  1
  V  V4  1  0.74268560  0.31644292  0.83739297  1
  V  V5  1  0.24268560  0.18355708  0.66260703  1
  V  V6  1  0.25731440  0.18355708  0.33739297  1
  V  V7  1  0.75731440  0.31644292  0.16260703  1
  V  V8  1  0.25731440  0.68355708  0.16260703  1
  V  V9  1  0.75731440  0.81644292  0.33739297  1
  V  V10  1  0.74268560  0.81644292  0.66260703  1
  V  V11  1  0.24268560  0.68355708  0.83739297  1
  O  O12  1  0.04822539  0.40112684  0.90123187  1
  O  O13  1  0.54822539  0.09887316  0.59876813  1
  O  O14  1  0.95177461  0.09887316  0.40123187  1
  O  O15  1  0.45177461  0.40112684  0.09876813  1
  O  O16  1  0.95177461  0.59887316  0.09876813  1
  O  O17  1  0.45177461  0.90112684  0.40123187  1
  O  O18  1  0.04822539  0.90112684  0.59876813  1
  O  O19  1  0.54822539  0.59887316  0.90123187  1
  O  O20  1  0.60123382  0.12034722  0.91661274  1
  O  O21  1  0.10123382  0.37965278  0.58338726  1
  O  O22  1  0.39876618  0.37965278  0.41661274  1
  O  O23  1  0.89876618  0.12034722  0.08338726  1
  O  O24  1  0.39876618  0.87965278  0.08338726  1
  O  O25  1  0.89876618  0.62034722  0.41661274  1
  O  O26  1  0.60123382  0.62034722  0.58338726  1
  O  O27  1  0.10123382  0.87965278  0.91661274  1
  O  O28  1  0.90151625  0.13748142  0.74595348  1
  O  O29  1  0.40151625  0.36251858  0.75404652  1
  O  O30  1  0.09848375  0.36251858  0.24595348  1
  O  O31  1  0.59848375  0.13748142  0.25404652  1
  O  O32  1  0.09848375  0.86251858  0.25404652  1
  O  O33  1  0.59848375  0.63748142  0.24595348  1
  O  O34  1  0.90151625  0.63748142  0.75404652  1
  O  O35  1  0.40151625  0.86251858  0.74595348  1
