# generated using pymatgen
data_CdP2
_symmetry_space_group_name_H-M   'P 1'
_cell_length_a   5.29182285
_cell_length_b   5.29182285
_cell_length_c   19.79607798
_cell_angle_alpha   90.00000000
_cell_angle_beta   90.00000000
_cell_angle_gamma   90.00000000
_symmetry_Int_Tables_number   1
_chemical_formula_structural   CdP2
_chemical_formula_sum   'Cd8 P16'
_cell_volume   554.35727385
_cell_formula_units_Z   8
loop_
 _symmetry_equiv_pos_site_id
 _symmetry_equiv_pos_as_xyz
  1  'x, y, z'
loop_
 _atom_site_type_symbol
 _atom_site_label
 _atom_site_symmetry_multiplicity
 _atom_site_fract_x
 _atom_site_fract_y
 _atom_site_fract_z
 _atom_site_occupancy
  Cd  Cd0  1  0.37208016  0.84715058  0.45183260  1
  Cd  Cd1  1  0.62791984  0.15284942  0.95183260  1
  Cd  Cd2  1  0.84715058  0.37208016  0.54816740  1
  Cd  Cd3  1  0.34715058  0.12791984  0.20183260  1
  Cd  Cd4  1  0.65284942  0.87208016  0.70183260  1
  Cd  Cd5  1  0.12791984  0.34715058  0.79816740  1
  Cd  Cd6  1  0.87208016  0.65284942  0.29816740  1
  Cd  Cd7  1  0.15284942  0.62791984  0.04816740  1
  P  P8  1  0.01959387  0.02303572  0.37401029  1
  P  P9  1  0.98040613  0.97696428  0.87401029  1
  P  P10  1  0.02303572  0.01959387  0.62598971  1
  P  P11  1  0.52303572  0.48040613  0.12401029  1
  P  P12  1  0.47696428  0.51959387  0.62401029  1
  P  P13  1  0.48040613  0.52303572  0.87598971  1
  P  P14  1  0.51959387  0.47696428  0.37598971  1
  P  P15  1  0.97696428  0.98040613  0.12598971  1
  P  P16  1  0.80775114  0.28574921  0.06535145  1
  P  P17  1  0.21425079  0.30775114  0.31535145  1
  P  P18  1  0.78574921  0.69224886  0.81535145  1
  P  P19  1  0.30775114  0.21425079  0.68464855  1
  P  P20  1  0.69224886  0.78574921  0.18464855  1
  P  P21  1  0.19224886  0.71425079  0.56535145  1
  P  P22  1  0.28574921  0.80775114  0.93464855  1
  P  P23  1  0.71425079  0.19224886  0.43464855  1
