# generated using pymatgen
data_Mg(ScS2)2
_symmetry_space_group_name_H-M   'P 1'
_cell_length_a   7.54534476
_cell_length_b   7.54534499
_cell_length_c   7.54534467
_cell_angle_alpha   60.00000135
_cell_angle_beta   60.00000037
_cell_angle_gamma   59.99999867
_symmetry_Int_Tables_number   1
_chemical_formula_structural   Mg(ScS2)2
_chemical_formula_sum   'Mg2 Sc4 S8'
_cell_volume   303.75418931
_cell_formula_units_Z   2
loop_
 _symmetry_equiv_pos_site_id
 _symmetry_equiv_pos_as_xyz
  1  'x, y, z'
loop_
 _atom_site_type_symbol
 _atom_site_label
 _atom_site_symmetry_multiplicity
 _atom_site_fract_x
 _atom_site_fract_y
 _atom_site_fract_z
 _atom_site_occupancy
  Mg  Mg0  1  0.87500000  0.87500000  0.87500000  1
  Mg  Mg1  1  0.12500000  0.12500000  0.12500000  1
  Sc  Sc2  1  0.50000000  0.50000000  0.50000000  1
  Sc  Sc3  1  0.50000000  0.00000000  0.50000000  1
  Sc  Sc4  1  -0.00000000  0.50000000  0.50000000  1
  Sc  Sc5  1  0.50000000  0.50000000  0.00000000  1
  S  S6  1  0.25765097  0.25765097  0.72704709  1
  S  S7  1  0.74234903  0.74234903  0.74234903  1
  S  S8  1  0.74234903  0.74234903  0.27295291  1
  S  S9  1  0.25765097  0.72704709  0.25765097  1
  S  S10  1  0.25765097  0.25765097  0.25765097  1
  S  S11  1  0.27295291  0.74234903  0.74234903  1
  S  S12  1  0.74234903  0.27295291  0.74234903  1
  S  S13  1  0.72704709  0.25765097  0.25765097  1
