# generated using pymatgen
data_Cs3CdBr5
_symmetry_space_group_name_H-M   'P 1'
_cell_length_a   10.50758296
_cell_length_b   10.50758296
_cell_length_c   10.50758296
_cell_angle_alpha   125.28004103
_cell_angle_beta   125.28004103
_cell_angle_gamma   81.07470272
_symmetry_Int_Tables_number   1
_chemical_formula_structural   Cs3CdBr5
_chemical_formula_sum   'Cs6 Cd2 Br10'
_cell_volume   744.89215553
_cell_formula_units_Z   2
loop_
 _symmetry_equiv_pos_site_id
 _symmetry_equiv_pos_as_xyz
  1  'x, y, z'
loop_
 _atom_site_type_symbol
 _atom_site_label
 _atom_site_symmetry_multiplicity
 _atom_site_fract_x
 _atom_site_fract_y
 _atom_site_fract_z
 _atom_site_occupancy
  Cs  Cs0  1  0.15711694  0.65711694  0.81423388  1
  Cs  Cs1  1  0.84288306  0.34288306  0.18576612  1
  Cs  Cs2  1  0.65711694  0.84288306  0.50000000  1
  Cs  Cs3  1  0.34288306  0.15711694  0.50000000  1
  Cs  Cs4  1  0.75000000  0.75000000  -0.00000000  1
  Cs  Cs5  1  0.25000000  0.25000000  -0.00000000  1
  Cd  Cd6  1  0.25000000  0.75000000  0.50000000  1
  Cd  Cd7  1  0.75000000  0.25000000  0.50000000  1
  Br  Br8  1  0.80145712  0.30145712  0.80181680  1
  Br  Br9  1  0.49963932  0.99963932  0.19818320  1
  Br  Br10  1  0.30145712  0.49963932  0.50000000  1
  Br  Br11  1  0.99963932  0.80145712  0.50000000  1
  Br  Br12  1  0.19854288  0.69854288  0.19818320  1
  Br  Br13  1  0.50036068  0.00036068  0.80181680  1
  Br  Br14  1  0.69854288  0.50036068  0.50000000  1
  Br  Br15  1  0.00036068  0.19854288  0.50000000  1
  Br  Br16  1  -0.00000000  -0.00000000  -0.00000000  1
  Br  Br17  1  0.50000000  0.50000000  -0.00000000  1
