# generated using pymatgen
data_BaDy2O4
_symmetry_space_group_name_H-M   'P 1'
_cell_length_a   3.46001165
_cell_length_b   10.42739001
_cell_length_c   12.12215877
_cell_angle_alpha   90.00000000
_cell_angle_beta   90.00000000
_cell_angle_gamma   90.00000000
_symmetry_Int_Tables_number   1
_chemical_formula_structural   BaDy2O4
_chemical_formula_sum   'Ba4 Dy8 O16'
_cell_volume   437.35404390
_cell_formula_units_Z   4
loop_
 _symmetry_equiv_pos_site_id
 _symmetry_equiv_pos_as_xyz
  1  'x, y, z'
loop_
 _atom_site_type_symbol
 _atom_site_label
 _atom_site_symmetry_multiplicity
 _atom_site_fract_x
 _atom_site_fract_y
 _atom_site_fract_z
 _atom_site_occupancy
  Ba  Ba0  1  0.75000000  0.25285278  0.14921956  1
  Ba  Ba1  1  0.75000000  0.75285278  0.35078044  1
  Ba  Ba2  1  0.25000000  0.74714722  0.85078044  1
  Ba  Ba3  1  0.25000000  0.24714722  0.64921956  1
  Dy  Dy4  1  0.75000000  0.42252696  0.89077442  1
  Dy  Dy5  1  0.75000000  0.92252696  0.60922558  1
  Dy  Dy6  1  0.25000000  0.57747304  0.10922558  1
  Dy  Dy7  1  0.25000000  0.07747304  0.39077442  1
  Dy  Dy8  1  0.75000000  0.92578172  0.11086370  1
  Dy  Dy9  1  0.75000000  0.42578172  0.38913630  1
  Dy  Dy10  1  0.25000000  0.07421828  0.88913630  1
  Dy  Dy11  1  0.25000000  0.57421828  0.61086370  1
  O  O12  1  0.75000000  0.20990844  0.84114329  1
  O  O13  1  0.75000000  0.70990844  0.65885671  1
  O  O14  1  0.25000000  0.79009156  0.15885671  1
  O  O15  1  0.25000000  0.29009156  0.34114329  1
  O  O16  1  0.75000000  0.11515710  0.51750511  1
  O  O17  1  0.75000000  0.61515710  0.98249489  1
  O  O18  1  0.25000000  0.88484290  0.48249489  1
  O  O19  1  0.25000000  0.38484290  0.01750511  1
  O  O20  1  0.75000000  0.01832598  0.28260874  1
  O  O21  1  0.75000000  0.51832598  0.21739126  1
  O  O22  1  0.25000000  0.98167402  0.71739126  1
  O  O23  1  0.25000000  0.48167402  0.78260874  1
  O  O24  1  0.75000000  0.43056867  0.57410315  1
  O  O25  1  0.75000000  0.93056867  0.92589685  1
  O  O26  1  0.25000000  0.56943133  0.42589685  1
  O  O27  1  0.25000000  0.06943133  0.07410315  1
