# generated using pymatgen
data_Cs3CaFe(P2O7)2
_symmetry_space_group_name_H-M   'P 1'
_cell_length_a   9.30847391
_cell_length_b   11.28255282
_cell_length_c   15.06619633
_cell_angle_alpha   90.00000000
_cell_angle_beta   90.00000000
_cell_angle_gamma   90.00000000
_symmetry_Int_Tables_number   1
_chemical_formula_structural   Cs3CaFe(P2O7)2
_chemical_formula_sum   'Cs12 Ca4 Fe4 P16 O56'
_cell_volume   1582.30238869
_cell_formula_units_Z   4
loop_
 _symmetry_equiv_pos_site_id
 _symmetry_equiv_pos_as_xyz
  1  'x, y, z'
loop_
 _atom_site_type_symbol
 _atom_site_label
 _atom_site_symmetry_multiplicity
 _atom_site_fract_x
 _atom_site_fract_y
 _atom_site_fract_z
 _atom_site_occupancy
  Cs  Cs0  1  0.37081963  0.36884102  0.37042506  1
  Cs  Cs1  1  0.12918037  0.63115898  0.87042506  1
  Cs  Cs2  1  0.87081963  0.13115898  0.62957494  1
  Cs  Cs3  1  0.62918037  0.86884102  0.12957494  1
  Cs  Cs4  1  0.27656577  0.71326297  0.30353840  1
  Cs  Cs5  1  0.22343423  0.28673703  0.80353840  1
  Cs  Cs6  1  0.77656577  0.78673703  0.69646160  1
  Cs  Cs7  1  0.72343423  0.21326297  0.19646160  1
  Cs  Cs8  1  0.82298027  0.48100890  0.41246876  1
  Cs  Cs9  1  0.67701973  0.51899110  0.91246876  1
  Cs  Cs10  1  0.32298027  0.01899110  0.58753124  1
  Cs  Cs11  1  0.17701973  0.98100890  0.08753124  1
  Ca  Ca12  1  0.54329004  0.36269855  0.61702078  1
  Ca  Ca13  1  0.95670996  0.63730145  0.11702078  1
  Ca  Ca14  1  0.04329004  0.13730145  0.38297922  1
  Ca  Ca15  1  0.45670996  0.86269855  0.88297922  1
  Fe  Fe16  1  0.64841987  0.87483217  0.42866554  1
  Fe  Fe17  1  0.85158013  0.12516783  0.92866554  1
  Fe  Fe18  1  0.14841987  0.62516783  0.57133446  1
  Fe  Fe19  1  0.35158013  0.37483217  0.07133446  1
  P  P20  1  0.47948492  0.64234742  0.52031635  1
  P  P21  1  0.02051508  0.35765258  0.02031635  1
  P  P22  1  0.97948492  0.85765258  0.47968365  1
  P  P23  1  0.52051508  0.14234742  0.97968365  1
  P  P24  1  0.41552167  0.62621313  0.70732603  1
  P  P25  1  0.08447833  0.37378687  0.20732603  1
  P  P26  1  0.91552167  0.87378687  0.29267397  1
  P  P27  1  0.58447833  0.12621313  0.79267397  1
  P  P28  1  0.41745302  0.03688407  0.32991361  1
  P  P29  1  0.08254698  0.96311593  0.82991361  1
  P  P30  1  0.91745302  0.46311593  0.67008639  1
  P  P31  1  0.58254698  0.53688407  0.17008639  1
  P  P32  1  0.65079606  0.14915607  0.43766561  1
  P  P33  1  0.84920394  0.85084393  0.93766561  1
  P  P34  1  0.15079606  0.35084393  0.56233439  1
  P  P35  1  0.34920394  0.64915607  0.06233439  1
  O  O36  1  0.57456752  0.72564343  0.46766407  1
  O  O37  1  0.92543248  0.27435657  0.96766407  1
  O  O38  1  0.07456752  0.77435657  0.53233593  1
  O  O39  1  0.42543248  0.22564343  0.03233593  1
  O  O40  1  0.47085800  0.50279865  0.72174851  1
  O  O41  1  0.02914200  0.49720135  0.22174851  1
  O  O42  1  0.97085800  0.99720135  0.27825149  1
  O  O43  1  0.52914200  0.00279865  0.77825149  1
  O  O44  1  0.41521873  0.02551585  0.23113993  1
  O  O45  1  0.08478127  0.97448415  0.73113993  1
  O  O46  1  0.91521873  0.47448415  0.76886007  1
  O  O47  1  0.58478127  0.52551585  0.26886007  1
  O  O48  1  0.28695775  0.08896214  0.37415716  1
  O  O49  1  0.21304225  0.91103786  0.87415716  1
  O  O50  1  0.78695775  0.41103786  0.62584284  1
  O  O51  1  0.71304225  0.58896214  0.12584284  1
  O  O52  1  0.49898771  0.68424077  0.62246604  1
  O  O53  1  0.00101229  0.31575923  0.12246604  1
  O  O54  1  -0.00101229  0.81575923  0.37753396  1
  O  O55  1  0.50101229  0.18424077  0.87753396  1
  O  O56  1  0.44404450  0.70994939  0.78225488  1
  O  O57  1  0.05595550  0.29005061  0.28225488  1
  O  O58  1  0.94404450  0.79005061  0.21774512  1
  O  O59  1  0.55595550  0.20994939  0.71774512  1
  O  O60  1  0.54960836  0.12982651  0.35132800  1
  O  O61  1  0.95039164  0.87017349  0.85132800  1
  O  O62  1  0.04960836  0.37017349  0.64867200  1
  O  O63  1  0.45039164  0.62982651  0.14867200  1
  O  O64  1  0.52566365  0.51575159  0.51281357  1
  O  O65  1  0.97433635  0.48424841  0.01281357  1
  O  O66  1  0.02566365  0.98424841  0.48718643  1
  O  O67  1  0.47433635  0.01575159  0.98718643  1
  O  O68  1  0.46463919  0.91997607  0.37552096  1
  O  O69  1  0.03536081  0.08002393  0.87552096  1
  O  O70  1  0.96463919  0.58002393  0.62447904  1
  O  O71  1  0.53536081  0.41997607  0.12447904  1
  O  O72  1  0.75536848  0.87377653  0.32035173  1
  O  O73  1  0.74463152  0.12622347  0.82035173  1
  O  O74  1  0.25536848  0.62622347  0.67964827  1
  O  O75  1  0.24463152  0.37377653  0.17964827  1
  O  O76  1  0.32215696  0.66403561  0.49862232  1
  O  O77  1  0.17784304  0.33596439  0.99862232  1
  O  O78  1  0.82215696  0.83596439  0.50137768  1
  O  O79  1  0.67784304  0.16403561  0.00137768  1
  O  O80  1  0.79523657  0.18248615  0.40075734  1
  O  O81  1  0.70476343  0.81751385  0.90075734  1
  O  O82  1  0.29523657  0.31751385  0.59924266  1
  O  O83  1  0.20476343  0.68248615  0.09924266  1
  O  O84  1  0.58289191  0.24270822  0.49480909  1
  O  O85  1  0.91710809  0.75729178  0.99480909  1
  O  O86  1  0.08289191  0.25729178  0.50519091  1
  O  O87  1  0.41710809  0.74270822  0.00519091  1
  O  O88  1  0.65082492  0.02877395  0.48650640  1
  O  O89  1  0.84917508  0.97122605  0.98650640  1
  O  O90  1  0.15082492  0.47122605  0.51349360  1
  O  O91  1  0.34917508  0.52877395  0.01349360  1
