# generated using pymatgen
data_WS2
_symmetry_space_group_name_H-M   'P 1'
_cell_length_a   3.18320817
_cell_length_b   3.18320792
_cell_length_c   23.66876325
_cell_angle_alpha   90.00000000
_cell_angle_beta   90.00000000
_cell_angle_gamma   60.00001885
_symmetry_Int_Tables_number   1
_chemical_formula_structural   WS2
_chemical_formula_sum   'W2 S4'
_cell_volume   207.69991883
_cell_formula_units_Z   2
loop_
 _symmetry_equiv_pos_site_id
 _symmetry_equiv_pos_as_xyz
  1  'x, y, z'
loop_
 _atom_site_type_symbol
 _atom_site_label
 _atom_site_symmetry_multiplicity
 _atom_site_fract_x
 _atom_site_fract_y
 _atom_site_fract_z
 _atom_site_occupancy
  W  W0  1  0.66666600  0.66666700  0.43072604  1
  W  W1  1  0.33333400  0.33333300  0.15609096  1
  S  S2  1  0.66666600  0.66666700  0.09022461  1
  S  S3  1  0.33333400  0.33333300  0.36485033  1
  S  S4  1  0.66666600  0.66666700  0.22196767  1
  S  S5  1  0.33333400  0.33333300  0.49659339  1
