# generated using pymatgen
data_Sm2HgO4
_symmetry_space_group_name_H-M   'P 1'
_cell_length_a   7.14443680
_cell_length_b   7.14443680
_cell_length_c   10.21425385
_cell_angle_alpha   59.42651696
_cell_angle_beta   59.42651696
_cell_angle_gamma   30.33566282
_symmetry_Int_Tables_number   1
_chemical_formula_structural   Sm2HgO4
_chemical_formula_sum   'Sm4 Hg2 O8'
_cell_volume   223.78931855
_cell_formula_units_Z   2
loop_
 _symmetry_equiv_pos_site_id
 _symmetry_equiv_pos_as_xyz
  1  'x, y, z'
loop_
 _atom_site_type_symbol
 _atom_site_label
 _atom_site_symmetry_multiplicity
 _atom_site_fract_x
 _atom_site_fract_y
 _atom_site_fract_z
 _atom_site_occupancy
  Sm  Sm0  1  0.61934396  0.61934396  0.53999566  1
  Sm  Sm1  1  0.38065604  0.38065604  0.46000434  1
  Sm  Sm2  1  0.83999617  0.83999617  0.79974019  1
  Sm  Sm3  1  0.16000383  0.16000383  0.20025981  1
  Hg  Hg4  1  0.88592687  0.88592687  0.16162041  1
  Hg  Hg5  1  0.11407313  0.11407313  0.83837959  1
  O  O6  1  0.96427076  0.96427076  0.28010969  1
  O  O7  1  0.03572924  0.03572924  0.71989031  1
  O  O8  1  0.58148789  0.58148789  0.34666233  1
  O  O9  1  0.41851211  0.41851211  0.65333767  1
  O  O10  1  0.79769377  0.79769377  0.05608494  1
  O  O11  1  0.20230623  0.20230623  0.94391506  1
  O  O12  1  0.76844091  0.76844091  0.61339340  1
  O  O13  1  0.23155909  0.23155909  0.38660660  1
