# generated using pymatgen
data_Ba5P4
_symmetry_space_group_name_H-M   'P 1'
_cell_length_a   8.43000231
_cell_length_b   8.51581321
_cell_length_c   16.72311357
_cell_angle_alpha   90.00000000
_cell_angle_beta   90.00000000
_cell_angle_gamma   90.00000000
_symmetry_Int_Tables_number   1
_chemical_formula_structural   Ba5P4
_chemical_formula_sum   'Ba20 P16'
_cell_volume   1200.52431251
_cell_formula_units_Z   4
loop_
 _symmetry_equiv_pos_site_id
 _symmetry_equiv_pos_as_xyz
  1  'x, y, z'
loop_
 _atom_site_type_symbol
 _atom_site_label
 _atom_site_symmetry_multiplicity
 _atom_site_fract_x
 _atom_site_fract_y
 _atom_site_fract_z
 _atom_site_occupancy
  Ba  Ba0  1  0.74555541  0.99606127  0.75000000  1
  Ba  Ba1  1  0.24555541  0.50393873  0.75000000  1
  Ba  Ba2  1  0.75444459  0.49606127  0.25000000  1
  Ba  Ba3  1  0.25444459  0.00393873  0.25000000  1
  Ba  Ba4  1  0.57242061  0.33304222  0.89788419  1
  Ba  Ba5  1  0.07242061  0.16695778  0.60211581  1
  Ba  Ba6  1  0.92757939  0.83304222  0.10211581  1
  Ba  Ba7  1  0.42757939  0.66695778  0.39788419  1
  Ba  Ba8  1  0.42757939  0.66695778  0.10211581  1
  Ba  Ba9  1  0.92757939  0.83304222  0.39788419  1
  Ba  Ba10  1  0.07242061  0.16695778  0.89788419  1
  Ba  Ba11  1  0.57242061  0.33304222  0.60211581  1
  Ba  Ba12  1  0.40843025  0.84176909  0.60314857  1
  Ba  Ba13  1  0.90843025  0.65823091  0.89685143  1
  Ba  Ba14  1  0.09156975  0.34176909  0.39685143  1
  Ba  Ba15  1  0.59156975  0.15823091  0.10314857  1
  Ba  Ba16  1  0.59156975  0.15823091  0.39685143  1
  Ba  Ba17  1  0.09156975  0.34176909  0.10314857  1
  Ba  Ba18  1  0.90843025  0.65823091  0.60314857  1
  Ba  Ba19  1  0.40843025  0.84176909  0.89685143  1
  P  P20  1  0.35388252  0.41159420  0.25000000  1
  P  P21  1  0.85388252  0.08840580  0.25000000  1
  P  P22  1  0.14611748  0.91159420  0.75000000  1
  P  P23  1  0.64611748  0.58840580  0.75000000  1
  P  P24  1  0.16028175  0.60102227  0.25000000  1
  P  P25  1  0.66028175  0.89897773  0.25000000  1
  P  P26  1  0.33971825  0.10102227  0.75000000  1
  P  P27  1  0.83971825  0.39897773  0.75000000  1
  P  P28  1  0.74601304  0.99261670  0.94721933  1
  P  P29  1  0.24601304  0.50738330  0.55278067  1
  P  P30  1  0.75398696  0.49261670  0.05278067  1
  P  P31  1  0.25398696  0.00738330  0.44721933  1
  P  P32  1  0.25398696  0.00738330  0.05278067  1
  P  P33  1  0.75398696  0.49261670  0.44721933  1
  P  P34  1  0.24601304  0.50738330  0.94721933  1
  P  P35  1  0.74601304  0.99261670  0.55278067  1
