# generated using pymatgen
data_SrCaSmSbO6
_symmetry_space_group_name_H-M   'P 1'
_cell_length_a   8.38423876
_cell_length_b   8.37159840
_cell_length_c   8.38649864
_cell_angle_alpha   90.00000000
_cell_angle_beta   90.00000000
_cell_angle_gamma   90.00000000
_symmetry_Int_Tables_number   1
_chemical_formula_structural   SrCaSmSbO6
_chemical_formula_sum   'Sr4 Ca4 Sm4 Sb4 O24'
_cell_volume   588.64397679
_cell_formula_units_Z   4
loop_
 _symmetry_equiv_pos_site_id
 _symmetry_equiv_pos_as_xyz
  1  'x, y, z'
loop_
 _atom_site_type_symbol
 _atom_site_label
 _atom_site_symmetry_multiplicity
 _atom_site_fract_x
 _atom_site_fract_y
 _atom_site_fract_z
 _atom_site_occupancy
  Sr  Sr0  1  -0.00000000  0.50000000  0.50000000  1
  Sr  Sr1  1  0.50000000  0.00000000  0.00000000  1
  Sr  Sr2  1  -0.00000000  0.50000000  0.00000000  1
  Sr  Sr3  1  -0.00000000  0.00000000  0.50000000  1
  Ca  Ca4  1  0.50000000  0.00000000  0.50000000  1
  Ca  Ca5  1  0.50000000  0.50000000  0.00000000  1
  Ca  Ca6  1  -0.00000000  0.00000000  0.00000000  1
  Ca  Ca7  1  0.50000000  0.50000000  0.50000000  1
  Sm  Sm8  1  0.25212668  0.25035111  0.25007398  1
  Sm  Sm9  1  0.74787332  0.74964889  0.25007398  1
  Sm  Sm10  1  0.74787332  0.25035111  0.74992602  1
  Sm  Sm11  1  0.25212668  0.74964889  0.74992602  1
  Sb  Sb12  1  0.74745213  0.74968031  0.75048600  1
  Sb  Sb13  1  0.25254787  0.25031969  0.75048600  1
  Sb  Sb14  1  0.25254787  0.74968031  0.24951400  1
  Sb  Sb15  1  0.74745213  0.25031969  0.24951400  1
  O  O16  1  0.98202618  0.20899295  0.28409087  1
  O  O17  1  0.01797382  0.79100705  0.28409087  1
  O  O18  1  0.01797382  0.20899295  0.71590913  1
  O  O19  1  0.98202618  0.79100705  0.71590913  1
  O  O20  1  0.28461495  0.98312271  0.20697312  1
  O  O21  1  0.28461495  0.01687729  0.79302688  1
  O  O22  1  0.71538505  0.01687729  0.20697312  1
  O  O23  1  0.71538505  0.98312271  0.79302688  1
  O  O24  1  0.20657271  0.28190683  0.98344930  1
  O  O25  1  0.79342729  0.28190683  0.01655070  1
  O  O26  1  0.20657271  0.71809317  0.01655070  1
  O  O27  1  0.79342729  0.71809317  0.98344930  1
  O  O28  1  0.51705170  0.30198602  0.20687904  1
  O  O29  1  0.48294830  0.69801398  0.20687904  1
  O  O30  1  0.48294830  0.30198602  0.79312096  1
  O  O31  1  0.51705170  0.69801398  0.79312096  1
  O  O32  1  0.21739320  0.51752192  0.29631024  1
  O  O33  1  0.21739320  0.48247808  0.70368976  1
  O  O34  1  0.78260680  0.48247808  0.29631024  1
  O  O35  1  0.78260680  0.51752192  0.70368976  1
  O  O36  1  0.30397804  0.20940768  0.51856316  1
  O  O37  1  0.69602196  0.20940768  0.48143684  1
  O  O38  1  0.30397804  0.79059232  0.48143684  1
  O  O39  1  0.69602196  0.79059232  0.51856316  1
