# generated using pymatgen
data_GeSb2H16C4(S3N)2
_symmetry_space_group_name_H-M   'P 1'
_cell_length_a   11.15541220
_cell_length_b   11.15541220
_cell_length_c   14.01427428
_cell_angle_alpha   90.00000000
_cell_angle_beta   90.00000000
_cell_angle_gamma   90.00000000
_symmetry_Int_Tables_number   1
_chemical_formula_structural   GeSb2H16C4(S3N)2
_chemical_formula_sum   'Ge4 Sb8 H64 C16 S24 N8'
_cell_volume   1743.98143631
_cell_formula_units_Z   4
loop_
 _symmetry_equiv_pos_site_id
 _symmetry_equiv_pos_as_xyz
  1  'x, y, z'
loop_
 _atom_site_type_symbol
 _atom_site_label
 _atom_site_symmetry_multiplicity
 _atom_site_fract_x
 _atom_site_fract_y
 _atom_site_fract_z
 _atom_site_occupancy
  Ge  Ge0  1  0.77015810  0.22984190  0.75000000  1
  Ge  Ge1  1  0.22984190  0.77015810  0.25000000  1
  Ge  Ge2  1  0.72984190  0.72984190  0.50000000  1
  Ge  Ge3  1  0.27015810  0.27015810  0.00000000  1
  Sb  Sb4  1  0.01091852  0.39608970  0.87618714  1
  Sb  Sb5  1  0.98908148  0.60391030  0.37618714  1
  Sb  Sb6  1  0.89608970  0.48908148  0.62618714  1
  Sb  Sb7  1  0.10391030  0.51091852  0.12618714  1
  Sb  Sb8  1  0.60391030  0.98908148  0.62381286  1
  Sb  Sb9  1  0.39608970  0.01091852  0.12381286  1
  Sb  Sb10  1  0.48908148  0.89608970  0.37381286  1
  Sb  Sb11  1  0.51091852  0.10391030  0.87381286  1
  H  H12  1  0.81125882  0.11633411  0.98005666  1
  H  H13  1  0.18874118  0.88366589  0.48005666  1
  H  H14  1  0.61633411  0.68874118  0.73005666  1
  H  H15  1  0.38366589  0.31125882  0.23005666  1
  H  H16  1  0.88366589  0.18874118  0.51994334  1
  H  H17  1  0.11633411  0.81125882  0.01994334  1
  H  H18  1  0.68874118  0.61633411  0.26994334  1
  H  H19  1  0.31125882  0.38366589  0.76994334  1
  H  H20  1  0.93174080  0.17823188  0.03629235  1
  H  H21  1  0.06825920  0.82176812  0.53629235  1
  H  H22  1  0.67823188  0.56825920  0.78629235  1
  H  H23  1  0.32176812  0.43174080  0.28629235  1
  H  H24  1  0.82176812  0.06825920  0.46370765  1
  H  H25  1  0.17823188  0.93174080  0.96370765  1
  H  H26  1  0.56825920  0.67823188  0.21370765  1
  H  H27  1  0.43174080  0.32176812  0.71370765  1
  H  H28  1  0.92293922  0.96884869  0.07370148  1
  H  H29  1  0.07706078  0.03115131  0.57370148  1
  H  H30  1  0.46884869  0.57706078  0.82370148  1
  H  H31  1  0.53115131  0.42293922  0.32370148  1
  H  H32  1  0.03115131  0.07706078  0.42629852  1
  H  H33  1  0.96884869  0.92293922  0.92629852  1
  H  H34  1  0.57706078  0.46884869  0.17629852  1
  H  H35  1  0.42293922  0.53115131  0.67629852  1
  H  H36  1  0.77430783  0.99195077  0.12135143  1
  H  H37  1  0.22569217  0.00804923  0.62135143  1
  H  H38  1  0.49195077  0.72569217  0.87135143  1
  H  H39  1  0.50804923  0.27430783  0.37135143  1
  H  H40  1  0.00804923  0.22569217  0.37864857  1
  H  H41  1  0.99195077  0.77430783  0.87864857  1
  H  H42  1  0.72569217  0.49195077  0.12864857  1
  H  H43  1  0.27430783  0.50804923  0.62864857  1
  H  H44  1  0.90413533  0.05923353  0.17606497  1
  H  H45  1  0.09586467  0.94076647  0.67606497  1
  H  H46  1  0.55923353  0.59586467  0.92606497  1
  H  H47  1  0.44076647  0.40413533  0.42606497  1
  H  H48  1  0.94076647  0.09586467  0.32393503  1
  H  H49  1  0.05923353  0.90413533  0.82393503  1
  H  H50  1  0.59586467  0.55923353  0.07393503  1
  H  H51  1  0.40413533  0.44076647  0.57393503  1
  H  H52  1  0.76837267  0.31124537  0.04223409  1
  H  H53  1  0.23162733  0.68875463  0.54223409  1
  H  H54  1  0.81124537  0.73162733  0.79223409  1
  H  H55  1  0.18875463  0.26837267  0.29223409  1
  H  H56  1  0.68875463  0.23162733  0.45776591  1
  H  H57  1  0.31124537  0.76837267  0.95776591  1
  H  H58  1  0.73162733  0.81124537  0.20776591  1
  H  H59  1  0.26837267  0.18875463  0.70776591  1
  H  H60  1  0.81151055  0.26237117  0.15946605  1
  H  H61  1  0.18848945  0.73762883  0.65946605  1
  H  H62  1  0.76237117  0.68848945  0.90946605  1
  H  H63  1  0.23762883  0.31151055  0.40946605  1
  H  H64  1  0.73762883  0.18848945  0.34053395  1
  H  H65  1  0.26237117  0.81151055  0.84053395  1
  H  H66  1  0.68848945  0.76237117  0.09053395  1
  H  H67  1  0.31151055  0.23762883  0.59053395  1
  H  H68  1  0.68007995  0.19949226  0.10247414  1
  H  H69  1  0.31992005  0.80050774  0.60247414  1
  H  H70  1  0.69949226  0.81992005  0.85247414  1
  H  H71  1  0.30050774  0.18007995  0.35247414  1
  H  H72  1  0.80050774  0.31992005  0.39752586  1
  H  H73  1  0.19949226  0.68007995  0.89752586  1
  H  H74  1  0.81992005  0.69949226  0.14752586  1
  H  H75  1  0.18007995  0.30050774  0.64752586  1
  C  C76  1  0.86218244  0.03239426  0.10867136  1
  C  C77  1  0.13781756  0.96760574  0.60867136  1
  C  C78  1  0.53239426  0.63781756  0.85867136  1
  C  C79  1  0.46760574  0.36218244  0.35867136  1
  C  C80  1  0.96760574  0.13781756  0.39132864  1
  C  C81  1  0.03239426  0.86218244  0.89132864  1
  C  C82  1  0.63781756  0.53239426  0.14132864  1
  C  C83  1  0.36218244  0.46760574  0.64132864  1
  C  C84  1  0.77053839  0.23490598  0.09160416  1
  C  C85  1  0.22946161  0.76509402  0.59160416  1
  C  C86  1  0.73490598  0.72946161  0.84160416  1
  C  C87  1  0.26509402  0.27053839  0.34160416  1
  C  C88  1  0.76509402  0.22946161  0.40839584  1
  C  C89  1  0.23490598  0.77053839  0.90839584  1
  C  C90  1  0.72946161  0.73490598  0.15839584  1
  C  C91  1  0.27053839  0.26509402  0.65839584  1
  S  S92  1  0.95185419  0.54674508  0.99931620  1
  S  S93  1  0.04814581  0.45325492  0.49931620  1
  S  S94  1  0.04674508  0.54814581  0.74931620  1
  S  S95  1  0.95325492  0.45185419  0.24931620  1
  S  S96  1  0.45325492  0.04814581  0.50068380  1
  S  S97  1  0.54674508  0.95185419  0.00068380  1
  S  S98  1  0.54814581  0.04674508  0.25068380  1
  S  S99  1  0.45185419  0.95325492  0.75068380  1
  S  S100  1  0.76892200  0.39200357  0.84452086  1
  S  S101  1  0.23107800  0.60799643  0.34452086  1
  S  S102  1  0.89200357  0.73107800  0.59452086  1
  S  S103  1  0.10799643  0.26892200  0.09452086  1
  S  S104  1  0.60799643  0.23107800  0.65547914  1
  S  S105  1  0.39200357  0.76892200  0.15547914  1
  S  S106  1  0.73107800  0.89200357  0.40547914  1
  S  S107  1  0.26892200  0.10799643  0.90547914  1
  S  S108  1  0.93857087  0.24443957  0.66468707  1
  S  S109  1  0.06142913  0.75556043  0.16468707  1
  S  S110  1  0.74443957  0.56142913  0.41468707  1
  S  S111  1  0.25556043  0.43857087  0.91468707  1
  S  S112  1  0.75556043  0.06142913  0.83531293  1
  S  S113  1  0.24443957  0.93857087  0.33531293  1
  S  S114  1  0.56142913  0.74443957  0.58531293  1
  S  S115  1  0.43857087  0.25556043  0.08531293  1
  N  N116  1  0.84721605  0.14056006  0.04767045  1
  N  N117  1  0.15278395  0.85943994  0.54767045  1
  N  N118  1  0.64056006  0.65278395  0.79767045  1
  N  N119  1  0.35943994  0.34721605  0.29767045  1
  N  N120  1  0.85943994  0.15278395  0.45232955  1
  N  N121  1  0.14056006  0.84721605  0.95232955  1
  N  N122  1  0.65278395  0.64056006  0.20232955  1
  N  N123  1  0.34721605  0.35943994  0.70232955  1
