# generated using pymatgen
data_BiTeO4
_symmetry_space_group_name_H-M   'P 1'
_cell_length_a   6.96778931
_cell_length_b   6.96778931
_cell_length_c   10.27445533
_cell_angle_alpha   67.48140290
_cell_angle_beta   67.48140290
_cell_angle_gamma   47.22644740
_symmetry_Int_Tables_number   1
_chemical_formula_structural   BiTeO4
_chemical_formula_sum   'Bi4 Te4 O16'
_cell_volume   332.63996898
_cell_formula_units_Z   4
loop_
 _symmetry_equiv_pos_site_id
 _symmetry_equiv_pos_as_xyz
  1  'x, y, z'
loop_
 _atom_site_type_symbol
 _atom_site_label
 _atom_site_symmetry_multiplicity
 _atom_site_fract_x
 _atom_site_fract_y
 _atom_site_fract_z
 _atom_site_occupancy
  Bi  Bi0  1  0.02577597  0.97422403  0.50000000  1
  Bi  Bi1  1  0.95084044  0.04915956  0.00000000  1
  Bi  Bi2  1  0.68748987  0.76576266  0.90104727  1
  Bi  Bi3  1  0.23423734  0.31251013  0.09895273  1
  Te  Te4  1  0.50250782  0.49689034  0.75032357  1
  Te  Te5  1  0.50310966  0.49749218  0.24967643  1
  Te  Te6  1  0.34949848  0.18645224  0.63362704  1
  Te  Te7  1  0.81354776  0.65050152  0.36637296  1
  O  O8  1  0.78758841  0.35128541  0.59338327  1
  O  O9  1  0.64871459  0.21241159  0.40661673  1
  O  O10  1  0.20122848  0.64084156  0.90560006  1
  O  O11  1  0.35915844  0.79877152  0.09439994  1
  O  O12  1  0.71817778  0.48097510  0.83419518  1
  O  O13  1  0.51902490  0.28182222  0.16580482  1
  O  O14  1  0.29339726  0.48742564  0.66810285  1
  O  O15  1  0.51257436  0.70660274  0.33189715  1
  O  O16  1  0.91145593  0.71681181  0.15919517  1
  O  O17  1  0.28318819  0.08854407  0.84080483  1
  O  O18  1  0.07809011  0.28895315  0.34595936  1
  O  O19  1  0.71104685  0.92190989  0.65404064  1
  O  O20  1  0.15186941  0.64931212  0.35960029  1
  O  O21  1  0.35068788  0.84813059  0.64039971  1
  O  O22  1  0.84705842  0.36046836  0.12587472  1
  O  O23  1  0.63953164  0.15294158  0.87412528  1
