# generated using pymatgen
data_Rb3Bi2Br9
_symmetry_space_group_name_H-M   'P 1'
_cell_length_a   8.25531125
_cell_length_b   13.49262943
_cell_length_c   19.28297676
_cell_angle_alpha   89.09655089
_cell_angle_beta   90.00000000
_cell_angle_gamma   90.00000000
_symmetry_Int_Tables_number   1
_chemical_formula_structural   Rb3Bi2Br9
_chemical_formula_sum   'Rb12 Bi8 Br36'
_cell_volume   2147.58385398
_cell_formula_units_Z   4
loop_
 _symmetry_equiv_pos_site_id
 _symmetry_equiv_pos_as_xyz
  1  'x, y, z'
loop_
 _atom_site_type_symbol
 _atom_site_label
 _atom_site_symmetry_multiplicity
 _atom_site_fract_x
 _atom_site_fract_y
 _atom_site_fract_z
 _atom_site_occupancy
  Rb  Rb0  1  0.56704618  0.49314898  0.24035859  1
  Rb  Rb1  1  0.06704618  0.00685102  0.75964141  1
  Rb  Rb2  1  0.43295382  0.50685102  0.75964141  1
  Rb  Rb3  1  0.93295382  0.99314898  0.24035859  1
  Rb  Rb4  1  0.42080111  0.15445074  0.08042036  1
  Rb  Rb5  1  0.92080111  0.34554926  0.91957964  1
  Rb  Rb6  1  0.57919889  0.84554926  0.91957964  1
  Rb  Rb7  1  0.07919889  0.65445074  0.08042036  1
  Rb  Rb8  1  0.58475729  0.18491090  0.56592151  1
  Rb  Rb9  1  0.08475729  0.31508910  0.43407849  1
  Rb  Rb10  1  0.41524271  0.81508910  0.43407849  1
  Rb  Rb11  1  0.91524271  0.68491090  0.56592151  1
  Bi  Bi12  1  0.48986273  0.83875935  0.66084558  1
  Bi  Bi13  1  0.98986273  0.66124065  0.33915442  1
  Bi  Bi14  1  0.51013727  0.16124065  0.33915442  1
  Bi  Bi15  1  0.01013727  0.33875935  0.66084558  1
  Bi  Bi16  1  0.49627341  0.82600450  0.16170530  1
  Bi  Bi17  1  0.99627341  0.67399550  0.83829470  1
  Bi  Bi18  1  0.50372659  0.17399550  0.83829470  1
  Bi  Bi19  1  0.00372659  0.32600450  0.16170530  1
  Br  Br20  1  0.47352802  0.04794342  0.71259788  1
  Br  Br21  1  0.97352802  0.45205658  0.28740212  1
  Br  Br22  1  0.52647198  0.95205658  0.28740212  1
  Br  Br23  1  0.02647198  0.54794342  0.71259788  1
  Br  Br24  1  0.30719928  0.77292625  0.78852615  1
  Br  Br25  1  0.80719928  0.72707375  0.21147385  1
  Br  Br26  1  0.69280072  0.22707375  0.21147385  1
  Br  Br27  1  0.19280072  0.27292625  0.78852615  1
  Br  Br28  1  0.20570819  0.18828594  0.25121018  1
  Br  Br29  1  0.70570819  0.31171406  0.74878982  1
  Br  Br30  1  0.79429181  0.81171406  0.74878982  1
  Br  Br31  1  0.29429181  0.68828594  0.25121018  1
  Br  Br32  1  0.50545090  0.31364162  0.94047036  1
  Br  Br33  1  0.00545090  0.18635838  0.05952964  1
  Br  Br34  1  0.49454910  0.68635838  0.05952964  1
  Br  Br35  1  0.99454910  0.81364162  0.94047036  1
  Br  Br36  1  0.49325150  0.34947335  0.39102440  1
  Br  Br37  1  0.99325150  0.15052665  0.60897560  1
  Br  Br38  1  0.50674850  0.65052665  0.60897560  1
  Br  Br39  1  0.00674850  0.84947335  0.39102440  1
  Br  Br40  1  0.71849139  0.58380244  0.88622716  1
  Br  Br41  1  0.21849139  0.91619756  0.11377284  1
  Br  Br42  1  0.28150861  0.41619756  0.11377284  1
  Br  Br43  1  0.78150861  0.08380244  0.88622716  1
  Br  Br44  1  0.80911567  0.45386171  0.08586789  1
  Br  Br45  1  0.30911567  0.04613829  0.91413211  1
  Br  Br46  1  0.19088433  0.54613829  0.91413211  1
  Br  Br47  1  0.69088433  0.95386171  0.08586789  1
  Br  Br48  1  0.70384425  0.62299059  0.40662085  1
  Br  Br49  1  0.20384425  0.87700941  0.59337915  1
  Br  Br50  1  0.29615575  0.37700941  0.59337915  1
  Br  Br51  1  0.79615575  0.12299059  0.40662085  1
  Br  Br52  1  0.81698831  0.41140589  0.55498495  1
  Br  Br53  1  0.31698831  0.08859411  0.44501505  1
  Br  Br54  1  0.18301169  0.58859411  0.44501505  1
  Br  Br55  1  0.68301169  0.91140589  0.55498495  1
