# generated using pymatgen
data_Ba2MgMo4(Se2O11)2
_symmetry_space_group_name_H-M   'P 1'
_cell_length_a   7.71714907
_cell_length_b   8.27894616
_cell_length_c   9.23615419
_cell_angle_alpha   116.07704257
_cell_angle_beta   88.50932283
_cell_angle_gamma   89.24236501
_symmetry_Int_Tables_number   1
_chemical_formula_structural   Ba2MgMo4(Se2O11)2
_chemical_formula_sum   'Ba2 Mg1 Mo4 Se4 O22'
_cell_volume   529.64779787
_cell_formula_units_Z   1
loop_
 _symmetry_equiv_pos_site_id
 _symmetry_equiv_pos_as_xyz
  1  'x, y, z'
loop_
 _atom_site_type_symbol
 _atom_site_label
 _atom_site_symmetry_multiplicity
 _atom_site_fract_x
 _atom_site_fract_y
 _atom_site_fract_z
 _atom_site_occupancy
  Ba  Ba0  1  0.69020900  0.28187900  0.04181500  1
  Ba  Ba1  1  0.18113700  0.74930800  0.99016100  1
  Mg  Mg2  1  0.61399000  0.21090200  0.66715000  1
  Mo  Mo3  1  0.65940700  0.84543300  0.20301600  1
  Mo  Mo4  1  0.16438700  0.15734300  0.77336700  1
  Mo  Mo5  1  0.66999000  0.62128800  0.77947000  1
  Mo  Mo6  1  0.16715800  0.38305700  0.21616800  1
  Se  Se7  1  0.83720800  0.25102600  0.39580600  1
  Se  Se8  1  0.30362600  0.13026200  0.41025200  1
  Se  Se9  1  0.82121000  0.87564700  0.57075400  1
  Se  Se10  1  0.31329100  0.70465200  0.57875900  1
  O  O11  1  0.12534900  0.57207200  0.18277000  1
  O  O12  1  0.57915900  0.81324300  0.00143600  1
  O  O13  1  0.39312700  0.92118400  0.28411300  1
  O  O14  1  0.66077200  0.80024300  0.65256400  1
  O  O15  1  0.39755100  0.62716400  0.71132900  1
  O  O16  1  0.88412100  0.84202400  0.16756300  1
  O  O17  1  0.39375500  0.36269800  0.20124000  1
  O  O18  1  0.89237800  0.38999900  0.30689700  1
  O  O19  1  0.15928700  0.06882100  0.52442300  1
  O  O20  1  0.85470800  0.08890100  0.72970100  1
  O  O21  1  0.62331400  0.44918900  0.85497900  1
  O  O22  1  0.69044400  0.37955800  0.55760400  1
  O  O23  1  0.67459400  0.13596100  0.26619000  1
  O  O24  1  0.63225500  0.63801200  0.20690900  1
  O  O25  1  0.40592700  0.15357100  0.77047500  1
  O  O26  1  0.10818600  0.20153100  0.01344300  1
  O  O27  1  0.16332100  0.14658300  0.27547500  1
  O  O28  1  0.16493700  0.86547400  0.71454100  1
  O  O29  1  0.68944400  0.97383200  0.46997800  1
  O  O30  1  0.88673700  0.67900000  0.80931300  1
  O  O31  1  0.17568600  0.52799000  0.47512000  1
  O  O32  1  0.09313100  0.37871600  0.82579300  1
