# generated using pymatgen
data_MgAg20(BiO4)4
_symmetry_space_group_name_H-M   'P 1'
_cell_length_a   6.00147783
_cell_length_b   9.13661109
_cell_length_c   13.54087827
_cell_angle_alpha   84.65396580
_cell_angle_beta   95.25777290
_cell_angle_gamma   94.15438070
_symmetry_Int_Tables_number   1
_chemical_formula_structural   MgAg20(BiO4)4
_chemical_formula_sum   'Mg1 Ag20 Bi4 O16'
_cell_volume   734.61831033
_cell_formula_units_Z   1
loop_
 _symmetry_equiv_pos_site_id
 _symmetry_equiv_pos_as_xyz
  1  'x, y, z'
loop_
 _atom_site_type_symbol
 _atom_site_label
 _atom_site_symmetry_multiplicity
 _atom_site_fract_x
 _atom_site_fract_y
 _atom_site_fract_z
 _atom_site_occupancy
  Mg  Mg0  1  0.88219153  0.26089102  0.19025663  1
  Ag  Ag1  1  0.17757975  0.69981902  0.13209219  1
  Ag  Ag2  1  0.73042191  0.78186219  0.62820066  1
  Ag  Ag3  1  0.06334960  0.45942661  0.99037989  1
  Ag  Ag4  1  0.48522742  0.02278028  0.50121389  1
  Ag  Ag5  1  0.01038231  0.14454821  0.65209862  1
  Ag  Ag6  1  0.50076431  0.62564967  0.84145596  1
  Ag  Ag7  1  0.97135279  0.89798774  0.36559043  1
  Ag  Ag8  1  0.47075823  0.37467532  0.19532547  1
  Ag  Ag9  1  0.56662502  0.99681528  0.24294925  1
  Ag  Ag10  1  0.87222772  0.52176308  0.27397962  1
  Ag  Ag11  1  0.48280344  0.00439805  0.75069282  1
  Ag  Ag12  1  0.04929571  0.49648460  0.74450418  1
  Ag  Ag13  1  0.55689054  0.98784304  0.98380669  1
  Ag  Ag14  1  0.97742155  0.52088217  0.50878073  1
  Ag  Ag15  1  0.29176555  0.25074334  0.86239995  1
  Ag  Ag16  1  0.22880545  0.77620106  0.62677740  1
  Ag  Ag17  1  0.68898454  0.73763815  0.12789852  1
  Ag  Ag18  1  0.70912239  0.26373910  0.38473037  1
  Ag  Ag19  1  0.78364584  0.25081736  0.86336895  1
  Ag  Ag20  1  0.21114705  0.26439254  0.38746473  1
  Bi  Bi21  1  0.51558933  0.39033259  0.62149900  1
  Bi  Bi22  1  0.00646986  0.84305393  0.86298467  1
  Bi  Bi23  1  0.44573229  0.65865386  0.39220101  1
  Bi  Bi24  1  0.10775460  0.05471496  0.08265497  1
  O  O25  1  0.14476044  0.29818031  0.10874407  1
  O  O26  1  0.40523670  0.89932278  0.37487961  1
  O  O27  1  0.95624559  0.60561690  0.86700238  1
  O  O28  1  0.57478439  0.14901346  0.62652070  1
  O  O29  1  0.00721626  0.90442659  0.69348329  1
  O  O30  1  0.53541085  0.39859061  0.79964651  1
  O  O31  1  0.04069221  0.10297292  0.92331038  1
  O  O32  1  0.46000875  0.64987750  0.56825546  1
  O  O33  1  0.95008053  0.82606440  0.03592492  1
  O  O34  1  0.47684732  0.39185275  0.45566614  1
  O  O35  1  0.76136374  0.09004854  0.10797062  1
  O  O36  1  0.81131681  0.67641539  0.40123781  1
  O  O37  1  0.37605487  0.84487523  0.87368108  1
  O  O38  1  0.14777234  0.37429685  0.62458638  1
  O  O39  1  0.95789976  0.13374485  0.31524836  1
  O  O40  1  0.45175070  0.63287369  0.22407769  1
