# generated using pymatgen
data_Zn3Cd3(TeO6)2
_symmetry_space_group_name_H-M   'P 1'
_cell_length_a   10.86111713
_cell_length_b   10.86111713
_cell_length_c   10.86111713
_cell_angle_alpha   109.47122063
_cell_angle_beta   109.47122063
_cell_angle_gamma   109.47122063
_symmetry_Int_Tables_number   1
_chemical_formula_structural   Zn3Cd3(TeO6)2
_chemical_formula_sum   'Zn12 Cd12 Te8 O48'
_cell_volume   986.28312245
_cell_formula_units_Z   4
loop_
 _symmetry_equiv_pos_site_id
 _symmetry_equiv_pos_as_xyz
  1  'x, y, z'
loop_
 _atom_site_type_symbol
 _atom_site_label
 _atom_site_symmetry_multiplicity
 _atom_site_fract_x
 _atom_site_fract_y
 _atom_site_fract_z
 _atom_site_occupancy
  Zn  Zn0  1  0.25000000  0.62500000  0.37500000  1
  Zn  Zn1  1  0.75000000  0.37500000  0.62500000  1
  Zn  Zn2  1  0.75000000  0.87500000  0.12500000  1
  Zn  Zn3  1  0.37500000  0.25000000  0.62500000  1
  Zn  Zn4  1  0.62500000  0.75000000  0.37500000  1
  Zn  Zn5  1  0.25000000  0.12500000  0.87500000  1
  Zn  Zn6  1  0.12500000  0.75000000  0.87500000  1
  Zn  Zn7  1  0.87500000  0.25000000  0.12500000  1
  Zn  Zn8  1  0.62500000  0.37500000  0.25000000  1
  Zn  Zn9  1  0.37500000  0.62500000  0.75000000  1
  Zn  Zn10  1  0.87500000  0.12500000  0.75000000  1
  Zn  Zn11  1  0.12500000  0.87500000  0.25000000  1
  Cd  Cd12  1  0.25000000  0.37500000  0.12500000  1
  Cd  Cd13  1  0.75000000  0.62500000  0.87500000  1
  Cd  Cd14  1  0.75000000  0.12500000  0.37500000  1
  Cd  Cd15  1  0.12500000  0.25000000  0.37500000  1
  Cd  Cd16  1  0.37500000  0.75000000  0.12500000  1
  Cd  Cd17  1  0.25000000  0.87500000  0.62500000  1
  Cd  Cd18  1  0.87500000  0.75000000  0.62500000  1
  Cd  Cd19  1  0.62500000  0.25000000  0.87500000  1
  Cd  Cd20  1  0.37500000  0.12500000  0.25000000  1
  Cd  Cd21  1  0.62500000  0.87500000  0.75000000  1
  Cd  Cd22  1  0.12500000  0.37500000  0.75000000  1
  Cd  Cd23  1  0.87500000  0.62500000  0.25000000  1
  Te  Te24  1  -0.00000000  -0.00000000  -0.00000000  1
  Te  Te25  1  0.50000000  -0.00000000  0.50000000  1
  Te  Te26  1  -0.00000000  0.50000000  0.50000000  1
  Te  Te27  1  0.50000000  -0.00000000  -0.00000000  1
  Te  Te28  1  0.50000000  0.50000000  -0.00000000  1
  Te  Te29  1  0.50000000  0.50000000  0.50000000  1
  Te  Te30  1  -0.00000000  -0.00000000  0.50000000  1
  Te  Te31  1  -0.00000000  0.50000000  -0.00000000  1
  O  O32  1  0.47713452  0.38173641  0.30762417  1
  O  O33  1  0.52286548  0.61826359  0.69237583  1
  O  O34  1  0.57411224  0.16951135  0.19237583  1
  O  O35  1  0.92588776  0.11826359  0.59539811  1
  O  O36  1  0.30762417  0.47713452  0.38173641  1
  O  O37  1  0.33048865  0.92588776  0.30762417  1
  O  O38  1  0.42588776  0.83048865  0.80762417  1
  O  O39  1  0.07411224  0.88173641  0.40460189  1
  O  O40  1  0.69237583  0.52286548  0.61826359  1
  O  O41  1  0.66951135  0.07411224  0.69237583  1
  O  O42  1  0.02286548  0.33048865  0.90460189  1
  O  O43  1  0.19237583  0.57411224  0.16951135  1
  O  O44  1  0.11826359  0.02286548  0.19237583  1
  O  O45  1  0.97713452  0.66951135  0.09539811  1
  O  O46  1  0.80762417  0.42588776  0.83048865  1
  O  O47  1  0.88173641  0.97713452  0.80762417  1
  O  O48  1  0.59539811  0.92588776  0.11826359  1
  O  O49  1  0.16951135  0.47713452  0.59539811  1
  O  O50  1  0.40460189  0.07411224  0.88173641  1
  O  O51  1  0.83048865  0.52286548  0.40460189  1
  O  O52  1  0.90460189  0.02286548  0.33048865  1
  O  O53  1  0.38173641  0.57411224  0.90460189  1
  O  O54  1  0.09539811  0.97713452  0.66951135  1
  O  O55  1  0.61826359  0.42588776  0.09539811  1
  O  O56  1  0.38173641  0.30762417  0.47713452  1
  O  O57  1  0.57411224  0.90460189  0.38173641  1
  O  O58  1  0.61826359  0.69237583  0.52286548  1
  O  O59  1  0.42588776  0.09539811  0.61826359  1
  O  O60  1  0.11826359  0.59539811  0.92588776  1
  O  O61  1  0.02286548  0.19237583  0.11826359  1
  O  O62  1  0.88173641  0.40460189  0.07411224  1
  O  O63  1  0.97713452  0.80762417  0.88173641  1
  O  O64  1  0.33048865  0.90460189  0.02286548  1
  O  O65  1  0.92588776  0.30762417  0.33048865  1
  O  O66  1  0.66951135  0.09539811  0.97713452  1
  O  O67  1  0.07411224  0.69237583  0.66951135  1
  O  O68  1  0.16951135  0.19237583  0.57411224  1
  O  O69  1  0.47713452  0.59539811  0.16951135  1
  O  O70  1  0.83048865  0.80762417  0.42588776  1
  O  O71  1  0.52286548  0.40460189  0.83048865  1
  O  O72  1  0.30762417  0.33048865  0.92588776  1
  O  O73  1  0.69237583  0.66951135  0.07411224  1
  O  O74  1  0.19237583  0.11826359  0.02286548  1
  O  O75  1  0.80762417  0.88173641  0.97713452  1
  O  O76  1  0.90460189  0.38173641  0.57411224  1
  O  O77  1  0.09539811  0.61826359  0.42588776  1
  O  O78  1  0.59539811  0.16951135  0.47713452  1
  O  O79  1  0.40460189  0.83048865  0.52286548  1
