# generated using pymatgen
data_Tb2ZrSe5
_symmetry_space_group_name_H-M   'P 1'
_cell_length_a   7.62778909
_cell_length_b   8.08729536
_cell_length_c   12.20232582
_cell_angle_alpha   90.00000000
_cell_angle_beta   90.00000000
_cell_angle_gamma   90.00000000
_symmetry_Int_Tables_number   1
_chemical_formula_structural   Tb2ZrSe5
_chemical_formula_sum   'Tb8 Zr4 Se20'
_cell_volume   752.73931205
_cell_formula_units_Z   4
loop_
 _symmetry_equiv_pos_site_id
 _symmetry_equiv_pos_as_xyz
  1  'x, y, z'
loop_
 _atom_site_type_symbol
 _atom_site_label
 _atom_site_symmetry_multiplicity
 _atom_site_fract_x
 _atom_site_fract_y
 _atom_site_fract_z
 _atom_site_occupancy
  Tb  Tb0  1  0.98008599  0.00409574  0.17988173  1
  Tb  Tb1  1  0.51991401  0.49590426  0.67988173  1
  Tb  Tb2  1  0.01991401  0.50409574  0.82011827  1
  Tb  Tb3  1  0.48008599  0.99590426  0.32011827  1
  Tb  Tb4  1  0.01991401  0.99590426  0.82011827  1
  Tb  Tb5  1  0.48008599  0.50409574  0.32011827  1
  Tb  Tb6  1  0.98008599  0.49590426  0.17988173  1
  Tb  Tb7  1  0.51991401  0.00409574  0.67988173  1
  Zr  Zr8  1  0.42093830  0.75000000  0.00483289  1
  Zr  Zr9  1  0.07906170  0.75000000  0.50483289  1
  Zr  Zr10  1  0.57906170  0.25000000  0.99516711  1
  Zr  Zr11  1  0.92093830  0.25000000  0.49516711  1
  Se  Se12  1  0.84012042  0.96287428  0.40435889  1
  Se  Se13  1  0.65987958  0.53712572  0.90435889  1
  Se  Se14  1  0.15987958  0.46287428  0.59564111  1
  Se  Se15  1  0.34012042  0.03712572  0.09564111  1
  Se  Se16  1  0.15987958  0.03712572  0.59564111  1
  Se  Se17  1  0.34012042  0.46287428  0.09564111  1
  Se  Se18  1  0.84012042  0.53712572  0.40435889  1
  Se  Se19  1  0.65987958  0.96287428  0.90435889  1
  Se  Se20  1  0.67096619  0.75000000  0.18004186  1
  Se  Se21  1  0.82903381  0.75000000  0.68004186  1
  Se  Se22  1  0.32903381  0.25000000  0.81995814  1
  Se  Se23  1  0.17096619  0.25000000  0.31995814  1
  Se  Se24  1  0.44936281  0.75000000  0.50272776  1
  Se  Se25  1  0.05063719  0.75000000  0.00272776  1
  Se  Se26  1  0.55063719  0.25000000  0.49727224  1
  Se  Se27  1  0.94936281  0.25000000  0.99727224  1
  Se  Se28  1  0.19179715  0.75000000  0.29180891  1
  Se  Se29  1  0.30820285  0.75000000  0.79180891  1
  Se  Se30  1  0.80820285  0.25000000  0.70819109  1
  Se  Se31  1  0.69179715  0.25000000  0.20819109  1
