# generated using pymatgen
data_SrTb2O4
_symmetry_space_group_name_H-M   'P 1'
_cell_length_a   3.43159163
_cell_length_b   10.08804752
_cell_length_c   11.96403015
_cell_angle_alpha   90.00000000
_cell_angle_beta   90.00000000
_cell_angle_gamma   90.00000000
_symmetry_Int_Tables_number   1
_chemical_formula_structural   SrTb2O4
_chemical_formula_sum   'Sr4 Tb8 O16'
_cell_volume   414.17150679
_cell_formula_units_Z   4
loop_
 _symmetry_equiv_pos_site_id
 _symmetry_equiv_pos_as_xyz
  1  'x, y, z'
loop_
 _atom_site_type_symbol
 _atom_site_label
 _atom_site_symmetry_multiplicity
 _atom_site_fract_x
 _atom_site_fract_y
 _atom_site_fract_z
 _atom_site_occupancy
  Sr  Sr0  1  0.75000000  0.25170073  0.85039191  1
  Sr  Sr1  1  0.25000000  0.74829927  0.14960809  1
  Sr  Sr2  1  0.75000000  0.75170073  0.64960809  1
  Sr  Sr3  1  0.25000000  0.24829927  0.35039191  1
  Tb  Tb4  1  0.25000000  0.57622633  0.88859900  1
  Tb  Tb5  1  0.75000000  0.42377367  0.11140100  1
  Tb  Tb6  1  0.25000000  0.07622633  0.61140100  1
  Tb  Tb7  1  0.75000000  0.92377367  0.38859900  1
  Tb  Tb8  1  0.75000000  0.92091386  0.88839072  1
  Tb  Tb9  1  0.25000000  0.07908614  0.11160928  1
  Tb  Tb10  1  0.75000000  0.42091386  0.61160928  1
  Tb  Tb11  1  0.25000000  0.57908614  0.38839072  1
  O  O12  1  0.25000000  0.57363426  0.57803032  1
  O  O13  1  0.75000000  0.42636574  0.42196968  1
  O  O14  1  0.25000000  0.07363426  0.92196968  1
  O  O15  1  0.75000000  0.92636574  0.07803032  1
  O  O16  1  0.25000000  0.48601989  0.21665036  1
  O  O17  1  0.75000000  0.51398011  0.78334964  1
  O  O18  1  0.25000000  0.98601989  0.28334964  1
  O  O19  1  0.75000000  0.01398011  0.71665036  1
  O  O20  1  0.25000000  0.87266040  0.51937594  1
  O  O21  1  0.75000000  0.12733960  0.48062406  1
  O  O22  1  0.25000000  0.37266040  0.98062406  1
  O  O23  1  0.75000000  0.62733960  0.01937594  1
  O  O24  1  0.75000000  0.71236655  0.32308773  1
  O  O25  1  0.25000000  0.28763345  0.67691227  1
  O  O26  1  0.75000000  0.21236655  0.17691227  1
  O  O27  1  0.25000000  0.78763345  0.82308773  1
