# generated using pymatgen
data_Sm9Al5Se21
_symmetry_space_group_name_H-M   'P 1'
_cell_length_a   12.14119194
_cell_length_b   12.14111344
_cell_length_c   12.14118663
_cell_angle_alpha   95.18668189
_cell_angle_beta   84.81219778
_cell_angle_gamma   84.81231592
_symmetry_Int_Tables_number   1
_chemical_formula_structural   Sm9Al5Se21
_chemical_formula_sum   'Sm18 Al10 Se42'
_cell_volume   1766.28193144
_cell_formula_units_Z   2
loop_
 _symmetry_equiv_pos_site_id
 _symmetry_equiv_pos_as_xyz
  1  'x, y, z'
loop_
 _atom_site_type_symbol
 _atom_site_label
 _atom_site_symmetry_multiplicity
 _atom_site_fract_x
 _atom_site_fract_y
 _atom_site_fract_z
 _atom_site_occupancy
  Sm  Sm0  1  0.25694747  0.11459337  0.87882106  1
  Sm  Sm1  1  0.92096105  0.45697769  0.22347594  1
  Sm  Sm2  1  0.59714962  0.77443070  0.55087685  1
  Sm  Sm3  1  0.44913450  0.40283621  0.77443802  1
  Sm  Sm4  1  0.12117206  0.74304036  0.11459669  1
  Sm  Sm5  1  0.77652627  0.07902540  0.45697606  1
  Sm  Sm6  1  0.54302739  0.22347782  0.07904522  1
  Sm  Sm7  1  0.22557309  0.55087246  0.40284787  1
  Sm  Sm8  1  0.88539664  0.87882616  0.74304588  1
  Sm  Sm9  1  0.41815202  0.21044431  0.44074503  1
  Sm  Sm10  1  0.07150633  0.54975234  0.78244023  1
  Sm  Sm11  1  0.75236989  0.87627093  0.10676297  1
  Sm  Sm12  1  0.21756550  0.92850172  0.54973838  1
  Sm  Sm13  1  0.89323706  0.24763901  0.87626611  1
  Sm  Sm14  1  0.55926261  0.58185176  0.21043597  1
  Sm  Sm15  1  0.12373256  0.10676381  0.24762396  1
  Sm  Sm16  1  0.78956463  0.44073247  0.58184951  1
  Sm  Sm17  1  0.45022925  0.78244906  0.92850589  1
  Al  Al18  1  0.94868992  0.72128062  0.38824248  1
  Al  Al19  1  0.61176755  0.05131241  0.72129830  1
  Al  Al20  1  0.27870719  0.38823039  0.05131615  1
  Al  Al21  1  0.44858346  0.88566793  0.22388839  1
  Al  Al22  1  0.11434090  0.22391126  0.55140880  1
  Al  Al23  1  0.77609206  0.55142291  0.88566760  1
  Al  Al24  1  0.14848850  0.85151174  0.85150679  1
  Al  Al25  1  0.83504964  0.16494577  0.16494776  1
  Al  Al26  1  0.33548327  0.66451518  0.66450872  1
  Al  Al27  1  0.64810608  0.35189741  0.35189482  1
  Se  Se28  1  0.82308968  0.84456787  0.51249984  1
  Se  Se29  1  0.48749782  0.17688135  0.84460714  1
  Se  Se30  1  0.15541763  0.51249618  0.17691101  1
  Se  Se31  1  0.65548659  0.67723673  0.01230803  1
  Se  Se32  1  0.32277968  0.01231549  0.34449011  1
  Se  Se33  1  0.98769870  0.34450721  0.67722939  1
  Se  Se34  1  0.98453961  0.54011908  0.44866032  1
  Se  Se35  1  0.64191121  0.87089626  0.78247393  1
  Se  Se36  1  0.30436945  0.20338850  0.10590503  1
  Se  Se37  1  0.89408368  0.69562689  0.20340382  1
  Se  Se38  1  0.55133969  0.01546423  0.54015177  1
  Se  Se39  1  0.21752825  0.35809091  0.87090057  1
  Se  Se40  1  0.12909279  0.78246908  0.35809035  1
  Se  Se41  1  0.79659784  0.10592978  0.69562408  1
  Se  Se42  1  0.45985107  0.44866196  0.01546294  1
  Se  Se43  1  0.52366139  0.96774750  0.06555364  1
  Se  Se44  1  0.18833771  0.30009343  0.38920360  1
  Se  Se45  1  0.84357316  0.63205575  0.72227636  1
  Se  Se46  1  0.61078550  0.81167827  0.30008884  1
  Se  Se47  1  0.27772271  0.15643425  0.63205568  1
  Se  Se48  1  0.93443241  0.47635005  0.96775038  1
  Se  Se49  1  0.36793627  0.72227514  0.15644070  1
  Se  Se50  1  0.03226407  0.06556732  0.47633945  1
  Se  Se51  1  0.69990498  0.38921631  0.81167070  1
  Se  Se52  1  0.69390366  0.55364983  0.40009228  1
  Se  Se53  1  0.34042807  0.88963965  0.75103623  1
  Se  Se54  1  0.00715649  0.23511534  0.09048405  1
  Se  Se55  1  0.90952241  0.99283527  0.23510754  1
  Se  Se56  1  0.59990588  0.30609792  0.55365197  1
  Se  Se57  1  0.24895753  0.65956660  0.88963798  1
  Se  Se58  1  0.11036809  0.75104541  0.65957091  1
  Se  Se59  1  0.76489608  0.09048916  0.99283327  1
  Se  Se60  1  0.44635913  0.40008807  0.30609116  1
  Se  Se61  1  0.62687149  0.14358572  0.28303386  1
  Se  Se62  1  0.27935239  0.47753997  0.61976124  1
  Se  Se63  1  0.96688790  0.78570231  0.94100756  1
  Se  Se64  1  0.38023599  0.72066334  0.47754470  1
  Se  Se65  1  0.05898795  0.03311466  0.78570650  1
  Se  Se66  1  0.71697180  0.37314454  0.14358931  1
  Se  Se67  1  0.21429491  0.94100233  0.03311468  1
  Se  Se68  1  0.85640831  0.28303077  0.37313692  1
  Se  Se69  1  0.52243949  0.61977237  0.72066472  1
