# generated using pymatgen
data_Mg14CdFeO16
_symmetry_space_group_name_H-M   'P 1'
_cell_length_a   8.63119885
_cell_length_b   8.60254266
_cell_length_c   4.32318103
_cell_angle_alpha   90.00000000
_cell_angle_beta   90.00000000
_cell_angle_gamma   90.00000000
_symmetry_Int_Tables_number   1
_chemical_formula_structural   Mg14CdFeO16
_chemical_formula_sum   'Mg14 Cd1 Fe1 O16'
_cell_volume   320.99729957
_cell_formula_units_Z   1
loop_
 _symmetry_equiv_pos_site_id
 _symmetry_equiv_pos_as_xyz
  1  'x, y, z'
loop_
 _atom_site_type_symbol
 _atom_site_label
 _atom_site_symmetry_multiplicity
 _atom_site_fract_x
 _atom_site_fract_y
 _atom_site_fract_z
 _atom_site_occupancy
  Mg  Mg0  1  0.50000000  0.00000000  0.00000000  1
  Mg  Mg1  1  0.50000000  0.50000000  0.00000000  1
  Mg  Mg2  1  0.00000000  0.24487434  0.50000000  1
  Mg  Mg3  1  0.00000000  0.75512566  0.50000000  1
  Mg  Mg4  1  0.50000000  0.24880629  0.50000000  1
  Mg  Mg5  1  0.50000000  0.75119371  0.50000000  1
  Mg  Mg6  1  0.25015920  0.00000000  0.50000000  1
  Mg  Mg7  1  0.25540436  0.50000000  0.50000000  1
  Mg  Mg8  1  0.74984080  0.00000000  0.50000000  1
  Mg  Mg9  1  0.74459564  0.50000000  0.50000000  1
  Mg  Mg10  1  0.25405522  0.24728072  0.00000000  1
  Mg  Mg11  1  0.25405522  0.75271928  0.00000000  1
  Mg  Mg12  1  0.74594478  0.24728072  0.00000000  1
  Mg  Mg13  1  0.74594478  0.75271928  0.00000000  1
  Cd  Cd14  1  0.00000000  0.50000000  0.00000000  1
  Fe  Fe15  1  0.00000000  0.00000000  0.00000000  1
  O  O16  1  0.25892522  0.00000000  0.00000000  1
  O  O17  1  0.26515585  0.50000000  0.00000000  1
  O  O18  1  0.74107478  0.00000000  0.00000000  1
  O  O19  1  0.73484415  0.50000000  0.00000000  1
  O  O20  1  0.24860923  0.25057467  0.50000000  1
  O  O21  1  0.24860923  0.74942533  0.50000000  1
  O  O22  1  0.75139077  0.25057467  0.50000000  1
  O  O23  1  0.75139077  0.74942533  0.50000000  1
  O  O24  1  0.00000000  0.00000000  0.50000000  1
  O  O25  1  0.00000000  0.50000000  0.50000000  1
  O  O26  1  0.50000000  0.00000000  0.50000000  1
  O  O27  1  0.50000000  0.50000000  0.50000000  1
  O  O28  1  0.00000000  0.23650000  0.00000000  1
  O  O29  1  0.00000000  0.76350000  0.00000000  1
  O  O30  1  0.50000000  0.24866344  0.00000000  1
  O  O31  1  0.50000000  0.75133656  0.00000000  1
