# generated using pymatgen
data_Y9Al(GeS7)3
_symmetry_space_group_name_H-M   'P 1'
_cell_length_a   11.43020820
_cell_length_b   11.43008036
_cell_length_c   11.43004829
_cell_angle_alpha   95.95387535
_cell_angle_beta   84.04517041
_cell_angle_gamma   84.04504116
_symmetry_Int_Tables_number   1
_chemical_formula_structural   Y9Al(GeS7)3
_chemical_formula_sum   'Y18 Al2 Ge6 S42'
_cell_volume   1467.31530801
_cell_formula_units_Z   2
loop_
 _symmetry_equiv_pos_site_id
 _symmetry_equiv_pos_as_xyz
  1  'x, y, z'
loop_
 _atom_site_type_symbol
 _atom_site_label
 _atom_site_symmetry_multiplicity
 _atom_site_fract_x
 _atom_site_fract_y
 _atom_site_fract_z
 _atom_site_occupancy
  Y  Y0  1  0.03818858  0.09460455  0.30664583  1
  Y  Y1  1  0.70425286  0.43449810  0.65975768  1
  Y  Y2  1  0.38124479  0.76155461  0.98239609  1
  Y  Y3  1  0.34023926  0.29574350  0.43449737  1
  Y  Y4  1  0.01760129  0.61875929  0.76156191  1
  Y  Y5  1  0.69335094  0.96180764  0.09460604  1
  Y  Y6  1  0.23844670  0.98238940  0.61876070  1
  Y  Y7  1  0.90539323  0.30664057  0.96181761  1
  Y  Y8  1  0.56550234  0.65975442  0.29575081  1
  Y  Y9  1  0.54391472  0.31601729  0.09243064  1
  Y  Y10  1  0.21972274  0.64672525  0.43589842  1
  Y  Y11  1  0.86868956  0.99009090  0.76683821  1
  Y  Y12  1  0.23316242  0.13131236  0.99008866  1
  Y  Y13  1  0.90756960  0.45608720  0.31601964  1
  Y  Y14  1  0.56409892  0.78028259  0.64672166  1
  Y  Y15  1  0.35327191  0.43590931  0.78027201  1
  Y  Y16  1  0.00990914  0.76684370  0.13130731  1
  Y  Y17  1  0.68397753  0.09243366  0.45608194  1
  Al  Al18  1  0.10912284  0.89088138  0.89087877  1
  Al  Al19  1  0.60904239  0.39095635  0.39095911  1
  Ge  Ge20  1  0.90242408  0.76620448  0.43199483  1
  Ge  Ge21  1  0.56800244  0.09758234  0.76619756  1
  Ge  Ge22  1  0.23380011  0.43199985  0.09757580  1
  Ge  Ge23  1  0.40139612  0.93242021  0.26461567  1
  Ge  Ge24  1  0.06757453  0.26460665  0.59861444  1
  Ge  Ge25  1  0.73538697  0.59860465  0.93242690  1
  S  S26  1  0.06829409  0.83820088  0.36537787  1
  S  S27  1  0.72913097  0.17354852  0.69084479  1
  S  S28  1  0.39501383  0.50651640  0.02232569  1
  S  S29  1  0.97767006  0.60498593  0.50651468  1
  S  S30  1  0.63461694  0.93170534  0.83819725  1
  S  S31  1  0.30915160  0.27086901  0.17354111  1
  S  S32  1  0.82645883  0.69085194  0.27086725  1
  S  S33  1  0.49348782  0.02233165  0.60498235  1
  S  S34  1  0.16180015  0.36538206  0.93170630  1
  S  S35  1  0.34592470  0.75076578  0.22802486  1
  S  S36  1  0.01022225  0.08476607  0.55868238  1
  S  S37  1  0.68167963  0.41596867  0.90353707  1
  S  S38  1  0.44131881  0.98977576  0.08477049  1
  S  S39  1  0.09646405  0.31831997  0.41597688  1
  S  S40  1  0.77197719  0.65407660  0.75076965  1
  S  S41  1  0.58403062  0.90353054  0.31832317  1
  S  S42  1  0.24923175  0.22801749  0.65407993  1
  S  S43  1  0.91522677  0.55867862  0.98978076  1
  S  S44  1  0.84204291  0.00013022  0.26198711  1
  S  S45  1  0.51196359  0.33869300  0.58201930  1
  S  S46  1  0.16707399  0.69146807  0.92920036  1
  S  S47  1  0.07080020  0.83292762  0.69146804  1
  S  S48  1  0.73800608  0.15795613  0.00012797  1
  S  S49  1  0.41797932  0.48803410  0.33869169  1
  S  S50  1  0.66131106  0.58202131  0.48803765  1
  S  S51  1  0.30853593  0.92920147  0.83292855  1
  S  S52  1  0.99987720  0.26199341  0.15795878  1
  S  S53  1  0.37828614  0.77979232  0.51821965  1
  S  S54  1  0.04811931  0.10010464  0.85618453  1
  S  S55  1  0.69707793  0.44453907  0.20692874  1
  S  S56  1  0.14381474  0.95188008  0.10010203  1
  S  S57  1  0.79307343  0.30292774  0.44454254  1
  S  S58  1  0.48178229  0.62171446  0.77979364  1
  S  S59  1  0.55545514  0.20692641  0.30292365  1
  S  S60  1  0.22020089  0.51821975  0.62171038  1
  S  S61  1  0.89989063  0.85618266  0.95187496  1
  S  S62  1  0.61411762  0.72753497  0.05832404  1
  S  S63  1  0.27246659  0.05832387  0.38588016  1
  S  S64  1  0.94167555  0.38588089  0.72753949  1
  S  S65  1  0.77299695  0.88562234  0.55917905  1
  S  S66  1  0.44082079  0.22701007  0.88561814  1
  S  S67  1  0.11437964  0.55917988  0.22700749  1
