# generated using pymatgen
data_RbTlS2
_symmetry_space_group_name_H-M   'P 1'
_cell_length_a   8.04554256
_cell_length_b   8.04545731
_cell_length_c   15.84484845
_cell_angle_alpha   82.61262593
_cell_angle_beta   82.61242937
_cell_angle_gamma   90.00417789
_symmetry_Int_Tables_number   1
_chemical_formula_structural   RbTlS2
_chemical_formula_sum   'Rb8 Tl8 S16'
_cell_volume   1008.53798353
_cell_formula_units_Z   8
loop_
 _symmetry_equiv_pos_site_id
 _symmetry_equiv_pos_as_xyz
  1  'x, y, z'
loop_
 _atom_site_type_symbol
 _atom_site_label
 _atom_site_symmetry_multiplicity
 _atom_site_fract_x
 _atom_site_fract_y
 _atom_site_fract_z
 _atom_site_occupancy
  Rb  Rb0  1  0.34581474  0.22267970  0.61547195  1
  Rb  Rb1  1  0.65418572  0.77731966  0.38453121  1
  Rb  Rb2  1  0.77731869  0.65418247  0.88453120  1
  Rb  Rb3  1  0.22268113  0.34581822  0.11546579  1
  Rb  Rb4  1  0.77541327  0.15330024  0.88836142  1
  Rb  Rb5  1  0.22458556  0.84669903  0.11163721  1
  Rb  Rb6  1  0.84670050  0.22458402  0.61164125  1
  Rb  Rb7  1  0.15329784  0.77541441  0.38836077  1
  Tl  Tl8  1  0.28886978  0.91464116  0.84086646  1
  Tl  Tl9  1  0.71113911  0.08536854  0.15913196  1
  Tl  Tl10  1  0.08537407  0.71113489  0.65914321  1
  Tl  Tl11  1  0.91462168  0.28886704  0.34085562  1
  Tl  Tl12  1  0.58381219  0.71102122  0.65913833  1
  Tl  Tl13  1  0.41618076  0.28897896  0.34086164  1
  Tl  Tl14  1  0.28898489  0.41617819  0.84086624  1
  Tl  Tl15  1  0.71100780  0.58381574  0.15913376  1
  S  S16  1  0.57399578  0.95058735  0.74960605  1
  S  S17  1  0.42601394  0.04940792  0.25039429  1
  S  S18  1  0.04941105  0.42600999  0.75040224  1
  S  S19  1  0.95059113  0.57398945  0.24959545  1
  S  S20  1  0.36000642  0.73489990  0.55952285  1
  S  S21  1  0.63999225  0.26510392  0.44047458  1
  S  S22  1  0.26510463  0.63999844  0.94047811  1
  S  S23  1  0.73489419  0.36000347  0.05952122  1
  S  S24  1  0.57423401  0.42577377  0.74999931  1
  S  S25  1  0.42576290  0.57423498  0.25000248  1
  S  S26  1  0.26600319  0.14031933  0.94034038  1
  S  S27  1  0.73399627  0.85967845  0.05966140  1
  S  S28  1  0.85968992  0.73399967  0.55967044  1
  S  S29  1  0.14031282  0.26599372  0.44033367  1
  S  S30  1  0.04962274  0.95040467  0.74999754  1
  S  S31  1  0.95038102  0.04959146  0.25000397  1
