# generated using pymatgen
data_NaIn(GeO3)2
_symmetry_space_group_name_H-M   'P 1'
_cell_length_a   6.87465586
_cell_length_b   6.87465586
_cell_length_c   5.61992046
_cell_angle_alpha   77.17461453
_cell_angle_beta   77.17461453
_cell_angle_gamma   83.38289669
_symmetry_Int_Tables_number   1
_chemical_formula_structural   NaIn(GeO3)2
_chemical_formula_sum   'Na2 In2 Ge4 O12'
_cell_volume   251.90637643
_cell_formula_units_Z   2
loop_
 _symmetry_equiv_pos_site_id
 _symmetry_equiv_pos_as_xyz
  1  'x, y, z'
loop_
 _atom_site_type_symbol
 _atom_site_label
 _atom_site_symmetry_multiplicity
 _atom_site_fract_x
 _atom_site_fract_y
 _atom_site_fract_z
 _atom_site_occupancy
  Na  Na0  1  0.30334186  0.69665814  0.75000000  1
  Na  Na1  1  0.69665814  0.30334186  0.25000000  1
  In  In2  1  0.89994079  0.10005921  0.75000000  1
  In  In3  1  0.10005921  0.89994079  0.25000000  1
  Ge  Ge4  1  0.79970794  0.61746998  0.74730383  1
  Ge  Ge5  1  0.38253002  0.20029206  0.75269617  1
  Ge  Ge6  1  0.20029206  0.38253002  0.25269617  1
  Ge  Ge7  1  0.61746998  0.79970794  0.24730383  1
  O  O8  1  0.90491099  0.38038094  0.83628094  1
  O  O9  1  0.61961906  0.09508901  0.66371906  1
  O  O10  1  0.09508901  0.61961906  0.16371906  1
  O  O11  1  0.38038094  0.90491099  0.33628094  1
  O  O12  1  0.97123570  0.80393347  0.64392525  1
  O  O13  1  0.19606653  0.02876430  0.85607475  1
  O  O14  1  0.02876430  0.19606653  0.35607475  1
  O  O15  1  0.80393347  0.97123570  0.14392525  1
  O  O16  1  0.65973023  0.61998766  0.51652663  1
  O  O17  1  0.38001234  0.34026977  0.98347337  1
  O  O18  1  0.34026977  0.38001234  0.48347337  1
  O  O19  1  0.61998766  0.65973023  0.01652663  1
