# generated using pymatgen
data_K6MnS4
_symmetry_space_group_name_H-M   'P 1'
_cell_length_a   9.85162435
_cell_length_b   9.85161611
_cell_length_c   7.70603713
_cell_angle_alpha   90.00009717
_cell_angle_beta   89.99994944
_cell_angle_gamma   119.99965623
_symmetry_Int_Tables_number   1
_chemical_formula_structural   K6MnS4
_chemical_formula_sum   'K12 Mn2 S8'
_cell_volume   647.70694995
_cell_formula_units_Z   2
loop_
 _symmetry_equiv_pos_site_id
 _symmetry_equiv_pos_as_xyz
  1  'x, y, z'
loop_
 _atom_site_type_symbol
 _atom_site_label
 _atom_site_symmetry_multiplicity
 _atom_site_fract_x
 _atom_site_fract_y
 _atom_site_fract_z
 _atom_site_occupancy
  K  K0  1  0.52986176  0.05972487  0.36653431  1
  K  K1  1  0.47012931  0.52987059  0.86653883  1
  K  K2  1  0.94027509  0.47013814  0.36653459  1
  K  K3  1  0.52986184  0.47013832  0.36653430  1
  K  K4  1  0.14665897  0.85334172  0.54200907  1
  K  K5  1  0.29331273  0.14665668  0.04201315  1
  K  K6  1  0.05974237  0.52987054  0.86653897  1
  K  K7  1  0.85334420  0.70668716  0.04201331  1
  K  K8  1  0.85334383  0.14665673  0.04201302  1
  K  K9  1  0.70668245  0.85334199  0.54200903  1
  K  K10  1  0.14665890  0.29331734  0.54200891  1
  K  K11  1  0.47012929  0.94025886  0.86653928  1
  Mn  Mn12  1  0.66666683  0.33333276  0.75222821  1
  Mn  Mn13  1  0.33333351  0.66666664  0.25223210  1
  S  S14  1  0.80371688  0.19628320  0.65278533  1
  S  S15  1  0.60743478  0.80371746  0.15278724  1
  S  S16  1  0.19628289  0.39256487  0.15278608  1
  S  S17  1  0.80371703  0.60743518  0.65278493  1
  S  S18  1  0.39256438  0.19628279  0.65278480  1
  S  S19  1  0.19628320  0.80371649  0.15278900  1
  S  S20  1  0.66666655  0.33333308  0.07146367  1
  S  S21  1  0.33333322  0.66666660  0.57146688  1
