# generated using pymatgen
data_Mg4Nb2O9
_symmetry_space_group_name_H-M   'P 1'
_cell_length_a   5.17778954
_cell_length_b   5.17778907
_cell_length_c   14.04814190
_cell_angle_alpha   89.99992370
_cell_angle_beta   90.00007371
_cell_angle_gamma   119.99998534
_symmetry_Int_Tables_number   1
_chemical_formula_structural   Mg4Nb2O9
_chemical_formula_sum   'Mg8 Nb4 O18'
_cell_volume   326.16573071
_cell_formula_units_Z   2
loop_
 _symmetry_equiv_pos_site_id
 _symmetry_equiv_pos_as_xyz
  1  'x, y, z'
loop_
 _atom_site_type_symbol
 _atom_site_label
 _atom_site_symmetry_multiplicity
 _atom_site_fract_x
 _atom_site_fract_y
 _atom_site_fract_z
 _atom_site_occupancy
  Mg  Mg0  1  0.66667727  0.33334360  0.51634092  1
  Mg  Mg1  1  0.33334344  0.66667715  0.98365908  1
  Mg  Mg2  1  0.33332277  0.66665657  0.48365039  1
  Mg  Mg3  1  0.66665628  0.33332248  0.01634958  1
  Mg  Mg4  1  0.66669799  0.33336587  0.30859126  1
  Mg  Mg5  1  0.33336597  0.66669786  0.19140869  1
  Mg  Mg6  1  0.33330208  0.66663404  0.69140654  1
  Mg  Mg7  1  0.66663397  0.33330188  0.80859348  1
  Nb  Nb8  1  0.00000345  0.00000557  0.35846644  1
  Nb  Nb9  1  0.00000544  0.00000307  0.14153352  1
  Nb  Nb10  1  -0.00000351  -0.00000544  0.64153243  1
  Nb  Nb11  1  -0.00000553  -0.00000386  0.85846757  1
  O  O12  1  0.34987931  0.02913789  0.91585804  1
  O  O13  1  0.97086203  0.32073750  0.91585811  1
  O  O14  1  0.67926027  0.65012340  0.91585820  1
  O  O15  1  0.32073770  0.97086204  0.58414190  1
  O  O16  1  0.65012356  0.67926038  0.58414183  1
  O  O17  1  0.02913786  0.34987924  0.58414200  1
  O  O18  1  0.65010531  0.97086157  0.08415133  1
  O  O19  1  0.02913811  0.67924674  0.08415126  1
  O  O20  1  0.32075482  0.34989162  0.08415117  1
  O  O21  1  0.67924721  0.02913845  0.41584875  1
  O  O22  1  0.34989173  0.32075487  0.41584885  1
  O  O23  1  0.97086166  0.65010531  0.41584871  1
  O  O24  1  0.29132775  0.00000206  0.25000042  1
  O  O25  1  0.00000218  0.29132763  0.24999953  1
  O  O26  1  0.70867550  0.70867548  0.25000003  1
  O  O27  1  0.70867089  -0.00000238  0.74999957  1
  O  O28  1  -0.00000229  0.70867079  0.75000043  1
  O  O29  1  0.29132575  0.29132563  0.74999998  1
