# generated using pymatgen
data_SrGeO3
_symmetry_space_group_name_H-M   'P 1'
_cell_length_a   7.26079034
_cell_length_b   7.26079034
_cell_length_c   11.28756380
_cell_angle_alpha   71.65165741
_cell_angle_beta   71.65165741
_cell_angle_gamma   60.11372609
_symmetry_Int_Tables_number   1
_chemical_formula_structural   SrGeO3
_chemical_formula_sum   'Sr6 Ge6 O18'
_cell_volume   480.60186377
_cell_formula_units_Z   6
loop_
 _symmetry_equiv_pos_site_id
 _symmetry_equiv_pos_as_xyz
  1  'x, y, z'
loop_
 _atom_site_type_symbol
 _atom_site_label
 _atom_site_symmetry_multiplicity
 _atom_site_fract_x
 _atom_site_fract_y
 _atom_site_fract_z
 _atom_site_occupancy
  Sr  Sr0  1  0.00000000  0.50000000  0.50000000  1
  Sr  Sr1  1  0.50000000  -0.00000000  -0.00000000  1
  Sr  Sr2  1  0.15828594  0.67039209  0.99933515  1
  Sr  Sr3  1  0.32960791  0.84171406  0.50066485  1
  Sr  Sr4  1  0.84171406  0.32960791  0.00066485  1
  Sr  Sr5  1  0.67039209  0.15828594  0.49933515  1
  Ge  Ge6  1  0.84362405  0.15637595  0.75000000  1
  Ge  Ge7  1  0.15637595  0.84362405  0.25000000  1
  Ge  Ge8  1  0.32259677  0.41808432  0.74652136  1
  Ge  Ge9  1  0.58191568  0.67740323  0.75347864  1
  Ge  Ge10  1  0.67740323  0.58191568  0.25347864  1
  Ge  Ge11  1  0.41808432  0.32259677  0.24652136  1
  O  O12  1  0.34979715  0.65020285  0.75000000  1
  O  O13  1  0.65020285  0.34979715  0.25000000  1
  O  O14  1  0.88795754  0.01062082  0.89920574  1
  O  O15  1  0.98937918  0.11204246  0.60079426  1
  O  O16  1  0.11204246  0.98937918  0.10079426  1
  O  O17  1  0.01062082  0.88795754  0.39920574  1
  O  O18  1  0.58282850  0.18475254  0.74853529  1
  O  O19  1  0.81524746  0.41717150  0.75146471  1
  O  O20  1  0.41717150  0.81524746  0.25146471  1
  O  O21  1  0.18475254  0.58282850  0.24853529  1
  O  O22  1  0.17608917  0.36866857  0.89484864  1
  O  O23  1  0.63133143  0.82391083  0.60515136  1
  O  O24  1  0.46837021  0.28129183  0.09515995  1
  O  O25  1  0.71870817  0.53162979  0.40484005  1
  O  O26  1  0.53162979  0.71870817  0.90484005  1
  O  O27  1  0.28129183  0.46837021  0.59515995  1
  O  O28  1  0.36866857  0.17608917  0.39484864  1
  O  O29  1  0.82391083  0.63133143  0.10515136  1
