# generated using pymatgen
data_Rb4WO5
_symmetry_space_group_name_H-M   'P 1'
_cell_length_a   6.53089751
_cell_length_b   10.65368635
_cell_length_c   17.66327471
_cell_angle_alpha   94.49679699
_cell_angle_beta   92.10988836
_cell_angle_gamma   96.47856207
_symmetry_Int_Tables_number   1
_chemical_formula_structural   Rb4WO5
_chemical_formula_sum   'Rb24 W6 O30'
_cell_volume   1216.07647593
_cell_formula_units_Z   6
loop_
 _symmetry_equiv_pos_site_id
 _symmetry_equiv_pos_as_xyz
  1  'x, y, z'
loop_
 _atom_site_type_symbol
 _atom_site_label
 _atom_site_symmetry_multiplicity
 _atom_site_fract_x
 _atom_site_fract_y
 _atom_site_fract_z
 _atom_site_occupancy
  Rb  Rb0  1  0.00926972  0.51108924  0.17949060  1
  Rb  Rb1  1  0.99073028  0.48891076  0.82050940  1
  Rb  Rb2  1  0.53999726  0.20316211  0.50387692  1
  Rb  Rb3  1  0.46000274  0.79683789  0.49612308  1
  Rb  Rb4  1  0.07475770  0.69007543  0.00422267  1
  Rb  Rb5  1  0.92524230  0.30992457  0.99577733  1
  Rb  Rb6  1  0.07212037  0.85282231  0.21992068  1
  Rb  Rb7  1  0.92787963  0.14717769  0.78007932  1
  Rb  Rb8  1  0.55023440  0.00085902  0.32039579  1
  Rb  Rb9  1  0.44976560  0.99914098  0.67960421  1
  Rb  Rb10  1  0.23110644  0.03763077  0.05823208  1
  Rb  Rb11  1  0.76889356  0.96236923  0.94176792  1
  Rb  Rb12  1  0.43849627  0.40823303  0.09378330  1
  Rb  Rb13  1  0.56150373  0.59176697  0.90621670  1
  Rb  Rb14  1  0.71973317  0.38549471  0.34410265  1
  Rb  Rb15  1  0.28026683  0.61450529  0.65589735  1
  Rb  Rb16  1  0.23886535  0.45344019  0.42787056  1
  Rb  Rb17  1  0.76113465  0.54655981  0.57212944  1
  Rb  Rb18  1  0.73279937  0.09559392  0.14655760  1
  Rb  Rb19  1  0.26720063  0.90440608  0.85344240  1
  Rb  Rb20  1  0.05362487  0.08084636  0.41690459  1
  Rb  Rb21  1  0.94637513  0.91915364  0.58309541  1
  Rb  Rb22  1  0.45160874  0.66272284  0.29024041  1
  Rb  Rb23  1  0.54839126  0.33727716  0.70975959  1
  W  W24  1  0.06228135  0.27533356  0.59349778  1
  W  W25  1  0.93771865  0.72466644  0.40650222  1
  W  W26  1  0.59881647  0.75775845  0.09773446  1
  W  W27  1  0.40118353  0.24224155  0.90226554  1
  W  W28  1  0.21754719  0.23380247  0.24885371  1
  W  W29  1  0.78245281  0.76619753  0.75114629  1
  O  O30  1  0.06721014  0.68368858  0.49442761  1
  O  O31  1  0.93278986  0.31631142  0.50557239  1
  O  O32  1  0.14925512  0.13964460  0.92347790  1
  O  O33  1  0.85074488  0.86035540  0.07652210  1
  O  O34  1  0.35130771  0.21835555  0.34620964  1
  O  O35  1  0.64869229  0.78164445  0.65379036  1
  O  O36  1  0.21039922  0.13614433  0.58674173  1
  O  O37  1  0.78960078  0.86385567  0.41325827  1
  O  O38  1  0.09531208  0.25791627  0.15032048  1
  O  O39  1  0.90468792  0.74208373  0.84967952  1
  O  O40  1  0.34167823  0.09994355  0.20688380  1
  O  O41  1  0.65832177  0.90005645  0.79311620  1
  O  O42  1  0.34991546  0.66004740  0.12358792  1
  O  O43  1  0.65008454  0.33995260  0.87641208  1
  O  O44  1  0.38044504  0.15909107  0.80567516  1
  O  O45  1  0.61955496  0.84090893  0.19432484  1
  O  O46  1  0.46267502  0.81906555  0.01678291  1
  O  O47  1  0.53732498  0.18093445  0.98321709  1
  O  O48  1  0.17848263  0.83352421  0.38239472  1
  O  O49  1  0.82151737  0.16647579  0.61760528  1
  O  O50  1  0.31116483  0.38059165  0.57269857  1
  O  O51  1  0.68883517  0.61940835  0.42730143  1
  O  O52  1  0.72380922  0.61162593  0.07631678  1
  O  O53  1  0.27619078  0.38837407  0.92368322  1
  O  O54  1  0.95909643  0.19286968  0.28585472  1
  O  O55  1  0.04090357  0.80713032  0.71414528  1
  O  O56  1  0.04121489  0.37569121  0.68275062  1
  O  O57  1  0.95878511  0.62430879  0.31724938  1
  O  O58  1  0.34508555  0.39993990  0.25313260  1
  O  O59  1  0.65491445  0.60006010  0.74686740  1
