# generated using pymatgen
data_ErBiW2O9
_symmetry_space_group_name_H-M   'P 1'
_cell_length_a   3.91632700
_cell_length_b   5.74883500
_cell_length_c   16.35640900
_cell_angle_alpha   90.00000000
_cell_angle_beta   90.00000000
_cell_angle_gamma   90.00000000
_symmetry_Int_Tables_number   1
_chemical_formula_structural   ErBiW2O9
_chemical_formula_sum   'Er2 Bi2 W4 O18'
_cell_volume   368.25338913
_cell_formula_units_Z   2
loop_
 _symmetry_equiv_pos_site_id
 _symmetry_equiv_pos_as_xyz
  1  'x, y, z'
loop_
 _atom_site_type_symbol
 _atom_site_label
 _atom_site_symmetry_multiplicity
 _atom_site_fract_x
 _atom_site_fract_y
 _atom_site_fract_z
 _atom_site_occupancy
  Er  Er0  1  0.75000000  0.75000000  0.66564800  1
  Er  Er1  1  0.25000000  0.25000000  0.33435200  1
  Bi  Bi2  1  0.75000000  0.25000000  0.05334600  1
  Bi  Bi3  1  0.25000000  0.75000000  0.94665400  1
  W  W4  1  0.75000000  0.75000000  0.41319100  1
  W  W5  1  0.25000000  0.25000000  0.58680900  1
  W  W6  1  0.75000000  0.25000000  0.84003700  1
  W  W7  1  0.25000000  0.75000000  0.15996300  1
  O  O8  1  0.75000000  0.75000000  0.52357100  1
  O  O9  1  0.25000000  0.25000000  0.47642900  1
  O  O10  1  0.75000000  0.48018800  0.94119000  1
  O  O11  1  0.75000000  0.01981200  0.94119000  1
  O  O12  1  0.25000000  0.98018800  0.05881000  1
  O  O13  1  0.25000000  0.51981200  0.05881000  1
  O  O14  1  0.75000000  0.75000000  0.14656200  1
  O  O15  1  0.25000000  0.25000000  0.85343800  1
  O  O16  1  0.25000000  0.75000000  0.40467000  1
  O  O17  1  0.75000000  0.25000000  0.59533000  1
  O  O18  1  0.25000000  0.50022900  0.22865700  1
  O  O19  1  0.25000000  0.99977100  0.22865700  1
  O  O20  1  0.75000000  0.00022900  0.77134300  1
  O  O21  1  0.75000000  0.49977100  0.77134300  1
  O  O22  1  0.25000000  0.53089900  0.64259300  1
  O  O23  1  0.25000000  0.96910100  0.64259300  1
  O  O24  1  0.75000000  0.03089900  0.35740700  1
  O  O25  1  0.75000000  0.46910100  0.35740700  1
