# generated using pymatgen
data_KMg6WO8
_symmetry_space_group_name_H-M   'P 1'
_cell_length_a   8.96777234
_cell_length_b   4.47747452
_cell_length_c   4.47747452
_cell_angle_alpha   90.00000000
_cell_angle_beta   90.00000000
_cell_angle_gamma   90.00000000
_symmetry_Int_Tables_number   1
_chemical_formula_structural   KMg6WO8
_chemical_formula_sum   'K1 Mg6 W1 O8'
_cell_volume   179.78390972
_cell_formula_units_Z   1
loop_
 _symmetry_equiv_pos_site_id
 _symmetry_equiv_pos_as_xyz
  1  'x, y, z'
loop_
 _atom_site_type_symbol
 _atom_site_label
 _atom_site_symmetry_multiplicity
 _atom_site_fract_x
 _atom_site_fract_y
 _atom_site_fract_z
 _atom_site_occupancy
  K  K0  1  -0.00000000  0.00000000  0.00000000  1
  Mg  Mg1  1  -0.00000000  0.50000000  0.50000000  1
  Mg  Mg2  1  0.50000000  0.50000000  0.50000000  1
  Mg  Mg3  1  0.23426547  0.00000000  0.50000000  1
  Mg  Mg4  1  0.76573453  -0.00000000  0.50000000  1
  Mg  Mg5  1  0.23426547  0.50000000  0.00000000  1
  Mg  Mg6  1  0.76573453  0.50000000  -0.00000000  1
  W  W7  1  0.50000000  0.00000000  0.00000000  1
  O  O8  1  0.26655792  0.00000000  -0.00000000  1
  O  O9  1  0.73344208  0.00000000  0.00000000  1
  O  O10  1  0.25460812  0.50000000  0.50000000  1
  O  O11  1  0.74539188  0.50000000  0.50000000  1
  O  O12  1  -0.00000000  0.00000000  0.50000000  1
  O  O13  1  0.50000000  0.00000000  0.50000000  1
  O  O14  1  -0.00000000  0.50000000  0.00000000  1
  O  O15  1  0.50000000  0.50000000  0.00000000  1
