# generated using pymatgen
data_SmAg(WO4)2
_symmetry_space_group_name_H-M   'P 1'
_cell_length_a   7.40500965
_cell_length_b   7.40500965
_cell_length_c   7.28810156
_cell_angle_alpha   65.57374352
_cell_angle_beta   65.57374352
_cell_angle_gamma   94.52377412
_symmetry_Int_Tables_number   1
_chemical_formula_structural   SmAg(WO4)2
_chemical_formula_sum   'Sm2 Ag2 W4 O16'
_cell_volume   315.89127339
_cell_formula_units_Z   2
loop_
 _symmetry_equiv_pos_site_id
 _symmetry_equiv_pos_as_xyz
  1  'x, y, z'
loop_
 _atom_site_type_symbol
 _atom_site_label
 _atom_site_symmetry_multiplicity
 _atom_site_fract_x
 _atom_site_fract_y
 _atom_site_fract_z
 _atom_site_occupancy
  Sm  Sm0  1  0.69505827  0.30494173  0.00000000  1
  Sm  Sm1  1  0.30494173  0.69505827  0.00000000  1
  Ag  Ag2  1  0.68817419  0.68817419  0.48469960  1
  Ag  Ag3  1  0.31182581  0.31182581  0.51530040  1
  W  W4  1  0.20832476  0.20832476  0.02871398  1
  W  W5  1  0.79167524  0.79167524  0.97128602  1
  W  W6  1  0.83576449  0.16423551  0.50000000  1
  W  W7  1  0.16423551  0.83576449  0.50000000  1
  O  O8  1  0.34626549  0.10041809  0.24487909  1
  O  O9  1  0.65373451  0.89958191  0.75512091  1
  O  O10  1  0.89958191  0.65373451  0.75512091  1
  O  O11  1  0.10041809  0.34626549  0.24487909  1
  O  O12  1  0.68503372  0.21328252  0.35790685  1
  O  O13  1  0.31496628  0.78671748  0.64209315  1
  O  O14  1  0.78671748  0.31496628  0.64209315  1
  O  O15  1  0.21328252  0.68503372  0.35790685  1
  O  O16  1  0.69806363  0.95365954  0.09216184  1
  O  O17  1  0.30193637  0.04634046  0.90783816  1
  O  O18  1  0.04634046  0.30193637  0.90783816  1
  O  O19  1  0.95365954  0.69806363  0.09216184  1
  O  O20  1  0.97882460  0.97882460  0.33757034  1
  O  O21  1  0.02117540  0.02117540  0.66242966  1
  O  O22  1  0.55959354  0.55959354  0.13623362  1
  O  O23  1  0.44040646  0.44040646  0.86376638  1
