# generated using pymatgen
data_Tm2Ge2O7
_symmetry_space_group_name_H-M   'P 1'
_cell_length_a   6.73026885
_cell_length_b   6.73026885
_cell_length_c   12.25045910
_cell_angle_alpha   90.00000000
_cell_angle_beta   90.00000000
_cell_angle_gamma   90.00000000
_symmetry_Int_Tables_number   1
_chemical_formula_structural   Tm2Ge2O7
_chemical_formula_sum   'Tm8 Ge8 O28'
_cell_volume   554.90315085
_cell_formula_units_Z   4
loop_
 _symmetry_equiv_pos_site_id
 _symmetry_equiv_pos_as_xyz
  1  'x, y, z'
loop_
 _atom_site_type_symbol
 _atom_site_label
 _atom_site_symmetry_multiplicity
 _atom_site_fract_x
 _atom_site_fract_y
 _atom_site_fract_z
 _atom_site_occupancy
  Tm  Tm0  1  0.64474139  0.12662619  0.36439362  1
  Tm  Tm1  1  0.35525861  0.87337381  0.86439362  1
  Tm  Tm2  1  0.12662619  0.64474139  0.63560638  1
  Tm  Tm3  1  0.62662619  0.85525861  0.11439362  1
  Tm  Tm4  1  0.37337381  0.14474139  0.61439362  1
  Tm  Tm5  1  0.85525861  0.62662619  0.88560638  1
  Tm  Tm6  1  0.14474139  0.37337381  0.38560638  1
  Tm  Tm7  1  0.87337381  0.35525861  0.13560638  1
  Ge  Ge8  1  0.84961961  0.10066167  0.88218089  1
  Ge  Ge9  1  0.15038039  0.89933833  0.38218089  1
  Ge  Ge10  1  0.10066167  0.84961961  0.11781911  1
  Ge  Ge11  1  0.60066167  0.65038039  0.63218089  1
  Ge  Ge12  1  0.39933833  0.34961961  0.13218089  1
  Ge  Ge13  1  0.65038039  0.60066167  0.36781911  1
  Ge  Ge14  1  0.34961961  0.39933833  0.86781911  1
  Ge  Ge15  1  0.89933833  0.15038039  0.61781911  1
  O  O16  1  0.85664814  0.32128077  0.95629639  1
  O  O17  1  0.14335186  0.67871923  0.45629639  1
  O  O18  1  0.32128077  0.85664814  0.04370361  1
  O  O19  1  0.82128077  0.64335186  0.70629639  1
  O  O20  1  0.17871923  0.35664814  0.20629639  1
  O  O21  1  0.64335186  0.82128077  0.29370361  1
  O  O22  1  0.35664814  0.17871923  0.79370361  1
  O  O23  1  0.67871923  0.14335186  0.54370361  1
  O  O24  1  0.66184383  0.93458720  0.92937172  1
  O  O25  1  0.33815617  0.06541280  0.42937172  1
  O  O26  1  0.93458720  0.66184383  0.07062828  1
  O  O27  1  0.43458720  0.83815617  0.67937172  1
  O  O28  1  0.56541280  0.16184383  0.17937172  1
  O  O29  1  0.83815617  0.43458720  0.32062828  1
  O  O30  1  0.16184383  0.56541280  0.82062828  1
  O  O31  1  0.06541280  0.33815617  0.57062828  1
  O  O32  1  0.80399020  0.19600980  0.75000000  1
  O  O33  1  0.30399020  0.30399020  -0.00000000  1
  O  O34  1  0.69600980  0.69600980  0.50000000  1
  O  O35  1  0.19600980  0.80399020  0.25000000  1
  O  O36  1  0.07883918  0.96436048  0.62118972  1
  O  O37  1  0.53563952  0.57883918  0.87118972  1
  O  O38  1  0.46436048  0.42116082  0.37118972  1
  O  O39  1  0.57883918  0.53563952  0.12881028  1
  O  O40  1  0.42116082  0.46436048  0.62881028  1
  O  O41  1  0.92116082  0.03563952  0.12118972  1
  O  O42  1  0.96436048  0.07883918  0.37881028  1
  O  O43  1  0.03563952  0.92116082  0.87881028  1
