# generated using pymatgen
data_Ba4MgMn4(P2O7)4
_symmetry_space_group_name_H-M   'P 1'
_cell_length_a   5.67787013
_cell_length_b   8.93495947
_cell_length_c   13.90365659
_cell_angle_alpha   87.34886304
_cell_angle_beta   85.07513520
_cell_angle_gamma   89.07269488
_symmetry_Int_Tables_number   1
_chemical_formula_structural   Ba4MgMn4(P2O7)4
_chemical_formula_sum   'Ba4 Mg1 Mn4 P8 O28'
_cell_volume   701.94481021
_cell_formula_units_Z   1
loop_
 _symmetry_equiv_pos_site_id
 _symmetry_equiv_pos_as_xyz
  1  'x, y, z'
loop_
 _atom_site_type_symbol
 _atom_site_label
 _atom_site_symmetry_multiplicity
 _atom_site_fract_x
 _atom_site_fract_y
 _atom_site_fract_z
 _atom_site_occupancy
  Ba  Ba0  1  0.83706426  0.38555382  0.24374840  1
  Ba  Ba1  1  0.78983971  0.88164690  0.30836005  1
  Ba  Ba2  1  0.20519497  0.63972538  0.74983227  1
  Ba  Ba3  1  0.26386616  0.13649398  0.71938879  1
  Mg  Mg4  1  0.36307430  0.71635057  0.15582411  1
  Mn  Mn5  1  0.71844397  0.84898886  0.61701046  1
  Mn  Mn6  1  0.35834535  0.18293439  0.40435685  1
  Mn  Mn7  1  0.80135384  0.30627772  0.88905178  1
  Mn  Mn8  1  0.08218623  0.60376819  0.03079081  1
  P  P9  1  0.26333572  0.26241840  0.00812832  1
  P  P10  1  0.24676235  0.82565045  0.48972811  1
  P  P11  1  0.63702805  0.66714759  0.95187678  1
  P  P12  1  0.82760808  0.20549989  0.52659767  1
  P  P13  1  0.28123027  0.57683542  0.35496834  1
  P  P14  1  0.71502062  0.93402643  0.81752559  1
  P  P15  1  0.73996688  0.44236004  0.67015540  1
  P  P16  1  0.31248051  0.08189730  0.19204342  1
  O  O17  1  0.32477091  0.65805795  0.45444373  1
  O  O18  1  0.30328271  0.11286004  0.07690955  1
  O  O19  1  0.78543214  0.37574980  0.56306208  1
  O  O20  1  0.70997330  0.84039410  0.91978337  1
  O  O21  1  0.49252971  0.62349347  0.28152001  1
  O  O22  1  0.06206713  0.10718128  0.24000846  1
  O  O23  1  0.48842556  0.40224955  0.70890553  1
  O  O24  1  0.94854514  0.89939694  0.75690457  1
  O  O25  1  0.09254527  0.36585769  0.06802675  1
  O  O26  1  0.36996411  0.93856317  0.41564308  1
  O  O27  1  0.84248794  0.56862971  0.90589431  1
  O  O28  1  0.68596921  0.09808198  0.59842482  1
  O  O29  1  0.64934637  0.66172310  0.06185531  1
  O  O30  1  0.73160766  0.21018889  0.42579933  1
  O  O31  1  0.14350643  0.21568842  0.91872528  1
  O  O32  1  0.34732433  0.82687310  0.58846781  1
  O  O33  1  0.51163441  0.87890051  0.76172582  1
  O  O34  1  0.92575596  0.37115252  0.73477394  1
  O  O35  1  0.48599523  0.18292393  0.23820194  1
  O  O36  1  0.04487149  0.63246598  0.32187274  1
  O  O37  1  0.77907272  0.61157296  0.65523637  1
  O  O38  1  0.68351488  0.09852986  0.83949187  1
  O  O39  1  0.39509689  0.63740382  0.91739733  1
  O  O40  1  0.40175911  0.91960851  0.19980252  1
  O  O41  1  0.97628763  0.83973668  0.49487816  1
  O  O42  1  0.50919418  0.32619228  0.98517114  1
  O  O43  1  0.09512959  0.17606666  0.52454968  1
  O  O44  1  0.28301369  0.40859681  0.37640236  1
