# generated using pymatgen
data_CsHf2Br9
_symmetry_space_group_name_H-M   'P 1'
_cell_length_a   6.88181403
_cell_length_b   10.17559558
_cell_length_c   13.24779540
_cell_angle_alpha   66.70110233
_cell_angle_beta   90.00000000
_cell_angle_gamma   90.00000000
_symmetry_Int_Tables_number   1
_chemical_formula_structural   CsHf2Br9
_chemical_formula_sum   'Cs2 Hf4 Br18'
_cell_volume   852.04746474
_cell_formula_units_Z   2
loop_
 _symmetry_equiv_pos_site_id
 _symmetry_equiv_pos_as_xyz
  1  'x, y, z'
loop_
 _atom_site_type_symbol
 _atom_site_label
 _atom_site_symmetry_multiplicity
 _atom_site_fract_x
 _atom_site_fract_y
 _atom_site_fract_z
 _atom_site_occupancy
  Cs  Cs0  1  0.59141298  0.50000000  0.75000000  1
  Cs  Cs1  1  0.40858702  0.50000000  0.25000000  1
  Hf  Hf2  1  0.25466249  0.82532507  0.86655024  1
  Hf  Hf3  1  0.74533751  0.17467493  0.13344976  1
  Hf  Hf4  1  0.25466249  0.17467493  0.63344976  1
  Hf  Hf5  1  0.74533751  0.82532507  0.36655024  1
  Br  Br6  1  0.09961784  0.79423897  0.04438229  1
  Br  Br7  1  0.90038216  0.20576103  0.95561771  1
  Br  Br8  1  0.09961784  0.20576103  0.45561771  1
  Br  Br9  1  0.90038216  0.79423897  0.54438229  1
  Br  Br10  1  0.10595802  0.61257743  0.84441175  1
  Br  Br11  1  0.89404198  0.38742257  0.15558825  1
  Br  Br12  1  0.10595802  0.38742257  0.65558825  1
  Br  Br13  1  0.89404198  0.61257743  0.34441175  1
  Br  Br14  1  0.96309040  -0.00000000  0.75000000  1
  Br  Br15  1  0.03690960  -0.00000000  0.25000000  1
  Br  Br16  1  0.40571697  0.08462366  0.84277430  1
  Br  Br17  1  0.59428303  0.91537634  0.15722570  1
  Br  Br18  1  0.40571697  0.91537634  0.65722570  1
  Br  Br19  1  0.59428303  0.08462366  0.34277430  1
  Br  Br20  1  0.57439165  0.70726995  0.94283849  1
  Br  Br21  1  0.42560835  0.29273005  0.05716151  1
  Br  Br22  1  0.57439165  0.29273005  0.55716151  1
  Br  Br23  1  0.42560835  0.70726995  0.44283849  1
