# generated using pymatgen
data_K4SnSe4
_symmetry_space_group_name_H-M   'P 1'
_cell_length_a   8.35884494
_cell_length_b   10.30176987
_cell_length_c   14.77403316
_cell_angle_alpha   90.00000000
_cell_angle_beta   90.00000000
_cell_angle_gamma   90.00000000
_symmetry_Int_Tables_number   1
_chemical_formula_structural   K4SnSe4
_chemical_formula_sum   'K16 Sn4 Se16'
_cell_volume   1272.20524699
_cell_formula_units_Z   4
loop_
 _symmetry_equiv_pos_site_id
 _symmetry_equiv_pos_as_xyz
  1  'x, y, z'
loop_
 _atom_site_type_symbol
 _atom_site_label
 _atom_site_symmetry_multiplicity
 _atom_site_fract_x
 _atom_site_fract_y
 _atom_site_fract_z
 _atom_site_occupancy
  K  K0  1  -0.00000000  0.00000000  -0.00000000  1
  K  K1  1  0.50000000  0.00000000  0.50000000  1
  K  K2  1  -0.00000000  0.50000000  -0.00000000  1
  K  K3  1  0.50000000  0.50000000  0.50000000  1
  K  K4  1  0.98659335  0.75000000  0.42316486  1
  K  K5  1  0.48659335  0.25000000  0.07683514  1
  K  K6  1  0.01340665  0.25000000  0.57683514  1
  K  K7  1  0.51340665  0.75000000  0.92316486  1
  K  K8  1  0.84272619  0.04915640  0.27212699  1
  K  K9  1  0.34272619  0.95084360  0.22787301  1
  K  K10  1  0.15727381  0.54915640  0.72787301  1
  K  K11  1  0.65727381  0.45084360  0.77212699  1
  K  K12  1  0.15727381  0.95084360  0.72787301  1
  K  K13  1  0.65727381  0.04915640  0.77212699  1
  K  K14  1  0.84272619  0.45084360  0.27212699  1
  K  K15  1  0.34272619  0.54915640  0.22787301  1
  Sn  Sn16  1  0.76103839  0.75000000  0.66606637  1
  Sn  Sn17  1  0.23896161  0.25000000  0.33393363  1
  Sn  Sn18  1  0.73896161  0.75000000  0.16606637  1
  Sn  Sn19  1  0.26103839  0.25000000  0.83393363  1
  Se  Se20  1  0.95665552  0.25000000  0.82595684  1
  Se  Se21  1  0.54334448  0.25000000  0.32595684  1
  Se  Se22  1  0.45665552  0.75000000  0.67404316  1
  Se  Se23  1  0.04334448  0.75000000  0.17404316  1
  Se  Se24  1  0.64446815  0.54943013  0.08487640  1
  Se  Se25  1  0.14446815  0.45056987  0.41512360  1
  Se  Se26  1  0.35553185  0.04943013  0.91512360  1
  Se  Se27  1  0.85553185  0.95056987  0.58487640  1
  Se  Se28  1  0.35553185  0.45056987  0.91512360  1
  Se  Se29  1  0.85553185  0.54943013  0.58487640  1
  Se  Se30  1  0.64446815  0.95056987  0.08487640  1
  Se  Se31  1  0.14446815  0.04943013  0.41512360  1
  Se  Se32  1  0.62154250  0.75000000  0.32622878  1
  Se  Se33  1  0.12154250  0.25000000  0.17377122  1
  Se  Se34  1  0.37845750  0.25000000  0.67377122  1
  Se  Se35  1  0.87845750  0.75000000  0.82622878  1
