# generated using pymatgen
data_Mg2SiS4
_symmetry_space_group_name_H-M   'P 1'
_cell_length_a   5.92784317
_cell_length_b   7.43282373
_cell_length_c   12.70736027
_cell_angle_alpha   90.00000000
_cell_angle_beta   90.00000000
_cell_angle_gamma   90.00000000
_symmetry_Int_Tables_number   1
_chemical_formula_structural   Mg2SiS4
_chemical_formula_sum   'Mg8 Si4 S16'
_cell_volume   559.89408796
_cell_formula_units_Z   4
loop_
 _symmetry_equiv_pos_site_id
 _symmetry_equiv_pos_as_xyz
  1  'x, y, z'
loop_
 _atom_site_type_symbol
 _atom_site_label
 _atom_site_symmetry_multiplicity
 _atom_site_fract_x
 _atom_site_fract_y
 _atom_site_fract_z
 _atom_site_occupancy
  Mg  Mg0  1  0.00000000  0.50000000  -0.00000000  1
  Mg  Mg1  1  0.50000000  -0.00000000  0.50000000  1
  Mg  Mg2  1  0.00000000  -0.00000000  -0.00000000  1
  Mg  Mg3  1  0.50000000  0.50000000  0.50000000  1
  Mg  Mg4  1  0.49216993  0.75000000  0.23153399  1
  Mg  Mg5  1  0.00783007  0.75000000  0.73153399  1
  Mg  Mg6  1  0.50783007  0.25000000  0.76846601  1
  Mg  Mg7  1  0.99216993  0.25000000  0.26846601  1
  Si  Si8  1  0.90605999  0.75000000  0.41061760  1
  Si  Si9  1  0.59394001  0.75000000  0.91061760  1
  Si  Si10  1  0.09394001  0.25000000  0.58938240  1
  Si  Si11  1  0.40605999  0.25000000  0.08938240  1
  S  S12  1  0.26077574  0.75000000  0.40771054  1
  S  S13  1  0.23922426  0.75000000  0.90771054  1
  S  S14  1  0.73922426  0.25000000  0.59228946  1
  S  S15  1  0.76077574  0.25000000  0.09228946  1
  S  S16  1  0.76163768  0.75000000  0.56511889  1
  S  S17  1  0.73836232  0.75000000  0.06511889  1
  S  S18  1  0.23836232  0.25000000  0.43488111  1
  S  S19  1  0.26163768  0.25000000  0.93488111  1
  S  S20  1  0.75370982  0.52444135  0.33392760  1
  S  S21  1  0.74629018  0.97555865  0.83392760  1
  S  S22  1  0.24629018  0.02444135  0.66607240  1
  S  S23  1  0.25370982  0.47555865  0.16607240  1
  S  S24  1  0.24629018  0.47555865  0.66607240  1
  S  S25  1  0.25370982  0.02444135  0.16607240  1
  S  S26  1  0.75370982  0.97555865  0.33392760  1
  S  S27  1  0.74629018  0.52444135  0.83392760  1
