# generated using pymatgen
data_Mn2PHO3F2
_symmetry_space_group_name_H-M   'P 1'
_cell_length_a   5.50396444
_cell_length_b   7.57230035
_cell_length_c   10.17018633
_cell_angle_alpha   90.00000000
_cell_angle_beta   90.00000000
_cell_angle_gamma   90.00000000
_symmetry_Int_Tables_number   1
_chemical_formula_structural   Mn2PHO3F2
_chemical_formula_sum   'Mn8 P4 H4 O12 F8'
_cell_volume   423.86968857
_cell_formula_units_Z   4
loop_
 _symmetry_equiv_pos_site_id
 _symmetry_equiv_pos_as_xyz
  1  'x, y, z'
loop_
 _atom_site_type_symbol
 _atom_site_label
 _atom_site_symmetry_multiplicity
 _atom_site_fract_x
 _atom_site_fract_y
 _atom_site_fract_z
 _atom_site_occupancy
  Mn  Mn0  1  0.25155004  0.59700429  0.43820056  1
  Mn  Mn1  1  0.24844996  0.09700429  0.06179944  1
  Mn  Mn2  1  0.74844996  0.40299571  0.93820056  1
  Mn  Mn3  1  0.75155004  0.90299571  0.56179944  1
  Mn  Mn4  1  0.74844996  0.40299571  0.56179944  1
  Mn  Mn5  1  0.75155004  0.90299571  0.93820056  1
  Mn  Mn6  1  0.25155004  0.59700429  0.06179944  1
  Mn  Mn7  1  0.24844996  0.09700429  0.43820056  1
  P  P8  1  0.41668155  0.66581771  0.75000000  1
  P  P9  1  0.08331845  0.16581771  0.75000000  1
  P  P10  1  0.58331845  0.33418229  0.25000000  1
  P  P11  1  0.91668155  0.83418229  0.25000000  1
  H  H12  1  0.18541257  0.73889900  0.75000000  1
  H  H13  1  0.31458743  0.23889900  0.75000000  1
  H  H14  1  0.81458743  0.26110100  0.25000000  1
  H  H15  1  0.68541257  0.76110100  0.25000000  1
  O  O16  1  0.44071483  0.55266814  0.62625588  1
  O  O17  1  0.05928517  0.05266814  0.87374412  1
  O  O18  1  0.55928517  0.44733186  0.12625588  1
  O  O19  1  0.94071483  0.94733186  0.37374412  1
  O  O20  1  0.55928517  0.44733186  0.37374412  1
  O  O21  1  0.94071483  0.94733186  0.12625588  1
  O  O22  1  0.44071483  0.55266814  0.87374412  1
  O  O23  1  0.05928517  0.05266814  0.62625588  1
  O  O24  1  0.10126283  0.68075413  0.25000000  1
  O  O25  1  0.39873717  0.18075413  0.25000000  1
  O  O26  1  0.89873717  0.31924587  0.75000000  1
  O  O27  1  0.60126283  0.81924587  0.75000000  1
  F  F28  1  0.42834073  0.84494943  0.45414722  1
  F  F29  1  0.07165927  0.34494943  0.04585278  1
  F  F30  1  0.57165927  0.15505057  0.95414722  1
  F  F31  1  0.92834073  0.65505057  0.54585278  1
  F  F32  1  0.57165927  0.15505057  0.54585278  1
  F  F33  1  0.92834073  0.65505057  0.95414722  1
  F  F34  1  0.42834073  0.84494943  0.04585278  1
  F  F35  1  0.07165927  0.34494943  0.45414722  1
