# generated using pymatgen
data_TaSb3O8
_symmetry_space_group_name_H-M   'P 1'
_cell_length_a   4.89244889
_cell_length_b   5.49957022
_cell_length_c   11.83263210
_cell_angle_alpha   90.00000000
_cell_angle_beta   89.81075579
_cell_angle_gamma   90.00000000
_symmetry_Int_Tables_number   1
_chemical_formula_structural   TaSb3O8
_chemical_formula_sum   'Ta2 Sb6 O16'
_cell_volume   318.37139577
_cell_formula_units_Z   2
loop_
 _symmetry_equiv_pos_site_id
 _symmetry_equiv_pos_as_xyz
  1  'x, y, z'
loop_
 _atom_site_type_symbol
 _atom_site_label
 _atom_site_symmetry_multiplicity
 _atom_site_fract_x
 _atom_site_fract_y
 _atom_site_fract_z
 _atom_site_occupancy
  Ta  Ta0  1  0.50101321  0.63065207  0.64207009  1
  Ta  Ta1  1  0.00101321  0.86934793  0.14207009  1
  Sb  Sb2  1  0.50489886  0.36866429  0.14526021  1
  Sb  Sb3  1  0.00489886  0.13133571  0.64526021  1
  Sb  Sb4  1  0.54144814  0.97401600  0.89342833  1
  Sb  Sb5  1  0.45469578  0.02152713  0.39397358  1
  Sb  Sb6  1  0.04144814  0.52598400  0.39342833  1
  Sb  Sb7  1  0.95469578  0.47847287  0.89397358  1
  O  O8  1  0.66240096  0.31809563  0.99015597  1
  O  O9  1  0.33621755  0.68084492  0.49137254  1
  O  O10  1  0.16240096  0.18190437  0.49015597  1
  O  O11  1  0.83621755  0.81915508  0.99137254  1
  O  O12  1  0.33500540  0.34887431  0.30363570  1
  O  O13  1  0.66431591  0.65206760  0.80239369  1
  O  O14  1  0.83500540  0.15112569  0.80363570  1
  O  O15  1  0.16431591  0.84793240  0.30239369  1
  O  O16  1  0.70460639  0.08011951  0.19956468  1
  O  O17  1  0.29234068  0.91940052  0.70226556  1
  O  O18  1  0.20460639  0.41988049  0.69956468  1
  O  O19  1  0.79234068  0.58059948  0.20226556  1
  O  O20  1  0.21504154  0.14354220  0.09652814  1
  O  O21  1  0.78801559  0.85851005  0.59335151  1
  O  O22  1  0.71504154  0.35645780  0.59652814  1
  O  O23  1  0.28801559  0.64148995  0.09335151  1
