# generated using pymatgen
data_K3In(PO4)2
_symmetry_space_group_name_H-M   'P 1'
_cell_length_a   9.65571812
_cell_length_b   9.68555497
_cell_length_c   9.76572485
_cell_angle_alpha   89.51139161
_cell_angle_beta   88.94482968
_cell_angle_gamma   70.93177396
_symmetry_Int_Tables_number   1
_chemical_formula_structural   K3In(PO4)2
_chemical_formula_sum   'K12 In4 P8 O32'
_cell_volume   863.03824453
_cell_formula_units_Z   4
loop_
 _symmetry_equiv_pos_site_id
 _symmetry_equiv_pos_as_xyz
  1  'x, y, z'
loop_
 _atom_site_type_symbol
 _atom_site_label
 _atom_site_symmetry_multiplicity
 _atom_site_fract_x
 _atom_site_fract_y
 _atom_site_fract_z
 _atom_site_occupancy
  K  K0  1  0.61206687  0.38161927  0.74334591  1
  K  K1  1  0.39607853  0.60591499  0.24988803  1
  K  K2  1  0.11806833  0.87824300  0.73784525  1
  K  K3  1  0.86295133  0.12212685  0.27152183  1
  K  K4  1  0.36342467  0.14673734  0.70613670  1
  K  K5  1  0.87796548  0.59946666  0.81647950  1
  K  K6  1  0.61554447  0.86395938  0.29198614  1
  K  K7  1  0.13023001  0.38463821  0.18742742  1
  K  K8  1  0.72463098  0.90819532  0.61370615  1
  K  K9  1  0.19354445  0.99106801  0.40354225  1
  K  K10  1  0.01996360  0.81058331  0.09600379  1
  K  K11  1  0.97445761  0.18239261  0.90281179  1
  In  In12  1  0.23797131  0.51693904  0.57810750  1
  In  In13  1  0.48064308  0.76297617  0.91949765  1
  In  In14  1  0.76965304  0.48779955  0.41878559  1
  In  In15  1  0.51701052  0.23232079  0.08113016  1
  P  P16  1  0.00779801  0.30178833  0.56863704  1
  P  P17  1  0.70258916  0.98754403  0.93323621  1
  P  P18  1  0.99784279  0.70356576  0.43259126  1
  P  P19  1  0.29341623  0.00835775  0.06632486  1
  P  P20  1  0.46101130  0.73647083  0.57682577  1
  P  P21  1  0.26833266  0.54136057  0.92365706  1
  P  P22  1  0.54331176  0.26593856  0.42121677  1
  P  P23  1  0.73392393  0.45557874  0.07490443  1
  O  O24  1  0.13307122  0.35796041  0.60875593  1
  O  O25  1  0.65290217  0.85689761  0.89321985  1
  O  O26  1  0.86101963  0.66225942  0.39717160  1
  O  O27  1  0.34508509  0.13780946  0.10325457  1
  O  O28  1  0.42975342  0.89938785  0.55975689  1
  O  O29  1  0.10867461  0.56817244  0.95679305  1
  O  O30  1  0.59322965  0.10206825  0.43845191  1
  O  O31  1  0.89380318  0.42439987  0.03905026  1
  O  O32  1  0.04182958  0.14757871  0.62464878  1
  O  O33  1  0.85668504  0.95890785  0.87475911  1
  O  O34  1  0.97810645  0.85558520  0.37679452  1
  O  O35  1  0.13847977  0.03657171  0.12341391  1
  O  O36  1  0.53052227  0.68260467  0.71645259  1
  O  O37  1  0.31484226  0.47521364  0.78049401  1
  O  O38  1  0.46773100  0.31356252  0.28243486  1
  O  O39  1  0.69263940  0.52934100  0.21587334  1
  O  O40  1  0.31617959  0.70226887  0.55914917  1
  O  O41  1  0.29439549  0.69097660  0.93469973  1
  O  O42  1  0.67807637  0.31697931  0.43323382  1
  O  O43  1  0.70321106  0.30776192  0.07054557  1
  O  O44  1  0.56882392  0.65293987  0.46409367  1
  O  O45  1  0.36609322  0.43659514  0.02922900  1
  O  O46  1  0.43282283  0.34417800  0.53493976  1
  O  O47  1  0.63552057  0.55854118  0.96798937  1
  O  O48  1  0.85983101  0.40955444  0.62479710  1
  O  O49  1  0.59177422  0.13169765  0.87627441  1
  O  O50  1  0.13990488  0.58867955  0.37417977  1
  O  O51  1  0.40251239  0.86340438  0.12466500  1
  O  O52  1  0.98769551  0.30787371  0.40971215  1
  O  O53  1  0.69621961  0.00990168  0.09113020  1
  O  O54  1  0.01723529  0.69508473  0.59129960  1
  O  O55  1  0.30129919  0.98385631  0.90833145  1
