# generated using pymatgen
data_MgTa4(AsO5)4
_symmetry_space_group_name_H-M   'P 1'
_cell_length_a   5.53576400
_cell_length_b   12.15735259
_cell_length_c   6.98975794
_cell_angle_alpha   85.16880729
_cell_angle_beta   90.00000000
_cell_angle_gamma   90.00000000
_symmetry_Int_Tables_number   1
_chemical_formula_structural   MgTa4(AsO5)4
_chemical_formula_sum   'Mg1 Ta4 As4 O20'
_cell_volume   468.74104883
_cell_formula_units_Z   1
loop_
 _symmetry_equiv_pos_site_id
 _symmetry_equiv_pos_as_xyz
  1  'x, y, z'
loop_
 _atom_site_type_symbol
 _atom_site_label
 _atom_site_symmetry_multiplicity
 _atom_site_fract_x
 _atom_site_fract_y
 _atom_site_fract_z
 _atom_site_occupancy
  Mg  Mg0  1  0.25000000  0.65504300  0.86936600  1
  Ta  Ta1  1  0.75000000  0.95395800  0.86111400  1
  Ta  Ta2  1  0.25000000  0.05328600  0.18490200  1
  Ta  Ta3  1  0.25000000  0.52278300  0.27570400  1
  Ta  Ta4  1  0.75000000  0.45227800  0.64283700  1
  As  As5  1  0.75000000  0.16205300  0.47242800  1
  As  As6  1  0.25000000  0.85665200  0.57215700  1
  As  As7  1  0.25000000  0.32726700  0.93768200  1
  As  As8  1  0.75000000  0.69749300  0.17589100  1
  O  O9  1  0.75000000  0.79940900  0.98327300  1
  O  O10  1  0.25000000  0.19097300  0.99567200  1
  O  O11  1  0.25000000  0.71602800  0.60406600  1
  O  O12  1  0.75000000  0.29987800  0.48021000  1
  O  O13  1  0.50198400  0.90474400  0.67434200  1
  O  O14  1  0.49822200  0.11798200  0.35440500  1
  O  O15  1  0.47540900  0.62206800  0.09815100  1
  O  O16  1  0.00177800  0.11798200  0.35440500  1
  O  O17  1  0.49787600  0.37288200  0.81697200  1
  O  O18  1  0.99801600  0.90474400  0.67434200  1
  O  O19  1  0.00212400  0.37288200  0.81697200  1
  O  O20  1  0.02459100  0.62206800  0.09815100  1
  O  O21  1  0.75000000  0.57562900  0.76145400  1
  O  O22  1  0.25000000  0.38854100  0.15610700  1
  O  O23  1  0.25000000  0.90295700  0.33337700  1
  O  O24  1  0.75000000  0.09981100  0.70331400  1
  O  O25  1  0.99957200  0.99938200  0.02769800  1
  O  O26  1  0.00006700  0.50314500  0.45189500  1
  O  O27  1  0.50042800  0.99938200  0.02769800  1
  O  O28  1  0.49993300  0.50314500  0.45189500  1
