# generated using pymatgen
data_Gd2MgS4
_symmetry_space_group_name_H-M   'P 1'
_cell_length_a   12.72838456
_cell_length_b   3.88453751
_cell_length_c   13.61977472
_cell_angle_alpha   90.00000000
_cell_angle_beta   90.00000000
_cell_angle_gamma   90.00000000
_symmetry_Int_Tables_number   1
_chemical_formula_structural   Gd2MgS4
_chemical_formula_sum   'Gd8 Mg4 S16'
_cell_volume   673.41460583
_cell_formula_units_Z   4
loop_
 _symmetry_equiv_pos_site_id
 _symmetry_equiv_pos_as_xyz
  1  'x, y, z'
loop_
 _atom_site_type_symbol
 _atom_site_label
 _atom_site_symmetry_multiplicity
 _atom_site_fract_x
 _atom_site_fract_y
 _atom_site_fract_z
 _atom_site_occupancy
  Gd  Gd0  1  0.11895130  0.25000000  0.07498947  1
  Gd  Gd1  1  0.88104870  0.75000000  0.92501053  1
  Gd  Gd2  1  0.38104870  0.75000000  0.57498947  1
  Gd  Gd3  1  0.61895130  0.25000000  0.42501053  1
  Gd  Gd4  1  0.13537559  0.25000000  0.70641690  1
  Gd  Gd5  1  0.86462441  0.75000000  0.29358310  1
  Gd  Gd6  1  0.36462441  0.75000000  0.20641690  1
  Gd  Gd7  1  0.63537559  0.25000000  0.79358310  1
  Mg  Mg8  1  0.11014809  0.75000000  0.45585434  1
  Mg  Mg9  1  0.88985191  0.25000000  0.54414566  1
  Mg  Mg10  1  0.38985191  0.25000000  0.95585434  1
  Mg  Mg11  1  0.61014809  0.75000000  0.04414566  1
  S  S12  1  0.00589016  0.75000000  0.61501724  1
  S  S13  1  0.99410984  0.25000000  0.38498276  1
  S  S14  1  0.49410984  0.25000000  0.11501724  1
  S  S15  1  0.50589016  0.75000000  0.88498276  1
  S  S16  1  0.02666389  0.25000000  0.88474172  1
  S  S17  1  0.97333611  0.75000000  0.11525828  1
  S  S18  1  0.47333611  0.75000000  0.38474172  1
  S  S19  1  0.52666389  0.25000000  0.61525828  1
  S  S20  1  0.22800496  0.25000000  0.24693889  1
  S  S21  1  0.77199504  0.75000000  0.75306111  1
  S  S22  1  0.27199504  0.75000000  0.74693889  1
  S  S23  1  0.72800496  0.25000000  0.25306111  1
  S  S24  1  0.26507420  0.75000000  0.01687315  1
  S  S25  1  0.73492580  0.25000000  0.98312685  1
  S  S26  1  0.23492580  0.25000000  0.51687315  1
  S  S27  1  0.76507420  0.75000000  0.48312685  1
