# generated using pymatgen
data_CsCuS6
_symmetry_space_group_name_H-M   'P 1'
_cell_length_a   7.29065717
_cell_length_b   10.81438320
_cell_length_c   11.25604030
_cell_angle_alpha   74.19613983
_cell_angle_beta   84.76554083
_cell_angle_gamma   78.10081410
_symmetry_Int_Tables_number   1
_chemical_formula_structural   CsCuS6
_chemical_formula_sum   'Cs4 Cu4 S24'
_cell_volume   834.99482517
_cell_formula_units_Z   4
loop_
 _symmetry_equiv_pos_site_id
 _symmetry_equiv_pos_as_xyz
  1  'x, y, z'
loop_
 _atom_site_type_symbol
 _atom_site_label
 _atom_site_symmetry_multiplicity
 _atom_site_fract_x
 _atom_site_fract_y
 _atom_site_fract_z
 _atom_site_occupancy
  Cs  Cs0  1  0.82922250  0.69763987  0.57890408  1
  Cs  Cs1  1  0.17077750  0.30236013  0.42109592  1
  Cs  Cs2  1  0.67736902  0.30250997  0.92815952  1
  Cs  Cs3  1  0.32263098  0.69749003  0.07184048  1
  Cu  Cu4  1  0.60129044  0.49575980  0.39006952  1
  Cu  Cu5  1  0.39870956  0.50424020  0.60993048  1
  Cu  Cu6  1  0.14744481  0.50532800  0.87027896  1
  Cu  Cu7  1  0.85255519  0.49467200  0.12972104  1
  S  S8  1  0.37510711  0.61453383  0.76111387  1
  S  S9  1  0.62489289  0.38546617  0.23888613  1
  S  S10  1  0.19689221  0.79704190  0.73063022  1
  S  S11  1  0.80310779  0.20295810  0.26936978  1
  S  S12  1  0.31935456  0.92729651  0.59828181  1
  S  S13  1  0.68064544  0.07270349  0.40171819  1
  S  S14  1  0.21923145  0.93041582  0.42932331  1
  S  S15  1  0.78076855  0.06958418  0.57067669  1
  S  S16  1  0.40355457  0.79652433  0.35928462  1
  S  S17  1  0.59644543  0.20347567  0.64071538  1
  S  S18  1  0.69277467  0.37928057  0.58608774  1
  S  S19  1  0.30722533  0.62071943  0.41391226  1
  S  S20  1  0.16136579  0.39687310  0.72000681  1
  S  S21  1  0.83863421  0.60312690  0.27999319  1
  S  S22  1  0.10307105  0.20914516  0.75736684  1
  S  S23  1  0.89692895  0.79085484  0.24263316  1
  S  S24  1  0.28520209  0.08322463  0.88486953  1
  S  S25  1  0.71479791  0.91677537  0.11513047  1
  S  S26  1  0.16553384  0.08605532  0.05904009  1
  S  S27  1  0.83446616  0.91394468  0.94095991  1
  S  S28  1  0.70906194  0.79607264  0.87152545  1
  S  S29  1  0.29093806  0.20392736  0.12847455  1
  S  S30  1  0.84773194  0.60327508  0.92542888  1
  S  S31  1  0.15226806  0.39672492  0.07457112  1
