# generated using pymatgen
data_CsSm(NbBr3)6
_symmetry_space_group_name_H-M   'P 1'
_cell_length_a   10.05313399
_cell_length_b   10.05313399
_cell_length_c   18.66805228
_cell_angle_alpha   90.00000000
_cell_angle_beta   90.00000000
_cell_angle_gamma   119.99999743
_symmetry_Int_Tables_number   1
_chemical_formula_structural   CsSm(NbBr3)6
_chemical_formula_sum   'Cs2 Sm2 Nb12 Br36'
_cell_volume   1633.92678889
_cell_formula_units_Z   2
loop_
 _symmetry_equiv_pos_site_id
 _symmetry_equiv_pos_as_xyz
  1  'x, y, z'
loop_
 _atom_site_type_symbol
 _atom_site_label
 _atom_site_symmetry_multiplicity
 _atom_site_fract_x
 _atom_site_fract_y
 _atom_site_fract_z
 _atom_site_occupancy
  Cs  Cs0  1  0.33333300  0.66666700  0.75000000  1
  Cs  Cs1  1  0.66666700  0.33333300  0.25000000  1
  Sm  Sm2  1  0.66666700  0.33333300  0.75000000  1
  Sm  Sm3  1  0.33333300  0.66666700  0.25000000  1
  Nb  Nb4  1  0.96186845  0.14774768  0.93553624  1
  Nb  Nb5  1  0.03813155  0.85225232  0.06446376  1
  Nb  Nb6  1  0.18587923  0.03813155  0.93553624  1
  Nb  Nb7  1  0.18587923  0.14774768  0.56446376  1
  Nb  Nb8  1  0.81412077  0.96186845  0.06446376  1
  Nb  Nb9  1  0.81412077  0.85225232  0.43553624  1
  Nb  Nb10  1  0.85225232  0.81412077  0.93553624  1
  Nb  Nb11  1  0.85225232  0.03813155  0.56446376  1
  Nb  Nb12  1  0.14774768  0.18587923  0.06446376  1
  Nb  Nb13  1  0.14774768  0.96186845  0.43553624  1
  Nb  Nb14  1  0.96186845  0.81412077  0.56446376  1
  Nb  Nb15  1  0.03813155  0.18587923  0.43553624  1
  Br  Br16  1  0.91257448  0.35667651  0.83923137  1
  Br  Br17  1  0.08742552  0.64332349  0.16076863  1
  Br  Br18  1  0.44410203  0.08742552  0.83923137  1
  Br  Br19  1  0.44410203  0.35667651  0.66076863  1
  Br  Br20  1  0.55589797  0.91257448  0.16076863  1
  Br  Br21  1  0.55589797  0.64332349  0.33923137  1
  Br  Br22  1  0.64332349  0.55589797  0.83923137  1
  Br  Br23  1  0.64332349  0.08742552  0.66076863  1
  Br  Br24  1  0.35667651  0.44410203  0.16076863  1
  Br  Br25  1  0.35667651  0.91257448  0.33923137  1
  Br  Br26  1  0.91257448  0.55589797  0.66076863  1
  Br  Br27  1  0.08742552  0.44410203  0.33923137  1
  Br  Br28  1  0.77198868  0.95388433  0.84195051  1
  Br  Br29  1  0.22801132  0.04611567  0.15804949  1
  Br  Br30  1  0.18189564  0.22801132  0.84195051  1
  Br  Br31  1  0.18189564  0.95388433  0.65804949  1
  Br  Br32  1  0.81810436  0.77198868  0.15804949  1
  Br  Br33  1  0.81810436  0.04611567  0.34195051  1
  Br  Br34  1  0.04611567  0.81810436  0.84195051  1
  Br  Br35  1  0.04611567  0.22801132  0.65804949  1
  Br  Br36  1  0.95388433  0.18189564  0.15804949  1
  Br  Br37  1  0.95388433  0.77198868  0.34195051  1
  Br  Br38  1  0.77198868  0.81810436  0.65804949  1
  Br  Br39  1  0.22801132  0.18189564  0.34195051  1
  Br  Br40  1  0.59003365  0.72677449  0.99950272  1
  Br  Br41  1  0.40996635  0.27322551  0.00049728  1
  Br  Br42  1  0.13674084  0.40996635  0.99950272  1
  Br  Br43  1  0.13674084  0.72677449  0.50049728  1
  Br  Br44  1  0.86325916  0.59003365  0.00049728  1
  Br  Br45  1  0.86325916  0.27322551  0.49950272  1
  Br  Br46  1  0.27322551  0.86325916  0.99950272  1
  Br  Br47  1  0.27322551  0.40996635  0.50049728  1
  Br  Br48  1  0.72677449  0.13674084  0.00049728  1
  Br  Br49  1  0.72677449  0.59003365  0.49950272  1
  Br  Br50  1  0.59003365  0.86325916  0.50049728  1
  Br  Br51  1  0.40996635  0.13674084  0.49950272  1
