# generated using pymatgen
data_In2Te5
_symmetry_space_group_name_H-M   'P 1'
_cell_length_a   4.36825248
_cell_length_b   8.75849596
_cell_length_c   42.12926776
_cell_angle_alpha   87.83749733
_cell_angle_beta   87.02825736
_cell_angle_gamma   75.55962904
_symmetry_Int_Tables_number   1
_chemical_formula_structural   In2Te5
_chemical_formula_sum   'In12 Te30'
_cell_volume   1558.30362671
_cell_formula_units_Z   6
loop_
 _symmetry_equiv_pos_site_id
 _symmetry_equiv_pos_as_xyz
  1  'x, y, z'
loop_
 _atom_site_type_symbol
 _atom_site_label
 _atom_site_symmetry_multiplicity
 _atom_site_fract_x
 _atom_site_fract_y
 _atom_site_fract_z
 _atom_site_occupancy
  In  In0  1  0.05179144  0.43071608  0.55696005  1
  In  In1  1  0.03946757  0.06928392  0.94303995  1
  In  In2  1  0.94820856  0.56928392  0.44303995  1
  In  In3  1  0.96053243  0.93071608  0.05696005  1
  In  In4  1  0.41128577  0.66092240  0.61021227  1
  In  In5  1  0.68242043  0.83907760  0.88978773  1
  In  In6  1  0.58871423  0.33907760  0.38978773  1
  In  In7  1  0.31757957  0.16092240  0.11021227  1
  In  In8  1  0.80919961  0.87305847  0.72255074  1
  In  In9  1  0.40481082  0.62694153  0.77744926  1
  In  In10  1  0.19080039  0.12694153  0.27744926  1
  In  In11  1  0.59518918  0.37305847  0.22255074  1
  Te  Te12  1  0.00519441  0.45547359  0.62517849  1
  Te  Te13  1  0.08584649  0.04452641  0.87482151  1
  Te  Te14  1  0.99480559  0.54452641  0.37482151  1
  Te  Te15  1  0.91415351  0.95547359  0.12517849  1
  Te  Te16  1  0.45554414  0.63565268  0.54174389  1
  Te  Te17  1  0.63294172  0.86434732  0.95825611  1
  Te  Te18  1  0.54445586  0.36434732  0.45825611  1
  Te  Te19  1  0.36705828  0.13565268  0.04174389  1
  Te  Te20  1  0.22498365  0.96605192  0.63095280  1
  Te  Te21  1  0.82198836  0.53394808  0.86904720  1
  Te  Te22  1  0.77501635  0.03394808  0.36904720  1
  Te  Te23  1  0.17801164  0.46605192  0.13095280  1
  Te  Te24  1  0.75221578  0.04738583  0.58208432  1
  Te  Te25  1  0.38168592  0.45261417  0.91791568  1
  Te  Te26  1  0.24778422  0.95261417  0.41791568  1
  Te  Te27  1  0.61831408  0.54738583  0.08208432  1
  Te  Te28  1  0.19118067  0.13071020  0.53359290  1
  Te  Te29  1  0.85548378  0.36928980  0.96640710  1
  Te  Te30  1  0.80881933  0.86928980  0.46640710  1
  Te  Te31  1  0.14451622  0.63071020  0.03359290  1
  Te  Te32  1  0.41533763  0.66844119  0.70894025  1
  Te  Te33  1  0.79271807  0.83155881  0.79105975  1
  Te  Te34  1  0.58466237  0.33155881  0.29105975  1
  Te  Te35  1  0.20728193  0.16844119  0.20894025  1
  Te  Te36  1  0.63273284  0.18028834  0.70072301  1
  Te  Te37  1  0.51374319  0.31971166  0.79927699  1
  Te  Te38  1  0.36726716  0.81971166  0.29927699  1
  Te  Te39  1  0.48625681  0.68028834  0.20072301  1
  Te  Te40  1  0.13643882  0.25000000  0.75000000  1
  Te  Te41  1  0.86356118  0.75000000  0.25000000  1
