# generated using pymatgen
data_BaVPO6
_symmetry_space_group_name_H-M   'P 1'
_cell_length_a   10.03774666
_cell_length_b   5.72129417
_cell_length_c   8.70126464
_cell_angle_alpha   88.82481883
_cell_angle_beta   90.00000000
_cell_angle_gamma   90.00000000
_symmetry_Int_Tables_number   1
_chemical_formula_structural   BaVPO6
_chemical_formula_sum   'Ba4 V4 P4 O24'
_cell_volume   499.59896187
_cell_formula_units_Z   4
loop_
 _symmetry_equiv_pos_site_id
 _symmetry_equiv_pos_as_xyz
  1  'x, y, z'
loop_
 _atom_site_type_symbol
 _atom_site_label
 _atom_site_symmetry_multiplicity
 _atom_site_fract_x
 _atom_site_fract_y
 _atom_site_fract_z
 _atom_site_occupancy
  Ba  Ba0  1  0.19131520  0.14734854  0.41265715  1
  Ba  Ba1  1  0.69131520  0.85265146  0.08734285  1
  Ba  Ba2  1  0.80868480  0.85265146  0.58734285  1
  Ba  Ba3  1  0.30868480  0.14734854  0.91265715  1
  V  V4  1  0.08819149  0.65324423  0.08409097  1
  V  V5  1  0.58819149  0.34675577  0.41590903  1
  V  V6  1  0.91180851  0.34675577  0.91590903  1
  V  V7  1  0.41180851  0.65324423  0.58409097  1
  P  P8  1  0.88386730  0.34895569  0.28065525  1
  P  P9  1  0.38386730  0.65104431  0.21934475  1
  P  P10  1  0.11613270  0.65104431  0.71934475  1
  P  P11  1  0.61613270  0.34895569  0.78065525  1
  O  O12  1  0.91473382  0.13140331  0.37452271  1
  O  O13  1  0.41473382  0.86859669  0.12547729  1
  O  O14  1  0.08526618  0.86859669  0.62547729  1
  O  O15  1  0.58526618  0.13140331  0.87452271  1
  O  O16  1  0.06789501  0.31244785  0.98612235  1
  O  O17  1  0.56789501  0.68755215  0.51387765  1
  O  O18  1  0.93210499  0.68755215  0.01387765  1
  O  O19  1  0.43210499  0.31244785  0.48612235  1
  O  O20  1  0.13101279  0.90291793  0.15842488  1
  O  O21  1  0.63101279  0.09708207  0.34157512  1
  O  O22  1  0.86898721  0.09708207  0.84157512  1
  O  O23  1  0.36898721  0.90291793  0.65842488  1
  O  O24  1  0.33104056  0.71303161  0.38248473  1
  O  O25  1  0.83104056  0.28696839  0.11751527  1
  O  O26  1  0.66895944  0.28696839  0.61751527  1
  O  O27  1  0.16895944  0.71303161  0.88248473  1
  O  O28  1  0.48267976  0.48874130  0.76643171  1
  O  O29  1  0.98267976  0.51125870  0.73356829  1
  O  O30  1  0.51732024  0.51125870  0.23356829  1
  O  O31  1  0.01732024  0.48874130  0.26643171  1
  O  O32  1  0.22357630  0.49371989  0.64734673  1
  O  O33  1  0.72357630  0.50628011  0.85265327  1
  O  O34  1  0.77642370  0.50628011  0.35265327  1
  O  O35  1  0.27642370  0.49371989  0.14734673  1
