# generated using pymatgen
data_Mg(AlS2)2
_symmetry_space_group_name_H-M   'P 1'
_cell_length_a   7.19599972
_cell_length_b   7.19597300
_cell_length_c   7.19610631
_cell_angle_alpha   60.00046996
_cell_angle_beta   59.99940023
_cell_angle_gamma   60.00076757
_symmetry_Int_Tables_number   1
_chemical_formula_structural   Mg(AlS2)2
_chemical_formula_sum   'Mg2 Al4 S8'
_cell_volume   263.49072290
_cell_formula_units_Z   2
loop_
 _symmetry_equiv_pos_site_id
 _symmetry_equiv_pos_as_xyz
  1  'x, y, z'
loop_
 _atom_site_type_symbol
 _atom_site_label
 _atom_site_symmetry_multiplicity
 _atom_site_fract_x
 _atom_site_fract_y
 _atom_site_fract_z
 _atom_site_occupancy
  Mg  Mg0  1  0.87499514  0.87500401  0.87501105  1
  Mg  Mg1  1  0.12500662  0.12499816  0.12499852  1
  Al  Al2  1  0.50000266  0.50004612  0.49993803  1
  Al  Al3  1  0.49999920  0.49998573  0.99998910  1
  Al  Al4  1  0.99999774  0.49997011  0.50004854  1
  Al  Al5  1  0.49999761  0.99999884  0.50001024  1
  S  S6  1  0.73805167  0.73805222  0.73805715  1
  S  S7  1  0.26195203  0.26194837  0.71416206  1
  S  S8  1  0.26194153  0.71415821  0.26194530  1
  S  S9  1  0.71416159  0.26194994  0.26193865  1
  S  S10  1  0.73804286  0.28584234  0.73804157  1
  S  S11  1  0.28583952  0.73804854  0.73805183  1
  S  S12  1  0.26194382  0.26193752  0.26196634  1
  S  S13  1  0.73807001  0.73805490  0.28584461  1
