# generated using pymatgen
data_Rb2Mg2(MoO4)3
_symmetry_space_group_name_H-M   'P 1'
_cell_length_a   10.98022957
_cell_length_b   10.98022957
_cell_length_c   10.98022957
_cell_angle_alpha   90.00000000
_cell_angle_beta   90.00000000
_cell_angle_gamma   90.00000000
_symmetry_Int_Tables_number   1
_chemical_formula_structural   Rb2Mg2(MoO4)3
_chemical_formula_sum   'Rb8 Mg8 Mo12 O48'
_cell_volume   1323.83622489
_cell_formula_units_Z   4
loop_
 _symmetry_equiv_pos_site_id
 _symmetry_equiv_pos_as_xyz
  1  'x, y, z'
loop_
 _atom_site_type_symbol
 _atom_site_label
 _atom_site_symmetry_multiplicity
 _atom_site_fract_x
 _atom_site_fract_y
 _atom_site_fract_z
 _atom_site_occupancy
  Rb  Rb0  1  0.05213859  0.05213859  0.05213859  1
  Rb  Rb1  1  0.44786141  0.94786141  0.55213859  1
  Rb  Rb2  1  0.94786141  0.55213859  0.44786141  1
  Rb  Rb3  1  0.55213859  0.44786141  0.94786141  1
  Rb  Rb4  1  0.81908056  0.81908056  0.81908056  1
  Rb  Rb5  1  0.68091944  0.18091944  0.31908056  1
  Rb  Rb6  1  0.18091944  0.31908056  0.68091944  1
  Rb  Rb7  1  0.31908056  0.68091944  0.18091944  1
  Mg  Mg8  1  0.33670789  0.33670789  0.33670789  1
  Mg  Mg9  1  0.16329211  0.66329211  0.83670789  1
  Mg  Mg10  1  0.66329211  0.83670789  0.16329211  1
  Mg  Mg11  1  0.83670789  0.16329211  0.66329211  1
  Mg  Mg12  1  0.60473884  0.60473884  0.60473884  1
  Mg  Mg13  1  0.89526116  0.39526116  0.10473884  1
  Mg  Mg14  1  0.39526116  0.10473884  0.89526116  1
  Mg  Mg15  1  0.10473884  0.89526116  0.39526116  1
  Mo  Mo16  1  0.02225919  0.21046295  0.37646377  1
  Mo  Mo17  1  0.47774081  0.78953705  0.87646377  1
  Mo  Mo18  1  0.97774081  0.71046295  0.12353623  1
  Mo  Mo19  1  0.37646377  0.02225919  0.21046295  1
  Mo  Mo20  1  0.52225919  0.28953705  0.62353623  1
  Mo  Mo21  1  0.87646377  0.47774081  0.78953705  1
  Mo  Mo22  1  0.12353623  0.97774081  0.71046295  1
  Mo  Mo23  1  0.62353623  0.52225919  0.28953705  1
  Mo  Mo24  1  0.21046295  0.37646377  0.02225919  1
  Mo  Mo25  1  0.71046295  0.12353623  0.97774081  1
  Mo  Mo26  1  0.28953705  0.62353623  0.52225919  1
  Mo  Mo27  1  0.78953705  0.87646377  0.47774081  1
  O  O28  1  0.01678110  0.05399179  0.32735034  1
  O  O29  1  0.48321890  0.94600821  0.82735034  1
  O  O30  1  0.98321890  0.55399179  0.17264966  1
  O  O31  1  0.32735034  0.01678110  0.05399179  1
  O  O32  1  0.51678110  0.44600821  0.67264966  1
  O  O33  1  0.82735034  0.48321890  0.94600821  1
  O  O34  1  0.17264966  0.98321890  0.55399179  1
  O  O35  1  0.67264966  0.51678110  0.44600821  1
  O  O36  1  0.05399179  0.32735034  0.01678110  1
  O  O37  1  0.55399179  0.17264966  0.98321890  1
  O  O38  1  0.44600821  0.67264966  0.51678110  1
  O  O39  1  0.94600821  0.82735034  0.48321890  1
  O  O40  1  0.27019466  0.48614986  0.43625672  1
  O  O41  1  0.22980534  0.51385014  0.93625672  1
  O  O42  1  0.72980534  0.98614986  0.06374328  1
  O  O43  1  0.43625672  0.27019466  0.48614986  1
  O  O44  1  0.77019466  0.01385014  0.56374328  1
  O  O45  1  0.93625672  0.22980534  0.51385014  1
  O  O46  1  0.06374328  0.72980534  0.98614986  1
  O  O47  1  0.56374328  0.77019466  0.01385014  1
  O  O48  1  0.48614986  0.43625672  0.27019466  1
  O  O49  1  0.98614986  0.06374328  0.72980534  1
  O  O50  1  0.01385014  0.56374328  0.77019466  1
  O  O51  1  0.51385014  0.93625672  0.22980534  1
  O  O52  1  0.05014226  0.80454727  0.23575134  1
  O  O53  1  0.44985774  0.19545273  0.73575134  1
  O  O54  1  0.94985774  0.30454727  0.26424866  1
  O  O55  1  0.23575134  0.05014226  0.80454727  1
  O  O56  1  0.55014226  0.69545273  0.76424866  1
  O  O57  1  0.73575134  0.44985774  0.19545273  1
  O  O58  1  0.26424866  0.94985774  0.30454727  1
  O  O59  1  0.76424866  0.55014226  0.69545273  1
  O  O60  1  0.80454727  0.23575134  0.05014226  1
  O  O61  1  0.30454727  0.26424866  0.94985774  1
  O  O62  1  0.69545273  0.76424866  0.55014226  1
  O  O63  1  0.19545273  0.73575134  0.44985774  1
  O  O64  1  0.17533899  0.25850999  0.40271060  1
  O  O65  1  0.32466101  0.74149001  0.90271060  1
  O  O66  1  0.82466101  0.75850999  0.09728940  1
  O  O67  1  0.40271060  0.17533899  0.25850999  1
  O  O68  1  0.67533899  0.24149001  0.59728940  1
  O  O69  1  0.90271060  0.32466101  0.74149001  1
  O  O70  1  0.09728940  0.82466101  0.75850999  1
  O  O71  1  0.59728940  0.67533899  0.24149001  1
  O  O72  1  0.25850999  0.40271060  0.17533899  1
  O  O73  1  0.75850999  0.09728940  0.82466101  1
  O  O74  1  0.24149001  0.59728940  0.67533899  1
  O  O75  1  0.74149001  0.90271060  0.32466101  1
