# generated using pymatgen
data_NdBS3
_symmetry_space_group_name_H-M   'P 1'
_cell_length_a   6.01172313
_cell_length_b   7.59857487
_cell_length_c   8.92959887
_cell_angle_alpha   90.00000000
_cell_angle_beta   90.00000000
_cell_angle_gamma   90.00000000
_symmetry_Int_Tables_number   1
_chemical_formula_structural   NdBS3
_chemical_formula_sum   'Nd4 B4 S12'
_cell_volume   407.90879390
_cell_formula_units_Z   4
loop_
 _symmetry_equiv_pos_site_id
 _symmetry_equiv_pos_as_xyz
  1  'x, y, z'
loop_
 _atom_site_type_symbol
 _atom_site_label
 _atom_site_symmetry_multiplicity
 _atom_site_fract_x
 _atom_site_fract_y
 _atom_site_fract_z
 _atom_site_occupancy
  Nd  Nd0  1  0.92932926  0.38520787  0.25724358  1
  Nd  Nd1  1  0.07067074  0.61479213  0.75724358  1
  Nd  Nd2  1  0.42932926  0.11479213  0.75724358  1
  Nd  Nd3  1  0.57067074  0.88520787  0.25724358  1
  B  B4  1  0.09756048  0.85422525  0.42841142  1
  B  B5  1  0.90243952  0.14577475  0.92841142  1
  B  B6  1  0.59756048  0.64577475  0.92841142  1
  B  B7  1  0.40243952  0.35422525  0.42841142  1
  S  S8  1  0.59991004  0.50007640  0.76939398  1
  S  S9  1  0.40008996  0.49992360  0.26939398  1
  S  S10  1  0.09991004  -0.00007640  0.26939398  1
  S  S11  1  0.90008996  0.00007640  0.76939398  1
  S  S12  1  0.83560050  0.67309388  0.05224882  1
  S  S13  1  0.16439950  0.32690612  0.55224882  1
  S  S14  1  0.33560050  0.82690612  0.55224882  1
  S  S15  1  0.66439950  0.17309388  0.05224882  1
  S  S16  1  0.36624969  0.79622469  0.95878220  1
  S  S17  1  0.63375031  0.20377531  0.45878220  1
  S  S18  1  0.86624969  0.70377531  0.45878220  1
  S  S19  1  0.13375031  0.29622469  0.95878220  1
