# generated using pymatgen
data_Ba(TmSe2)2
_symmetry_space_group_name_H-M   'P 1'
_cell_length_a   4.15129891
_cell_length_b   12.73821766
_cell_length_c   15.00532112
_cell_angle_alpha   90.00000000
_cell_angle_beta   90.00000000
_cell_angle_gamma   90.00000000
_symmetry_Int_Tables_number   1
_chemical_formula_structural   Ba(TmSe2)2
_chemical_formula_sum   'Ba4 Tm8 Se16'
_cell_volume   793.48361793
_cell_formula_units_Z   4
loop_
 _symmetry_equiv_pos_site_id
 _symmetry_equiv_pos_as_xyz
  1  'x, y, z'
loop_
 _atom_site_type_symbol
 _atom_site_label
 _atom_site_symmetry_multiplicity
 _atom_site_fract_x
 _atom_site_fract_y
 _atom_site_fract_z
 _atom_site_occupancy
  Ba  Ba0  1  0.25000000  0.24041564  0.33520359  1
  Ba  Ba1  1  0.25000000  0.74041564  0.16479641  1
  Ba  Ba2  1  0.75000000  0.75958436  0.66479641  1
  Ba  Ba3  1  0.75000000  0.25958436  0.83520359  1
  Tm  Tm4  1  0.25000000  0.07922228  0.59964397  1
  Tm  Tm5  1  0.25000000  0.57922228  0.90035603  1
  Tm  Tm6  1  0.75000000  0.92077772  0.40035603  1
  Tm  Tm7  1  0.75000000  0.42077772  0.09964397  1
  Tm  Tm8  1  0.25000000  0.56285412  0.39102946  1
  Tm  Tm9  1  0.25000000  0.06285412  0.10897054  1
  Tm  Tm10  1  0.75000000  0.43714588  0.60897054  1
  Tm  Tm11  1  0.75000000  0.93714588  0.89102946  1
  Se  Se12  1  0.25000000  0.08396897  0.92421494  1
  Se  Se13  1  0.25000000  0.58396897  0.57578506  1
  Se  Se14  1  0.75000000  0.91603103  0.07578506  1
  Se  Se15  1  0.75000000  0.41603103  0.42421494  1
  Se  Se16  1  0.25000000  0.29399978  0.65866587  1
  Se  Se17  1  0.25000000  0.79399978  0.84133413  1
  Se  Se18  1  0.75000000  0.70600022  0.34133413  1
  Se  Se19  1  0.75000000  0.20600022  0.15866587  1
  Se  Se20  1  0.25000000  0.37657568  0.97566607  1
  Se  Se21  1  0.25000000  0.87657568  0.52433393  1
  Se  Se22  1  0.75000000  0.62342432  0.02433393  1
  Se  Se23  1  0.75000000  0.12342432  0.47566607  1
  Se  Se24  1  0.25000000  0.47494393  0.21655092  1
  Se  Se25  1  0.25000000  0.97494393  0.28344908  1
  Se  Se26  1  0.75000000  0.52505607  0.78344908  1
  Se  Se27  1  0.75000000  0.02505607  0.71655092  1
