# generated using pymatgen
data_Pr2O3
_symmetry_space_group_name_H-M   'P 1'
_cell_length_a   9.73497360
_cell_length_b   9.73497158
_cell_length_c   9.73497328
_cell_angle_alpha   109.47122414
_cell_angle_beta   109.47121994
_cell_angle_gamma   109.47121344
_symmetry_Int_Tables_number   1
_chemical_formula_structural   Pr2O3
_chemical_formula_sum   'Pr16 O24'
_cell_volume   710.20277175
_cell_formula_units_Z   8
loop_
 _symmetry_equiv_pos_site_id
 _symmetry_equiv_pos_as_xyz
  1  'x, y, z'
loop_
 _atom_site_type_symbol
 _atom_site_label
 _atom_site_symmetry_multiplicity
 _atom_site_fract_x
 _atom_site_fract_y
 _atom_site_fract_z
 _atom_site_occupancy
  Pr  Pr0  1  0.25000000  0.72004153  0.47004153  1
  Pr  Pr1  1  0.02995847  0.75000000  0.77995847  1
  Pr  Pr2  1  0.77995847  0.02995847  0.75000000  1
  Pr  Pr3  1  0.47004153  0.25000000  0.72004153  1
  Pr  Pr4  1  0.72004153  0.47004153  0.25000000  1
  Pr  Pr5  1  0.75000000  0.77995847  0.02995847  1
  Pr  Pr6  1  0.75000000  0.27995847  0.52995847  1
  Pr  Pr7  1  0.97004153  0.25000000  0.22004153  1
  Pr  Pr8  1  0.22004153  0.97004153  0.25000000  1
  Pr  Pr9  1  0.52995847  0.75000000  0.27995847  1
  Pr  Pr10  1  0.27995847  0.52995847  0.75000000  1
  Pr  Pr11  1  0.25000000  0.22004153  0.97004153  1
  Pr  Pr12  1  0.00000000  0.50000000  -0.00000000  1
  Pr  Pr13  1  0.50000000  0.00000000  -0.00000000  1
  Pr  Pr14  1  0.00000000  0.00000000  0.50000000  1
  Pr  Pr15  1  0.50000000  0.50000000  0.50000000  1
  O  O16  1  0.02733245  0.48755728  0.75847731  1
  O  O17  1  0.22907898  0.26885615  0.74152269  1
  O  O18  1  0.27092102  0.01244272  0.03977517  1
  O  O19  1  0.23114385  0.46022483  0.47266755  1
  O  O20  1  0.46022483  0.47266755  0.23114385  1
  O  O21  1  0.75847731  0.02733245  0.48755728  1
  O  O22  1  0.26885615  0.74152269  0.22907898  1
  O  O23  1  0.03977517  0.27092102  0.01244272  1
  O  O24  1  0.48755728  0.75847731  0.02733245  1
  O  O25  1  0.74152269  0.22907898  0.26885615  1
  O  O26  1  0.01244272  0.03977517  0.27092102  1
  O  O27  1  0.47266755  0.23114385  0.46022483  1
  O  O28  1  0.97266755  0.51244272  0.24152269  1
  O  O29  1  0.77092102  0.73114385  0.25847731  1
  O  O30  1  0.72907898  0.98755728  0.96022483  1
  O  O31  1  0.76885615  0.53977517  0.52733245  1
  O  O32  1  0.52733245  0.76885615  0.53977517  1
  O  O33  1  0.98755728  0.96022483  0.72907898  1
  O  O34  1  0.25847731  0.77092102  0.73114385  1
  O  O35  1  0.51244272  0.24152269  0.97266755  1
  O  O36  1  0.96022483  0.72907898  0.98755728  1
  O  O37  1  0.73114385  0.25847731  0.77092102  1
  O  O38  1  0.24152269  0.97266755  0.51244272  1
  O  O39  1  0.53977517  0.52733245  0.76885615  1
