# generated using pymatgen
data_Cs5Bi(MoO4)4
_symmetry_space_group_name_H-M   'P 1'
_cell_length_a   13.75205492
_cell_length_b   13.75205492
_cell_length_c   10.70632722
_cell_angle_alpha   83.88119367
_cell_angle_beta   83.88119367
_cell_angle_gamma   143.93734684
_symmetry_Int_Tables_number   1
_chemical_formula_structural   Cs5Bi(MoO4)4
_chemical_formula_sum   'Cs10 Bi2 Mo8 O32'
_cell_volume   1119.02228420
_cell_formula_units_Z   2
loop_
 _symmetry_equiv_pos_site_id
 _symmetry_equiv_pos_as_xyz
  1  'x, y, z'
loop_
 _atom_site_type_symbol
 _atom_site_label
 _atom_site_symmetry_multiplicity
 _atom_site_fract_x
 _atom_site_fract_y
 _atom_site_fract_z
 _atom_site_occupancy
  Cs  Cs0  1  0.18999100  0.56440400  0.45270500  1
  Cs  Cs1  1  0.05192500  0.16905600  0.56010300  1
  Cs  Cs2  1  0.94700500  0.82693700  0.44922900  1
  Cs  Cs3  1  0.43559600  0.81000900  0.04729500  1
  Cs  Cs4  1  0.82693700  0.94700500  0.94922900  1
  Cs  Cs5  1  0.56216400  0.43783600  0.25000000  1
  Cs  Cs6  1  0.16905600  0.05192500  0.06010300  1
  Cs  Cs7  1  0.56440400  0.18999100  0.95270500  1
  Cs  Cs8  1  0.43783600  0.56216400  0.75000000  1
  Cs  Cs9  1  0.81000900  0.43559600  0.54729500  1
  Bi  Bi10  1  0.80604900  0.19395100  0.25000000  1
  Bi  Bi11  1  0.19395100  0.80604900  0.75000000  1
  Mo  Mo12  1  0.79177900  0.64946300  0.85758200  1
  Mo  Mo13  1  0.97464800  0.59647100  0.14037600  1
  Mo  Mo14  1  0.59647100  0.97464800  0.64037600  1
  Mo  Mo15  1  0.64946300  0.79177900  0.35758200  1
  Mo  Mo16  1  0.40352900  0.02535200  0.35962400  1
  Mo  Mo17  1  0.02535200  0.40352900  0.85962400  1
  Mo  Mo18  1  0.35053700  0.20822100  0.64241800  1
  Mo  Mo19  1  0.20822100  0.35053700  0.14241800  1
  O  O20  1  0.74375700  0.86305300  0.48762800  1
  O  O21  1  0.23836600  0.20174500  0.75919100  1
  O  O22  1  0.78197100  0.42442900  0.10104000  1
  O  O23  1  0.42442900  0.78197100  0.60104000  1
  O  O24  1  0.01062300  0.51144500  0.22970400  1
  O  O25  1  0.67871400  0.94276100  0.26649600  1
  O  O26  1  0.51144500  0.01062300  0.72970400  1
  O  O27  1  0.20771300  0.56452800  0.90928900  1
  O  O28  1  0.04755100  0.32728300  0.75871900  1
  O  O29  1  0.77243300  0.15806400  0.48236900  1
  O  O30  1  0.15806400  0.77243300  0.98236900  1
  O  O31  1  0.25624300  0.13694700  0.51237200  1
  O  O32  1  0.42465600  0.57724900  0.43018900  1
  O  O33  1  0.86305300  0.74375700  0.98762800  1
  O  O34  1  0.42106300  0.57589000  0.08054100  1
  O  O35  1  0.76163400  0.79825500  0.24080900  1
  O  O36  1  0.56452800  0.20771300  0.40928900  1
  O  O37  1  0.79825500  0.76163400  0.74080900  1
  O  O38  1  0.20174500  0.23836600  0.25919100  1
  O  O39  1  0.05723900  0.32128600  0.23350400  1
  O  O40  1  0.32728300  0.04755100  0.25871900  1
  O  O41  1  0.57589000  0.42106300  0.58054100  1
  O  O42  1  0.13694700  0.25624300  0.01237200  1
  O  O43  1  0.95244900  0.67271700  0.24128100  1
  O  O44  1  0.94276100  0.67871400  0.76649600  1
  O  O45  1  0.57724900  0.42465600  0.93018900  1
  O  O46  1  0.22756700  0.84193600  0.51763100  1
  O  O47  1  0.48855500  0.98937700  0.27029600  1
  O  O48  1  0.82996000  0.21426000  0.01997700  1
  O  O49  1  0.67271700  0.95244900  0.74128100  1
  O  O50  1  0.32128600  0.05723900  0.73350400  1
  O  O51  1  0.98937700  0.48855500  0.77029600  1
