# generated using pymatgen
data_Cs2GdCl5
_symmetry_space_group_name_H-M   'P 1'
_cell_length_a   7.54592166
_cell_length_b   9.63014900
_cell_length_c   15.36191228
_cell_angle_alpha   90.00000000
_cell_angle_beta   90.00000000
_cell_angle_gamma   90.00000000
_symmetry_Int_Tables_number   1
_chemical_formula_structural   Cs2GdCl5
_chemical_formula_sum   'Cs8 Gd4 Cl20'
_cell_volume   1116.32481713
_cell_formula_units_Z   4
loop_
 _symmetry_equiv_pos_site_id
 _symmetry_equiv_pos_as_xyz
  1  'x, y, z'
loop_
 _atom_site_type_symbol
 _atom_site_label
 _atom_site_symmetry_multiplicity
 _atom_site_fract_x
 _atom_site_fract_y
 _atom_site_fract_z
 _atom_site_occupancy
  Cs  Cs0  1  0.25000000  0.66531402  0.91649331  1
  Cs  Cs1  1  0.75000000  0.33468598  0.08350669  1
  Cs  Cs2  1  0.75000000  0.83468598  0.41649331  1
  Cs  Cs3  1  0.25000000  0.16531402  0.58350669  1
  Cs  Cs4  1  0.25000000  0.97450664  0.21096174  1
  Cs  Cs5  1  0.75000000  0.02549336  0.78903826  1
  Cs  Cs6  1  0.75000000  0.52549336  0.71096174  1
  Cs  Cs7  1  0.25000000  0.47450664  0.28903826  1
  Gd  Gd8  1  0.25000000  0.68081692  0.56627157  1
  Gd  Gd9  1  0.75000000  0.31918308  0.43372843  1
  Gd  Gd10  1  0.75000000  0.81918308  0.06627157  1
  Gd  Gd11  1  0.25000000  0.18081692  0.93372843  1
  Cl  Cl12  1  0.25000000  0.51728102  0.70326772  1
  Cl  Cl13  1  0.75000000  0.48271898  0.29673228  1
  Cl  Cl14  1  0.75000000  0.98271898  0.20326772  1
  Cl  Cl15  1  0.25000000  0.01728102  0.79673228  1
  Cl  Cl16  1  0.50842575  0.83833885  0.61928609  1
  Cl  Cl17  1  0.49157425  0.16166115  0.38071391  1
  Cl  Cl18  1  0.49157425  0.66166115  0.11928609  1
  Cl  Cl19  1  0.00842575  0.16166115  0.38071391  1
  Cl  Cl20  1  0.50842575  0.33833885  0.88071391  1
  Cl  Cl21  1  0.99157425  0.83833885  0.61928609  1
  Cl  Cl22  1  0.99157425  0.33833885  0.88071391  1
  Cl  Cl23  1  0.00842575  0.66166115  0.11928609  1
  Cl  Cl24  1  0.25000000  0.78995675  0.40631508  1
  Cl  Cl25  1  0.75000000  0.21004325  0.59368492  1
  Cl  Cl26  1  0.75000000  0.71004325  0.90631508  1
  Cl  Cl27  1  0.25000000  0.28995675  0.09368492  1
  Cl  Cl28  1  -0.00000000  0.50000000  0.50000000  1
  Cl  Cl29  1  0.00000000  -0.00000000  0.00000000  1
  Cl  Cl30  1  0.50000000  0.50000000  0.50000000  1
  Cl  Cl31  1  0.50000000  -0.00000000  0.00000000  1
