# generated using pymatgen
data_Ca(HoS2)2
_symmetry_space_group_name_H-M   'P 1'
_cell_length_a   3.87725333
_cell_length_b   12.91873176
_cell_length_c   13.08300755
_cell_angle_alpha   89.99998158
_cell_angle_beta   90.00002861
_cell_angle_gamma   90.00000112
_symmetry_Int_Tables_number   1
_chemical_formula_structural   Ca(HoS2)2
_chemical_formula_sum   'Ca4 Ho8 S16'
_cell_volume   655.31732599
_cell_formula_units_Z   4
loop_
 _symmetry_equiv_pos_site_id
 _symmetry_equiv_pos_as_xyz
  1  'x, y, z'
loop_
 _atom_site_type_symbol
 _atom_site_label
 _atom_site_symmetry_multiplicity
 _atom_site_fract_x
 _atom_site_fract_y
 _atom_site_fract_z
 _atom_site_occupancy
  Ca  Ca0  1  0.24999950  0.36928034  0.58287137  1
  Ca  Ca1  1  0.24999827  0.86927971  0.91712879  1
  Ca  Ca2  1  0.74999934  0.63072018  0.41712842  1
  Ca  Ca3  1  0.75000246  0.13071988  0.08287119  1
  Ho  Ho4  1  0.24999977  0.10720245  0.41637008  1
  Ho  Ho5  1  0.24999931  0.60720237  0.08362993  1
  Ho  Ho6  1  0.74999927  0.89279770  0.58362967  1
  Ho  Ho7  1  0.74999984  0.39279780  0.91637012  1
  Ho  Ho8  1  0.24999891  0.14660649  0.79766638  1
  Ho  Ho9  1  0.25000039  0.64660634  0.70233373  1
  Ho  Ho10  1  0.74999989  0.85339368  0.20233342  1
  Ho  Ho11  1  0.74999980  0.35339342  0.29766633  1
  S  S12  1  0.25000037  0.21741260  0.23747896  1
  S  S13  1  0.25000000  0.71741284  0.26252073  1
  S  S14  1  0.75000026  0.78258740  0.76252060  1
  S  S15  1  0.74999996  0.28258739  0.73747916  1
  S  S16  1  0.25000056  0.25752485  0.97413664  1
  S  S17  1  0.24999998  0.75752468  0.52586321  1
  S  S18  1  0.75000007  0.74247524  0.02586317  1
  S  S19  1  0.75000004  0.24247520  0.47413667  1
  S  S20  1  0.25000020  0.47000216  0.38219618  1
  S  S21  1  0.25000056  0.97000214  0.11780357  1
  S  S22  1  0.75000035  0.52999715  0.61780539  1
  S  S23  1  0.74999991  0.02999772  0.88219596  1
  S  S24  1  0.25000044  0.03399843  0.61761166  1
  S  S25  1  0.25000045  0.53399846  0.88238800  1
  S  S26  1  0.75000058  0.96600182  0.38238793  1
  S  S27  1  0.75000052  0.46600157  0.11761175  1
