# generated using pymatgen
data_RbBi3Se5
_symmetry_space_group_name_H-M   'P 1'
_cell_length_a   4.16644261
_cell_length_b   12.46480101
_cell_length_c   22.18007722
_cell_angle_alpha   90.00000000
_cell_angle_beta   90.00000000
_cell_angle_gamma   90.00000000
_symmetry_Int_Tables_number   1
_chemical_formula_structural   RbBi3Se5
_chemical_formula_sum   'Rb4 Bi12 Se20'
_cell_volume   1151.89742555
_cell_formula_units_Z   4
loop_
 _symmetry_equiv_pos_site_id
 _symmetry_equiv_pos_as_xyz
  1  'x, y, z'
loop_
 _atom_site_type_symbol
 _atom_site_label
 _atom_site_symmetry_multiplicity
 _atom_site_fract_x
 _atom_site_fract_y
 _atom_site_fract_z
 _atom_site_occupancy
  Rb  Rb0  1  0.25000000  0.49025344  0.21236145  1
  Rb  Rb1  1  0.75000000  0.50974656  0.78763855  1
  Rb  Rb2  1  0.75000000  0.99025344  0.28763855  1
  Rb  Rb3  1  0.25000000  0.00974656  0.71236145  1
  Bi  Bi4  1  0.25000000  0.36381569  0.02539417  1
  Bi  Bi5  1  0.75000000  0.63618431  0.97460583  1
  Bi  Bi6  1  0.75000000  0.86381569  0.47460583  1
  Bi  Bi7  1  0.25000000  0.13618431  0.52539417  1
  Bi  Bi8  1  0.25000000  0.80345630  0.12657037  1
  Bi  Bi9  1  0.75000000  0.19654370  0.87342963  1
  Bi  Bi10  1  0.75000000  0.30345630  0.37342963  1
  Bi  Bi11  1  0.25000000  0.69654370  0.62657037  1
  Bi  Bi12  1  0.25000000  0.59268227  0.42428911  1
  Bi  Bi13  1  0.75000000  0.40731773  0.57571089  1
  Bi  Bi14  1  0.75000000  0.09268227  0.07571089  1
  Bi  Bi15  1  0.25000000  0.90731773  0.92428911  1
  Se  Se16  1  0.25000000  0.80582471  0.38546296  1
  Se  Se17  1  0.75000000  0.19417529  0.61453704  1
  Se  Se18  1  0.75000000  0.30582471  0.11453704  1
  Se  Se19  1  0.25000000  0.69417529  0.88546296  1
  Se  Se20  1  0.25000000  0.24837994  0.29584030  1
  Se  Se21  1  0.75000000  0.75162006  0.70415970  1
  Se  Se22  1  0.75000000  0.74837994  0.20415970  1
  Se  Se23  1  0.25000000  0.25162006  0.79584030  1
  Se  Se24  1  0.25000000  0.36102686  0.48049936  1
  Se  Se25  1  0.75000000  0.63897314  0.51950064  1
  Se  Se26  1  0.75000000  0.86102686  0.01950064  1
  Se  Se27  1  0.25000000  0.13897314  0.98049936  1
  Se  Se28  1  0.25000000  0.02525406  0.15882577  1
  Se  Se29  1  0.75000000  0.97474594  0.84117423  1
  Se  Se30  1  0.75000000  0.52525406  0.34117423  1
  Se  Se31  1  0.25000000  0.47474594  0.65882577  1
  Se  Se32  1  0.25000000  0.58404297  0.06411135  1
  Se  Se33  1  0.75000000  0.41595703  0.93588865  1
  Se  Se34  1  0.75000000  0.08404297  0.43588865  1
  Se  Se35  1  0.25000000  0.91595703  0.56411135  1
