# generated using pymatgen
data_Cs6Si2O7
_symmetry_space_group_name_H-M   'P 1'
_cell_length_a   9.57460585
_cell_length_b   7.16433920
_cell_length_c   11.99252527
_cell_angle_alpha   53.71399707
_cell_angle_beta   90.00000000
_cell_angle_gamma   90.00000000
_symmetry_Int_Tables_number   1
_chemical_formula_structural   Cs6Si2O7
_chemical_formula_sum   'Cs12 Si4 O14'
_cell_volume   663.10453588
_cell_formula_units_Z   2
loop_
 _symmetry_equiv_pos_site_id
 _symmetry_equiv_pos_as_xyz
  1  'x, y, z'
loop_
 _atom_site_type_symbol
 _atom_site_label
 _atom_site_symmetry_multiplicity
 _atom_site_fract_x
 _atom_site_fract_y
 _atom_site_fract_z
 _atom_site_occupancy
  Cs  Cs0  1  0.35443527  0.51291837  0.59799615  1
  Cs  Cs1  1  0.14556473  0.51291837  0.09799615  1
  Cs  Cs2  1  0.64556473  0.48708163  0.40200385  1
  Cs  Cs3  1  0.97450021  0.70620105  0.54450160  1
  Cs  Cs4  1  0.47450021  0.29379895  0.95549840  1
  Cs  Cs5  1  0.02549979  0.29379895  0.45549840  1
  Cs  Cs6  1  0.52549979  0.70620105  0.04450160  1
  Cs  Cs7  1  0.27341843  0.88268261  0.72873097  1
  Cs  Cs8  1  0.77341843  0.11731739  0.77126903  1
  Cs  Cs9  1  0.72658157  0.11731739  0.27126903  1
  Cs  Cs10  1  0.22658157  0.88268261  0.22873097  1
  Cs  Cs11  1  0.85443527  0.48708163  0.90200385  1
  Si  Si12  1  0.62780525  0.84193519  0.61788540  1
  Si  Si13  1  0.87219475  0.84193519  0.11788540  1
  Si  Si14  1  0.37219475  0.15806481  0.38211460  1
  Si  Si15  1  0.12780525  0.15806481  0.88211460  1
  O  O16  1  0.26820145  0.99593714  0.93762581  1
  O  O17  1  0.00000000  0.00000000  0.00000000  1
  O  O18  1  0.50000000  0.00000000  0.50000000  1
  O  O19  1  0.92432838  0.77957684  0.26622080  1
  O  O20  1  0.76820145  0.00406286  0.56237419  1
  O  O21  1  0.73179855  0.00406286  0.06237419  1
  O  O22  1  0.23179855  0.99593714  0.43762581  1
  O  O23  1  0.65293400  0.60863461  0.62524553  1
  O  O24  1  0.15293400  0.39136539  0.87475447  1
  O  O25  1  0.34706600  0.39136539  0.37475447  1
  O  O26  1  0.84706600  0.60863461  0.12524553  1
  O  O27  1  0.57567162  0.77957684  0.76622080  1
  O  O28  1  0.07567162  0.22042316  0.73377920  1
  O  O29  1  0.42432838  0.22042316  0.23377920  1
