# generated using pymatgen
data_RbPrO2
_symmetry_space_group_name_H-M   'P 1'
_cell_length_a   6.90115969
_cell_length_b   6.90115969
_cell_length_c   6.90116025
_cell_angle_alpha   30.92797943
_cell_angle_beta   30.92797943
_cell_angle_gamma   30.92797809
_symmetry_Int_Tables_number   1
_chemical_formula_structural   RbPrO2
_chemical_formula_sum   'Rb1 Pr1 O2'
_cell_volume   77.01195707
_cell_formula_units_Z   1
loop_
 _symmetry_equiv_pos_site_id
 _symmetry_equiv_pos_as_xyz
  1  'x, y, z'
loop_
 _atom_site_type_symbol
 _atom_site_label
 _atom_site_symmetry_multiplicity
 _atom_site_fract_x
 _atom_site_fract_y
 _atom_site_fract_z
 _atom_site_occupancy
  Rb  Rb0  1  0.00000000  0.00000000  0.00000000  1
  Pr  Pr1  1  0.50000000  0.50000000  0.50000000  1
  O  O2  1  0.22785349  0.22785349  0.22785349  1
  O  O3  1  0.77214651  0.77214651  0.77214651  1
