# generated using pymatgen
data_GeS2
_symmetry_space_group_name_H-M   'P 1'
_cell_length_a   3.48734955
_cell_length_b   3.48734955
_cell_length_c   11.38042621
_cell_angle_alpha   90.00000000
_cell_angle_beta   90.00000000
_cell_angle_gamma   90.00000000
_symmetry_Int_Tables_number   1
_chemical_formula_structural   GeS2
_chemical_formula_sum   'Ge2 S4'
_cell_volume   138.40426974
_cell_formula_units_Z   2
loop_
 _symmetry_equiv_pos_site_id
 _symmetry_equiv_pos_as_xyz
  1  'x, y, z'
loop_
 _atom_site_type_symbol
 _atom_site_label
 _atom_site_symmetry_multiplicity
 _atom_site_fract_x
 _atom_site_fract_y
 _atom_site_fract_z
 _atom_site_occupancy
  Ge  Ge0  1  0.75000000  0.25000000  0.75000000  1
  Ge  Ge1  1  0.25000000  0.75000000  0.25000000  1
  S  S2  1  0.75000000  0.75000000  0.12654366  1
  S  S3  1  0.75000000  0.75000000  0.62654366  1
  S  S4  1  0.25000000  0.25000000  0.87345634  1
  S  S5  1  0.25000000  0.25000000  0.37345634  1
