# generated using pymatgen
data_K2LaCl5
_symmetry_space_group_name_H-M   'P 1'
_cell_length_a   8.03025159
_cell_length_b   8.86531624
_cell_length_c   12.76582494
_cell_angle_alpha   90.00000000
_cell_angle_beta   90.00000000
_cell_angle_gamma   90.00000000
_symmetry_Int_Tables_number   1
_chemical_formula_structural   K2LaCl5
_chemical_formula_sum   'K8 La4 Cl20'
_cell_volume   908.80826673
_cell_formula_units_Z   4
loop_
 _symmetry_equiv_pos_site_id
 _symmetry_equiv_pos_as_xyz
  1  'x, y, z'
loop_
 _atom_site_type_symbol
 _atom_site_label
 _atom_site_symmetry_multiplicity
 _atom_site_fract_x
 _atom_site_fract_y
 _atom_site_fract_z
 _atom_site_occupancy
  K  K0  1  0.45248464  0.99501268  0.67201180  1
  K  K1  1  0.04751536  0.50498732  0.17201180  1
  K  K2  1  0.54751536  0.49501268  0.32798820  1
  K  K3  1  0.95248464  0.00498732  0.82798820  1
  K  K4  1  0.54751536  0.00498732  0.32798820  1
  K  K5  1  0.95248464  0.49501268  0.82798820  1
  K  K6  1  0.45248464  0.50498732  0.67201180  1
  K  K7  1  0.04751536  0.99501268  0.17201180  1
  La  La8  1  0.92217301  0.75000000  0.50673861  1
  La  La9  1  0.57782699  0.75000000  0.00673861  1
  La  La10  1  0.07782699  0.25000000  0.49326139  1
  La  La11  1  0.42217301  0.25000000  0.99326139  1
  Cl  Cl12  1  0.06918087  0.25000000  0.99347716  1
  Cl  Cl13  1  0.43081913  0.25000000  0.49347716  1
  Cl  Cl14  1  0.93081913  0.75000000  0.00652284  1
  Cl  Cl15  1  0.56918087  0.75000000  0.50652284  1
  Cl  Cl16  1  0.66998068  0.75000000  0.79141810  1
  Cl  Cl17  1  0.83001932  0.75000000  0.29141810  1
  Cl  Cl18  1  0.33001932  0.25000000  0.20858190  1
  Cl  Cl19  1  0.16998068  0.25000000  0.70858190  1
  Cl  Cl20  1  0.13410751  0.75000000  0.68191656  1
  Cl  Cl21  1  0.36589249  0.75000000  0.18191656  1
  Cl  Cl22  1  0.86589249  0.25000000  0.31808344  1
  Cl  Cl23  1  0.63410751  0.25000000  0.81808344  1
  Cl  Cl24  1  0.83416194  0.04338595  0.58114986  1
  Cl  Cl25  1  0.66583806  0.45661405  0.08114986  1
  Cl  Cl26  1  0.16583806  0.54338595  0.41885014  1
  Cl  Cl27  1  0.33416194  0.95661405  0.91885014  1
  Cl  Cl28  1  0.16583806  0.95661405  0.41885014  1
  Cl  Cl29  1  0.33416194  0.54338595  0.91885014  1
  Cl  Cl30  1  0.83416194  0.45661405  0.58114986  1
  Cl  Cl31  1  0.66583806  0.04338595  0.08114986  1
