# generated using pymatgen
data_Sr5Cr3O12F
_symmetry_space_group_name_H-M   'P 1'
_cell_length_a   7.27153146
_cell_length_b   9.90776752
_cell_length_c   9.90770471
_cell_angle_alpha   120.00247003
_cell_angle_beta   90.00000000
_cell_angle_gamma   90.00000000
_symmetry_Int_Tables_number   1
_chemical_formula_structural   Sr5Cr3O12F
_chemical_formula_sum   'Sr10 Cr6 O24 F2'
_cell_volume   618.15099263
_cell_formula_units_Z   2
loop_
 _symmetry_equiv_pos_site_id
 _symmetry_equiv_pos_as_xyz
  1  'x, y, z'
loop_
 _atom_site_type_symbol
 _atom_site_label
 _atom_site_symmetry_multiplicity
 _atom_site_fract_x
 _atom_site_fract_y
 _atom_site_fract_z
 _atom_site_occupancy
  Sr  Sr0  1  0.49994144  0.66665944  0.33333684  1
  Sr  Sr1  1  -0.00005856  0.33334056  0.66666316  1
  Sr  Sr2  1  0.50005856  0.33334056  0.66666316  1
  Sr  Sr3  1  0.00005856  0.66665944  0.33333684  1
  Sr  Sr4  1  0.75000000  0.23644313  0.00562667  1
  Sr  Sr5  1  0.75000000  0.99440179  0.23083176  1
  Sr  Sr6  1  0.75000000  0.76916593  0.76357478  1
  Sr  Sr7  1  0.25000000  0.76355687  0.99437333  1
  Sr  Sr8  1  0.25000000  0.00559821  0.76916824  1
  Sr  Sr9  1  0.25000000  0.23083407  0.23642522  1
  Cr  Cr10  1  0.75000000  0.02740637  0.62472138  1
  Cr  Cr11  1  0.75000000  0.37532087  0.40273113  1
  Cr  Cr12  1  0.75000000  0.59725301  0.97255524  1
  Cr  Cr13  1  0.25000000  0.97259363  0.37527862  1
  Cr  Cr14  1  0.25000000  0.62467913  0.59726887  1
  Cr  Cr15  1  0.25000000  0.40274699  0.02744476  1
  O  O16  1  0.75000000  0.82996262  0.52325161  1
  O  O17  1  0.75000000  0.47680241  0.30677974  1
  O  O18  1  0.75000000  0.69319378  0.17000339  1
  O  O19  1  0.25000000  0.17003738  0.47674839  1
  O  O20  1  0.25000000  0.52319759  0.69322026  1
  O  O21  1  0.25000000  0.30680622  0.82999661  1
  O  O22  1  0.75000000  0.12411075  0.52314194  1
  O  O23  1  0.75000000  0.47689895  0.60101541  1
  O  O24  1  0.75000000  0.39897158  0.87585643  1
  O  O25  1  0.25000000  0.87588925  0.47685806  1
  O  O26  1  0.25000000  0.52310105  0.39898459  1
  O  O27  1  0.25000000  0.60102842  0.12414357  1
  O  O28  1  0.56387663  0.09049656  0.74348442  1
  O  O29  1  0.56386796  0.25656349  0.34705368  1
  O  O30  1  0.56387827  0.65289298  0.90943842  1
  O  O31  1  0.06387663  0.90950344  0.25651558  1
  O  O32  1  0.06386796  0.74343651  0.65294632  1
  O  O33  1  0.06387827  0.34710702  0.09056158  1
  O  O34  1  0.43612337  0.90950344  0.25651558  1
  O  O35  1  0.43613204  0.74343651  0.65294632  1
  O  O36  1  0.43612173  0.34710702  0.09056158  1
  O  O37  1  0.93612337  0.09049656  0.74348442  1
  O  O38  1  0.93613204  0.25656349  0.34705368  1
  O  O39  1  0.93612173  0.65289298  0.90943842  1
  F  F40  1  0.50000000  0.00000000  0.00000000  1
  F  F41  1  -0.00000000  0.00000000  0.00000000  1
