# generated using pymatgen
data_Na4AgCl5
_symmetry_space_group_name_H-M   'P 1'
_cell_length_a   10.42611358
_cell_length_b   10.42611358
_cell_length_c   10.42611358
_cell_angle_alpha   158.15048026
_cell_angle_beta   149.04086408
_cell_angle_gamma   38.21463318
_symmetry_Int_Tables_number   1
_chemical_formula_structural   Na4AgCl5
_chemical_formula_sum   'Na4 Ag1 Cl5'
_cell_volume   216.67608256
_cell_formula_units_Z   1
loop_
 _symmetry_equiv_pos_site_id
 _symmetry_equiv_pos_as_xyz
  1  'x, y, z'
loop_
 _atom_site_type_symbol
 _atom_site_label
 _atom_site_symmetry_multiplicity
 _atom_site_fract_x
 _atom_site_fract_y
 _atom_site_fract_z
 _atom_site_occupancy
  Na  Na0  1  0.59945966  0.59945966  -0.00000000  1
  Na  Na1  1  0.20013531  0.20013531  -0.00000000  1
  Na  Na2  1  0.79986469  0.79986469  0.00000000  1
  Na  Na3  1  0.40054034  0.40054034  0.00000000  1
  Ag  Ag4  1  -0.00000000  -0.00000000  -0.00000000  1
  Cl  Cl5  1  0.30038790  0.80038790  0.50000000  1
  Cl  Cl6  1  0.90016060  0.40016060  0.50000000  1
  Cl  Cl7  1  0.50000000  -0.00000000  0.50000000  1
  Cl  Cl8  1  0.09983940  0.59983940  0.50000000  1
  Cl  Cl9  1  0.69961210  0.19961210  0.50000000  1
