# generated using pymatgen
data_MgCr4Hg4(H2O9)2
_symmetry_space_group_name_H-M   'P 1'
_cell_length_a   6.65997844
_cell_length_b   6.39398891
_cell_length_c   16.31341277
_cell_angle_alpha   63.02798589
_cell_angle_beta   117.55232940
_cell_angle_gamma   131.35179616
_symmetry_Int_Tables_number   1
_chemical_formula_structural   MgCr4Hg4(H2O9)2
_chemical_formula_sum   'Mg1 Cr4 Hg4 H4 O18'
_cell_volume   450.76847880
_cell_formula_units_Z   1
loop_
 _symmetry_equiv_pos_site_id
 _symmetry_equiv_pos_as_xyz
  1  'x, y, z'
loop_
 _atom_site_type_symbol
 _atom_site_label
 _atom_site_symmetry_multiplicity
 _atom_site_fract_x
 _atom_site_fract_y
 _atom_site_fract_z
 _atom_site_occupancy
  Mg  Mg0  1  0.68126100  0.75718600  0.45324000  1
  Cr  Cr1  1  0.76242500  0.35726100  0.61719500  1
  Cr  Cr2  1  0.35697800  0.75620200  0.90654400  1
  Cr  Cr3  1  0.13835000  0.54351800  0.39177900  1
  Cr  Cr4  1  0.65102400  0.25877400  0.08943000  1
  Hg  Hg5  1  0.00555500  0.00608900  0.65142400  1
  Hg  Hg6  1  0.95834800  0.95502600  0.88292000  1
  Hg  Hg7  1  0.24285400  0.13679000  0.37816900  1
  Hg  Hg8  1  0.04764900  0.05386700  0.11315300  1
  H  H9  1  0.57973000  0.43199400  0.79817800  1
  H  H10  1  0.41462100  0.56040600  0.72691800  1
  H  H11  1  0.40930800  0.57423500  0.21373200  1
  H  H12  1  0.64928300  0.53656300  0.26420500  1
  O  O13  1  0.03666900  0.31628300  0.67501400  1
  O  O14  1  0.23264400  0.97007300  0.84535200  1
  O  O15  1  0.98695300  0.73291000  0.32931500  1
  O  O16  1  0.78523300  0.05806800  0.14730100  1
  O  O17  1  0.52367100  0.17565000  0.67289400  1
  O  O18  1  0.21094800  0.52572200  0.84598000  1
  O  O19  1  0.36240100  0.64346600  0.33469900  1
  O  O20  1  0.79455400  0.48728900  0.15035400  1
  O  O21  1  0.91856400  0.73499300  0.58842600  1
  O  O22  1  0.71051200  0.96926600  0.92355800  1
  O  O23  1  0.92259800  0.17169100  0.40891200  1
  O  O24  1  0.29681800  0.03532100  0.07637700  1
  O  O25  1  0.62523600  0.36450500  0.49349300  1
  O  O26  1  0.28500600  0.58774600  0.00921700  1
  O  O27  1  0.35843200  0.63780200  0.49532000  1
  O  O28  1  0.71194800  0.42933500  0.98466600  1
  O  O29  1  0.60582700  0.61444100  0.75876500  1
  O  O30  1  0.44460300  0.42752800  0.23805200  1
