# generated using pymatgen
data_RbTb2Cl7
_symmetry_space_group_name_H-M   'P 1'
_cell_length_a   6.97428061
_cell_length_b   12.67041197
_cell_length_c   13.10577922
_cell_angle_alpha   90.00009149
_cell_angle_beta   89.99997811
_cell_angle_gamma   89.99999880
_symmetry_Int_Tables_number   1
_chemical_formula_structural   RbTb2Cl7
_chemical_formula_sum   'Rb4 Tb8 Cl28'
_cell_volume   1158.11850403
_cell_formula_units_Z   4
loop_
 _symmetry_equiv_pos_site_id
 _symmetry_equiv_pos_as_xyz
  1  'x, y, z'
loop_
 _atom_site_type_symbol
 _atom_site_label
 _atom_site_symmetry_multiplicity
 _atom_site_fract_x
 _atom_site_fract_y
 _atom_site_fract_z
 _atom_site_occupancy
  Rb  Rb0  1  0.25000065  0.80387025  0.04003879  1
  Rb  Rb1  1  0.74999971  0.19612894  0.95996058  1
  Rb  Rb2  1  0.75000013  0.30386933  0.45996099  1
  Rb  Rb3  1  0.25000121  0.69612851  0.54004087  1
  Tb  Tb4  1  0.25000083  0.46028153  0.23733582  1
  Tb  Tb5  1  0.74999877  0.53971908  0.76266492  1
  Tb  Tb6  1  0.75000051  0.96028140  0.26266446  1
  Tb  Tb7  1  0.25000044  0.03971834  0.73733418  1
  Tb  Tb8  1  0.25000065  0.15699196  0.24792369  1
  Tb  Tb9  1  0.75000078  0.84300767  0.75207397  1
  Tb  Tb10  1  0.75000054  0.65699216  0.25207666  1
  Tb  Tb11  1  0.24999994  0.34300801  0.74792617  1
  Cl  Cl12  1  0.00745703  0.30704126  0.17357712  1
  Cl  Cl13  1  0.99254306  0.69295913  0.82642190  1
  Cl  Cl14  1  0.99254385  0.80704129  0.32642306  1
  Cl  Cl15  1  0.50745764  0.69295921  0.82642182  1
  Cl  Cl16  1  0.00745801  0.19295901  0.67357780  1
  Cl  Cl17  1  0.49254398  0.30704120  0.17357715  1
  Cl  Cl18  1  0.49254244  0.19295895  0.67357781  1
  Cl  Cl19  1  0.50745684  0.80704126  0.32642278  1
  Cl  Cl20  1  0.01048002  0.57872058  0.12083746  1
  Cl  Cl21  1  0.98951799  0.42128075  0.87916293  1
  Cl  Cl22  1  0.98952013  0.07872076  0.37916269  1
  Cl  Cl23  1  0.51047313  0.42128143  0.87916487  1
  Cl  Cl24  1  0.01047493  0.92128157  0.62083498  1
  Cl  Cl25  1  0.48952014  0.57872058  0.12083757  1
  Cl  Cl26  1  0.48952501  0.92128155  0.62083506  1
  Cl  Cl27  1  0.51048014  0.07872060  0.37916279  1
  Cl  Cl28  1  0.00966132  0.03931804  0.12948306  1
  Cl  Cl29  1  0.99033908  0.96068100  0.87051527  1
  Cl  Cl30  1  0.99033915  0.53931815  0.37051723  1
  Cl  Cl31  1  0.50966125  0.96068090  0.87051536  1
  Cl  Cl32  1  0.00966124  0.46068051  0.62948437  1
  Cl  Cl33  1  0.49033874  0.03931806  0.12948295  1
  Cl  Cl34  1  0.49033895  0.46068030  0.62948463  1
  Cl  Cl35  1  0.50966147  0.53931805  0.37051721  1
  Cl  Cl36  1  0.25000062  0.31128339  0.39381591  1
  Cl  Cl37  1  0.75000041  0.68871577  0.60618349  1
  Cl  Cl38  1  0.75000037  0.81128337  0.10618425  1
  Cl  Cl39  1  0.24999990  0.18871611  0.89381638  1
