# generated using pymatgen
data_Pr4AsBrO8
_symmetry_space_group_name_H-M   'P 1'
_cell_length_a   8.39379590
_cell_length_b   8.39379590
_cell_length_c   13.32863063
_cell_angle_alpha   90.00000000
_cell_angle_beta   90.00000000
_cell_angle_gamma   90.00000000
_symmetry_Int_Tables_number   1
_chemical_formula_structural   Pr4AsBrO8
_chemical_formula_sum   'Pr16 As4 Br4 O32'
_cell_volume   939.07946204
_cell_formula_units_Z   4
loop_
 _symmetry_equiv_pos_site_id
 _symmetry_equiv_pos_as_xyz
  1  'x, y, z'
loop_
 _atom_site_type_symbol
 _atom_site_label
 _atom_site_symmetry_multiplicity
 _atom_site_fract_x
 _atom_site_fract_y
 _atom_site_fract_z
 _atom_site_occupancy
  Pr  Pr0  1  0.01298358  0.24434359  0.16750046  1
  Pr  Pr1  1  0.98701642  0.75565641  0.16750046  1
  Pr  Pr2  1  0.24434359  0.98701642  0.66750046  1
  Pr  Pr3  1  0.75565641  0.01298358  0.66750046  1
  Pr  Pr4  1  0.98701642  0.75565641  0.83249954  1
  Pr  Pr5  1  0.01298358  0.24434359  0.83249954  1
  Pr  Pr6  1  0.75565641  0.01298358  0.33249954  1
  Pr  Pr7  1  0.24434359  0.98701642  0.33249954  1
  Pr  Pr8  1  0.75566089  0.48299835  0.33185384  1
  Pr  Pr9  1  0.24433911  0.51700165  0.33185384  1
  Pr  Pr10  1  0.48299835  0.24433911  0.83185384  1
  Pr  Pr11  1  0.51700165  0.75566089  0.83185384  1
  Pr  Pr12  1  0.24433911  0.51700165  0.66814616  1
  Pr  Pr13  1  0.75566089  0.48299835  0.66814616  1
  Pr  Pr14  1  0.51700165  0.75566089  0.16814616  1
  Pr  Pr15  1  0.48299835  0.24433911  0.16814616  1
  As  As16  1  0.04345390  0.25187665  0.50000000  1
  As  As17  1  0.95654610  0.74812335  0.50000000  1
  As  As18  1  0.25187665  0.95654610  -0.00000000  1
  As  As19  1  0.74812335  0.04345390  0.00000000  1
  Br  Br20  1  0.55722225  0.25271171  0.50000000  1
  Br  Br21  1  0.44277775  0.74728829  0.50000000  1
  Br  Br22  1  0.25271171  0.44277775  -0.00000000  1
  Br  Br23  1  0.74728829  0.55722225  0.00000000  1
  O  O24  1  0.00000000  -0.00000000  0.25000000  1
  O  O25  1  0.00000000  -0.00000000  0.75000000  1
  O  O26  1  0.50000000  0.50000000  0.25000000  1
  O  O27  1  0.50000000  0.50000000  0.75000000  1
  O  O28  1  0.74395097  0.24891769  0.22995586  1
  O  O29  1  0.25604903  0.75108231  0.22995586  1
  O  O30  1  0.24891769  0.25604903  0.72995586  1
  O  O31  1  0.75108231  0.74395097  0.72995586  1
  O  O32  1  0.25604903  0.75108231  0.77004414  1
  O  O33  1  0.74395097  0.24891769  0.77004414  1
  O  O34  1  0.75108231  0.74395097  0.27004414  1
  O  O35  1  0.24891769  0.25604903  0.27004414  1
  O  O36  1  0.00000000  0.50000000  0.23883089  1
  O  O37  1  0.50000000  -0.00000000  0.73883089  1
  O  O38  1  0.00000000  0.50000000  0.76116911  1
  O  O39  1  0.50000000  -0.00000000  0.26116911  1
  O  O40  1  0.16329630  0.08678195  0.50000000  1
  O  O41  1  0.83670370  0.91321805  0.50000000  1
  O  O42  1  0.08678195  0.83670370  0.00000000  1
  O  O43  1  0.91321805  0.16329630  -0.00000000  1
  O  O44  1  0.16348492  0.41675914  0.50000000  1
  O  O45  1  0.83651508  0.58324086  0.50000000  1
  O  O46  1  0.41675914  0.83651508  0.00000000  1
  O  O47  1  0.58324086  0.16348492  -0.00000000  1
  O  O48  1  0.92994759  0.25182384  0.39537467  1
  O  O49  1  0.07005241  0.74817616  0.39537467  1
  O  O50  1  0.25182384  0.07005241  0.89537467  1
  O  O51  1  0.74817616  0.92994759  0.89537467  1
  O  O52  1  0.07005241  0.74817616  0.60462533  1
  O  O53  1  0.92994759  0.25182384  0.60462533  1
  O  O54  1  0.74817616  0.92994759  0.10462533  1
  O  O55  1  0.25182384  0.07005241  0.10462533  1
