# generated using pymatgen
data_KNaMg14O15
_symmetry_space_group_name_H-M   'P 1'
_cell_length_a   8.49326568
_cell_length_b   8.84161892
_cell_length_c   4.38954470
_cell_angle_alpha   90.00000000
_cell_angle_beta   90.00000000
_cell_angle_gamma   90.00000000
_symmetry_Int_Tables_number   1
_chemical_formula_structural   KNaMg14O15
_chemical_formula_sum   'K1 Na1 Mg14 O15'
_cell_volume   329.62942894
_cell_formula_units_Z   1
loop_
 _symmetry_equiv_pos_site_id
 _symmetry_equiv_pos_as_xyz
  1  'x, y, z'
loop_
 _atom_site_type_symbol
 _atom_site_label
 _atom_site_symmetry_multiplicity
 _atom_site_fract_x
 _atom_site_fract_y
 _atom_site_fract_z
 _atom_site_occupancy
  K  K0  1  0.07170370  0.00000000  -0.00000000  1
  Na  Na1  1  0.98966649  0.50000000  -0.00000000  1
  Mg  Mg2  1  0.52090585  0.00000000  -0.00000000  1
  Mg  Mg3  1  0.50055918  0.50000000  -0.00000000  1
  Mg  Mg4  1  0.99557028  0.25779042  0.50000000  1
  Mg  Mg5  1  0.99557028  0.74220958  0.50000000  1
  Mg  Mg6  1  0.49711347  0.24642339  0.50000000  1
  Mg  Mg7  1  0.49711347  0.75357661  0.50000000  1
  Mg  Mg8  1  0.24597593  0.00000000  0.50000000  1
  Mg  Mg9  1  0.24313985  0.50000000  0.50000000  1
  Mg  Mg10  1  0.76864623  0.00000000  0.50000000  1
  Mg  Mg11  1  0.75028950  0.50000000  0.50000000  1
  Mg  Mg12  1  0.24021779  0.28279553  0.00000000  1
  Mg  Mg13  1  0.24021779  0.71720447  0.00000000  1
  Mg  Mg14  1  0.76123144  0.24704034  0.00000000  1
  Mg  Mg15  1  0.76123144  0.75295966  -0.00000000  1
  O  O16  1  0.26635463  0.50000000  -0.00000000  1
  O  O17  1  0.74673572  0.00000000  -0.00000000  1
  O  O18  1  0.72871802  0.50000000  -0.00000000  1
  O  O19  1  0.24643283  0.23905562  0.50000000  1
  O  O20  1  0.24643283  0.76094438  0.50000000  1
  O  O21  1  0.74450807  0.24724885  0.50000000  1
  O  O22  1  0.74450807  0.75275115  0.50000000  1
  O  O23  1  0.00441207  0.00000000  0.50000000  1
  O  O24  1  0.00160651  0.50000000  0.50000000  1
  O  O25  1  0.48237213  0.00000000  0.50000000  1
  O  O26  1  0.49199517  0.50000000  0.50000000  1
  O  O27  1  0.00280611  0.25756108  -0.00000000  1
  O  O28  1  0.00280611  0.74243892  -0.00000000  1
  O  O29  1  0.48057951  0.23289918  -0.00000000  1
  O  O30  1  0.48057951  0.76710082  -0.00000000  1
