# generated using pymatgen
data_Sm10S19
_symmetry_space_group_name_H-M   'P 1'
_cell_length_a   8.82033297
_cell_length_b   8.82033297
_cell_length_c   15.98634433
_cell_angle_alpha   90.00000000
_cell_angle_beta   90.00000000
_cell_angle_gamma   90.00000000
_symmetry_Int_Tables_number   1
_chemical_formula_structural   Sm10S19
_chemical_formula_sum   'Sm20 S38'
_cell_volume   1243.70999243
_cell_formula_units_Z   2
loop_
 _symmetry_equiv_pos_site_id
 _symmetry_equiv_pos_as_xyz
  1  'x, y, z'
loop_
 _atom_site_type_symbol
 _atom_site_label
 _atom_site_symmetry_multiplicity
 _atom_site_fract_x
 _atom_site_fract_y
 _atom_site_fract_z
 _atom_site_occupancy
  Sm  Sm0  1  0.05538767  0.35463299  0.10326996  1
  Sm  Sm1  1  0.64536701  0.55538767  0.60326996  1
  Sm  Sm2  1  0.85463299  0.94461233  0.60326996  1
  Sm  Sm3  1  0.44461233  0.14536701  0.10326996  1
  Sm  Sm4  1  0.94461233  0.64536701  0.89673004  1
  Sm  Sm5  1  0.35463299  0.44461233  0.39673004  1
  Sm  Sm6  1  0.14536701  0.05538767  0.39673004  1
  Sm  Sm7  1  0.55538767  0.85463299  0.89673004  1
  Sm  Sm8  1  0.04073492  0.34815220  0.62228871  1
  Sm  Sm9  1  0.65184780  0.54073492  0.12228871  1
  Sm  Sm10  1  0.84815220  0.95926508  0.12228871  1
  Sm  Sm11  1  0.45926508  0.15184780  0.62228871  1
  Sm  Sm12  1  0.95926508  0.65184780  0.37771129  1
  Sm  Sm13  1  0.34815220  0.45926508  0.87771129  1
  Sm  Sm14  1  0.15184780  0.04073492  0.87771129  1
  Sm  Sm15  1  0.54073492  0.84815220  0.37771129  1
  Sm  Sm16  1  0.75000000  0.25000000  0.38530343  1
  Sm  Sm17  1  0.75000000  0.25000000  0.88530343  1
  Sm  Sm18  1  0.25000000  0.75000000  0.61469657  1
  Sm  Sm19  1  0.25000000  0.75000000  0.11469657  1
  S  S20  1  0.75000000  0.75000000  0.25000000  1
  S  S21  1  0.25000000  0.25000000  0.75000000  1
  S  S22  1  0.80384129  0.47054926  0.75078033  1
  S  S23  1  0.52945074  0.30384129  0.25078033  1
  S  S24  1  0.97054926  0.19615871  0.25078033  1
  S  S25  1  0.69615871  0.02945074  0.75078033  1
  S  S26  1  0.19615871  0.52945074  0.24921967  1
  S  S27  1  0.47054926  0.69615871  0.74921967  1
  S  S28  1  0.02945074  0.80384129  0.74921967  1
  S  S29  1  0.30384129  0.97054926  0.24921967  1
  S  S30  1  0.88724187  0.42438700  0.25012531  1
  S  S31  1  0.57561300  0.38724187  0.75012531  1
  S  S32  1  0.92438700  0.11275813  0.75012531  1
  S  S33  1  0.61275813  0.07561300  0.25012531  1
  S  S34  1  0.11275813  0.57561300  0.74987469  1
  S  S35  1  0.42438700  0.61275813  0.24987469  1
  S  S36  1  0.07561300  0.88724187  0.24987469  1
  S  S37  1  0.38724187  0.92438700  0.74987469  1
  S  S38  1  0.25000000  0.75000000  0.43457746  1
  S  S39  1  0.25000000  0.75000000  0.93457746  1
  S  S40  1  0.55336983  0.85156980  0.56197529  1
  S  S41  1  0.14843020  0.05336983  0.06197529  1
  S  S42  1  0.35156980  0.44663017  0.06197529  1
  S  S43  1  0.94663017  0.64843020  0.56197529  1
  S  S44  1  0.44663017  0.14843020  0.43802471  1
  S  S45  1  0.85156980  0.94663017  0.93802471  1
  S  S46  1  0.64843020  0.55336983  0.93802471  1
  S  S47  1  0.05336983  0.35156980  0.43802471  1
  S  S48  1  0.54856646  0.84814938  0.07300731  1
  S  S49  1  0.15185062  0.04856646  0.57300731  1
  S  S50  1  0.34814938  0.45143354  0.57300731  1
  S  S51  1  0.95143354  0.65185062  0.07300731  1
  S  S52  1  0.45143354  0.15185062  0.92699269  1
  S  S53  1  0.84814938  0.95143354  0.42699269  1
  S  S54  1  0.65185062  0.54856646  0.42699269  1
  S  S55  1  0.04856646  0.34814938  0.92699269  1
  S  S56  1  0.75000000  0.25000000  0.06542254  1
  S  S57  1  0.75000000  0.25000000  0.56542254  1
