# generated using pymatgen
data_Sr2SiS4
_symmetry_space_group_name_H-M   'P 1'
_cell_length_a   6.60873921
_cell_length_b   6.65954238
_cell_length_c   8.26228177
_cell_angle_alpha   90.00000000
_cell_angle_beta   108.21568915
_cell_angle_gamma   90.00000000
_symmetry_Int_Tables_number   1
_chemical_formula_structural   Sr2SiS4
_chemical_formula_sum   'Sr4 Si2 S8'
_cell_volume   345.40984662
_cell_formula_units_Z   2
loop_
 _symmetry_equiv_pos_site_id
 _symmetry_equiv_pos_as_xyz
  1  'x, y, z'
loop_
 _atom_site_type_symbol
 _atom_site_label
 _atom_site_symmetry_multiplicity
 _atom_site_fract_x
 _atom_site_fract_y
 _atom_site_fract_z
 _atom_site_occupancy
  Sr  Sr0  1  0.28367120  0.75000000  0.95180912  1
  Sr  Sr1  1  0.71632880  0.25000000  0.04819088  1
  Sr  Sr2  1  0.22482990  0.75000000  0.42926377  1
  Sr  Sr3  1  0.77517010  0.25000000  0.57073623  1
  Si  Si4  1  0.72130103  0.75000000  0.79684620  1
  Si  Si5  1  0.27869897  0.25000000  0.20315380  1
  S  S6  1  0.88645343  0.75000000  0.06157594  1
  S  S7  1  0.11354657  0.25000000  0.93842406  1
  S  S8  1  0.91690048  0.75000000  0.63566798  1
  S  S9  1  0.08309952  0.25000000  0.36433202  1
  S  S10  1  0.51038414  0.50196672  0.73724820  1
  S  S11  1  0.48961586  0.00196672  0.26275180  1
  S  S12  1  0.48961586  0.49803328  0.26275180  1
  S  S13  1  0.51038414  -0.00196672  0.73724820  1
