# generated using pymatgen
data_AlCdCl4
_symmetry_space_group_name_H-M   'P 1'
_cell_length_a   6.61438567
_cell_length_b   6.60474256
_cell_length_c   9.57663228
_cell_angle_alpha   83.52836215
_cell_angle_beta   76.16829326
_cell_angle_gamma   60.25476717
_symmetry_Int_Tables_number   1
_chemical_formula_structural   AlCdCl4
_chemical_formula_sum   'Al2 Cd2 Cl8'
_cell_volume   352.70173724
_cell_formula_units_Z   2
loop_
 _symmetry_equiv_pos_site_id
 _symmetry_equiv_pos_as_xyz
  1  'x, y, z'
loop_
 _atom_site_type_symbol
 _atom_site_label
 _atom_site_symmetry_multiplicity
 _atom_site_fract_x
 _atom_site_fract_y
 _atom_site_fract_z
 _atom_site_occupancy
  Al  Al0  1  0.58472007  0.16707358  0.73542531  1
  Al  Al1  1  0.41527993  0.83292642  0.26457469  1
  Cd  Cd2  1  0.04583306  0.50570313  0.35954554  1
  Cd  Cd3  1  0.95416694  0.49429687  0.64045446  1
  Cl  Cl4  1  0.40526843  0.15554128  0.18195736  1
  Cl  Cl5  1  0.59473157  0.84445872  0.81804264  1
  Cl  Cl6  1  0.16525149  0.79083509  0.17726990  1
  Cl  Cl7  1  0.83474851  0.20916491  0.82273010  1
  Cl  Cl8  1  0.66553008  0.16748145  0.50853710  1
  Cl  Cl9  1  0.33446992  0.83251855  0.49146290  1
  Cl  Cl10  1  0.76747172  0.55179680  0.17948229  1
  Cl  Cl11  1  0.23252828  0.44820320  0.82051771  1
