# generated using pymatgen
data_RbLaMg14O16
_symmetry_space_group_name_H-M   'P 1'
_cell_length_a   8.78167936
_cell_length_b   9.05395435
_cell_length_c   4.55344605
_cell_angle_alpha   90.00000000
_cell_angle_beta   90.00000000
_cell_angle_gamma   90.00000000
_symmetry_Int_Tables_number   1
_chemical_formula_structural   RbLaMg14O16
_chemical_formula_sum   'Rb1 La1 Mg14 O16'
_cell_volume   362.03959612
_cell_formula_units_Z   1
loop_
 _symmetry_equiv_pos_site_id
 _symmetry_equiv_pos_as_xyz
  1  'x, y, z'
loop_
 _atom_site_type_symbol
 _atom_site_label
 _atom_site_symmetry_multiplicity
 _atom_site_fract_x
 _atom_site_fract_y
 _atom_site_fract_z
 _atom_site_occupancy
  Rb  Rb0  1  0.00000000  0.50000000  0.00000000  1
  La  La1  1  0.00000000  0.00000000  0.00000000  1
  Mg  Mg2  1  0.50000000  0.00000000  0.00000000  1
  Mg  Mg3  1  0.50000000  0.50000000  0.00000000  1
  Mg  Mg4  1  0.00000000  0.26726412  0.50000000  1
  Mg  Mg5  1  0.00000000  0.73273588  0.50000000  1
  Mg  Mg6  1  0.50000000  0.25379436  0.50000000  1
  Mg  Mg7  1  0.50000000  0.74620564  0.50000000  1
  Mg  Mg8  1  0.26665846  0.00000000  0.50000000  1
  Mg  Mg9  1  0.25721569  0.50000000  0.50000000  1
  Mg  Mg10  1  0.73334154  0.00000000  0.50000000  1
  Mg  Mg11  1  0.74278431  0.50000000  0.50000000  1
  Mg  Mg12  1  0.26266878  0.25986996  -0.00000000  1
  Mg  Mg13  1  0.26266878  0.74013004  -0.00000000  1
  Mg  Mg14  1  0.73733122  0.25986996  0.00000000  1
  Mg  Mg15  1  0.73733122  0.74013004  0.00000000  1
  O  O16  1  0.27266519  0.00000000  0.00000000  1
  O  O17  1  0.28223051  0.50000000  -0.00000000  1
  O  O18  1  0.72733481  0.00000000  -0.00000000  1
  O  O19  1  0.71776949  0.50000000  0.00000000  1
  O  O20  1  0.25114385  0.24964341  0.50000000  1
  O  O21  1  0.25114385  0.75035659  0.50000000  1
  O  O22  1  0.74885615  0.24964341  0.50000000  1
  O  O23  1  0.74885615  0.75035659  0.50000000  1
  O  O24  1  0.00000000  0.00000000  0.50000000  1
  O  O25  1  0.00000000  0.50000000  0.50000000  1
  O  O26  1  0.50000000  0.00000000  0.50000000  1
  O  O27  1  0.50000000  0.50000000  0.50000000  1
  O  O28  1  0.00000000  0.24123630  0.00000000  1
  O  O29  1  0.00000000  0.75876370  0.00000000  1
  O  O30  1  0.50000000  0.24664863  0.00000000  1
  O  O31  1  0.50000000  0.75335137  0.00000000  1
