# generated using pymatgen
data_MgCo6Ag2P6(HO6)4
_symmetry_space_group_name_H-M   'P 1'
_cell_length_a   6.39672956
_cell_length_b   9.19856325
_cell_length_c   9.07797594
_cell_angle_alpha   83.34754824
_cell_angle_beta   105.74023419
_cell_angle_gamma   103.35789425
_symmetry_Int_Tables_number   1
_chemical_formula_structural   MgCo6Ag2P6(HO6)4
_chemical_formula_sum   'Mg1 Co6 Ag2 P6 H4 O24'
_cell_volume   499.40847862
_cell_formula_units_Z   1
loop_
 _symmetry_equiv_pos_site_id
 _symmetry_equiv_pos_as_xyz
  1  'x, y, z'
loop_
 _atom_site_type_symbol
 _atom_site_label
 _atom_site_symmetry_multiplicity
 _atom_site_fract_x
 _atom_site_fract_y
 _atom_site_fract_z
 _atom_site_occupancy
  Mg  Mg0  1  0.48532072  0.48808658  0.71928249  1
  Co  Co1  1  0.33278573  0.77251650  0.33973811  1
  Co  Co2  1  0.82439046  0.65542721  0.97752621  1
  Co  Co3  1  0.10200498  0.86473783  0.55796832  1
  Co  Co4  1  0.31803035  0.38892611  0.06445351  1
  Co  Co5  1  0.87806270  0.13334986  0.44973890  1
  Co  Co6  1  0.73104185  0.22071055  0.74853219  1
  Ag  Ag7  1  0.23402233  0.48147292  0.41698665  1
  Ag  Ag8  1  0.66760771  0.56299225  0.45693869  1
  P  P9  1  0.22999594  0.16049984  0.81122154  1
  P  P10  1  0.78961725  0.85452565  0.21764866  1
  P  P11  1  0.37310058  0.14983797  0.38469584  1
  P  P12  1  0.05701394  0.57478977  0.78561569  1
  P  P13  1  0.63731417  0.85846459  0.66620866  1
  P  P14  1  0.84860922  0.36900094  0.13829011  1
  H  H15  1  0.31913663  0.06171736  0.16176453  1
  H  H16  1  0.18403328  0.90435541  0.85931927  1
  H  H17  1  0.72001908  0.93108101  0.90402393  1
  H  H18  1  0.79527285  0.12764054  0.12238219  1
  O  O19  1  0.25869980  0.49554642  0.84317711  1
  O  O20  1  0.08712554  0.70302557  0.89269341  1
  O  O21  1  0.68072598  0.97887147  0.79192040  1
  O  O22  1  0.78834672  0.22405821  0.04365860  1
  O  O23  1  0.34527364  0.28811714  0.27941006  1
  O  O24  1  0.04412832  0.64100600  0.61970150  1
  O  O25  1  0.63554622  0.70765922  0.75934346  1
  O  O26  1  0.86516262  0.32529993  0.30921523  1
  O  O27  1  0.18898923  0.09379280  0.47052630  1
  O  O28  1  0.35864247  0.02096052  0.27024313  1
  O  O29  1  0.80124440  0.84353248  0.04906589  1
  O  O30  1  0.80831751  0.02054103  0.24341527  1
  O  O31  1  0.24421715  0.17583628  0.98031249  1
  O  O32  1  0.23543067  0.98939928  0.79005370  1
  O  O33  1  0.56415418  0.76035509  0.23781410  1
  O  O34  1  0.98817808  0.79086911  0.32686495  1
  O  O35  1  0.43365903  0.25674508  0.75896556  1
  O  O36  1  0.81326921  0.90767929  0.57405907  1
  O  O37  1  0.83407665  0.45693813  0.78801355  1
  O  O38  1  0.60113575  0.16625902  0.50431079  1
  O  O39  1  0.06569175  0.47090328  0.11348410  1
  O  O40  1  0.41096555  0.85758731  0.55124607  1
  O  O41  1  0.66191413  0.46257045  0.06916327  1
  O  O42  1  0.01772258  0.20075202  0.70100449  1
