# generated using pymatgen
data_KMgNi2H3(SeO5)2
_symmetry_space_group_name_H-M   'P 1'
_cell_length_a   6.03329857
_cell_length_b   6.03413795
_cell_length_c   8.39016717
_cell_angle_alpha   63.79564307
_cell_angle_beta   63.80713528
_cell_angle_gamma   66.72001759
_symmetry_Int_Tables_number   1
_chemical_formula_structural   KMgNi2H3(SeO5)2
_chemical_formula_sum   'K1 Mg1 Ni2 H3 Se2 O10'
_cell_volume   238.18199360
_cell_formula_units_Z   1
loop_
 _symmetry_equiv_pos_site_id
 _symmetry_equiv_pos_as_xyz
  1  'x, y, z'
loop_
 _atom_site_type_symbol
 _atom_site_label
 _atom_site_symmetry_multiplicity
 _atom_site_fract_x
 _atom_site_fract_y
 _atom_site_fract_z
 _atom_site_occupancy
  K  K0  1  0.50462200  0.50477700  0.56398400  1
  Mg  Mg1  1  0.45246800  0.45247800  0.24215300  1
  Ni  Ni2  1  0.98529300  0.49926800  0.02123100  1
  Ni  Ni3  1  0.49916600  0.98534900  0.02129100  1
  H  H4  1  0.75577500  0.75566600  0.70370800  1
  H  H5  1  0.20854900  0.20860900  0.24430300  1
  H  H6  1  0.58870200  0.58844900  0.87545700  1
  Se  Se7  1  0.89328400  0.89334700  0.27097200  1
  Se  Se8  1  0.09844700  0.09845700  0.74958100  1
  O  O9  1  0.77722300  0.77723600  0.50727000  1
  O  O10  1  0.23019900  0.23025500  0.51901900  1
  O  O11  1  0.22141800  0.80817800  0.23999500  1
  O  O12  1  0.80821100  0.22144400  0.23997500  1
  O  O13  1  0.77832300  0.19010300  0.81029500  1
  O  O14  1  0.19009400  0.77836300  0.81029900  1
  O  O15  1  0.69613500  0.69595800  0.84763500  1
  O  O16  1  0.31006300  0.31007000  0.12507000  1
  O  O17  1  0.68495000  0.68494900  0.17070200  1
  O  O18  1  0.20055300  0.20052400  0.85972600  1
