# generated using pymatgen
data_Na2CO3
_symmetry_space_group_name_H-M   'P 1'
_cell_length_a   5.30069290
_cell_length_b   18.18797687
_cell_length_c   19.52563144
_cell_angle_alpha   115.57910111
_cell_angle_beta   90.00000000
_cell_angle_gamma   90.00000000
_symmetry_Int_Tables_number   1
_chemical_formula_structural   Na2CO3
_chemical_formula_sum   'Na48 C24 O72'
_cell_volume   1697.94602873
_cell_formula_units_Z   24
loop_
 _symmetry_equiv_pos_site_id
 _symmetry_equiv_pos_as_xyz
  1  'x, y, z'
loop_
 _atom_site_type_symbol
 _atom_site_label
 _atom_site_symmetry_multiplicity
 _atom_site_fract_x
 _atom_site_fract_y
 _atom_site_fract_z
 _atom_site_occupancy
  Na  Na0  1  0.21519698  0.24980321  0.62507026  1
  Na  Na1  1  0.28480302  0.24980321  0.12507026  1
  Na  Na2  1  0.78480302  0.75019679  0.37492974  1
  Na  Na3  1  0.71519698  0.75019679  0.87492974  1
  Na  Na4  1  0.18618854  0.91683458  0.12768779  1
  Na  Na5  1  0.31381146  0.91683458  0.62768779  1
  Na  Na6  1  0.81381146  0.08316542  0.87231221  1
  Na  Na7  1  0.68618854  0.08316542  0.37231221  1
  Na  Na8  1  0.23848361  0.58315866  0.62532038  1
  Na  Na9  1  0.26151639  0.58315866  0.12532038  1
  Na  Na10  1  0.76151639  0.41684134  0.37467962  1
  Na  Na11  1  0.73848361  0.41684134  0.87467962  1
  Na  Na12  1  0.19003864  0.41715709  0.62546513  1
  Na  Na13  1  0.30996136  0.41715709  0.12546513  1
  Na  Na14  1  0.80996136  0.58284291  0.37453487  1
  Na  Na15  1  0.69003864  0.58284291  0.87453487  1
  Na  Na16  1  0.22677842  0.08453536  0.12636252  1
  Na  Na17  1  0.27322158  0.08453536  0.62636252  1
  Na  Na18  1  0.77322158  0.91546464  0.87363748  1
  Na  Na19  1  0.72677842  0.91546464  0.37363748  1
  Na  Na20  1  0.30249564  0.74916340  0.62511319  1
  Na  Na21  1  0.19750436  0.74916340  0.12511319  1
  Na  Na22  1  0.69750436  0.25083660  0.37488681  1
  Na  Na23  1  0.80249564  0.25083660  0.87488681  1
  Na  Na24  1  0.70495232  0.44266956  0.53888036  1
  Na  Na25  1  0.79504768  0.44266956  0.03888036  1
  Na  Na26  1  0.29504768  0.55733044  0.46111964  1
  Na  Na27  1  0.20495232  0.55733044  0.96111964  1
  Na  Na28  1  0.77864073  0.10865377  0.03621136  1
  Na  Na29  1  0.72135927  0.10865377  0.53621136  1
  Na  Na30  1  0.22135927  0.89134623  0.96378864  1
  Na  Na31  1  0.27864073  0.89134623  0.46378864  1
  Na  Na32  1  0.82115470  0.77292347  0.53786797  1
  Na  Na33  1  0.67884530  0.77292347  0.03786797  1
  Na  Na34  1  0.17884530  0.22707653  0.46213203  1
  Na  Na35  1  0.32115470  0.22707653  0.96213203  1
  Na  Na36  1  0.81063871  0.05621997  0.70591029  1
  Na  Na37  1  0.68936129  0.05621997  0.20591029  1
  Na  Na38  1  0.18936129  0.94378003  0.29408971  1
  Na  Na39  1  0.31063871  0.94378003  0.79408971  1
  Na  Na40  1  0.72797938  0.72337815  0.21046646  1
  Na  Na41  1  0.77202062  0.72337815  0.71046646  1
  Na  Na42  1  0.27202062  0.27662185  0.78953354  1
  Na  Na43  1  0.22797938  0.27662185  0.28953354  1
  Na  Na44  1  0.68830225  0.39141866  0.71051867  1
  Na  Na45  1  0.81169775  0.39141866  0.21051867  1
  Na  Na46  1  0.31169775  0.60858134  0.28948133  1
  Na  Na47  1  0.18830225  0.60858134  0.78948133  1
  C  C48  1  0.69436957  0.27839573  0.54300861  1
  C  C49  1  0.80563043  0.27839573  0.04300861  1
  C  C50  1  0.30563043  0.72160427  0.45699139  1
  C  C51  1  0.19436957  0.72160427  0.95699139  1
  C  C52  1  0.71021825  0.94544209  0.04298170  1
  C  C53  1  0.78978175  0.94544209  0.54298170  1
  C  C54  1  0.28978175  0.05455791  0.95701830  1
  C  C55  1  0.21021825  0.05455791  0.45701830  1
  C  C56  1  0.77667448  0.61029438  0.54232970  1
  C  C57  1  0.72332552  0.61029438  0.04232970  1
  C  C58  1  0.22332552  0.38970562  0.45767030  1
  C  C59  1  0.27667448  0.38970562  0.95767030  1
  C  C60  1  0.75362590  0.22278971  0.70792030  1
  C  C61  1  0.74637410  0.22278971  0.20792030  1
  C  C62  1  0.24637410  0.77721029  0.29207970  1
  C  C63  1  0.25362590  0.77721029  0.79207970  1
  C  C64  1  0.68612322  0.88676239  0.20615393  1
  C  C65  1  0.81387678  0.88676239  0.70615393  1
  C  C66  1  0.31387678  0.11323761  0.79384607  1
  C  C67  1  0.18612322  0.11323761  0.29384607  1
  C  C68  1  0.70604689  0.55559037  0.70736386  1
  C  C69  1  0.79395311  0.55559037  0.20736386  1
  C  C70  1  0.29395311  0.44440963  0.29263614  1
  C  C71  1  0.20604689  0.44440963  0.79263614  1
  O  O72  1  0.88471606  0.31198023  0.58800985  1
  O  O73  1  0.61528394  0.31198023  0.08800985  1
  O  O74  1  0.11528394  0.68801977  0.41199015  1
  O  O75  1  0.38471606  0.68801977  0.91199015  1
  O  O76  1  0.91415615  0.98569114  0.07519419  1
  O  O77  1  0.58584385  0.98569114  0.57519419  1
  O  O78  1  0.08584385  0.01430886  0.92480581  1
  O  O79  1  0.41415615  0.01430886  0.42480581  1
  O  O80  1  0.99349865  0.64812367  0.55991354  1
  O  O81  1  0.50650135  0.64812367  0.05991354  1
  O  O82  1  0.00650135  0.35187633  0.44008646  1
  O  O83  1  0.49349865  0.35187633  0.94008646  1
  O  O84  1  0.02847089  0.31164828  0.06028703  1
  O  O85  1  0.47152911  0.31164828  0.56028703  1
  O  O86  1  0.97152911  0.68835172  0.93971297  1
  O  O87  1  0.52847089  0.68835172  0.43971297  1
  O  O88  1  0.00792206  0.97141539  0.57491811  1
  O  O89  1  0.49207794  0.97141539  0.07491811  1
  O  O90  1  0.99207794  0.02858461  0.42508189  1
  O  O91  1  0.50792206  0.02858461  0.92508189  1
  O  O92  1  0.91575379  0.63890427  0.08764023  1
  O  O93  1  0.58424621  0.63890427  0.58764023  1
  O  O94  1  0.08424621  0.36109573  0.91235977  1
  O  O95  1  0.41575379  0.36109573  0.41235977  1
  O  O96  1  0.96983766  0.18481821  0.68981296  1
  O  O97  1  0.53016234  0.18481821  0.18981296  1
  O  O98  1  0.03016234  0.81518179  0.31018704  1
  O  O99  1  0.46983766  0.81518179  0.81018704  1
  O  O100  1  0.86824455  0.84662378  0.16040259  1
  O  O101  1  0.63175545  0.84662378  0.66040259  1
  O  O102  1  0.13175545  0.15337622  0.83959741  1
  O  O103  1  0.36824455  0.15337622  0.33959741  1
  O  O104  1  0.89579337  0.52443278  0.66147638  1
  O  O105  1  0.60420663  0.52443278  0.16147638  1
  O  O106  1  0.10420663  0.47556722  0.33852362  1
  O  O107  1  0.39579337  0.47556722  0.83852362  1
  O  O108  1  0.94090969  0.19379446  0.16361670  1
  O  O109  1  0.55909031  0.19379446  0.66361670  1
  O  O110  1  0.05909031  0.80620554  0.83638330  1
  O  O111  1  0.44090969  0.80620554  0.33638330  1
  O  O112  1  0.04444795  0.85998608  0.69082389  1
  O  O113  1  0.45555205  0.85998608  0.19082389  1
  O  O114  1  0.95555205  0.14001392  0.30917611  1
  O  O115  1  0.54444795  0.14001392  0.80917611  1
  O  O116  1  0.01332312  0.51949869  0.19116591  1
  O  O117  1  0.48667688  0.51949869  0.69116591  1
  O  O118  1  0.98667688  0.48050131  0.80883409  1
  O  O119  1  0.51332312  0.48050131  0.30883409  1
  O  O120  1  0.72752053  0.21200945  0.48071884  1
  O  O121  1  0.77247947  0.21200945  0.98071884  1
  O  O122  1  0.27247947  0.78799055  0.51928116  1
  O  O123  1  0.22752053  0.78799055  0.01928116  1
  O  O124  1  0.72466158  0.87989184  0.97928088  1
  O  O125  1  0.77533842  0.87989184  0.47928088  1
  O  O126  1  0.27533842  0.12010816  0.02071912  1
  O  O127  1  0.22466158  0.12010816  0.52071912  1
  O  O128  1  0.75256117  0.54414381  0.47943491  1
  O  O129  1  0.74743883  0.54414381  0.97943491  1
  O  O130  1  0.24743883  0.45585619  0.52056509  1
  O  O131  1  0.25256117  0.45585619  0.02056509  1
  O  O132  1  0.73236605  0.28954353  0.77038969  1
  O  O133  1  0.76763395  0.28954353  0.27038969  1
  O  O134  1  0.26763395  0.71045647  0.22961031  1
  O  O135  1  0.23236605  0.71045647  0.72961031  1
  O  O136  1  0.73475039  0.95319563  0.26703301  1
  O  O137  1  0.76524961  0.95319563  0.76703301  1
  O  O138  1  0.26524961  0.04680437  0.73296699  1
  O  O139  1  0.23475039  0.04680437  0.23296699  1
  O  O140  1  0.73541674  0.62234828  0.76944192  1
  O  O141  1  0.76458326  0.62234828  0.26944192  1
  O  O142  1  0.26458326  0.37765172  0.23055808  1
  O  O143  1  0.23541674  0.37765172  0.73055808  1
