# generated using pymatgen
data_NdH3(SeO4)3
_symmetry_space_group_name_H-M   'P 1'
_cell_length_a   6.24948991
_cell_length_b   9.47914192
_cell_length_c   9.47909392
_cell_angle_alpha   120.00044845
_cell_angle_beta   90.00000000
_cell_angle_gamma   90.00000000
_symmetry_Int_Tables_number   1
_chemical_formula_structural   NdH3(SeO4)3
_chemical_formula_sum   'Nd2 H6 Se6 O24'
_cell_volume   486.30540045
_cell_formula_units_Z   2
loop_
 _symmetry_equiv_pos_site_id
 _symmetry_equiv_pos_as_xyz
  1  'x, y, z'
loop_
 _atom_site_type_symbol
 _atom_site_label
 _atom_site_symmetry_multiplicity
 _atom_site_fract_x
 _atom_site_fract_y
 _atom_site_fract_z
 _atom_site_occupancy
  Nd  Nd0  1  0.75000000  0.33332838  0.66664319  1
  Nd  Nd1  1  0.25000000  0.66667162  0.33335681  1
  H  H2  1  0.25000000  0.05479357  0.16353803  1
  H  H3  1  0.25000000  0.83640991  0.89124693  1
  H  H4  1  0.25000000  0.10875110  0.94519968  1
  H  H5  1  0.75000000  0.94520643  0.83646197  1
  H  H6  1  0.75000000  0.16359009  0.10875307  1
  H  H7  1  0.75000000  0.89124890  0.05480032  1
  Se  Se8  1  0.75000000  0.89382804  0.29367625  1
  Se  Se9  1  0.75000000  0.70632158  0.60015149  1
  Se  Se10  1  0.75000000  0.39984613  0.10613328  1
  Se  Se11  1  0.25000000  0.10617196  0.70632375  1
  Se  Se12  1  0.25000000  0.29367842  0.39984851  1
  Se  Se13  1  0.25000000  0.60015387  0.89386672  1
  O  O14  1  0.75000000  0.03919348  0.48112358  1
  O  O15  1  0.75000000  0.51888616  0.55807784  1
  O  O16  1  0.75000000  0.44192334  0.96077819  1
  O  O17  1  0.25000000  0.96080652  0.51887642  1
  O  O18  1  0.25000000  0.48111384  0.44192216  1
  O  O19  1  0.25000000  0.55807666  0.03922181  1
  O  O20  1  0.53377457  0.78339815  0.23772126  1
  O  O21  1  0.53377260  0.76227983  0.54566860  1
  O  O22  1  0.53377395  0.45433120  0.21656683  1
  O  O23  1  0.03377457  0.21660185  0.76227874  1
  O  O24  1  0.03377260  0.23772017  0.45433140  1
  O  O25  1  0.03377395  0.54566880  0.78343317  1
  O  O26  1  0.46622543  0.21660185  0.76227874  1
  O  O27  1  0.46622740  0.23772017  0.45433140  1
  O  O28  1  0.46622605  0.54566880  0.78343317  1
  O  O29  1  0.96622543  0.78339815  0.23772126  1
  O  O30  1  0.96622740  0.76227983  0.54566860  1
  O  O31  1  0.96622605  0.45433120  0.21656683  1
  O  O32  1  0.25000000  0.16750360  0.18494431  1
  O  O33  1  0.25000000  0.81504042  0.98257113  1
  O  O34  1  0.25000000  0.01743784  0.83249517  1
  O  O35  1  0.75000000  0.83249640  0.81505569  1
  O  O36  1  0.75000000  0.18495958  0.01742887  1
  O  O37  1  0.75000000  0.98256216  0.16750483  1
