# generated using pymatgen
data_Sr2MgZn2Sn2(PO4)4
_symmetry_space_group_name_H-M   'P 1'
_cell_length_a   5.56800446
_cell_length_b   7.75469310
_cell_length_c   10.10186836
_cell_angle_alpha   112.66910609
_cell_angle_beta   96.09810579
_cell_angle_gamma   91.71471193
_symmetry_Int_Tables_number   1
_chemical_formula_structural   Sr2MgZn2Sn2(PO4)4
_chemical_formula_sum   'Sr2 Mg1 Zn2 Sn2 P4 O16'
_cell_volume   399.01057177
_cell_formula_units_Z   1
loop_
 _symmetry_equiv_pos_site_id
 _symmetry_equiv_pos_as_xyz
  1  'x, y, z'
loop_
 _atom_site_type_symbol
 _atom_site_label
 _atom_site_symmetry_multiplicity
 _atom_site_fract_x
 _atom_site_fract_y
 _atom_site_fract_z
 _atom_site_occupancy
  Sr  Sr0  1  0.22383848  0.85998191  0.07451172  1
  Sr  Sr1  1  0.78871132  0.19358177  0.96702074  1
  Mg  Mg2  1  0.22649679  0.69664039  0.73733585  1
  Zn  Zn3  1  0.00122938  0.30044577  0.59632810  1
  Zn  Zn4  1  0.91072105  0.63058701  0.33584322  1
  Sn  Sn5  1  0.54022497  0.82861899  0.49419740  1
  Sn  Sn6  1  0.40829029  0.20426227  0.49567480  1
  P  P7  1  0.36009773  0.39749216  0.23667774  1
  P  P8  1  0.69029053  0.61640477  0.76905670  1
  P  P9  1  0.78337198  0.95740720  0.25582837  1
  P  P10  1  0.21207284  0.04877779  0.74941189  1
  O  O11  1  0.95299619  0.63934314  0.84342301  1
  O  O12  1  0.62982140  0.43778128  0.21753192  1
  O  O13  1  0.62970368  0.77476987  0.71618445  1
  O  O14  1  0.98934088  0.15794164  0.73336327  1
  O  O15  1  0.48411383  0.60807463  0.85738279  1
  O  O16  1  0.19778880  0.85456663  0.61025841  1
  O  O17  1  0.80366279  0.13522278  0.39952661  1
  O  O18  1  0.18717658  0.97700101  0.87290129  1
  O  O19  1  0.34554361  0.22630098  0.28296060  1
  O  O20  1  0.80588519  0.00418157  0.12215070  1
  O  O21  1  0.18659863  0.35935753  0.10011749  1
  O  O22  1  0.27209621  0.57386454  0.36332504  1
  O  O23  1  0.68676092  0.42529079  0.62910468  1
  O  O24  1  0.54361644  0.84350965  0.24172187  1
  O  O25  1  0.99557621  0.83042692  0.26532302  1
  O  O26  1  0.45349726  0.15890701  0.77033833  1
