# generated using pymatgen
data_BaGa2SiS6
_symmetry_space_group_name_H-M   'P 1'
_cell_length_a   6.17239646
_cell_length_b   6.25270036
_cell_length_c   6.41023294
_cell_angle_alpha   99.33684436
_cell_angle_beta   103.76610882
_cell_angle_gamma   98.21289695
_symmetry_Int_Tables_number   1
_chemical_formula_structural   BaGa2SiS6
_chemical_formula_sum   'Ba1 Ga2 Si1 S6'
_cell_volume   232.81898498
_cell_formula_units_Z   1
loop_
 _symmetry_equiv_pos_site_id
 _symmetry_equiv_pos_as_xyz
  1  'x, y, z'
loop_
 _atom_site_type_symbol
 _atom_site_label
 _atom_site_symmetry_multiplicity
 _atom_site_fract_x
 _atom_site_fract_y
 _atom_site_fract_z
 _atom_site_occupancy
  Ba  Ba0  1  0.47151005  0.45878020  0.44339045  1
  Ga  Ga1  1  0.00087008  0.84616135  0.26551150  1
  Ga  Ga2  1  0.26176388  0.98597491  0.85871745  1
  Si  Si3  1  0.84492492  0.27318016  0.99728961  1
  S  S4  1  0.04011573  0.71727204  0.57991385  1
  S  S5  1  0.58761408  0.05324158  0.74048097  1
  S  S6  1  0.71891331  0.57476367  0.02242578  1
  S  S7  1  0.89659888  0.18563758  0.30959008  1
  S  S8  1  0.34060221  0.89874270  0.19304344  1
  S  S9  1  0.15313187  0.32229081  0.90568088  1
