# generated using pymatgen
data_Sr2SiO4
_symmetry_space_group_name_H-M   'P 1'
_cell_length_a   7.09729398
_cell_length_b   5.68068270
_cell_length_c   11.01353724
_cell_angle_alpha   62.13802631
_cell_angle_beta   90.00000000
_cell_angle_gamma   90.00000000
_symmetry_Int_Tables_number   1
_chemical_formula_structural   Sr2SiO4
_chemical_formula_sum   'Sr8 Si4 O16'
_cell_volume   392.56334806
_cell_formula_units_Z   4
loop_
 _symmetry_equiv_pos_site_id
 _symmetry_equiv_pos_as_xyz
  1  'x, y, z'
loop_
 _atom_site_type_symbol
 _atom_site_label
 _atom_site_symmetry_multiplicity
 _atom_site_fract_x
 _atom_site_fract_y
 _atom_site_fract_z
 _atom_site_occupancy
  Sr  Sr0  1  0.49982140  0.02909043  0.19749639  1
  Sr  Sr1  1  -0.00017860  0.97090957  0.30250361  1
  Sr  Sr2  1  0.50017860  0.97090957  0.80250361  1
  Sr  Sr3  1  0.00017860  0.02909043  0.69749639  1
  Sr  Sr4  1  0.15781855  0.31321330  0.92317101  1
  Sr  Sr5  1  0.65781855  0.68678670  0.57682899  1
  Sr  Sr6  1  0.84218145  0.68678670  0.07682899  1
  Sr  Sr7  1  0.34218145  0.31321330  0.42317101  1
  Si  Si8  1  0.72118107  0.33997285  0.91841606  1
  Si  Si9  1  0.22118107  0.66002715  0.58158394  1
  Si  Si10  1  0.27881893  0.66002715  0.08158394  1
  Si  Si11  1  0.77881893  0.33997285  0.41841606  1
  O  O12  1  0.76849285  0.65463286  0.82163654  1
  O  O13  1  0.26849285  0.34536714  0.67836346  1
  O  O14  1  0.23150715  0.34536714  0.17836346  1
  O  O15  1  0.73150715  0.65463286  0.32163654  1
  O  O16  1  0.82235548  0.15586123  0.85819163  1
  O  O17  1  0.32235548  0.84413877  0.64180837  1
  O  O18  1  0.17764452  0.84413877  0.14180837  1
  O  O19  1  0.67764452  0.15586123  0.35819163  1
  O  O20  1  0.81912833  0.24340596  0.07028903  1
  O  O21  1  0.31912833  0.75659404  0.42971097  1
  O  O22  1  0.18087167  0.75659404  0.92971097  1
  O  O23  1  0.68087167  0.24340596  0.57028903  1
  O  O24  1  0.00406640  0.29073571  0.43027908  1
  O  O25  1  0.50406640  0.70926429  0.06972092  1
  O  O26  1  0.99593360  0.70926429  0.56972092  1
  O  O27  1  0.49593360  0.29073571  0.93027908  1
