# generated using pymatgen
data_InPb2F7
_symmetry_space_group_name_H-M   'P 1'
_cell_length_a   12.44457357
_cell_length_b   5.59001845
_cell_length_c   8.41301360
_cell_angle_alpha   89.64555741
_cell_angle_beta   90.00000000
_cell_angle_gamma   90.00000000
_symmetry_Int_Tables_number   1
_chemical_formula_structural   InPb2F7
_chemical_formula_sum   'In4 Pb8 F28'
_cell_volume   585.24342284
_cell_formula_units_Z   4
loop_
 _symmetry_equiv_pos_site_id
 _symmetry_equiv_pos_as_xyz
  1  'x, y, z'
loop_
 _atom_site_type_symbol
 _atom_site_label
 _atom_site_symmetry_multiplicity
 _atom_site_fract_x
 _atom_site_fract_y
 _atom_site_fract_z
 _atom_site_occupancy
  In  In0  1  0.12501932  0.27733542  0.21593499  1
  In  In1  1  0.87498068  0.72266458  0.78406501  1
  In  In2  1  0.62501932  0.72266458  0.28406501  1
  In  In3  1  0.37498068  0.27733542  0.71593499  1
  Pb  Pb4  1  0.78341833  0.22966266  0.05463262  1
  Pb  Pb5  1  0.21658167  0.77033734  0.94536738  1
  Pb  Pb6  1  0.28341833  0.77033734  0.44536738  1
  Pb  Pb7  1  0.71658167  0.22966266  0.55463262  1
  Pb  Pb8  1  0.43898913  0.23708656  0.17553772  1
  Pb  Pb9  1  0.56101087  0.76291344  0.82446228  1
  Pb  Pb10  1  0.93898913  0.76291344  0.32446228  1
  Pb  Pb11  1  0.06101087  0.23708656  0.67553772  1
  F  F12  1  0.07181238  0.61761917  0.12407339  1
  F  F13  1  0.92818762  0.38238083  0.87592661  1
  F  F14  1  0.57181238  0.38238083  0.37592661  1
  F  F15  1  0.42818762  0.61761917  0.62407339  1
  F  F16  1  0.13577327  0.18274150  0.97326357  1
  F  F17  1  0.86422673  0.81725850  0.02673643  1
  F  F18  1  0.63577327  0.81725850  0.52673643  1
  F  F19  1  0.36422673  0.18274150  0.47326357  1
  F  F20  1  0.10312034  0.48836026  0.42480048  1
  F  F21  1  0.89687966  0.51163974  0.57519952  1
  F  F22  1  0.60312034  0.51163974  0.07519952  1
  F  F23  1  0.39687966  0.48836026  0.92480048  1
  F  F24  1  0.54086468  0.19715530  0.71509063  1
  F  F25  1  0.45913532  0.80284470  0.28490937  1
  F  F26  1  0.04086468  0.80284470  0.78490937  1
  F  F27  1  0.95913532  0.19715530  0.21509063  1
  F  F28  1  0.25516916  0.01228590  0.19694154  1
  F  F29  1  0.74483084  0.98771410  0.80305846  1
  F  F30  1  0.75516916  0.98771410  0.30305846  1
  F  F31  1  0.24483084  0.01228590  0.69694154  1
  F  F32  1  0.27003131  0.48332879  0.20622284  1
  F  F33  1  0.72996869  0.51667121  0.79377716  1
  F  F34  1  0.77003131  0.51667121  0.29377716  1
  F  F35  1  0.22996869  0.48332879  0.70622284  1
  F  F36  1  0.10609994  0.01532004  0.40953469  1
  F  F37  1  0.89390006  0.98467996  0.59046531  1
  F  F38  1  0.60609994  0.98467996  0.09046531  1
  F  F39  1  0.39390006  0.01532004  0.90953469  1
