# generated using pymatgen
data_YPtF7
_symmetry_space_group_name_H-M   'P 1'
_cell_length_a   5.41969803
_cell_length_b   8.78192589
_cell_length_c   11.88004866
_cell_angle_alpha   62.30397471
_cell_angle_beta   90.00000000
_cell_angle_gamma   90.00000000
_symmetry_Int_Tables_number   1
_chemical_formula_structural   YPtF7
_chemical_formula_sum   'Y4 Pt4 F28'
_cell_volume   500.65122601
_cell_formula_units_Z   4
loop_
 _symmetry_equiv_pos_site_id
 _symmetry_equiv_pos_as_xyz
  1  'x, y, z'
loop_
 _atom_site_type_symbol
 _atom_site_label
 _atom_site_symmetry_multiplicity
 _atom_site_fract_x
 _atom_site_fract_y
 _atom_site_fract_z
 _atom_site_occupancy
  Y  Y0  1  0.26155201  0.81334645  0.26404317  1
  Y  Y1  1  0.73844799  0.18665355  0.73595683  1
  Y  Y2  1  0.76155201  0.18665355  0.23595683  1
  Y  Y3  1  0.23844799  0.81334645  0.76404317  1
  Pt  Pt4  1  0.75828166  0.72823481  0.04258740  1
  Pt  Pt5  1  0.24171834  0.27176519  0.95741260  1
  Pt  Pt6  1  0.25828166  0.27176519  0.45741260  1
  Pt  Pt7  1  0.74171834  0.72823481  0.54258740  1
  F  F8  1  0.93206668  0.70540087  0.41252134  1
  F  F9  1  0.06793332  0.29459913  0.58747866  1
  F  F10  1  0.43206668  0.29459913  0.08747866  1
  F  F11  1  0.56793332  0.70540087  0.91252134  1
  F  F12  1  0.45805797  0.72231222  0.13402457  1
  F  F13  1  0.54194203  0.27768778  0.86597543  1
  F  F14  1  0.95805797  0.27768778  0.36597543  1
  F  F15  1  0.04194203  0.72231222  0.63402457  1
  F  F16  1  0.94197045  0.74426485  0.17731327  1
  F  F17  1  0.05802955  0.25573515  0.82268673  1
  F  F18  1  0.44197045  0.25573515  0.32268673  1
  F  F19  1  0.55802955  0.74426485  0.67731327  1
  F  F20  1  0.77587731  0.47893057  0.13992356  1
  F  F21  1  0.22412269  0.52106943  0.86007644  1
  F  F22  1  0.27587731  0.52106943  0.36007644  1
  F  F23  1  0.72412269  0.47893057  0.63992356  1
  F  F24  1  0.93349064  0.27427029  0.04114715  1
  F  F25  1  0.06650936  0.72572971  0.95885285  1
  F  F26  1  0.43349064  0.72572971  0.45885285  1
  F  F27  1  0.56650936  0.27427029  0.54114715  1
  F  F28  1  0.74660286  0.97776474  0.44977074  1
  F  F29  1  0.25339714  0.02223526  0.55022926  1
  F  F30  1  0.24660286  0.02223526  0.05022926  1
  F  F31  1  0.75339714  0.97776474  0.94977074  1
  F  F32  1  0.59694506  0.96492233  0.23158387  1
  F  F33  1  0.40305494  0.03507767  0.76841613  1
  F  F34  1  0.09694506  0.03507767  0.26841613  1
  F  F35  1  0.90305494  0.96492233  0.73158387  1
