# generated using pymatgen
data_Co5SbO8
_symmetry_space_group_name_H-M   'P 1'
_cell_length_a   5.72130820
_cell_length_b   10.44242506
_cell_length_c   6.02749365
_cell_angle_alpha   70.37343039
_cell_angle_beta   61.66225262
_cell_angle_gamma   90.00642444
_symmetry_Int_Tables_number   1
_chemical_formula_structural   Co5SbO8
_chemical_formula_sum   'Co10 Sb2 O16'
_cell_volume   292.95964037
_cell_formula_units_Z   2
loop_
 _symmetry_equiv_pos_site_id
 _symmetry_equiv_pos_as_xyz
  1  'x, y, z'
loop_
 _atom_site_type_symbol
 _atom_site_label
 _atom_site_symmetry_multiplicity
 _atom_site_fract_x
 _atom_site_fract_y
 _atom_site_fract_z
 _atom_site_occupancy
  Co  Co0  1  0.70473538  0.55923808  0.09093827  1
  Co  Co1  1  0.79565411  0.94070326  0.90902995  1
  Co  Co2  1  0.74944887  0.24999647  0.50013765  1
  Co  Co3  1  0.00002389  0.50001553  0.49999115  1
  Co  Co4  1  0.24954415  0.25001985  0.49992210  1
  Co  Co5  1  0.20443418  0.05924561  0.09084500  1
  Co  Co6  1  0.29535003  0.44070590  0.90898102  1
  Co  Co7  1  0.25050239  0.75002302  0.49995961  1
  Co  Co8  1  0.49997892  0.00001557  0.49998358  1
  Co  Co9  1  0.75041617  0.75001930  0.50014781  1
  Sb  Sb10  1  0.74973338  0.24997278  -0.00000323  1
  Sb  Sb11  1  0.25030357  0.75002773  0.00005022  1
  O  O12  1  0.40284303  0.12468576  0.69332602  1
  O  O13  1  0.90378076  0.62468814  0.69339077  1
  O  O14  1  0.09624647  0.37535733  0.30653003  1
  O  O15  1  0.59715540  0.87536079  0.30657754  1
  O  O16  1  0.39413398  0.12001971  0.25004560  1
  O  O17  1  0.89448412  0.62020254  0.24998432  1
  O  O18  1  0.85548892  0.12015409  0.24989922  1
  O  O19  1  0.35576673  0.62005068  0.25000605  1
  O  O20  1  0.62513867  0.35387126  0.24893449  1
  O  O21  1  0.12607444  0.85387982  0.24898235  1
  O  O22  1  0.64432284  0.37996054  0.75001119  1
  O  O23  1  0.14452135  0.87983492  0.75015007  1
  O  O24  1  0.87388381  0.14606701  0.75109578  1
  O  O25  1  0.37484609  0.64607258  0.75115030  1
  O  O26  1  0.10544315  0.37980362  0.75001991  1
  O  O27  1  0.60574818  0.88000609  0.74991222  1
