# generated using pymatgen
data_MnGeO3
_symmetry_space_group_name_H-M   'P 1'
_cell_length_a   5.25893102
_cell_length_b   6.77870172
_cell_length_c   6.77870173
_cell_angle_alpha   85.86152995
_cell_angle_beta   81.69676187
_cell_angle_gamma   81.69680816
_symmetry_Int_Tables_number   1
_chemical_formula_structural   MnGeO3
_chemical_formula_sum   'Mn4 Ge4 O12'
_cell_volume   236.28735003
_cell_formula_units_Z   4
loop_
 _symmetry_equiv_pos_site_id
 _symmetry_equiv_pos_as_xyz
  1  'x, y, z'
loop_
 _atom_site_type_symbol
 _atom_site_label
 _atom_site_symmetry_multiplicity
 _atom_site_fract_x
 _atom_site_fract_y
 _atom_site_fract_z
 _atom_site_occupancy
  Mn  Mn0  1  0.24999964  0.90501343  0.09498651  1
  Mn  Mn1  1  0.25000038  0.27439219  0.72560797  1
  Mn  Mn2  1  0.74999995  0.09498376  0.90501583  1
  Mn  Mn3  1  0.74999992  0.72560704  0.27439316  1
  Ge  Ge4  1  0.71761471  0.60908929  0.79317613  1
  Ge  Ge5  1  0.78238486  0.20682382  0.39091079  1
  Ge  Ge6  1  0.28238751  0.39090988  0.20682258  1
  Ge  Ge7  1  0.21761223  0.79317821  0.60908967  1
  O  O8  1  0.64078559  0.78965621  0.97164070  1
  O  O9  1  0.85921386  0.02835865  0.21034308  1
  O  O10  1  0.35921611  0.21034170  0.02835784  1
  O  O11  1  0.14078489  0.97164220  0.78965782  1
  O  O12  1  0.87862451  0.37943838  0.85835799  1
  O  O13  1  0.62137503  0.14164184  0.62056167  1
  O  O14  1  0.12137583  0.62056012  0.14164262  1
  O  O15  1  0.37862381  0.85835740  0.37943913  1
  O  O16  1  0.41725687  0.57811363  0.70630078  1
  O  O17  1  0.08274321  0.29369820  0.42188682  1
  O  O18  1  0.58274407  0.42188862  0.29369668  1
  O  O19  1  0.91725600  0.70630341  0.57811123  1
