# generated using pymatgen
data_MgSbAs2SeO7
_symmetry_space_group_name_H-M   'P 1'
_cell_length_a   10.63966254
_cell_length_b   13.52879227
_cell_length_c   13.52471817
_cell_angle_alpha   81.13835569
_cell_angle_beta   66.83762353
_cell_angle_gamma   66.83063374
_symmetry_Int_Tables_number   1
_chemical_formula_structural   MgSbAs2SeO7
_chemical_formula_sum   'Mg8 Sb8 As16 Se8 O56'
_cell_volume   1645.49075689
_cell_formula_units_Z   8
loop_
 _symmetry_equiv_pos_site_id
 _symmetry_equiv_pos_as_xyz
  1  'x, y, z'
loop_
 _atom_site_type_symbol
 _atom_site_label
 _atom_site_symmetry_multiplicity
 _atom_site_fract_x
 _atom_site_fract_y
 _atom_site_fract_z
 _atom_site_occupancy
  Mg  Mg0  1  0.18635600  0.38273100  0.33566400  1
  Mg  Mg1  1  0.06914300  0.33572700  0.11698200  1
  Mg  Mg2  1  0.47905800  0.83537200  0.61649800  1
  Mg  Mg3  1  0.93085700  0.66427300  0.88301800  1
  Mg  Mg4  1  0.81364400  0.61726900  0.66433600  1
  Mg  Mg5  1  0.09520600  0.88286300  0.83576900  1
  Mg  Mg6  1  0.52094200  0.16462800  0.38350200  1
  Mg  Mg7  1  0.90479400  0.11713700  0.16423200  1
  Sb  Sb8  1  0.27178800  0.61067600  0.74883800  1
  Sb  Sb9  1  0.63126400  0.88930500  0.75122400  1
  Sb  Sb10  1  0.72821200  0.38932400  0.25116200  1
  Sb  Sb11  1  0.97946400  0.24879400  0.38908800  1
  Sb  Sb12  1  0.36873600  0.11069500  0.24877600  1
  Sb  Sb13  1  0.02053600  0.75120600  0.61091200  1
  Sb  Sb14  1  0.61727700  0.25120000  0.11093400  1
  Sb  Sb15  1  0.38272300  0.74880000  0.88906600  1
  As  As16  1  0.63055000  0.45911300  0.83707300  1
  As  As17  1  0.90552600  0.57948200  0.22791900  1
  As  As18  1  0.28735500  0.07910300  0.72777100  1
  As  As19  1  0.46773300  0.66263800  0.45902500  1
  As  As20  1  0.13395700  0.27174000  0.57922200  1
  As  As21  1  0.92680200  0.04072800  0.66288300  1
  As  As22  1  0.41048200  0.16271900  0.95910000  1
  As  As23  1  0.86604300  0.72826000  0.42077800  1
  As  As24  1  0.58951800  0.83728100  0.04090000  1
  As  As25  1  0.07319800  0.95927200  0.33711700  1
  As  As26  1  0.09447400  0.42051800  0.77208100  1
  As  As27  1  0.98508600  0.22787900  0.92049400  1
  As  As28  1  0.36945000  0.54088700  0.16292700  1
  As  As29  1  0.71264500  0.92089700  0.27222900  1
  As  As30  1  0.01491400  0.77212100  0.07950600  1
  As  As31  1  0.53226700  0.33736200  0.54097500  1
  Se  Se32  1  0.74677400  0.48657100  0.50049100  1
  Se  Se33  1  0.73383400  0.01352100  0.99944300  1
  Se  Se34  1  0.75273700  0.00058100  0.51349200  1
  Se  Se35  1  0.73325700  0.50053000  0.01360300  1
  Se  Se36  1  0.24726300  0.99941900  0.48650800  1
  Se  Se37  1  0.25322600  0.51342900  0.49950900  1
  Se  Se38  1  0.26674300  0.49947000  0.98639700  1
  Se  Se39  1  0.26616600  0.98647900  0.00055700  1
  O  O40  1  0.95498700  0.83599900  0.97237400  1
  O  O41  1  0.08950300  0.12557400  0.81313400  1
  O  O42  1  0.61959300  0.91370200  0.60380500  1
  O  O43  1  0.05706000  0.03551200  0.22597300  1
  O  O44  1  0.03302600  0.60393800  0.58617000  1
  O  O45  1  0.77673200  0.10385100  0.08636800  1
  O  O46  1  0.41705700  0.51812400  0.86215300  1
  O  O47  1  0.68148300  0.53548200  0.72603900  1
  O  O48  1  0.06819300  0.71269200  0.74491500  1
  O  O49  1  0.28314100  0.27409000  0.03527600  1
  O  O50  1  0.71900900  0.25530800  0.21272700  1
  O  O51  1  0.40742000  0.77404900  0.53520700  1
  O  O52  1  0.91049700  0.87442600  0.18686600  1
  O  O53  1  0.22326800  0.89614900  0.91363200  1
  O  O54  1  0.92734000  0.52772000  0.83593600  1
  O  O55  1  0.09413300  0.95013500  0.56245500  1
  O  O56  1  0.97131400  0.62584500  0.31350700  1
  O  O57  1  0.20252300  0.01823200  0.36216600  1
  O  O58  1  0.07266000  0.47228000  0.16406300  1
  O  O59  1  0.04501300  0.16400100  0.02762600  1
  O  O60  1  0.56476500  0.13776000  0.01815100  1
  O  O61  1  0.02868600  0.37415500  0.68649300  1
  O  O62  1  0.94294000  0.96448800  0.77402700  1
  O  O63  1  0.23734400  0.33540300  0.47198500  1
  O  O64  1  0.39307000  0.45036900  0.06254900  1
  O  O65  1  0.28099100  0.74469200  0.78727300  1
  O  O66  1  0.52594100  0.78719500  0.75502800  1
  O  O67  1  0.54423000  0.56263700  0.54982800  1
  O  O68  1  0.18701200  0.24476700  0.28708700  1
  O  O69  1  0.90268900  0.68665600  0.12558800  1
  O  O70  1  0.93180700  0.28730800  0.25508500  1
  O  O71  1  0.43523500  0.86224000  0.98184900  1
  O  O72  1  0.45577100  0.43736300  0.45017200  1
  O  O73  1  0.71451100  0.81375600  0.37462600  1
  O  O74  1  0.59258000  0.22595100  0.46479300  1
  O  O75  1  0.72085200  0.36231200  0.48185000  1
  O  O76  1  0.38040700  0.08629800  0.39619500  1
  O  O77  1  0.34315100  0.06270100  0.04983500  1
  O  O78  1  0.65684900  0.93729900  0.95016500  1
  O  O79  1  0.86313400  0.41368100  0.10381100  1
  O  O80  1  0.58294300  0.48187600  0.13784700  1
  O  O81  1  0.13686600  0.58631900  0.89618900  1
  O  O82  1  0.81298800  0.75523300  0.71291300  1
  O  O83  1  0.27914800  0.63768800  0.51815000  1
  O  O84  1  0.90586700  0.04986500  0.43754500  1
  O  O85  1  0.76265600  0.66459700  0.52801500  1
  O  O86  1  0.60693000  0.54963100  0.93745000  1
  O  O87  1  0.28548900  0.18624400  0.62537400  1
  O  O88  1  0.31851700  0.46451800  0.27396100  1
  O  O89  1  0.79747700  0.98176800  0.63783400  1
  O  O90  1  0.29151300  0.97192800  0.66376400  1
  O  O91  1  0.70848700  0.02807300  0.33623600  1
  O  O92  1  0.96697400  0.39606200  0.41383000  1
  O  O93  1  0.09731100  0.31334400  0.87441200  1
  O  O94  1  0.47405900  0.21280500  0.24497200  1
  O  O95  1  0.71685900  0.72591000  0.96472400  1
