# generated using pymatgen
data_Sr(AlS2)2
_symmetry_space_group_name_H-M   'P 1'
_cell_length_a   6.04973650
_cell_length_b   6.04973650
_cell_length_c   10.58688917
_cell_angle_alpha   90.00000000
_cell_angle_beta   90.00000000
_cell_angle_gamma   121.29527141
_symmetry_Int_Tables_number   1
_chemical_formula_structural   Sr(AlS2)2
_chemical_formula_sum   'Sr2 Al4 S8'
_cell_volume   331.09621550
_cell_formula_units_Z   2
loop_
 _symmetry_equiv_pos_site_id
 _symmetry_equiv_pos_as_xyz
  1  'x, y, z'
loop_
 _atom_site_type_symbol
 _atom_site_label
 _atom_site_symmetry_multiplicity
 _atom_site_fract_x
 _atom_site_fract_y
 _atom_site_fract_z
 _atom_site_occupancy
  Sr  Sr0  1  0.50000000  0.50000000  0.25000000  1
  Sr  Sr1  1  0.50000000  0.50000000  0.75000000  1
  Al  Al2  1  0.75957962  0.23831002  0.50000000  1
  Al  Al3  1  0.24042038  0.76168998  0.50000000  1
  Al  Al4  1  0.76168998  0.24042038  0.00000000  1
  Al  Al5  1  0.23831002  0.75957962  0.00000000  1
  S  S6  1  0.82328913  0.64491339  0.50000000  1
  S  S7  1  0.17671087  0.35508661  0.50000000  1
  S  S8  1  0.35508661  0.17671087  0.00000000  1
  S  S9  1  0.64491339  0.82328913  0.00000000  1
  S  S10  1  0.00000000  0.50000000  0.16112904  1
  S  S11  1  0.50000000  -0.00000000  0.33887096  1
  S  S12  1  0.00000000  0.50000000  0.83887096  1
  S  S13  1  0.50000000  -0.00000000  0.66112904  1
