# generated using pymatgen
data_Er2PbS4
_symmetry_space_group_name_H-M   'P 1'
_cell_length_a   3.93825438
_cell_length_b   11.98412271
_cell_length_c   14.29661969
_cell_angle_alpha   90.00000000
_cell_angle_beta   90.00000000
_cell_angle_gamma   90.00000000
_symmetry_Int_Tables_number   1
_chemical_formula_structural   Er2PbS4
_chemical_formula_sum   'Er8 Pb4 S16'
_cell_volume   674.75075079
_cell_formula_units_Z   4
loop_
 _symmetry_equiv_pos_site_id
 _symmetry_equiv_pos_as_xyz
  1  'x, y, z'
loop_
 _atom_site_type_symbol
 _atom_site_label
 _atom_site_symmetry_multiplicity
 _atom_site_fract_x
 _atom_site_fract_y
 _atom_site_fract_z
 _atom_site_occupancy
  Er  Er0  1  0.25000000  0.44153453  0.39051421  1
  Er  Er1  1  0.25000000  0.94153453  0.10948579  1
  Er  Er2  1  0.75000000  0.55846547  0.60948579  1
  Er  Er3  1  0.75000000  0.05846547  0.89051421  1
  Er  Er4  1  0.25000000  0.41509134  0.89978431  1
  Er  Er5  1  0.25000000  0.91509134  0.60021569  1
  Er  Er6  1  0.75000000  0.58490866  0.10021569  1
  Er  Er7  1  0.75000000  0.08490866  0.39978431  1
  Pb  Pb8  1  0.25000000  0.77635681  0.33597322  1
  Pb  Pb9  1  0.25000000  0.27635681  0.16402678  1
  Pb  Pb10  1  0.75000000  0.22364319  0.66402678  1
  Pb  Pb11  1  0.75000000  0.72364319  0.83597322  1
  S  S12  1  0.25000000  0.20418401  0.83103162  1
  S  S13  1  0.25000000  0.70418401  0.66896838  1
  S  S14  1  0.75000000  0.79581599  0.16896838  1
  S  S15  1  0.75000000  0.29581599  0.33103162  1
  S  S16  1  0.25000000  0.12570515  0.52789091  1
  S  S17  1  0.25000000  0.62570515  0.97210909  1
  S  S18  1  0.75000000  0.87429485  0.47210909  1
  S  S19  1  0.75000000  0.37429485  0.02789091  1
  S  S20  1  0.25000000  0.01973121  0.28757067  1
  S  S21  1  0.25000000  0.51973121  0.21242933  1
  S  S22  1  0.75000000  0.98026879  0.71242933  1
  S  S23  1  0.75000000  0.48026879  0.78757067  1
  S  S24  1  0.25000000  0.41098745  0.57581198  1
  S  S25  1  0.25000000  0.91098745  0.92418802  1
  S  S26  1  0.75000000  0.58901255  0.42418802  1
  S  S27  1  0.75000000  0.08901255  0.07581198  1
