# generated using pymatgen
data_Na16Al12Si12I3ClO48
_symmetry_space_group_name_H-M   'P 1'
_cell_length_a   9.08175161
_cell_length_b   9.08178956
_cell_length_c   18.16343075
_cell_angle_alpha   90.00000000
_cell_angle_beta   90.00000000
_cell_angle_gamma   90.00000000
_symmetry_Int_Tables_number   1
_chemical_formula_structural   Na16Al12Si12I3ClO48
_chemical_formula_sum   'Na16 Al12 Si12 I3 Cl1 O48'
_cell_volume   1498.09355767
_cell_formula_units_Z   1
loop_
 _symmetry_equiv_pos_site_id
 _symmetry_equiv_pos_as_xyz
  1  'x, y, z'
loop_
 _atom_site_type_symbol
 _atom_site_label
 _atom_site_symmetry_multiplicity
 _atom_site_fract_x
 _atom_site_fract_y
 _atom_site_fract_z
 _atom_site_occupancy
  Na  Na0  1  0.30409713  0.69590265  0.15205156  1
  Na  Na1  1  0.30411246  0.69588837  0.65205363  1
  Na  Na2  1  0.69590287  0.30409735  0.15205156  1
  Na  Na3  1  0.69588754  0.30411163  0.65205363  1
  Na  Na4  1  0.30411246  0.30411163  0.34794637  1
  Na  Na5  1  0.30409713  0.30409735  0.84794844  1
  Na  Na6  1  0.69588754  0.69588837  0.34794637  1
  Na  Na7  1  0.69590287  0.69590265  0.84794844  1
  Na  Na8  1  0.80406280  0.80406158  0.09797117  1
  Na  Na9  1  0.80926485  0.80925819  0.59537779  1
  Na  Na10  1  0.19073515  0.80925819  0.40462221  1
  Na  Na11  1  0.19593720  0.80406158  0.90202883  1
  Na  Na12  1  0.80926485  0.19074181  0.40462221  1
  Na  Na13  1  0.80406280  0.19593842  0.90202883  1
  Na  Na14  1  0.19593720  0.19593842  0.09797117  1
  Na  Na15  1  0.19073515  0.19074181  0.59537779  1
  Al  Al16  1  0.50000000  -0.00000000  0.12501666  1
  Al  Al17  1  0.50000000  -0.00000000  0.62502118  1
  Al  Al18  1  0.00005031  0.74995369  0.25002680  1
  Al  Al19  1  0.99994969  0.74995369  0.74997320  1
  Al  Al20  1  0.25000320  0.50000000  -0.00000000  1
  Al  Al21  1  0.25007317  0.50000000  0.50000000  1
  Al  Al22  1  0.99994969  0.25004631  0.25002680  1
  Al  Al23  1  0.00005031  0.25004631  0.74997320  1
  Al  Al24  1  0.74999680  0.50000000  -0.00000000  1
  Al  Al25  1  0.74992683  0.50000000  0.50000000  1
  Al  Al26  1  0.50000000  -0.00000000  0.37497882  1
  Al  Al27  1  0.50000000  -0.00000000  0.87498334  1
  Si  Si28  1  -0.00000000  0.50000000  0.12499472  1
  Si  Si29  1  -0.00000000  0.50000000  0.62491431  1
  Si  Si30  1  0.50000000  0.74998812  -0.00000000  1
  Si  Si31  1  0.50000000  0.75014883  0.50000000  1
  Si  Si32  1  0.24993119  0.99987366  0.25007498  1
  Si  Si33  1  0.24993119  0.00012634  0.74992502  1
  Si  Si34  1  0.50000000  0.25001188  -0.00000000  1
  Si  Si35  1  0.50000000  0.24985117  0.50000000  1
  Si  Si36  1  0.75006881  0.00012634  0.25007498  1
  Si  Si37  1  0.75006881  0.99987366  0.74992502  1
  Si  Si38  1  -0.00000000  0.50000000  0.37508569  1
  Si  Si39  1  -0.00000000  0.50000000  0.87500528  1
  I  I40  1  0.50000000  0.50000000  0.24997623  1
  I  I41  1  0.50000000  0.50000000  0.75002377  1
  I  I42  1  -0.00000000  -0.00000000  -0.00000000  1
  Cl  Cl43  1  -0.00000000  -0.00000000  0.50000000  1
  O  O44  1  0.34881427  0.94748205  0.17915843  1
  O  O45  1  0.34865710  0.94743513  0.67911523  1
  O  O46  1  0.05249652  0.64166770  0.17439540  1
  O  O47  1  0.05258977  0.64179287  0.67434392  1
  O  O48  1  0.35831577  0.65120655  0.02624568  1
  O  O49  1  0.35822708  0.65131734  0.52629829  1
  O  O50  1  0.65118573  0.05251795  0.17915843  1
  O  O51  1  0.65134290  0.05256487  0.67911523  1
  O  O52  1  0.94750348  0.35833230  0.17439540  1
  O  O53  1  0.94741023  0.35820713  0.67434392  1
  O  O54  1  0.64168423  0.34879345  0.02624568  1
  O  O55  1  0.64177292  0.34868266  0.52629829  1
  O  O56  1  0.34865710  0.05256487  0.32088477  1
  O  O57  1  0.34881427  0.05251795  0.82084157  1
  O  O58  1  0.05258977  0.35820713  0.32565608  1
  O  O59  1  0.05249652  0.35833230  0.82560460  1
  O  O60  1  0.35822708  0.34868266  0.47370171  1
  O  O61  1  0.35831577  0.34879345  0.97375432  1
  O  O62  1  0.65134290  0.94743513  0.32088477  1
  O  O63  1  0.65118573  0.94748205  0.82084157  1
  O  O64  1  0.94741023  0.64179287  0.32565608  1
  O  O65  1  0.94750348  0.64166770  0.82560460  1
  O  O66  1  0.64177292  0.65131734  0.47370171  1
  O  O67  1  0.64168423  0.65120655  0.97375432  1
  O  O68  1  0.84883522  0.85829956  0.22376652  1
  O  O69  1  0.84892976  0.85847654  0.72354072  1
  O  O70  1  0.55249520  0.84881419  0.07084348  1
  O  O71  1  0.55289597  0.84895304  0.57076960  1
  O  O72  1  0.85830423  0.55250121  0.07558893  1
  O  O73  1  0.85846109  0.55289017  0.57552414  1
  O  O74  1  0.15107024  0.85847654  0.27645928  1
  O  O75  1  0.15116478  0.85829956  0.77623348  1
  O  O76  1  0.44710403  0.84895304  0.42923040  1
  O  O77  1  0.44750480  0.84881419  0.92915652  1
  O  O78  1  0.14153891  0.55289017  0.42447586  1
  O  O79  1  0.14169577  0.55250121  0.92441107  1
  O  O80  1  0.84892976  0.14152346  0.27645928  1
  O  O81  1  0.84883522  0.14170044  0.77623348  1
  O  O82  1  0.55289597  0.15104696  0.42923040  1
  O  O83  1  0.55249520  0.15118581  0.92915652  1
  O  O84  1  0.85846109  0.44710983  0.42447586  1
  O  O85  1  0.85830423  0.44749879  0.92441107  1
  O  O86  1  0.15116478  0.14170044  0.22376652  1
  O  O87  1  0.15107024  0.14152346  0.72354072  1
  O  O88  1  0.44750480  0.15118581  0.07084348  1
  O  O89  1  0.44710403  0.15104696  0.57076960  1
  O  O90  1  0.14169577  0.44749879  0.07558893  1
  O  O91  1  0.14153891  0.44710983  0.57552414  1
