# generated using pymatgen
data_RbF3
_symmetry_space_group_name_H-M   'P 1'
_cell_length_a   6.93991685
_cell_length_b   4.39648907
_cell_length_c   9.37737510
_cell_angle_alpha   90.12071842
_cell_angle_beta   90.00000000
_cell_angle_gamma   90.00000000
_symmetry_Int_Tables_number   1
_chemical_formula_structural   RbF3
_chemical_formula_sum   'Rb4 F12'
_cell_volume   286.11497561
_cell_formula_units_Z   4
loop_
 _symmetry_equiv_pos_site_id
 _symmetry_equiv_pos_as_xyz
  1  'x, y, z'
loop_
 _atom_site_type_symbol
 _atom_site_label
 _atom_site_symmetry_multiplicity
 _atom_site_fract_x
 _atom_site_fract_y
 _atom_site_fract_z
 _atom_site_occupancy
  Rb  Rb0  1  0.23368672  0.11602269  0.38082168  1
  Rb  Rb1  1  0.26596807  0.38669024  0.88060994  1
  Rb  Rb2  1  0.73368672  0.88397731  0.61917832  1
  Rb  Rb3  1  0.76596807  0.61330976  0.11939006  1
  F  F4  1  0.02597777  0.09127332  0.08250825  1
  F  F5  1  0.47382764  0.40830508  0.58339196  1
  F  F6  1  0.52597777  0.90872668  0.91749175  1
  F  F7  1  0.97382764  0.59169492  0.41660804  1
  F  F8  1  0.63956567  0.04775257  0.32811143  1
  F  F9  1  0.85998043  0.45130299  0.82749939  1
  F  F10  1  0.13956567  0.95224743  0.67188857  1
  F  F11  1  0.35998043  0.54869701  0.17250061  1
  F  F12  1  0.19301146  0.81248462  0.12260920  1
  F  F13  1  0.30677124  0.68818853  0.62257851  1
  F  F14  1  0.69301146  0.18751538  0.87739080  1
  F  F15  1  0.80677124  0.31181147  0.37742149  1
