# generated using pymatgen
data_La2(WO4)3
_symmetry_space_group_name_H-M   'P 1'
_cell_length_a   7.12200556
_cell_length_b   7.12200556
_cell_length_c   11.70736215
_cell_angle_alpha   79.29301354
_cell_angle_beta   79.29301354
_cell_angle_gamma   112.41467115
_symmetry_Int_Tables_number   1
_chemical_formula_structural   La2(WO4)3
_chemical_formula_sum   'La4 W6 O24'
_cell_volume   517.43492796
_cell_formula_units_Z   2
loop_
 _symmetry_equiv_pos_site_id
 _symmetry_equiv_pos_as_xyz
  1  'x, y, z'
loop_
 _atom_site_type_symbol
 _atom_site_label
 _atom_site_symmetry_multiplicity
 _atom_site_fract_x
 _atom_site_fract_y
 _atom_site_fract_z
 _atom_site_occupancy
  La  La0  1  0.05497074  0.30773485  0.40367069  1
  La  La1  1  0.69226515  0.94502926  0.09632931  1
  La  La2  1  0.94502926  0.69226515  0.59632931  1
  La  La3  1  0.30773485  0.05497074  0.90367069  1
  W  W4  1  0.20071465  0.49333052  0.04534011  1
  W  W5  1  0.50666948  0.79928535  0.45465989  1
  W  W6  1  0.79928535  0.50666948  0.95465989  1
  W  W7  1  0.49333052  0.20071465  0.54534011  1
  W  W8  1  0.11765379  0.88234621  0.25000000  1
  W  W9  1  0.88234621  0.11765379  0.75000000  1
  O  O10  1  0.67054978  0.09518215  0.42777860  1
  O  O11  1  0.90481785  0.32945022  0.07222140  1
  O  O12  1  0.32945022  0.90481785  0.57222140  1
  O  O13  1  0.09518215  0.67054978  0.92777860  1
  O  O14  1  0.23053273  0.62858194  0.46222589  1
  O  O15  1  0.37141806  0.76946727  0.03777411  1
  O  O16  1  0.76946727  0.37141806  0.53777411  1
  O  O17  1  0.62858194  0.23053273  0.96222589  1
  O  O18  1  0.20137840  0.35659257  0.19026648  1
  O  O19  1  0.64340743  0.79862160  0.30973352  1
  O  O20  1  0.79862160  0.64340743  0.80973352  1
  O  O21  1  0.35659257  0.20137840  0.69026648  1
  O  O22  1  0.01334348  0.60396170  0.27985683  1
  O  O23  1  0.39603830  0.98665652  0.22014317  1
  O  O24  1  0.98665652  0.39603830  0.72014317  1
  O  O25  1  0.60396170  0.01334348  0.77985683  1
  O  O26  1  0.40185992  0.32605158  0.43958819  1
  O  O27  1  0.67394842  0.59814008  0.06041181  1
  O  O28  1  0.59814008  0.67394842  0.56041181  1
  O  O29  1  0.32605158  0.40185992  0.93958819  1
  O  O30  1  0.02735897  0.94703985  0.38652879  1
  O  O31  1  0.05296015  0.97264103  0.11347121  1
  O  O32  1  0.97264103  0.05296015  0.61347121  1
  O  O33  1  0.94703985  0.02735897  0.88652879  1
