# generated using pymatgen
data_SrWO4
_symmetry_space_group_name_H-M   'P 1'
_cell_length_a   5.44017001
_cell_length_b   5.44027867
_cell_length_c   7.10218477
_cell_angle_alpha   112.51544845
_cell_angle_beta   112.52018600
_cell_angle_gamma   90.01932981
_symmetry_Int_Tables_number   1
_chemical_formula_structural   SrWO4
_chemical_formula_sum   'Sr2 W2 O8'
_cell_volume   176.68614825
_cell_formula_units_Z   2
loop_
 _symmetry_equiv_pos_site_id
 _symmetry_equiv_pos_as_xyz
  1  'x, y, z'
loop_
 _atom_site_type_symbol
 _atom_site_label
 _atom_site_symmetry_multiplicity
 _atom_site_fract_x
 _atom_site_fract_y
 _atom_site_fract_z
 _atom_site_occupancy
  Sr  Sr0  1  0.62499147  0.87498822  0.24998391  1
  Sr  Sr1  1  0.37500853  0.12501178  0.75001609  1
  W  W2  1  0.12499445  0.37503882  0.25003971  1
  W  W3  1  0.87500555  0.62496118  0.74996029  1
  O  O4  1  0.19356525  0.56583113  0.91600253  1
  O  O5  1  0.35033685  0.69365578  0.41609778  1
  O  O6  1  0.06576647  0.22246234  0.41608145  1
  O  O7  1  0.72247883  0.85016408  0.91602396  1
  O  O8  1  0.27752117  0.14983592  0.08397604  1
  O  O9  1  0.93423353  0.77753766  0.58391855  1
  O  O10  1  0.64966315  0.30634422  0.58390222  1
  O  O11  1  0.80643475  0.43416887  0.08399747  1
