# generated using pymatgen
data_MgCr2Fe3Ni(PO4)6
_symmetry_space_group_name_H-M   'P 1'
_cell_length_a   8.60512925
_cell_length_b   8.60553718
_cell_length_c   8.60554274
_cell_angle_alpha   60.37368047
_cell_angle_beta   60.37500381
_cell_angle_gamma   60.38235384
_symmetry_Int_Tables_number   1
_chemical_formula_structural   MgCr2Fe3Ni(PO4)6
_chemical_formula_sum   'Mg1 Cr2 Fe3 Ni1 P6 O24'
_cell_volume   454.45018926
_cell_formula_units_Z   1
loop_
 _symmetry_equiv_pos_site_id
 _symmetry_equiv_pos_as_xyz
  1  'x, y, z'
loop_
 _atom_site_type_symbol
 _atom_site_label
 _atom_site_symmetry_multiplicity
 _atom_site_fract_x
 _atom_site_fract_y
 _atom_site_fract_z
 _atom_site_occupancy
  Mg  Mg0  1  0.37535400  0.37497000  0.37495400  1
  Cr  Cr1  1  0.00038600  0.00016500  0.00021900  1
  Cr  Cr2  1  0.50825100  0.50803400  0.50801700  1
  Fe  Fe3  1  0.13159300  0.13144100  0.13147000  1
  Fe  Fe4  1  0.24925700  0.24919000  0.24921700  1
  Fe  Fe5  1  0.65642700  0.65624600  0.65625000  1
  Ni  Ni6  1  0.85762200  0.85738100  0.85727700  1
  P  P7  1  0.05165500  0.75356500  0.46312400  1
  P  P8  1  0.46330200  0.05128100  0.75362100  1
  P  P9  1  0.75384900  0.46303400  0.05114800  1
  P  P10  1  0.25648900  0.55918700  0.95012400  1
  P  P11  1  0.55930400  0.95014100  0.25635100  1
  P  P12  1  0.95023900  0.25641800  0.55920900  1
  O  O13  1  0.12143600  0.31907600  0.49054900  1
  O  O14  1  0.31915600  0.49055000  0.12128500  1
  O  O15  1  0.06103900  0.89277000  0.25174900  1
  O  O16  1  0.49066700  0.12128100  0.31905800  1
  O  O17  1  0.99582000  0.85274900  0.59456400  1
  O  O18  1  0.25867400  0.60706600  0.45061900  1
  O  O19  1  0.25191000  0.06081800  0.89282500  1
  O  O20  1  0.45103100  0.25827900  0.60711200  1
  O  O21  1  0.19373500  0.39191000  0.00356800  1
  O  O22  1  0.60747600  0.45075200  0.25823200  1
  O  O23  1  0.10394100  0.75671900  0.93816900  1
  O  O24  1  0.39202500  0.00356600  0.19363000  1
  O  O25  1  0.59487100  0.99504700  0.85284400  1
  O  O26  1  0.89303000  0.25161400  0.06078900  1
  O  O27  1  0.41471200  0.57029400  0.75323200  1
  O  O28  1  0.85317600  0.59462800  0.99465400  1
  O  O29  1  0.57040400  0.75326100  0.41461000  1
  O  O30  1  0.75687100  0.93814200  0.10378900  1
  O  O31  1  0.75339800  0.41470100  0.57028800  1
  O  O32  1  0.00355000  0.19374900  0.39194000  1
  O  O33  1  0.52186500  0.91162200  0.65697100  1
  O  O34  1  0.93822700  0.10383200  0.75678000  1
  O  O35  1  0.65707700  0.52144700  0.91168700  1
  O  O36  1  0.91186400  0.65694800  0.52195500  1
