# generated using pymatgen
data_BaGaB4H3O10
_symmetry_space_group_name_H-M   'P 1'
_cell_length_a   7.11815321
_cell_length_b   7.11605916
_cell_length_c   9.80569790
_cell_angle_alpha   108.74589901
_cell_angle_beta   88.79368003
_cell_angle_gamma   119.04908463
_symmetry_Int_Tables_number   1
_chemical_formula_structural   BaGaB4H3O10
_chemical_formula_sum   'Ba2 Ga2 B8 H6 O20'
_cell_volume   405.67138761
_cell_formula_units_Z   2
loop_
 _symmetry_equiv_pos_site_id
 _symmetry_equiv_pos_as_xyz
  1  'x, y, z'
loop_
 _atom_site_type_symbol
 _atom_site_label
 _atom_site_symmetry_multiplicity
 _atom_site_fract_x
 _atom_site_fract_y
 _atom_site_fract_z
 _atom_site_occupancy
  Ba  Ba0  1  0.42575716  0.20161493  0.29427767  1
  Ba  Ba1  1  0.57424284  0.79838507  0.70572233  1
  Ga  Ga2  1  0.88725142  0.41203032  0.61836018  1
  Ga  Ga3  1  0.11274858  0.58796968  0.38163982  1
  B  B4  1  0.94416957  0.86124157  0.34342991  1
  B  B5  1  0.05583043  0.13875843  0.65657009  1
  B  B6  1  0.56675308  0.74684571  0.35318321  1
  B  B7  1  0.43324692  0.25315429  0.64681679  1
  B  B8  1  0.80506450  0.09509932  0.29109130  1
  B  B9  1  0.19493550  0.90490068  0.70890870  1
  B  B10  1  0.87831824  0.25912767  0.08767550  1
  B  B11  1  0.12168176  0.74087233  0.91232450  1
  H  H12  1  0.33242588  0.18184977  0.97983387  1
  H  H13  1  0.66757412  0.81815023  0.02016613  1
  H  H14  1  0.28976699  0.38440664  0.06817029  1
  H  H15  1  0.71023301  0.61559336  0.93182971  1
  H  H16  1  0.86858995  0.33398262  0.90583644  1
  H  H17  1  0.13141005  0.66601738  0.09416356  1
  O  O18  1  0.97257531  0.03476325  0.29862414  1
  O  O19  1  0.02742469  0.96523675  0.70137586  1
  O  O20  1  0.37935484  0.31707630  0.06984293  1
  O  O21  1  0.62064516  0.68292270  0.93015707  1
  O  O22  1  0.12062998  0.85255176  0.37938614  1
  O  O23  1  0.87937002  0.14744824  0.62061386  1
  O  O24  1  0.73661128  0.70077045  0.35585848  1
  O  O25  1  0.26338872  0.29922955  0.64414152  1
  O  O26  1  0.38410485  0.60650009  0.39500611  1
  O  O27  1  0.61589515  0.39349991  0.60499389  1
  O  O28  1  0.59559057  0.92762619  0.31915967  1
  O  O29  1  0.40440943  0.07237381  0.68084033  1
  O  O30  1  0.86992474  0.32295684  0.39783916  1
  O  O31  1  0.13007526  0.67704316  0.60216084  1
  O  O32  1  0.75729656  0.08961660  0.14415327  1
  O  O33  1  0.24270344  0.91038340  0.85584673  1
  O  O34  1  0.05238962  0.46446865  0.16740207  1
  O  O35  1  0.94761038  0.53553135  0.83259793  1
  O  O36  1  0.80688807  0.20448645  0.94328818  1
  O  O37  1  0.19311193  0.79551355  0.05671182  1
