# generated using pymatgen
data_TlZnAsO4
_symmetry_space_group_name_H-M   'P 1'
_cell_length_a   5.64759888
_cell_length_b   8.92299006
_cell_length_c   8.96109253
_cell_angle_alpha   88.84978990
_cell_angle_beta   90.00000000
_cell_angle_gamma   90.00000000
_symmetry_Int_Tables_number   1
_chemical_formula_structural   TlZnAsO4
_chemical_formula_sum   'Tl4 Zn4 As4 O16'
_cell_volume   451.48954446
_cell_formula_units_Z   4
loop_
 _symmetry_equiv_pos_site_id
 _symmetry_equiv_pos_as_xyz
  1  'x, y, z'
loop_
 _atom_site_type_symbol
 _atom_site_label
 _atom_site_symmetry_multiplicity
 _atom_site_fract_x
 _atom_site_fract_y
 _atom_site_fract_z
 _atom_site_occupancy
  Tl  Tl0  1  0.51374873  0.49765739  0.32351339  1
  Tl  Tl1  1  0.01374873  0.50234261  0.67648661  1
  Tl  Tl2  1  0.48382798  0.00386912  0.18679207  1
  Tl  Tl3  1  0.98382798  0.99613088  0.81320793  1
  Zn  Zn4  1  0.50218132  0.82059551  0.59931556  1
  Zn  Zn5  1  0.00218132  0.17940449  0.40068444  1
  Zn  Zn6  1  0.96440218  0.67216450  0.07409591  1
  Zn  Zn7  1  0.46440218  0.32783550  0.92590409  1
  As  As8  1  0.46756261  0.69147557  0.93599772  1
  As  As9  1  0.50047483  0.18821962  0.60003435  1
  As  As10  1  0.96756261  0.30852443  0.06400228  1
  As  As11  1  0.00047483  0.81178038  0.39996565  1
  O  O12  1  0.90761505  0.32876455  0.24811480  1
  O  O13  1  0.40761505  0.67123545  0.75188520  1
  O  O14  1  0.29254623  0.77712907  0.43296469  1
  O  O15  1  0.79254623  0.22287093  0.56703531  1
  O  O16  1  0.24694582  0.78840147  0.02038229  1
  O  O17  1  0.74694582  0.21159853  0.97961771  1
  O  O18  1  0.89610707  0.67703038  0.28532460  1
  O  O19  1  0.39610707  0.32296962  0.71467540  1
  O  O20  1  0.34320338  0.20096607  0.43828621  1
  O  O21  1  0.84320338  0.79903393  0.56171379  1
  O  O22  1  0.72333944  0.78786345  0.96152156  1
  O  O23  1  0.22333944  0.21213655  0.03847844  1
  O  O24  1  0.46793540  0.01826159  0.68634447  1
  O  O25  1  0.96793540  0.98173841  0.31365553  1
  O  O26  1  0.99841196  0.47887281  0.97640195  1
  O  O27  1  0.49841196  0.52112719  0.02359805  1
