# generated using pymatgen
data_Sm2(WO4)3
_symmetry_space_group_name_H-M   'P 1'
_cell_length_a   10.34481550
_cell_length_b   10.46104376
_cell_length_c   14.41102835
_cell_angle_alpha   90.00000000
_cell_angle_beta   90.29993074
_cell_angle_gamma   90.00000000
_symmetry_Int_Tables_number   1
_chemical_formula_structural   Sm2(WO4)3
_chemical_formula_sum   'Sm8 W12 O48'
_cell_volume   1559.50506726
_cell_formula_units_Z   4
loop_
 _symmetry_equiv_pos_site_id
 _symmetry_equiv_pos_as_xyz
  1  'x, y, z'
loop_
 _atom_site_type_symbol
 _atom_site_label
 _atom_site_symmetry_multiplicity
 _atom_site_fract_x
 _atom_site_fract_y
 _atom_site_fract_z
 _atom_site_occupancy
  Sm  Sm0  1  0.24801820  0.97104044  0.88174794  1
  Sm  Sm1  1  0.24425407  0.03292385  0.38220165  1
  Sm  Sm2  1  0.25574593  0.53292385  0.11779835  1
  Sm  Sm3  1  0.25198180  0.47104044  0.61825206  1
  Sm  Sm4  1  0.74801820  0.52895956  0.38174794  1
  Sm  Sm5  1  0.74425407  0.46707615  0.88220165  1
  Sm  Sm6  1  0.75574593  0.96707615  0.61779835  1
  Sm  Sm7  1  0.75198180  0.02895956  0.11825206  1
  W  W8  1  0.02585212  0.74867848  0.50000712  1
  W  W9  1  0.10385684  0.61916224  0.85684979  1
  W  W10  1  0.10772537  0.88026600  0.14254829  1
  W  W11  1  0.39227463  0.38026600  0.35745171  1
  W  W12  1  0.39614316  0.11916224  0.64315021  1
  W  W13  1  0.47414788  0.24867848  0.99999288  1
  W  W14  1  0.52585212  0.75132152  0.00000712  1
  W  W15  1  0.60385684  0.88083776  0.35684979  1
  W  W16  1  0.60772537  0.61973400  0.64254829  1
  W  W17  1  0.89227463  0.11973400  0.85745171  1
  W  W18  1  0.89614316  0.38083776  0.14315021  1
  W  W19  1  0.97414788  0.25132152  0.49999288  1
  O  O20  1  0.06588128  0.09824168  0.86805820  1
  O  O21  1  0.07615235  0.34250366  0.57868016  1
  O  O22  1  0.07497814  0.17611382  0.41316969  1
  O  O23  1  0.06876641  0.41093189  0.13700634  1
  O  O24  1  0.11146075  0.87085090  0.43582298  1
  O  O25  1  0.13300078  0.78789859  0.83560612  1
  O  O26  1  0.14290551  0.71344971  0.16516206  1
  O  O27  1  0.14137163  0.64316934  0.55588760  1
  O  O28  1  0.16901216  0.97861443  0.23655615  1
  O  O29  1  0.17497069  0.52386675  0.76484094  1
  O  O30  1  0.17884303  0.57758067  0.96686888  1
  O  O31  1  0.18352602  0.92741932  0.03477098  1
  O  O32  1  0.31647398  0.42741932  0.46522902  1
  O  O33  1  0.32115697  0.07758067  0.53313112  1
  O  O34  1  0.32502831  0.02386675  0.73515906  1
  O  O35  1  0.33098784  0.47861443  0.26344385  1
  O  O36  1  0.35862837  0.14316934  0.94411240  1
  O  O37  1  0.35709449  0.21344971  0.33483794  1
  O  O38  1  0.36699922  0.28789859  0.66439388  1
  O  O39  1  0.38853925  0.37085090  0.06417702  1
  O  O40  1  0.42384765  0.84250366  0.92131984  1
  O  O41  1  0.43123359  0.91093189  0.36299366  1
  O  O42  1  0.42502186  0.67611382  0.08683031  1
  O  O43  1  0.43411872  0.59824168  0.63194180  1
  O  O44  1  0.56588128  0.40175832  0.36805820  1
  O  O45  1  0.57497814  0.32388618  0.91316969  1
  O  O46  1  0.56876641  0.08906811  0.63700634  1
  O  O47  1  0.57615235  0.15749634  0.07868016  1
  O  O48  1  0.61146075  0.62914910  0.93582298  1
  O  O49  1  0.63300078  0.71210141  0.33560612  1
  O  O50  1  0.64290551  0.78655029  0.66516206  1
  O  O51  1  0.64137163  0.85683066  0.05588760  1
  O  O52  1  0.66901216  0.52138557  0.73655615  1
  O  O53  1  0.67497069  0.97613325  0.26484094  1
  O  O54  1  0.67884303  0.92241933  0.46686888  1
  O  O55  1  0.68352602  0.57258068  0.53477098  1
  O  O56  1  0.81647398  0.07258068  0.96522902  1
  O  O57  1  0.82115697  0.42241933  0.03313112  1
  O  O58  1  0.82502931  0.47613325  0.23515906  1
  O  O59  1  0.83098784  0.02138557  0.76344385  1
  O  O60  1  0.85862837  0.35683066  0.44411240  1
  O  O61  1  0.85709449  0.28655029  0.83483794  1
  O  O62  1  0.86699922  0.21210141  0.16439388  1
  O  O63  1  0.88853925  0.12914910  0.56417702  1
  O  O64  1  0.93123359  0.58906811  0.86299366  1
  O  O65  1  0.92502186  0.82388618  0.58683031  1
  O  O66  1  0.92384765  0.65749634  0.42131984  1
  O  O67  1  0.93411872  0.90175832  0.13194180  1
