# generated using pymatgen
data_Rb2W2O7
_symmetry_space_group_name_H-M   'P 1'
_cell_length_a   3.93828402
_cell_length_b   6.08847495
_cell_length_c   14.20914078
_cell_angle_alpha   90.00008582
_cell_angle_beta   89.99934738
_cell_angle_gamma   90.40830517
_symmetry_Int_Tables_number   1
_chemical_formula_structural   Rb2W2O7
_chemical_formula_sum   'Rb4 W4 O14'
_cell_volume   340.70016670
_cell_formula_units_Z   2
loop_
 _symmetry_equiv_pos_site_id
 _symmetry_equiv_pos_as_xyz
  1  'x, y, z'
loop_
 _atom_site_type_symbol
 _atom_site_label
 _atom_site_symmetry_multiplicity
 _atom_site_fract_x
 _atom_site_fract_y
 _atom_site_fract_z
 _atom_site_occupancy
  Rb  Rb0  1  0.01008935  0.83050625  0.17238735  1
  Rb  Rb1  1  0.98989821  0.66949149  0.67238616  1
  Rb  Rb2  1  0.98991125  0.16949511  0.82761227  1
  Rb  Rb3  1  0.01010369  0.33051036  0.32761284  1
  W  W4  1  0.44791484  0.21614290  0.56200057  1
  W  W5  1  0.55204437  0.28384066  0.06200442  1
  W  W6  1  0.55208125  0.78385516  0.43799758  1
  W  W7  1  0.44795534  0.71616085  0.93800105  1
  O  O8  1  0.49537259  0.80478322  0.81961790  1
  O  O9  1  0.50465100  0.69522182  0.31960728  1
  O  O10  1  0.50463043  0.19522159  0.18038529  1
  O  O11  1  0.49534712  0.30477714  0.68038909  1
  O  O12  1  0.50516380  0.58729751  0.07845531  1
  O  O13  1  0.49481848  0.91270001  0.57845604  1
  O  O14  1  0.49484142  0.41269865  0.92154475  1
  O  O15  1  0.50518048  0.08729718  0.42154227  1
  O  O16  1  0.49999783  0.50000210  0.49999881  1
  O  O17  1  0.50000103  -0.00000551  0.00000044  1
  O  O18  1  0.98989842  0.22347448  0.55254868  1
  O  O19  1  0.98989735  0.72347866  0.94744977  1
  O  O20  1  0.01009639  0.77652901  0.44745013  1
  O  O21  1  0.01010538  0.27652235  0.05255099  1
