# generated using pymatgen
data_Ba3W2O9
_symmetry_space_group_name_H-M   'P 1'
_cell_length_a   7.51972269
_cell_length_b   7.51972269
_cell_length_c   7.51972244
_cell_angle_alpha   85.47623249
_cell_angle_beta   85.47623249
_cell_angle_gamma   85.47623606
_symmetry_Int_Tables_number   1
_chemical_formula_structural   Ba3W2O9
_chemical_formula_sum   'Ba6 W4 O18'
_cell_volume   421.43602350
_cell_formula_units_Z   2
loop_
 _symmetry_equiv_pos_site_id
 _symmetry_equiv_pos_as_xyz
  1  'x, y, z'
loop_
 _atom_site_type_symbol
 _atom_site_label
 _atom_site_symmetry_multiplicity
 _atom_site_fract_x
 _atom_site_fract_y
 _atom_site_fract_z
 _atom_site_occupancy
  Ba  Ba0  1  0.58013420  0.91986580  0.25000000  1
  Ba  Ba1  1  0.91986580  0.25000000  0.58013420  1
  Ba  Ba2  1  0.25000000  0.58013420  0.91986580  1
  Ba  Ba3  1  0.41986580  0.08013420  0.75000000  1
  Ba  Ba4  1  0.75000000  0.41986580  0.08013420  1
  Ba  Ba5  1  0.08013420  0.75000000  0.41986580  1
  W  W6  1  0.14494225  0.14494225  0.14494225  1
  W  W7  1  0.35505775  0.35505775  0.35505775  1
  W  W8  1  0.85505775  0.85505775  0.85505775  1
  W  W9  1  0.64494225  0.64494225  0.64494225  1
  O  O10  1  0.25125237  0.92896993  0.08735185  1
  O  O11  1  0.08735185  0.25125237  0.92896993  1
  O  O12  1  0.92896993  0.08735185  0.25125237  1
  O  O13  1  0.24874763  0.41264815  0.57103007  1
  O  O14  1  0.57103007  0.24874763  0.41264815  1
  O  O15  1  0.41264815  0.57103007  0.24874763  1
  O  O16  1  0.74874763  0.07103007  0.91264815  1
  O  O17  1  0.91264815  0.74874763  0.07103007  1
  O  O18  1  0.07103007  0.91264815  0.74874763  1
  O  O19  1  0.75125237  0.58735185  0.42896993  1
  O  O20  1  0.10510060  0.39489940  0.25000000  1
  O  O21  1  0.39489940  0.25000000  0.10510060  1
  O  O22  1  0.25000000  0.10510060  0.39489940  1
  O  O23  1  0.89489940  0.60510060  0.75000000  1
  O  O24  1  0.60510060  0.75000000  0.89489940  1
  O  O25  1  0.75000000  0.89489940  0.60510060  1
  O  O26  1  0.58735185  0.42896993  0.75125237  1
  O  O27  1  0.42896993  0.75125237  0.58735185  1
