# generated using pymatgen
data_MgAg4Te8(MoO12)2
_symmetry_space_group_name_H-M   'P 1'
_cell_length_a   5.86204125
_cell_length_b   9.09195335
_cell_length_c   12.23148756
_cell_angle_alpha   103.38313964
_cell_angle_beta   90.71716696
_cell_angle_gamma   107.68696609
_symmetry_Int_Tables_number   1
_chemical_formula_structural   MgAg4Te8(MoO12)2
_chemical_formula_sum   'Mg1 Ag4 Te8 Mo2 O24'
_cell_volume   601.80689074
_cell_formula_units_Z   1
loop_
 _symmetry_equiv_pos_site_id
 _symmetry_equiv_pos_as_xyz
  1  'x, y, z'
loop_
 _atom_site_type_symbol
 _atom_site_label
 _atom_site_symmetry_multiplicity
 _atom_site_fract_x
 _atom_site_fract_y
 _atom_site_fract_z
 _atom_site_occupancy
  Mg  Mg0  1  0.07845581  0.62072423  0.80884426  1
  Ag  Ag1  1  0.92889453  0.43006387  0.25149078  1
  Ag  Ag2  1  0.46362618  0.56908983  0.21709875  1
  Ag  Ag3  1  0.11641823  0.56819510  0.55680079  1
  Ag  Ag4  1  0.51153899  0.42219855  0.78181773  1
  Te  Te5  1  0.98389433  0.69676456  0.07569972  1
  Te  Te6  1  0.32940623  0.30121561  0.40888309  1
  Te  Te7  1  0.02610171  0.32529491  0.94773805  1
  Te  Te8  1  0.68416443  0.68886195  0.59243985  1
  Te  Te9  1  0.59716546  0.82966028  0.90938228  1
  Te  Te10  1  0.84854987  0.20530210  0.61133570  1
  Te  Te11  1  0.39709696  0.16249271  0.10570817  1
  Te  Te12  1  0.19003297  0.83662689  0.41318955  1
  Mo  Mo13  1  0.16644095  0.99848690  0.76871366  1
  Mo  Mo14  1  0.82621402  0.00891955  0.25421916  1
  O  O15  1  0.84957650  0.97903570  0.86110011  1
  O  O16  1  0.93280833  0.04021430  0.65409370  1
  O  O17  1  0.12233733  0.02020826  0.14772246  1
  O  O18  1  0.08036877  0.99451951  0.37469050  1
  O  O19  1  0.74111208  0.77619478  0.15711101  1
  O  O20  1  0.01197545  0.24230740  0.32629154  1
  O  O21  1  0.25761901  0.22822493  0.86136314  1
  O  O22  1  0.98490266  0.75254977  0.69692682  1
  O  O23  1  0.81436726  0.48171353  0.07394707  1
  O  O24  1  0.36647359  0.52190061  0.42479463  1
  O  O25  1  0.20251788  0.53617624  0.93684236  1
  O  O26  1  0.67832390  0.47811829  0.57827114  1
  O  O27  1  0.31417795  0.91417700  0.88294901  1
  O  O28  1  0.39418817  0.01917906  0.67714201  1
  O  O29  1  0.63602969  0.05436745  0.13666296  1
  O  O30  1  0.60179161  0.97943214  0.34889091  1
  O  O31  1  0.84187262  0.68154323  0.92281549  1
  O  O32  1  0.15722742  0.31251875  0.56539718  1
  O  O33  1  0.18373274  0.33004959  0.08743759  1
  O  O34  1  0.87704370  0.71247449  0.45648916  1
  O  O35  1  0.46301217  0.67374564  0.76549250  1
  O  O36  1  0.89593858  0.36628966  0.74814299  1
  O  O37  1  0.48988653  0.31318821  0.25366298  1
  O  O38  1  0.15263342  0.69940341  0.26951320  1
