# generated using pymatgen
data_Mg14VFeO16
_symmetry_space_group_name_H-M   'P 1'
_cell_length_a   8.45449716
_cell_length_b   8.41060106
_cell_length_c   4.23576405
_cell_angle_alpha   90.00000000
_cell_angle_beta   90.00000000
_cell_angle_gamma   90.00000000
_symmetry_Int_Tables_number   1
_chemical_formula_structural   Mg14VFeO16
_chemical_formula_sum   'Mg14 V1 Fe1 O16'
_cell_volume   301.19418037
_cell_formula_units_Z   1
loop_
 _symmetry_equiv_pos_site_id
 _symmetry_equiv_pos_as_xyz
  1  'x, y, z'
loop_
 _atom_site_type_symbol
 _atom_site_label
 _atom_site_symmetry_multiplicity
 _atom_site_fract_x
 _atom_site_fract_y
 _atom_site_fract_z
 _atom_site_occupancy
  Mg  Mg0  1  0.50000000  0.00000000  -0.00000000  1
  Mg  Mg1  1  0.50000000  0.50000000  -0.00000000  1
  Mg  Mg2  1  0.00000000  0.24776661  0.50000000  1
  Mg  Mg3  1  0.00000000  0.75223339  0.50000000  1
  Mg  Mg4  1  0.50000000  0.24987648  0.50000000  1
  Mg  Mg5  1  0.50000000  0.75012352  0.50000000  1
  Mg  Mg6  1  0.24985566  0.00000000  0.50000000  1
  Mg  Mg7  1  0.25024901  0.50000000  0.50000000  1
  Mg  Mg8  1  0.75014434  0.00000000  0.50000000  1
  Mg  Mg9  1  0.74975099  0.50000000  0.50000000  1
  Mg  Mg10  1  0.25261635  0.24860681  -0.00000000  1
  Mg  Mg11  1  0.25261635  0.75139319  -0.00000000  1
  Mg  Mg12  1  0.74738365  0.24860681  0.00000000  1
  Mg  Mg13  1  0.74738365  0.75139319  0.00000000  1
  V  V14  1  0.00000000  0.50000000  -0.00000000  1
  Fe  Fe15  1  0.00000000  0.00000000  -0.00000000  1
  O  O16  1  0.25799585  0.00000000  -0.00000000  1
  O  O17  1  0.25444845  0.50000000  0.00000000  1
  O  O18  1  0.74200415  0.00000000  0.00000000  1
  O  O19  1  0.74555155  0.50000000  -0.00000000  1
  O  O20  1  0.24918870  0.25014460  0.50000000  1
  O  O21  1  0.24918870  0.74985540  0.50000000  1
  O  O22  1  0.75081130  0.25014460  0.50000000  1
  O  O23  1  0.75081130  0.74985540  0.50000000  1
  O  O24  1  0.00000000  0.00000000  0.50000000  1
  O  O25  1  0.00000000  0.50000000  0.50000000  1
  O  O26  1  0.50000000  0.00000000  0.50000000  1
  O  O27  1  0.50000000  0.50000000  0.50000000  1
  O  O28  1  0.00000000  0.24525484  0.00000000  1
  O  O29  1  0.00000000  0.75474516  -0.00000000  1
  O  O30  1  0.50000000  0.25092717  0.00000000  1
  O  O31  1  0.50000000  0.74907283  -0.00000000  1
