# generated using pymatgen
data_Cs3Y7Se12
_symmetry_space_group_name_H-M   'P 1'
_cell_length_a   4.17310582
_cell_length_b   12.83172964
_cell_length_c   26.42758505
_cell_angle_alpha   90.00263273
_cell_angle_beta   90.00061360
_cell_angle_gamma   89.99881122
_symmetry_Int_Tables_number   1
_chemical_formula_structural   Cs3Y7Se12
_chemical_formula_sum   'Cs6 Y14 Se24'
_cell_volume   1415.14870028
_cell_formula_units_Z   2
loop_
 _symmetry_equiv_pos_site_id
 _symmetry_equiv_pos_as_xyz
  1  'x, y, z'
loop_
 _atom_site_type_symbol
 _atom_site_label
 _atom_site_symmetry_multiplicity
 _atom_site_fract_x
 _atom_site_fract_y
 _atom_site_fract_z
 _atom_site_occupancy
  Cs  Cs0  1  0.50002015  0.52306615  0.12739916  1
  Cs  Cs1  1  0.50000863  0.96888048  0.86586452  1
  Cs  Cs2  1  0.00001154  0.03112999  0.36586721  1
  Cs  Cs3  1  0.00001349  0.47694647  0.62740131  1
  Cs  Cs4  1  0.50001302  0.80203026  0.47530251  1
  Cs  Cs5  1  0.00001386  0.19798359  0.97533019  1
  Y  Y6  1  0.50003926  0.46173780  0.41553988  1
  Y  Y7  1  0.49998750  0.03704813  0.58631315  1
  Y  Y8  1  0.00001772  0.96288223  0.08631270  1
  Y  Y9  1  -0.00003574  0.53826338  0.91553152  1
  Y  Y10  1  0.49998656  0.66578078  0.78840327  1
  Y  Y11  1  0.50001999  0.83262551  0.21138427  1
  Y  Y12  1  0.00000368  0.16738854  0.71137180  1
  Y  Y13  1  0.00004412  0.33420574  0.28840217  1
  Y  Y14  1  -0.00003656  0.24738974  0.49944649  1
  Y  Y15  1  0.49996774  0.75263205  0.99944263  1
  Y  Y16  1  0.49998785  0.33841388  0.81533072  1
  Y  Y17  1  0.50003105  0.16432342  0.18409162  1
  Y  Y18  1  0.00001469  0.83566958  0.68409944  1
  Y  Y19  1  -0.00000200  0.66158564  0.31533499  1
  Se  Se20  1  0.49987622  0.68688556  0.89636188  1
  Se  Se21  1  0.49999433  0.81343902  0.10356615  1
  Se  Se22  1  -0.00000437  0.18649752  0.60359676  1
  Se  Se23  1  0.00002868  0.31313079  0.39636282  1
  Se  Se24  1  0.50006093  0.49617846  0.30294557  1
  Se  Se25  1  0.50007879  0.00401290  0.69796243  1
  Se  Se26  1  0.00000822  0.99597325  0.19795199  1
  Se  Se27  1  -0.00002892  0.50382132  0.80296139  1
  Se  Se28  1  0.49999113  0.38664232  0.91989579  1
  Se  Se29  1  0.50001189  0.11507184  0.08002863  1
  Se  Se30  1  -0.00000640  0.88491825  0.58003232  1
  Se  Se31  1  0.00007072  0.61333866  0.41988599  1
  Se  Se32  1  0.49998263  0.31273546  0.71011314  1
  Se  Se33  1  0.50005088  0.18858160  0.28953472  1
  Se  Se34  1  -0.00001725  0.81138867  0.78952318  1
  Se  Se35  1  0.00003822  0.68729202  0.21011896  1
  Se  Se36  1  0.49997046  0.68755177  0.68107581  1
  Se  Se37  1  0.49998383  0.81156381  0.32054467  1
  Se  Se38  1  -0.00000545  0.18841082  0.82052519  1
  Se  Se39  1  0.00004953  0.31247023  0.18109414  1
  Se  Se40  1  0.49998298  0.39684345  0.51641611  1
  Se  Se41  1  0.49981646  0.09401664  0.48286598  1
  Se  Se42  1  -0.00005828  0.90605169  0.98287531  1
  Se  Se43  1  0.00001821  0.60320061  0.01640754  1
