# generated using pymatgen
data_NaMg14BO15
_symmetry_space_group_name_H-M   'P 1'
_cell_length_a   8.63994059
_cell_length_b   8.35197031
_cell_length_c   4.35247280
_cell_angle_alpha   90.00000000
_cell_angle_beta   90.00000000
_cell_angle_gamma   90.00000000
_symmetry_Int_Tables_number   1
_chemical_formula_structural   NaMg14BO15
_chemical_formula_sum   'Na1 Mg14 B1 O15'
_cell_volume   314.07673225
_cell_formula_units_Z   1
loop_
 _symmetry_equiv_pos_site_id
 _symmetry_equiv_pos_as_xyz
  1  'x, y, z'
loop_
 _atom_site_type_symbol
 _atom_site_label
 _atom_site_symmetry_multiplicity
 _atom_site_fract_x
 _atom_site_fract_y
 _atom_site_fract_z
 _atom_site_occupancy
  Na  Na0  1  0.00656453  -0.00000000  -0.00000000  1
  Mg  Mg1  1  0.50006054  -0.00000000  -0.00000000  1
  Mg  Mg2  1  0.50330013  0.50000000  -0.00000000  1
  Mg  Mg3  1  -0.00018838  0.26090739  0.50000000  1
  Mg  Mg4  1  -0.00018838  0.73909261  0.50000000  1
  Mg  Mg5  1  0.50129591  0.24948960  0.50000000  1
  Mg  Mg6  1  0.50129591  0.75051040  0.50000000  1
  Mg  Mg7  1  0.24498089  -0.00000000  0.50000000  1
  Mg  Mg8  1  0.24173239  0.50000000  0.50000000  1
  Mg  Mg9  1  0.75628570  -0.00000000  0.50000000  1
  Mg  Mg10  1  0.75351103  0.50000000  0.50000000  1
  Mg  Mg11  1  0.25380979  0.26483689  0.00000000  1
  Mg  Mg12  1  0.25380979  0.73516311  -0.00000000  1
  Mg  Mg13  1  0.74815631  0.24324542  0.00000000  1
  Mg  Mg14  1  0.74815631  0.75675458  -0.00000000  1
  B  B15  1  0.94206092  0.50000000  -0.00000000  1
  O  O16  1  0.27594911  0.50000000  -0.00000000  1
  O  O17  1  0.74346743  -0.00000000  -0.00000000  1
  O  O18  1  0.76892705  0.50000000  -0.00000000  1
  O  O19  1  0.24711624  0.25397536  0.50000000  1
  O  O20  1  0.24711624  0.74602464  0.50000000  1
  O  O21  1  0.75350606  0.24946598  0.50000000  1
  O  O22  1  0.75350606  0.75053402  0.50000000  1
  O  O23  1  0.00030858  -0.00000000  0.50000000  1
  O  O24  1  0.98973255  0.50000000  0.50000000  1
  O  O25  1  0.50015515  -0.00000000  0.50000000  1
  O  O26  1  0.51436960  0.50000000  0.50000000  1
  O  O27  1  0.99272956  0.33051943  -0.00000000  1
  O  O28  1  0.99272956  0.66948057  0.00000000  1
  O  O29  1  0.50787171  0.25247111  -0.00000000  1
  O  O30  1  0.50787171  0.74752889  0.00000000  1
