# generated using pymatgen
data_LuAgSe2
_symmetry_space_group_name_H-M   'P 1'
_cell_length_a   4.13834978
_cell_length_b   6.79818585
_cell_length_c   13.52865434
_cell_angle_alpha   90.00000000
_cell_angle_beta   90.00000000
_cell_angle_gamma   90.00000000
_symmetry_Int_Tables_number   1
_chemical_formula_structural   LuAgSe2
_chemical_formula_sum   'Lu4 Ag4 Se8'
_cell_volume   380.60529769
_cell_formula_units_Z   4
loop_
 _symmetry_equiv_pos_site_id
 _symmetry_equiv_pos_as_xyz
  1  'x, y, z'
loop_
 _atom_site_type_symbol
 _atom_site_label
 _atom_site_symmetry_multiplicity
 _atom_site_fract_x
 _atom_site_fract_y
 _atom_site_fract_z
 _atom_site_occupancy
  Lu  Lu0  1  0.27319765  0.71078681  0.62907512  1
  Lu  Lu1  1  0.77319765  0.78921319  0.37092488  1
  Lu  Lu2  1  0.72680235  0.21078681  0.87092488  1
  Lu  Lu3  1  0.22680235  0.28921319  0.12907512  1
  Ag  Ag4  1  0.50762355  0.71001249  0.87690364  1
  Ag  Ag5  1  0.00762355  0.78998751  0.12309636  1
  Ag  Ag6  1  0.49237645  0.21001249  0.62309636  1
  Ag  Ag7  1  0.99237645  0.28998751  0.37690364  1
  Se  Se8  1  0.77414847  0.91557120  0.72579630  1
  Se  Se9  1  0.27414847  0.58442880  0.27420370  1
  Se  Se10  1  0.22585153  0.41557120  0.77420370  1
  Se  Se11  1  0.72585153  0.08442880  0.22579630  1
  Se  Se12  1  0.76942349  0.51816568  0.52806138  1
  Se  Se13  1  0.26942349  0.98183432  0.47193862  1
  Se  Se14  1  0.23057651  0.01816568  0.97193862  1
  Se  Se15  1  0.73057651  0.48183432  0.02806138  1
