# generated using pymatgen
data_LaTaTiO6
_symmetry_space_group_name_H-M   'P 1'
_cell_length_a   5.45807530
_cell_length_b   7.55951748
_cell_length_c   10.97911444
_cell_angle_alpha   90.00000000
_cell_angle_beta   90.00000000
_cell_angle_gamma   90.00000000
_symmetry_Int_Tables_number   1
_chemical_formula_structural   LaTaTiO6
_chemical_formula_sum   'La4 Ta4 Ti4 O24'
_cell_volume   453.00282513
_cell_formula_units_Z   4
loop_
 _symmetry_equiv_pos_site_id
 _symmetry_equiv_pos_as_xyz
  1  'x, y, z'
loop_
 _atom_site_type_symbol
 _atom_site_label
 _atom_site_symmetry_multiplicity
 _atom_site_fract_x
 _atom_site_fract_y
 _atom_site_fract_z
 _atom_site_occupancy
  La  La0  1  0.45749387  0.74916002  0.95840180  1
  La  La1  1  0.04250613  0.74916002  0.45840180  1
  La  La2  1  0.54250613  0.24916002  0.04159820  1
  La  La3  1  0.95749387  0.24916002  0.54159820  1
  Ta  Ta4  1  0.46093662  0.50451852  0.64501792  1
  Ta  Ta5  1  0.53906338  0.00451852  0.35498208  1
  Ta  Ta6  1  0.96093662  0.00451852  0.85498208  1
  Ta  Ta7  1  0.03906338  0.50451852  0.14501792  1
  Ti  Ti8  1  0.03687053  0.99389752  0.14224482  1
  Ti  Ti9  1  0.96312947  0.49389752  0.85775518  1
  Ti  Ti10  1  0.53687053  0.49389752  0.35775518  1
  Ti  Ti11  1  0.46312947  0.99389752  0.64224482  1
  O  O12  1  0.04097570  0.74895593  0.85594486  1
  O  O13  1  0.45902430  0.74895593  0.35594486  1
  O  O14  1  0.95902430  0.24895593  0.14405514  1
  O  O15  1  0.54097570  0.24895593  0.64405514  1
  O  O16  1  0.63327525  0.55473740  0.79094124  1
  O  O17  1  0.87051471  0.94618195  0.28717966  1
  O  O18  1  0.36672475  0.05473740  0.20905876  1
  O  O19  1  0.12948529  0.44618195  0.71282034  1
  O  O20  1  0.37051471  0.44618195  0.21282034  1
  O  O21  1  0.13327525  0.05473740  0.70905876  1
  O  O22  1  0.62948529  0.94618195  0.78717966  1
  O  O23  1  0.86672475  0.55473740  0.29094124  1
  O  O24  1  0.14946001  0.75198141  0.12443976  1
  O  O25  1  0.35053999  0.75198141  0.62443976  1
  O  O26  1  0.85053999  0.25198141  0.87556024  1
  O  O27  1  0.64946001  0.25198141  0.37556024  1
  O  O28  1  0.22955014  0.03607835  0.97290819  1
  O  O29  1  0.27422080  0.46448989  0.47497511  1
  O  O30  1  0.77044986  0.53607835  0.02709181  1
  O  O31  1  0.72577920  0.96448989  0.52502489  1
  O  O32  1  0.77422080  0.96448989  0.02502489  1
  O  O33  1  0.72955014  0.53607835  0.52709181  1
  O  O34  1  0.22577920  0.46448989  0.97497511  1
  O  O35  1  0.27044986  0.03607835  0.47290819  1
