# generated using pymatgen
data_Rb2CdI4
_symmetry_space_group_name_H-M   'P 1'
_cell_length_a   8.21561611
_cell_length_b   8.41030450
_cell_length_c   10.15945535
_cell_angle_alpha   90.00000000
_cell_angle_beta   108.39866941
_cell_angle_gamma   90.00000000
_symmetry_Int_Tables_number   1
_chemical_formula_structural   Rb2CdI4
_chemical_formula_sum   'Rb4 Cd2 I8'
_cell_volume   666.09336297
_cell_formula_units_Z   2
loop_
 _symmetry_equiv_pos_site_id
 _symmetry_equiv_pos_as_xyz
  1  'x, y, z'
loop_
 _atom_site_type_symbol
 _atom_site_label
 _atom_site_symmetry_multiplicity
 _atom_site_fract_x
 _atom_site_fract_y
 _atom_site_fract_z
 _atom_site_occupancy
  Rb  Rb0  1  0.21637870  0.25000000  0.55231502  1
  Rb  Rb1  1  0.78362130  0.75000000  0.44768498  1
  Rb  Rb2  1  0.25674025  0.25000000  0.06621261  1
  Rb  Rb3  1  0.74325975  0.75000000  0.93378739  1
  Cd  Cd4  1  0.77549499  0.25000000  0.69982410  1
  Cd  Cd5  1  0.22450501  0.75000000  0.30017590  1
  I  I6  1  0.58947120  0.25000000  0.41657674  1
  I  I7  1  0.41052880  0.75000000  0.58342326  1
  I  I8  1  0.99302233  0.00708615  0.23904312  1
  I  I9  1  0.00697767  0.99291385  0.76095688  1
  I  I10  1  0.00697767  0.50708615  0.76095688  1
  I  I11  1  0.99302233  0.49291385  0.23904312  1
  I  I12  1  0.57794767  0.25000000  0.87877059  1
  I  I13  1  0.42205233  0.75000000  0.12122941  1
