# generated using pymatgen
data_Ba2MgSi2O7
_symmetry_space_group_name_H-M   'P 1'
_cell_length_a   6.82894761
_cell_length_b   6.82894761
_cell_length_c   8.45838593
_cell_angle_alpha   102.56198355
_cell_angle_beta   102.56198355
_cell_angle_gamma   103.82052829
_symmetry_Int_Tables_number   1
_chemical_formula_structural   Ba2MgSi2O7
_chemical_formula_sum   'Ba4 Mg2 Si4 O14'
_cell_volume   358.43732024
_cell_formula_units_Z   2
loop_
 _symmetry_equiv_pos_site_id
 _symmetry_equiv_pos_as_xyz
  1  'x, y, z'
loop_
 _atom_site_type_symbol
 _atom_site_label
 _atom_site_symmetry_multiplicity
 _atom_site_fract_x
 _atom_site_fract_y
 _atom_site_fract_z
 _atom_site_occupancy
  Ba  Ba0  1  0.18211486  0.27087214  0.47392648  1
  Ba  Ba1  1  0.72912786  0.81788514  0.02607352  1
  Ba  Ba2  1  0.81788514  0.72912786  0.52607352  1
  Ba  Ba3  1  0.27087214  0.18211486  0.97392648  1
  Mg  Mg4  1  0.25786893  0.74213107  0.25000000  1
  Mg  Mg5  1  0.74213107  0.25786893  0.75000000  1
  Si  Si6  1  0.39776239  0.83134644  0.63656544  1
  Si  Si7  1  0.16865356  0.60223761  0.86343456  1
  Si  Si8  1  0.60223761  0.16865356  0.36343456  1
  Si  Si9  1  0.83134644  0.39776239  0.13656544  1
  O  O10  1  0.33364332  0.66635668  0.75000000  1
  O  O11  1  0.66635668  0.33364332  0.25000000  1
  O  O12  1  0.64430632  0.95843732  0.73232877  1
  O  O13  1  0.04156268  0.35569368  0.76767123  1
  O  O14  1  0.35569368  0.04156268  0.26767123  1
  O  O15  1  0.95843732  0.64430632  0.23232877  1
  O  O16  1  0.38073034  0.67755979  0.45504671  1
  O  O17  1  0.32244021  0.61926966  0.04495329  1
  O  O18  1  0.61926966  0.32244021  0.54495329  1
  O  O19  1  0.67755979  0.38073034  0.95504671  1
  O  O20  1  0.24446630  0.97713794  0.63210903  1
  O  O21  1  0.02286206  0.75553370  0.86789097  1
  O  O22  1  0.75553370  0.02286206  0.36789097  1
  O  O23  1  0.97713794  0.24446630  0.13210903  1
