# generated using pymatgen
data_Rb2NaMn3F12
_symmetry_space_group_name_H-M   'P 1'
_cell_length_a   7.08028621
_cell_length_b   7.48112431
_cell_length_c   10.09999556
_cell_angle_alpha   90.01597583
_cell_angle_beta   85.84284942
_cell_angle_gamma   89.43755137
_symmetry_Int_Tables_number   1
_chemical_formula_structural   Rb2NaMn3F12
_chemical_formula_sum   'Rb4 Na2 Mn6 F24'
_cell_volume   533.54810343
_cell_formula_units_Z   2
loop_
 _symmetry_equiv_pos_site_id
 _symmetry_equiv_pos_as_xyz
  1  'x, y, z'
loop_
 _atom_site_type_symbol
 _atom_site_label
 _atom_site_symmetry_multiplicity
 _atom_site_fract_x
 _atom_site_fract_y
 _atom_site_fract_z
 _atom_site_occupancy
  Rb  Rb0  1  0.51253533  0.74776691  0.60779581  1
  Rb  Rb1  1  0.48746467  0.25223309  0.39220419  1
  Rb  Rb2  1  0.02569947  0.26223158  0.14051219  1
  Rb  Rb3  1  0.97430053  0.73776842  0.85948781  1
  Na  Na4  1  0.70711147  0.23609625  0.74580862  1
  Na  Na5  1  0.29288853  0.76390375  0.25419138  1
  Mn  Mn6  1  0.81419464  0.74750264  0.21469800  1
  Mn  Mn7  1  0.18580536  0.25249736  0.78530200  1
  Mn  Mn8  1  0.00000000  0.50000000  0.50000000  1
  Mn  Mn9  1  0.00000000  -0.00000000  0.50000000  1
  Mn  Mn10  1  0.50000000  -0.00000000  -0.00000000  1
  Mn  Mn11  1  0.50000000  0.50000000  -0.00000000  1
  F  F12  1  0.04665322  0.72499089  0.12517478  1
  F  F13  1  0.95334678  0.27500911  0.87482522  1
  F  F14  1  0.59007906  0.77133218  0.31438190  1
  F  F15  1  0.40992094  0.22866782  0.68561810  1
  F  F16  1  0.76555776  0.43007971  0.56813942  1
  F  F17  1  0.23444224  0.56992029  0.43186058  1
  F  F18  1  0.75003079  0.05186298  0.54643235  1
  F  F19  1  0.24996921  0.94813702  0.45356765  1
  F  F20  1  0.63207498  0.95201224  0.83932435  1
  F  F21  1  0.36792502  0.04798776  0.16067565  1
  F  F22  1  0.62020152  0.53358000  0.83504294  1
  F  F23  1  0.37979848  0.46642000  0.16495706  1
  F  F24  1  0.58458207  0.23471093  0.98604155  1
  F  F25  1  0.41541793  0.76528907  0.01395845  1
  F  F26  1  0.27443268  0.44487226  0.92094702  1
  F  F27  1  0.72556732  0.55512774  0.07905298  1
  F  F28  1  0.25096009  0.06759463  0.90130686  1
  F  F29  1  0.74903991  0.93240537  0.09869314  1
  F  F30  1  0.05658456  0.05455217  0.67395548  1
  F  F31  1  0.94341544  0.94544783  0.32604452  1
  F  F32  1  0.94420172  0.73387463  0.56426434  1
  F  F33  1  0.05579828  0.26612537  0.43573566  1
  F  F34  1  0.12086507  0.44759936  0.67873873  1
  F  F35  1  0.87913493  0.55240064  0.32126127  1
