# generated using pymatgen
data_Rb7Th6F32
_symmetry_space_group_name_H-M   'P 1'
_cell_length_a   9.79314500
_cell_length_b   9.79627724
_cell_length_c   9.79813654
_cell_angle_alpha   106.62463988
_cell_angle_beta   106.66478519
_cell_angle_gamma   106.59323514
_symmetry_Int_Tables_number   1
_chemical_formula_structural   Rb7Th6F32
_chemical_formula_sum   'Rb7 Th6 F32'
_cell_volume   790.65751649
_cell_formula_units_Z   1
loop_
 _symmetry_equiv_pos_site_id
 _symmetry_equiv_pos_as_xyz
  1  'x, y, z'
loop_
 _atom_site_type_symbol
 _atom_site_label
 _atom_site_symmetry_multiplicity
 _atom_site_fract_x
 _atom_site_fract_y
 _atom_site_fract_z
 _atom_site_occupancy
  Rb  Rb0  1  0.68353500  0.21677400  0.07693000  1
  Rb  Rb1  1  0.07737300  0.68249300  0.21734200  1
  Rb  Rb2  1  0.21768300  0.07727800  0.68307400  1
  Rb  Rb3  1  0.31646500  0.78322600  0.92307000  1
  Rb  Rb4  1  0.92262700  0.31750700  0.78265800  1
  Rb  Rb5  1  0.78231700  0.92272200  0.31692600  1
  Rb  Rb6  1  0.00000000  0.00000000  0.00000000  1
  Th  Th7  1  0.54189800  0.86085300  0.61884300  1
  Th  Th8  1  0.61942200  0.54135800  0.86071100  1
  Th  Th9  1  0.86152500  0.61936200  0.54245600  1
  Th  Th10  1  0.45810200  0.13914700  0.38115700  1
  Th  Th11  1  0.38057800  0.45864200  0.13928900  1
  Th  Th12  1  0.13847500  0.38063800  0.45754400  1
  F  F13  1  0.44578100  0.97102400  0.78110900  1
  F  F14  1  0.78202900  0.44607800  0.97244100  1
  F  F15  1  0.97344300  0.78146400  0.44700000  1
  F  F16  1  0.55421900  0.02897600  0.21889100  1
  F  F17  1  0.21797100  0.55392200  0.02755900  1
  F  F18  1  0.02655700  0.21853600  0.55300000  1
  F  F19  1  0.75418700  0.05535000  0.82008600  1
  F  F20  1  0.82331300  0.75277400  0.05426300  1
  F  F21  1  0.05448100  0.82274000  0.75439100  1
  F  F22  1  0.24581300  0.94465000  0.17991400  1
  F  F23  1  0.17668700  0.24722600  0.94573700  1
  F  F24  1  0.94551900  0.17726000  0.24560900  1
  F  F25  1  0.64151500  0.05483800  0.52294100  1
  F  F26  1  0.52413400  0.64040100  0.05420900  1
  F  F27  1  0.05621400  0.52510000  0.64194900  1
  F  F28  1  0.35848500  0.94516200  0.47705900  1
  F  F29  1  0.47586600  0.35959900  0.94579100  1
  F  F30  1  0.94378600  0.47490000  0.35805100  1
  F  F31  1  0.70008700  0.34844300  0.45798500  1
  F  F32  1  0.45781900  0.70164800  0.34638400  1
  F  F33  1  0.34721500  0.45861900  0.70246500  1
  F  F34  1  0.29991300  0.65155700  0.54201500  1
  F  F35  1  0.54218100  0.29835200  0.65361600  1
  F  F36  1  0.65278500  0.54138100  0.29753500  1
  F  F37  1  0.17360700  0.41509900  0.23276500  1
  F  F38  1  0.23379100  0.17473300  0.41490200  1
  F  F39  1  0.41382600  0.23250200  0.17341700  1
  F  F40  1  0.82639300  0.58490100  0.76723500  1
  F  F41  1  0.76620900  0.82526700  0.58509800  1
  F  F42  1  0.58617400  0.76749800  0.82658300  1
  F  F43  1  0.41204100  0.41130000  0.40953600  1
  F  F44  1  0.58795900  0.58870000  0.59046400  1
