# generated using pymatgen
data_Cs2Bi4Se7
_symmetry_space_group_name_H-M   'P 1'
_cell_length_a   4.24401182
_cell_length_b   13.41347104
_cell_length_c   15.55955421
_cell_angle_alpha   85.29289331
_cell_angle_beta   90.00000000
_cell_angle_gamma   90.00000000
_symmetry_Int_Tables_number   1
_chemical_formula_structural   Cs2Bi4Se7
_chemical_formula_sum   'Cs4 Bi8 Se14'
_cell_volume   882.77017871
_cell_formula_units_Z   2
loop_
 _symmetry_equiv_pos_site_id
 _symmetry_equiv_pos_as_xyz
  1  'x, y, z'
loop_
 _atom_site_type_symbol
 _atom_site_label
 _atom_site_symmetry_multiplicity
 _atom_site_fract_x
 _atom_site_fract_y
 _atom_site_fract_z
 _atom_site_occupancy
  Cs  Cs0  1  0.25000000  0.56849279  0.81209004  1
  Cs  Cs1  1  0.75000000  0.43150721  0.18790996  1
  Cs  Cs2  1  0.75000000  0.82875309  0.62285478  1
  Cs  Cs3  1  0.25000000  0.17124691  0.37714522  1
  Bi  Bi4  1  0.25000000  0.94612343  0.87977359  1
  Bi  Bi5  1  0.75000000  0.05387657  0.12022641  1
  Bi  Bi6  1  0.25000000  0.83155606  0.27488852  1
  Bi  Bi7  1  0.75000000  0.16844394  0.72511148  1
  Bi  Bi8  1  0.75000000  0.73146608  0.05056020  1
  Bi  Bi9  1  0.25000000  0.26853392  0.94943980  1
  Bi  Bi10  1  0.75000000  0.60668333  0.42829721  1
  Bi  Bi11  1  0.25000000  0.39331667  0.57170279  1
  Se  Se12  1  0.25000000  0.45798711  0.39320698  1
  Se  Se13  1  0.75000000  0.54201289  0.60679302  1
  Se  Se14  1  0.25000000  0.59813812  0.03793755  1
  Se  Se15  1  0.75000000  0.40186188  0.96206245  1
  Se  Se16  1  0.75000000  0.98566906  0.29540055  1
  Se  Se17  1  0.25000000  0.01433094  0.70459945  1
  Se  Se18  1  0.75000000  0.79785506  0.86286623  1
  Se  Se19  1  0.25000000  0.20214494  0.13713377  1
  Se  Se20  1  0.25000000  0.75545718  0.45156839  1
  Se  Se21  1  0.75000000  0.24454282  0.54843161  1
  Se  Se22  1  0.75000000  0.69160821  0.24041933  1
  Se  Se23  1  0.25000000  0.30839179  0.75958067  1
  Se  Se24  1  0.25000000  0.90357682  0.08303846  1
  Se  Se25  1  0.75000000  0.09642318  0.91696154  1
