# generated using pymatgen
data_Mn2HO4
_symmetry_space_group_name_H-M   'P 1'
_cell_length_a   5.63905640
_cell_length_b   6.21881592
_cell_length_c   8.13475281
_cell_angle_alpha   90.00000000
_cell_angle_beta   90.00000000
_cell_angle_gamma   90.00000000
_symmetry_Int_Tables_number   1
_chemical_formula_structural   Mn2HO4
_chemical_formula_sum   'Mn8 H4 O16'
_cell_volume   285.27157544
_cell_formula_units_Z   4
loop_
 _symmetry_equiv_pos_site_id
 _symmetry_equiv_pos_as_xyz
  1  'x, y, z'
loop_
 _atom_site_type_symbol
 _atom_site_label
 _atom_site_symmetry_multiplicity
 _atom_site_fract_x
 _atom_site_fract_y
 _atom_site_fract_z
 _atom_site_occupancy
  Mn  Mn0  1  0.50000000  -0.00000000  0.00000000  1
  Mn  Mn1  1  -0.00000000  0.50000000  0.50000000  1
  Mn  Mn2  1  0.50000000  0.50000000  0.00000000  1
  Mn  Mn3  1  -0.00000000  -0.00000000  0.50000000  1
  Mn  Mn4  1  0.21100164  0.75000000  0.24692436  1
  Mn  Mn5  1  0.78899836  0.25000000  0.75307564  1
  Mn  Mn6  1  0.71100164  0.75000000  0.25307564  1
  Mn  Mn7  1  0.28899836  0.25000000  0.74692436  1
  H  H8  1  0.93763754  0.25000000  0.04262022  1
  H  H9  1  0.56236246  0.75000000  0.54262022  1
  H  H10  1  0.43763754  0.25000000  0.45737978  1
  H  H11  1  0.06236246  0.75000000  0.95737978  1
  O  O12  1  0.21669286  0.75000000  0.01195715  1
  O  O13  1  0.79786293  0.25000000  0.51890611  1
  O  O14  1  0.70213707  0.75000000  0.01890611  1
  O  O15  1  0.28330714  0.25000000  0.51195715  1
  O  O16  1  0.46301401  0.95378506  0.23447461  1
  O  O17  1  0.03698599  0.45378506  0.73447461  1
  O  O18  1  0.46301401  0.54621494  0.23447461  1
  O  O19  1  0.03698599  0.04621494  0.73447461  1
  O  O20  1  0.71669286  0.75000000  0.48804285  1
  O  O21  1  0.29786293  0.25000000  0.98109389  1
  O  O22  1  0.20213707  0.75000000  0.48109389  1
  O  O23  1  0.78330714  0.25000000  0.98804285  1
  O  O24  1  0.96301401  0.95378506  0.26552539  1
  O  O25  1  0.53698599  0.45378506  0.76552539  1
  O  O26  1  0.96301401  0.54621494  0.26552539  1
  O  O27  1  0.53698599  0.04621494  0.76552539  1
