# generated using pymatgen
data_Ba(YTe2)2
_symmetry_space_group_name_H-M   'P 1'
_cell_length_a   4.49142526
_cell_length_b   13.80364589
_cell_length_c   16.29629380
_cell_angle_alpha   90.00000000
_cell_angle_beta   90.00000000
_cell_angle_gamma   90.00000000
_symmetry_Int_Tables_number   1
_chemical_formula_structural   Ba(YTe2)2
_chemical_formula_sum   'Ba4 Y8 Te16'
_cell_volume   1010.33833729
_cell_formula_units_Z   4
loop_
 _symmetry_equiv_pos_site_id
 _symmetry_equiv_pos_as_xyz
  1  'x, y, z'
loop_
 _atom_site_type_symbol
 _atom_site_label
 _atom_site_symmetry_multiplicity
 _atom_site_fract_x
 _atom_site_fract_y
 _atom_site_fract_z
 _atom_site_occupancy
  Ba  Ba0  1  0.25000000  0.23856345  0.33037883  1
  Ba  Ba1  1  0.75000000  0.76143655  0.66962117  1
  Ba  Ba2  1  0.25000000  0.73856345  0.16962117  1
  Ba  Ba3  1  0.75000000  0.26143655  0.83037883  1
  Y  Y4  1  0.25000000  0.55893860  0.39043788  1
  Y  Y5  1  0.75000000  0.44106140  0.60956212  1
  Y  Y6  1  0.25000000  0.05893860  0.10956212  1
  Y  Y7  1  0.75000000  0.94106140  0.89043788  1
  Y  Y8  1  0.75000000  0.41893429  0.09653430  1
  Y  Y9  1  0.25000000  0.58106571  0.90346570  1
  Y  Y10  1  0.75000000  0.91893429  0.40346570  1
  Y  Y11  1  0.25000000  0.08106571  0.59653430  1
  Te  Te12  1  0.75000000  0.02758855  0.71581316  1
  Te  Te13  1  0.25000000  0.97241145  0.28418684  1
  Te  Te14  1  0.75000000  0.52758855  0.78418684  1
  Te  Te15  1  0.25000000  0.47241145  0.21581316  1
  Te  Te16  1  0.75000000  0.40993111  0.42401361  1
  Te  Te17  1  0.25000000  0.59006889  0.57598639  1
  Te  Te18  1  0.75000000  0.90993111  0.07598639  1
  Te  Te19  1  0.25000000  0.09006889  0.92401361  1
  Te  Te20  1  0.75000000  0.20433875  0.16059672  1
  Te  Te21  1  0.25000000  0.79566125  0.83940328  1
  Te  Te22  1  0.75000000  0.70433875  0.33940328  1
  Te  Te23  1  0.25000000  0.29566125  0.66059672  1
  Te  Te24  1  0.75000000  0.12677234  0.47158413  1
  Te  Te25  1  0.25000000  0.87322766  0.52841587  1
  Te  Te26  1  0.75000000  0.62677234  0.02841587  1
  Te  Te27  1  0.25000000  0.37322766  0.97158413  1
