# generated using pymatgen
data_TiMnO3
_symmetry_space_group_name_H-M   'P 1'
_cell_length_a   5.48115619
_cell_length_b   5.48115554
_cell_length_c   5.48115643
_cell_angle_alpha   56.35558947
_cell_angle_beta   56.35559275
_cell_angle_gamma   56.35558907
_symmetry_Int_Tables_number   1
_chemical_formula_structural   TiMnO3
_chemical_formula_sum   'Ti2 Mn2 O6'
_cell_volume   106.62481101
_cell_formula_units_Z   2
loop_
 _symmetry_equiv_pos_site_id
 _symmetry_equiv_pos_as_xyz
  1  'x, y, z'
loop_
 _atom_site_type_symbol
 _atom_site_label
 _atom_site_symmetry_multiplicity
 _atom_site_fract_x
 _atom_site_fract_y
 _atom_site_fract_z
 _atom_site_occupancy
  Ti  Ti0  1  0.50004840  0.50004740  0.50004840  1
  Ti  Ti1  1  0.00004740  0.00004840  0.00004840  1
  Mn  Mn2  1  0.77936801  0.77936801  0.77936801  1
  Mn  Mn3  1  0.27936801  0.27936801  0.27936801  1
  O  O4  1  0.61515457  0.21936679  0.85242224  1
  O  O5  1  0.21936679  0.85242224  0.61515457  1
  O  O6  1  0.85242224  0.61515457  0.21936679  1
  O  O7  1  0.35242224  0.71936679  0.11515457  1
  O  O8  1  0.11515457  0.35242224  0.71936679  1
  O  O9  1  0.71936679  0.11515457  0.35242224  1
