# generated using pymatgen
data_Gd2Hf2O7
_symmetry_space_group_name_H-M   'P 1'
_cell_length_a   7.43303013
_cell_length_b   7.43303084
_cell_length_c   7.43303135
_cell_angle_alpha   60.00029124
_cell_angle_beta   60.00028910
_cell_angle_gamma   60.00029058
_symmetry_Int_Tables_number   1
_chemical_formula_structural   Gd2Hf2O7
_chemical_formula_sum   'Gd4 Hf4 O14'
_cell_volume   290.39267230
_cell_formula_units_Z   2
loop_
 _symmetry_equiv_pos_site_id
 _symmetry_equiv_pos_as_xyz
  1  'x, y, z'
loop_
 _atom_site_type_symbol
 _atom_site_label
 _atom_site_symmetry_multiplicity
 _atom_site_fract_x
 _atom_site_fract_y
 _atom_site_fract_z
 _atom_site_occupancy
  Gd  Gd0  1  0.62500004  0.12500045  0.12499997  1
  Gd  Gd1  1  0.12499966  0.62499971  0.12500029  1
  Gd  Gd2  1  0.12499998  0.12499996  0.62500008  1
  Gd  Gd3  1  0.12500013  0.12499980  0.12499999  1
  Hf  Hf4  1  0.12499987  0.62500015  0.62499998  1
  Hf  Hf5  1  0.62499993  0.12499994  0.62500000  1
  Hf  Hf6  1  0.62500000  0.62500008  0.12499993  1
  Hf  Hf7  1  0.62499973  0.62500014  0.62500016  1
  O  O8  1  0.71045429  0.71045464  0.28954567  1
  O  O9  1  0.28954546  0.28954603  0.71045373  1
  O  O10  1  0.71045452  0.28954588  0.71045461  1
  O  O11  1  0.28954552  0.71045390  0.28954571  1
  O  O12  1  0.28954563  0.71045475  0.71045446  1
  O  O13  1  0.71045427  0.28954574  0.28954538  1
  O  O14  1  0.53954547  0.53954552  0.96045448  1
  O  O15  1  0.96045435  0.96045419  0.53954661  1
  O  O16  1  0.53954561  0.96045426  0.53954542  1
  O  O17  1  0.96045429  0.53954602  0.96045445  1
  O  O18  1  0.96045422  0.53954584  0.53954561  1
  O  O19  1  0.53954592  0.96045404  0.96045445  1
  O  O20  1  0.24999942  0.24999891  0.24999966  1
  O  O21  1  0.00000069  0.00000103  0.00000033  1
