# generated using pymatgen
data_Cs4Fe2O5
_symmetry_space_group_name_H-M   'P 1'
_cell_length_a   9.81883011
_cell_length_b   9.81883011
_cell_length_c   7.71181273
_cell_angle_alpha   83.73205196
_cell_angle_beta   83.73205196
_cell_angle_gamma   135.42832835
_symmetry_Int_Tables_number   1
_chemical_formula_structural   Cs4Fe2O5
_chemical_formula_sum   'Cs8 Fe4 O10'
_cell_volume   499.69147499
_cell_formula_units_Z   2
loop_
 _symmetry_equiv_pos_site_id
 _symmetry_equiv_pos_as_xyz
  1  'x, y, z'
loop_
 _atom_site_type_symbol
 _atom_site_label
 _atom_site_symmetry_multiplicity
 _atom_site_fract_x
 _atom_site_fract_y
 _atom_site_fract_z
 _atom_site_occupancy
  Cs  Cs0  1  0.46400433  0.53599567  0.25000000  1
  Cs  Cs1  1  0.53599567  0.46400433  0.75000000  1
  Cs  Cs2  1  0.01838442  0.98161558  0.25000000  1
  Cs  Cs3  1  0.98161558  0.01838442  0.75000000  1
  Cs  Cs4  1  0.83429780  0.47558896  0.38437307  1
  Cs  Cs5  1  0.52441104  0.16570220  0.11562693  1
  Cs  Cs6  1  0.16570220  0.52441104  0.61562693  1
  Cs  Cs7  1  0.47558896  0.83429780  0.88437307  1
  Fe  Fe8  1  0.99293118  0.30730103  0.09747455  1
  Fe  Fe9  1  0.69269897  0.00706882  0.40252545  1
  Fe  Fe10  1  0.00706882  0.69269897  0.90252545  1
  Fe  Fe11  1  0.30730103  0.99293118  0.59747455  1
  O  O12  1  0.96990477  0.27057641  0.35603953  1
  O  O13  1  0.72942359  0.03009523  0.14396047  1
  O  O14  1  0.03009523  0.72942359  0.64396047  1
  O  O15  1  0.27057641  0.96990477  0.85603953  1
  O  O16  1  0.00000000  0.50000000  -0.00000000  1
  O  O17  1  0.50000000  -0.00000000  0.50000000  1
  O  O18  1  0.80208479  0.64062741  0.03338648  1
  O  O19  1  0.35937259  0.19791521  0.46661352  1
  O  O20  1  0.19791521  0.35937259  0.96661352  1
  O  O21  1  0.64062741  0.80208479  0.53338648  1
