# generated using pymatgen
data_Li7V(O2F)2
_symmetry_space_group_name_H-M   'P 1'
_cell_length_a   5.52666300
_cell_length_b   5.86610250
_cell_length_c   9.84367846
_cell_angle_alpha   105.56627397
_cell_angle_beta   89.62211448
_cell_angle_gamma   117.33389978
_symmetry_Int_Tables_number   1
_chemical_formula_structural   Li7V(O2F)2
_chemical_formula_sum   'Li14 V2 O8 F4'
_cell_volume   270.55274609
_cell_formula_units_Z   2
loop_
 _symmetry_equiv_pos_site_id
 _symmetry_equiv_pos_as_xyz
  1  'x, y, z'
loop_
 _atom_site_type_symbol
 _atom_site_label
 _atom_site_symmetry_multiplicity
 _atom_site_fract_x
 _atom_site_fract_y
 _atom_site_fract_z
 _atom_site_occupancy
  Li  Li0  1  0.03225700  0.93695100  0.76438700  1
  Li  Li1  1  0.49606600  0.39099800  0.25053100  1
  Li  Li2  1  0.54383900  0.04585100  0.61684100  1
  Li  Li3  1  0.96456000  0.45323100  0.87351000  1
  Li  Li4  1  0.03163800  0.75391600  0.54693400  1
  Li  Li5  1  0.52917100  0.31048400  0.04880900  1
  Li  Li6  1  0.97877300  0.65816500  0.31899000  1
  Li  Li7  1  0.45582700  0.70589900  0.94918200  1
  Li  Li8  1  0.95746000  0.20706400  0.45143600  1
  Li  Li9  1  0.01485500  0.52666300  0.12298400  1
  Li  Li10  1  0.49457100  0.98915300  0.38325800  1
  Li  Li11  1  0.42925100  0.53055700  0.73506200  1
  Li  Li12  1  0.02815800  0.11021700  0.25291800  1
  Li  Li13  1  0.51177000  0.84004700  0.19008500  1
  V  V14  1  0.02879100  0.98323500  0.00989900  1
  V  V15  1  0.49310100  0.52506000  0.47294700  1
  O  O16  1  0.29601900  0.04778200  0.19510400  1
  O  O17  1  0.15858500  0.77853400  0.95650900  1
  O  O18  1  0.68820900  0.32935100  0.44926400  1
  O  O19  1  0.73408800  0.66025200  0.11630000  1
  O  O20  1  0.24726600  0.34030300  0.89885100  1
  O  O21  1  0.34505800  0.71049400  0.54278400  1
  O  O22  1  0.21945600  0.45826700  0.30533500  1
  O  O23  1  0.78240200  0.87283000  0.38122300  1
  F  F24  1  0.22665900  0.12567300  0.60706400  1
  F  F25  1  0.79053700  0.57951800  0.69237700  1
  F  F26  1  0.81687900  0.20278700  0.06084400  1
  F  F27  1  0.70475600  0.92671900  0.80657100  1
