# generated using pymatgen
data_RbMgCu2H3(SO5)2
_symmetry_space_group_name_H-M   'P 1'
_cell_length_a   5.45532942
_cell_length_b   6.98002124
_cell_length_c   8.51574768
_cell_angle_alpha   68.43788128
_cell_angle_beta   83.37728560
_cell_angle_gamma   119.58620784
_symmetry_Int_Tables_number   1
_chemical_formula_structural   RbMgCu2H3(SO5)2
_chemical_formula_sum   'Rb1 Mg1 Cu2 H3 S2 O10'
_cell_volume   243.95650166
_cell_formula_units_Z   1
loop_
 _symmetry_equiv_pos_site_id
 _symmetry_equiv_pos_as_xyz
  1  'x, y, z'
loop_
 _atom_site_type_symbol
 _atom_site_label
 _atom_site_symmetry_multiplicity
 _atom_site_fract_x
 _atom_site_fract_y
 _atom_site_fract_z
 _atom_site_occupancy
  Rb  Rb0  1  0.53755500  0.00603900  0.52799000  1
  Mg  Mg1  1  0.42122700  0.63183200  0.26450600  1
  Cu  Cu2  1  0.02873600  0.53747900  0.99069400  1
  Cu  Cu3  1  0.34192700  0.01121000  0.94735100  1
  H  H4  1  0.75276500  0.58217800  0.77464700  1
  H  H5  1  0.15135800  0.28991400  0.16967800  1
  H  H6  1  0.55616000  0.52409900  0.96642500  1
  S  S7  1  0.09192400  0.26079300  0.71223500  1
  S  S8  1  0.94091300  0.75913900  0.33159300  1
  O  O9  1  0.76665000  0.05924200  0.82752700  1
  O  O10  1  0.22394900  0.46873400  0.75438900  1
  O  O11  1  0.26185000  0.86553700  0.21304300  1
  O  O12  1  0.71818400  0.52217500  0.33266500  1
  O  O13  1  0.71433900  0.51205300  0.90522800  1
  O  O14  1  0.27351300  0.47576100  0.11254600  1
  O  O15  1  0.26632500  0.14481500  0.73241800  1
  O  O16  1  0.85470400  0.93589300  0.24188900  1
  O  O17  1  0.11994900  0.36271400  0.51582800  1
  O  O18  1  0.94614400  0.73416800  0.50834900  1
