# generated using pymatgen
data_Rb3Bi2I9
_symmetry_space_group_name_H-M   'P 1'
_cell_length_a   8.43107264
_cell_length_b   8.43107264
_cell_length_c   21.67418346
_cell_angle_alpha   86.90245506
_cell_angle_beta   86.90245506
_cell_angle_gamma   120.19688570
_symmetry_Int_Tables_number   1
_chemical_formula_structural   Rb3Bi2I9
_chemical_formula_sum   'Rb6 Bi4 I18'
_cell_volume   1323.75475675
_cell_formula_units_Z   2
loop_
 _symmetry_equiv_pos_site_id
 _symmetry_equiv_pos_as_xyz
  1  'x, y, z'
loop_
 _atom_site_type_symbol
 _atom_site_label
 _atom_site_symmetry_multiplicity
 _atom_site_fract_x
 _atom_site_fract_y
 _atom_site_fract_z
 _atom_site_occupancy
  Rb  Rb0  1  0.97170188  0.02829812  0.75000000  1
  Rb  Rb1  1  0.67767680  0.31911402  0.07055826  1
  Rb  Rb2  1  0.02829812  0.97170188  0.25000000  1
  Rb  Rb3  1  0.31911402  0.67767680  0.57055826  1
  Rb  Rb4  1  0.32232320  0.68088598  0.92944174  1
  Rb  Rb5  1  0.68088598  0.32232320  0.42944174  1
  Bi  Bi6  1  0.63216689  0.30389671  0.65656070  1
  Bi  Bi7  1  0.36783311  0.69610329  0.34343930  1
  Bi  Bi8  1  0.30389671  0.63216689  0.15656070  1
  Bi  Bi9  1  0.69610329  0.36783311  0.84343930  1
  I  I10  1  0.61507078  0.77683980  0.05916200  1
  I  I11  1  0.38492922  0.22316020  0.94083800  1
  I  I12  1  0.49139057  0.99402496  0.77635003  1
  I  I13  1  0.21812406  0.89512455  0.41310480  1
  I  I14  1  0.89512455  0.21812406  0.91310480  1
  I  I15  1  0.77683980  0.61507078  0.55916200  1
  I  I16  1  0.78187594  0.10487545  0.58689520  1
  I  I17  1  0.26872767  0.09751339  0.60397663  1
  I  I18  1  0.50860943  0.00597504  0.22364997  1
  I  I19  1  0.00597504  0.50860943  0.72364997  1
  I  I20  1  0.10487545  0.78187594  0.08689520  1
  I  I21  1  0.99402496  0.49139057  0.27635003  1
  I  I22  1  0.49396424  0.50603576  0.75000000  1
  I  I23  1  0.90248661  0.73127233  0.89602337  1
  I  I24  1  0.09751339  0.26872767  0.10397663  1
  I  I25  1  0.73127233  0.90248661  0.39602337  1
  I  I26  1  0.50603576  0.49396424  0.25000000  1
  I  I27  1  0.22316020  0.38492922  0.44083800  1
