# generated using pymatgen
data_K12Mg(Pb2O5)2
_symmetry_space_group_name_H-M   'P 1'
_cell_length_a   6.85681973
_cell_length_b   8.01534440
_cell_length_c   13.02649273
_cell_angle_alpha   77.15692654
_cell_angle_beta   80.97473498
_cell_angle_gamma   84.15495822
_symmetry_Int_Tables_number   1
_chemical_formula_structural   K12Mg(Pb2O5)2
_chemical_formula_sum   'K12 Mg1 Pb4 O10'
_cell_volume   687.71091267
_cell_formula_units_Z   1
loop_
 _symmetry_equiv_pos_site_id
 _symmetry_equiv_pos_as_xyz
  1  'x, y, z'
loop_
 _atom_site_type_symbol
 _atom_site_label
 _atom_site_symmetry_multiplicity
 _atom_site_fract_x
 _atom_site_fract_y
 _atom_site_fract_z
 _atom_site_occupancy
  K  K0  1  0.42843441  0.59646105  0.36120869  1
  K  K1  1  0.57176306  0.35874740  0.62654353  1
  K  K2  1  0.90759037  0.40294174  0.35774215  1
  K  K3  1  0.02547478  0.55159856  0.56903038  1
  K  K4  1  0.32317343  0.95982700  0.13805657  1
  K  K5  1  0.69069325  0.06067635  0.87486141  1
  K  K6  1  0.32337967  0.50305009  0.12534108  1
  K  K7  1  0.61341397  0.51285506  0.88566695  1
  K  K8  1  0.78546600  0.70610867  0.12000068  1
  K  K9  1  0.17508340  0.31285572  0.86700529  1
  K  K10  1  0.43420964  0.13896975  0.37053347  1
  K  K11  1  0.55795336  0.83070768  0.64061540  1
  Mg  Mg12  1  0.02927572  0.72576377  0.76710017  1
  Pb  Pb13  1  0.88107127  0.85089166  0.35019177  1
  Pb  Pb14  1  0.13555374  0.12528261  0.64233706  1
  Pb  Pb15  1  0.74425091  0.20318511  0.12885277  1
  Pb  Pb16  1  0.25745614  0.86480300  0.89792437  1
  O  O17  1  0.64417918  0.94581524  0.24006937  1
  O  O18  1  0.37858348  0.07618050  0.76055147  1
  O  O19  1  0.49999658  0.24237247  0.03485360  1
  O  O20  1  0.50036435  0.77295299  0.98568841  1
  O  O21  1  0.71649219  0.64955891  0.46544291  1
  O  O22  1  0.28569904  0.32007225  0.51369265  1
  O  O23  1  0.62885681  0.38183747  0.23426281  1
  O  O24  1  0.29793521  0.65498672  0.79595972  1
  O  O25  1  0.07378846  0.68610530  0.25687755  1
  O  O26  1  0.92319459  0.29039297  0.72396476  1
