# generated using pymatgen
data_CoH15Br2(N3O)2
_symmetry_space_group_name_H-M   'P 1'
_cell_length_a   6.92573750
_cell_length_b   6.84391893
_cell_length_c   11.04345546
_cell_angle_alpha   86.06823910
_cell_angle_beta   85.75641914
_cell_angle_gamma   80.75787772
_symmetry_Int_Tables_number   1
_chemical_formula_structural   CoH15Br2(N3O)2
_chemical_formula_sum   'Co2 H30 Br4 N12 O4'
_cell_volume   514.38412578
_cell_formula_units_Z   2
loop_
 _symmetry_equiv_pos_site_id
 _symmetry_equiv_pos_as_xyz
  1  'x, y, z'
loop_
 _atom_site_type_symbol
 _atom_site_label
 _atom_site_symmetry_multiplicity
 _atom_site_fract_x
 _atom_site_fract_y
 _atom_site_fract_z
 _atom_site_occupancy
  Co  Co0  1  0.70006912  0.29434917  0.75013527  1
  Co  Co1  1  0.29993088  0.70565083  0.24986473  1
  H  H2  1  0.56940452  0.97870978  0.70893539  1
  H  H3  1  0.00823953  0.41073230  0.80739815  1
  H  H4  1  0.43059548  0.02129022  0.29106461  1
  H  H5  1  0.99176047  0.58926770  0.19260185  1
  H  H6  1  0.53040666  0.28073099  0.95965492  1
  H  H7  1  0.71308018  0.46509909  0.54146952  1
  H  H8  1  0.46959334  0.71926901  0.04034508  1
  H  H9  1  0.28691982  0.53490091  0.45853048  1
  H  H10  1  0.40755251  0.17692568  0.68334316  1
  H  H11  1  0.82321953  0.59306371  0.80702162  1
  H  H12  1  0.59244749  0.82307432  0.31665684  1
  H  H13  1  0.17678047  0.40693629  0.19297838  1
  H  H14  1  0.72230907  0.39261424  0.96463990  1
  H  H15  1  0.61447816  0.26342223  0.53345204  1
  H  H16  1  0.27769093  0.60738576  0.03536010  1
  H  H17  1  0.38552184  0.73657777  0.46654796  1
  H  H18  1  0.43596462  0.08706129  0.82361313  1
  H  H19  1  0.94115200  0.52982312  0.67733213  1
  H  H20  1  0.56403538  0.91293871  0.17638687  1
  H  H21  1  0.05884800  0.47017688  0.32266787  1
  H  H22  1  0.74933057  0.14946601  0.96643872  1
  H  H23  1  0.85335518  0.24867938  0.53612733  1
  H  H24  1  0.25066943  0.85053399  0.03356128  1
  H  H25  1  0.14664482  0.75132062  0.46387267  1
  H  H26  1  0.04888928  0.10542825  0.72365398  1
  H  H27  1  0.95111072  0.89457175  0.27634602  1
  H  H28  1  0.89420827  0.97143175  0.68106624  1
  H  H29  1  0.10579173  0.02856825  0.31893376  1
  H  H30  1  0.92464535  0.98220271  0.82781301  1
  H  H31  1  0.07535465  0.01779729  0.17218699  1
  Br  Br32  1  0.77896147  0.80924551  0.51350053  1
  Br  Br33  1  0.18203502  0.22109283  0.98338000  1
  Br  Br34  1  0.22103853  0.19075449  0.48649947  1
  Br  Br35  1  0.81796498  0.77890717  0.01662000  1
  N  N36  1  0.49235143  0.51285356  0.75004193  1
  N  N37  1  0.50764857  0.48714644  0.24995807  1
  N  N38  1  0.51047019  0.11261631  0.74201472  1
  N  N39  1  0.89050991  0.47458734  0.75967973  1
  N  N40  1  0.48952981  0.88738369  0.25798528  1
  N  N41  1  0.10949009  0.52541266  0.24032027  1
  N  N42  1  0.67405664  0.27726918  0.92840948  1
  N  N43  1  0.72200481  0.31914223  0.57203300  1
  N  N44  1  0.32594336  0.72273082  0.07159052  1
  N  N45  1  0.27799519  0.68085777  0.42796700  1
  N  N46  1  0.91557517  0.06386453  0.74658972  1
  N  N47  1  0.08442483  0.93613547  0.25341028  1
  O  O48  1  0.49635663  0.65218080  0.81603802  1
  O  O49  1  0.35466053  0.51499339  0.68372077  1
  O  O50  1  0.50364337  0.34781920  0.18396198  1
  O  O51  1  0.64533947  0.48500661  0.31627923  1
