# generated using pymatgen
data_SmAsSe
_symmetry_space_group_name_H-M   'P 1'
_cell_length_a   3.95587371
_cell_length_b   4.01928304
_cell_length_c   17.84364131
_cell_angle_alpha   90.00000000
_cell_angle_beta   90.00000000
_cell_angle_gamma   90.00000000
_symmetry_Int_Tables_number   1
_chemical_formula_structural   SmAsSe
_chemical_formula_sum   'Sm4 As4 Se4'
_cell_volume   283.70990183
_cell_formula_units_Z   4
loop_
 _symmetry_equiv_pos_site_id
 _symmetry_equiv_pos_as_xyz
  1  'x, y, z'
loop_
 _atom_site_type_symbol
 _atom_site_label
 _atom_site_symmetry_multiplicity
 _atom_site_fract_x
 _atom_site_fract_y
 _atom_site_fract_z
 _atom_site_occupancy
  Sm  Sm0  1  0.75000000  0.72995238  0.63978324  1
  Sm  Sm1  1  0.25000000  0.27004762  0.36021676  1
  Sm  Sm2  1  0.75000000  0.77004762  0.13978324  1
  Sm  Sm3  1  0.25000000  0.22995238  0.86021676  1
  As  As4  1  0.25000000  0.70226027  0.99775556  1
  As  As5  1  0.75000000  0.29773973  0.00224444  1
  As  As6  1  0.25000000  0.79773973  0.49775556  1
  As  As7  1  0.75000000  0.20226027  0.50224444  1
  Se  Se8  1  0.75000000  0.73233049  0.81251527  1
  Se  Se9  1  0.25000000  0.26766951  0.18748473  1
  Se  Se10  1  0.75000000  0.76766951  0.31251527  1
  Se  Se11  1  0.25000000  0.23233049  0.68748473  1
