# generated using pymatgen
data_Rb2PrI5
_symmetry_space_group_name_H-M   'P 1'
_cell_length_a   9.34752616
_cell_length_b   10.06650356
_cell_length_c   14.81049556
_cell_angle_alpha   90.00000000
_cell_angle_beta   90.00000000
_cell_angle_gamma   90.00000000
_symmetry_Int_Tables_number   1
_chemical_formula_structural   Rb2PrI5
_chemical_formula_sum   'Rb8 Pr4 I20'
_cell_volume   1393.62179915
_cell_formula_units_Z   4
loop_
 _symmetry_equiv_pos_site_id
 _symmetry_equiv_pos_as_xyz
  1  'x, y, z'
loop_
 _atom_site_type_symbol
 _atom_site_label
 _atom_site_symmetry_multiplicity
 _atom_site_fract_x
 _atom_site_fract_y
 _atom_site_fract_z
 _atom_site_occupancy
  Rb  Rb0  1  0.94100012  0.00322005  0.82706614  1
  Rb  Rb1  1  0.05899988  0.99677995  0.17293386  1
  Rb  Rb2  1  0.44100012  0.99677995  0.67293386  1
  Rb  Rb3  1  0.05899988  0.50322005  0.17293386  1
  Rb  Rb4  1  0.55899988  0.00322005  0.32706614  1
  Rb  Rb5  1  0.94100012  0.49677995  0.82706614  1
  Rb  Rb6  1  0.55899988  0.49677995  0.32706614  1
  Rb  Rb7  1  0.44100012  0.50322005  0.67293386  1
  Pr  Pr8  1  0.92148542  0.75000000  0.50576255  1
  Pr  Pr9  1  0.07851458  0.25000000  0.49423745  1
  Pr  Pr10  1  0.42148542  0.25000000  0.99423745  1
  Pr  Pr11  1  0.57851458  0.75000000  0.00576255  1
  I  I12  1  0.12431304  0.75000000  0.67990415  1
  I  I13  1  0.87568696  0.25000000  0.32009585  1
  I  I14  1  0.62431304  0.25000000  0.82009585  1
  I  I15  1  0.37568696  0.75000000  0.17990415  1
  I  I16  1  0.83210269  0.04550323  0.57438140  1
  I  I17  1  0.16789731  0.95449677  0.42561860  1
  I  I18  1  0.33210269  0.95449677  0.92561860  1
  I  I19  1  0.16789731  0.54550323  0.42561860  1
  I  I20  1  0.66789731  0.04550323  0.07438140  1
  I  I21  1  0.83210269  0.45449677  0.57438140  1
  I  I22  1  0.66789731  0.45449677  0.07438140  1
  I  I23  1  0.33210269  0.54550323  0.92561860  1
  I  I24  1  0.57461529  0.75000000  0.50933651  1
  I  I25  1  0.42538471  0.25000000  0.49066349  1
  I  I26  1  0.07461529  0.25000000  0.99066349  1
  I  I27  1  0.92538471  0.75000000  0.00933651  1
  I  I28  1  0.65777762  0.75000000  0.79601247  1
  I  I29  1  0.34222238  0.25000000  0.20398753  1
  I  I30  1  0.15777762  0.25000000  0.70398753  1
  I  I31  1  0.84222238  0.75000000  0.29601247  1
