# generated using pymatgen
data_ZnCd4(GaS2)10
_symmetry_space_group_name_H-M   'P 1'
_cell_length_a   5.52991794
_cell_length_b   6.45626317
_cell_length_c   24.39136450
_cell_angle_alpha   93.03351204
_cell_angle_beta   90.03217495
_cell_angle_gamma   115.35248905
_symmetry_Int_Tables_number   1
_chemical_formula_structural   ZnCd4(GaS2)10
_chemical_formula_sum   'Zn1 Cd4 Ga10 S20'
_cell_volume   785.60274932
_cell_formula_units_Z   1
loop_
 _symmetry_equiv_pos_site_id
 _symmetry_equiv_pos_as_xyz
  1  'x, y, z'
loop_
 _atom_site_type_symbol
 _atom_site_label
 _atom_site_symmetry_multiplicity
 _atom_site_fract_x
 _atom_site_fract_y
 _atom_site_fract_z
 _atom_site_occupancy
  Zn  Zn0  1  0.19380866  0.39497455  0.79950241  1
  Cd  Cd1  1  0.01217836  0.01790926  0.99701041  1
  Cd  Cd2  1  0.80170266  0.60232770  0.19919269  1
  Cd  Cd3  1  0.59870063  0.19848191  0.40138200  1
  Cd  Cd4  1  0.39405665  0.78833342  0.60328481  1
  Ga  Ga5  1  0.60770801  0.21863365  0.89664944  1
  Ga  Ga6  1  0.19953268  0.39829559  0.29967130  1
  Ga  Ga7  1  0.40281264  0.80350341  0.09699810  1
  Ga  Ga8  1  0.79318836  0.58795401  0.70463890  1
  Ga  Ga9  1  -0.00368181  0.99117073  0.50195816  1
  Ga  Ga10  1  0.31031762  0.61466891  0.94561624  1
  Ga  Ga11  1  0.10258918  0.20309770  0.14832161  1
  Ga  Ga12  1  0.89987077  0.79826931  0.35043742  1
  Ga  Ga13  1  0.69729108  0.39057658  0.55270962  1
  Ga  Ga14  1  0.48990702  0.99309510  0.75290614  1
  S  S15  1  0.47743160  0.49392711  0.11726510  1
  S  S16  1  0.07149184  0.68080016  0.52121915  1
  S  S17  1  0.27509980  0.08876417  0.31942076  1
  S  S18  1  0.68452817  0.90875531  0.91586589  1
  S  S19  1  0.87996007  0.28368194  0.72586707  1
  S  S20  1  0.11425734  0.68604096  0.02242584  1
  S  S21  1  0.70748955  0.87107884  0.42759538  1
  S  S22  1  0.91007384  0.27546443  0.22551264  1
  S  S23  1  0.29833513  0.09647682  0.82581530  1
  S  S24  1  0.50584747  0.46302197  0.62993789  1
  S  S25  1  0.00469191  0.51332408  0.87424775  1
  S  S26  1  0.58658512  0.70841980  0.28124713  1
  S  S27  1  0.78988614  0.11512651  0.07924684  1
  S  S28  1  0.17501859  0.89999339  0.68402474  1
  S  S29  1  0.38317847  0.30209484  0.48370231  1
  S  S30  1  0.44838244  0.34601806  0.97079791  1
  S  S31  1  0.03144277  0.52290443  0.37324547  1
  S  S32  1  0.23373823  0.92711291  0.17073660  1
  S  S33  1  0.59481959  0.70089061  0.77584457  1
  S  S34  1  0.82775842  0.11481082  0.57570544  1
