# generated using pymatgen
data_Mg14NbSnO16
_symmetry_space_group_name_H-M   'P 1'
_cell_length_a   8.72507472
_cell_length_b   8.81600164
_cell_length_c   4.39750087
_cell_angle_alpha   90.00000000
_cell_angle_beta   90.00000000
_cell_angle_gamma   90.00000000
_symmetry_Int_Tables_number   1
_chemical_formula_structural   Mg14NbSnO16
_chemical_formula_sum   'Mg14 Nb1 Sn1 O16'
_cell_volume   338.25696762
_cell_formula_units_Z   1
loop_
 _symmetry_equiv_pos_site_id
 _symmetry_equiv_pos_as_xyz
  1  'x, y, z'
loop_
 _atom_site_type_symbol
 _atom_site_label
 _atom_site_symmetry_multiplicity
 _atom_site_fract_x
 _atom_site_fract_y
 _atom_site_fract_z
 _atom_site_occupancy
  Mg  Mg0  1  0.50000000  -0.00000000  -0.00000000  1
  Mg  Mg1  1  0.50000000  0.50000000  -0.00000000  1
  Mg  Mg2  1  0.00000000  0.25339346  0.50000000  1
  Mg  Mg3  1  0.00000000  0.74660654  0.50000000  1
  Mg  Mg4  1  0.50000000  0.25089301  0.50000000  1
  Mg  Mg5  1  0.50000000  0.74910699  0.50000000  1
  Mg  Mg6  1  0.25985879  -0.00000000  0.50000000  1
  Mg  Mg7  1  0.25573948  0.50000000  0.50000000  1
  Mg  Mg8  1  0.74014121  -0.00000000  0.50000000  1
  Mg  Mg9  1  0.74426052  0.50000000  0.50000000  1
  Mg  Mg10  1  0.25750125  0.25188818  0.00000000  1
  Mg  Mg11  1  0.25750125  0.74811182  0.00000000  1
  Mg  Mg12  1  0.74249875  0.25188818  -0.00000000  1
  Mg  Mg13  1  0.74249875  0.74811182  -0.00000000  1
  Nb  Nb14  1  0.00000000  0.50000000  -0.00000000  1
  Sn  Sn15  1  0.00000000  -0.00000000  -0.00000000  1
  O  O16  1  0.27330393  -0.00000000  -0.00000000  1
  O  O17  1  0.26262909  0.50000000  -0.00000000  1
  O  O18  1  0.72669607  -0.00000000  0.00000000  1
  O  O19  1  0.73737091  0.50000000  0.00000000  1
  O  O20  1  0.24979305  0.25032558  0.50000000  1
  O  O21  1  0.24979305  0.74967442  0.50000000  1
  O  O22  1  0.75020695  0.25032558  0.50000000  1
  O  O23  1  0.75020695  0.74967442  0.50000000  1
  O  O24  1  0.00000000  -0.00000000  0.50000000  1
  O  O25  1  0.00000000  0.50000000  0.50000000  1
  O  O26  1  0.50000000  -0.00000000  0.50000000  1
  O  O27  1  0.50000000  0.50000000  0.50000000  1
  O  O28  1  0.00000000  0.25740271  -0.00000000  1
  O  O29  1  0.00000000  0.74259729  -0.00000000  1
  O  O30  1  0.50000000  0.25347674  -0.00000000  1
  O  O31  1  0.50000000  0.74652326  0.00000000  1
