# generated using pymatgen
data_Ca2SiS4
_symmetry_space_group_name_H-M   'P 1'
_cell_length_a   6.21845965
_cell_length_b   8.19168271
_cell_length_c   13.63955797
_cell_angle_alpha   90.00000000
_cell_angle_beta   90.00000000
_cell_angle_gamma   90.00000000
_symmetry_Int_Tables_number   1
_chemical_formula_structural   Ca2SiS4
_chemical_formula_sum   'Ca8 Si4 S16'
_cell_volume   694.79428729
_cell_formula_units_Z   4
loop_
 _symmetry_equiv_pos_site_id
 _symmetry_equiv_pos_as_xyz
  1  'x, y, z'
loop_
 _atom_site_type_symbol
 _atom_site_label
 _atom_site_symmetry_multiplicity
 _atom_site_fract_x
 _atom_site_fract_y
 _atom_site_fract_z
 _atom_site_occupancy
  Ca  Ca0  1  0.50000000  -0.00000000  0.50000000  1
  Ca  Ca1  1  -0.00000000  0.50000000  -0.00000000  1
  Ca  Ca2  1  0.50000000  0.50000000  0.50000000  1
  Ca  Ca3  1  -0.00000000  -0.00000000  -0.00000000  1
  Ca  Ca4  1  0.01395505  0.75000000  0.27294163  1
  Ca  Ca5  1  0.48604495  0.75000000  0.77294163  1
  Ca  Ca6  1  0.98604495  0.25000000  0.72705837  1
  Ca  Ca7  1  0.51395505  0.25000000  0.22705837  1
  Si  Si8  1  0.59279434  0.75000000  0.09355631  1
  Si  Si9  1  0.90720566  0.75000000  0.59355631  1
  Si  Si10  1  0.40720566  0.25000000  0.90644369  1
  Si  Si11  1  0.09279434  0.25000000  0.40644369  1
  S  S12  1  0.72926384  0.95639351  0.16661200  1
  S  S13  1  0.77073616  0.54360649  0.66661200  1
  S  S14  1  0.27073616  0.45639351  0.83338800  1
  S  S15  1  0.22926384  0.04360649  0.33338800  1
  S  S16  1  0.27073616  0.04360649  0.83338800  1
  S  S17  1  0.22926384  0.45639351  0.33338800  1
  S  S18  1  0.72926384  0.54360649  0.16661200  1
  S  S19  1  0.77073616  0.95639351  0.66661200  1
  S  S20  1  0.25317668  0.75000000  0.09337760  1
  S  S21  1  0.24682332  0.75000000  0.59337760  1
  S  S22  1  0.74682332  0.25000000  0.90662240  1
  S  S23  1  0.75317668  0.25000000  0.40662240  1
  S  S24  1  0.72038012  0.75000000  0.94774329  1
  S  S25  1  0.77961988  0.75000000  0.44774329  1
  S  S26  1  0.27961988  0.25000000  0.05225671  1
  S  S27  1  0.22038012  0.25000000  0.55225671  1
