# generated using pymatgen
data_Pr2EuSe4
_symmetry_space_group_name_H-M   'P 1'
_cell_length_a   7.82807736
_cell_length_b   7.82807736
_cell_length_c   7.82807736
_cell_angle_alpha   109.44114104
_cell_angle_beta   109.44114104
_cell_angle_gamma   109.53139658
_symmetry_Int_Tables_number   1
_chemical_formula_structural   Pr2EuSe4
_chemical_formula_sum   'Pr4 Eu2 Se8'
_cell_volume   369.26919204
_cell_formula_units_Z   2
loop_
 _symmetry_equiv_pos_site_id
 _symmetry_equiv_pos_as_xyz
  1  'x, y, z'
loop_
 _atom_site_type_symbol
 _atom_site_label
 _atom_site_symmetry_multiplicity
 _atom_site_fract_x
 _atom_site_fract_y
 _atom_site_fract_z
 _atom_site_occupancy
  Pr  Pr0  1  0.50201486  0.12500000  0.87701486  1
  Pr  Pr1  1  0.87500000  0.75201486  0.37701486  1
  Pr  Pr2  1  0.24798514  0.62500000  0.12298514  1
  Pr  Pr3  1  0.37500000  0.49798514  0.62298514  1
  Eu  Eu4  1  0.75000000  0.25000000  0.50000000  1
  Eu  Eu5  1  0.00000000  0.00000000  0.00000000  1
  Se  Se6  1  0.97976454  0.37959748  0.25003951  1
  Se  Se7  1  0.47972404  0.37955697  0.24996049  1
  Se  Se8  1  0.77023546  0.52027596  0.89983293  1
  Se  Se9  1  0.62040252  0.87044303  0.60016707  1
  Se  Se10  1  0.12959748  0.22976454  0.75003951  1
  Se  Se11  1  0.62044303  0.87040252  0.10016707  1
  Se  Se12  1  0.27027596  0.02023546  0.39983293  1
  Se  Se13  1  0.12955697  0.72972404  0.74996049  1
