# generated using pymatgen
data_YTh9MgO20
_symmetry_space_group_name_H-M   'P 1'
_cell_length_a   7.98169796
_cell_length_b   20.03309750
_cell_length_c   10.62394932
_cell_angle_alpha   19.00824459
_cell_angle_beta   55.45471766
_cell_angle_gamma   59.91525983
_symmetry_Int_Tables_number   1
_chemical_formula_structural   YTh9MgO20
_chemical_formula_sum   'Y1 Th9 Mg1 O20'
_cell_volume   451.86985178
_cell_formula_units_Z   1
loop_
 _symmetry_equiv_pos_site_id
 _symmetry_equiv_pos_as_xyz
  1  'x, y, z'
loop_
 _atom_site_type_symbol
 _atom_site_label
 _atom_site_symmetry_multiplicity
 _atom_site_fract_x
 _atom_site_fract_y
 _atom_site_fract_z
 _atom_site_occupancy
  Y  Y0  1  0.96364992  0.98105091  0.08495471  1
  Th  Th1  1  0.00475354  0.19852189  0.99876811  1
  Th  Th2  1  0.50720241  0.00413167  0.98681987  1
  Th  Th3  1  0.00034996  0.42014874  0.95696141  1
  Th  Th4  1  0.49687543  0.19863931  0.00555807  1
  Th  Th5  1  0.00426810  0.58801149  0.01650388  1
  Th  Th6  1  0.51081186  0.41017040  0.97681754  1
  Th  Th7  1  0.00046747  0.79907730  0.99144114  1
  Th  Th8  1  0.49937082  0.59740497  0.00362534  1
  Th  Th9  1  0.51204848  0.79599948  0.99824138  1
  Mg  Mg10  1  0.18976099  0.08164344  0.60679930  1
  O  O11  1  0.12395702  0.15474160  0.23193886  1
  O  O12  1  0.12880655  0.34573300  0.25052590  1
  O  O13  1  0.63976678  0.15295164  0.23879332  1
  O  O14  1  0.37032999  0.05500186  0.73731230  1
  O  O15  1  0.12765311  0.54575345  0.25181748  1
  O  O16  1  0.63071475  0.35306372  0.23668470  1
  O  O17  1  0.38207450  0.24887789  0.74417345  1
  O  O18  1  0.12237483  0.76739582  0.21888148  1
  O  O19  1  0.88495402  0.05923517  0.72423423  1
  O  O20  1  0.12543604  0.94386626  0.26471975  1
  O  O21  1  0.62878022  0.54493145  0.25579762  1
  O  O22  1  0.37962598  0.46596743  0.71516123  1
  O  O23  1  0.87267740  0.24673415  0.75936705  1
  O  O24  1  0.38062652  0.64973942  0.74388490  1
  O  O25  1  0.63073352  0.75708032  0.23214293  1
  O  O26  1  0.62178965  0.94698896  0.25757778  1
  O  O27  1  0.88054707  0.46119083  0.72496304  1
  O  O28  1  0.37888445  0.83975674  0.76147128  1
  O  O29  1  0.87269840  0.64462826  0.76323900  1
  O  O30  1  0.87801023  0.84156243  0.76082296  1
