# generated using pymatgen
data_Nd4(SiS4)3
_symmetry_space_group_name_H-M   'P 1'
_cell_length_a   11.40018634
_cell_length_b   11.40018634
_cell_length_c   11.40018667
_cell_angle_alpha   114.76191837
_cell_angle_beta   114.76191837
_cell_angle_gamma   114.76191136
_symmetry_Int_Tables_number   1
_chemical_formula_structural   Nd4(SiS4)3
_chemical_formula_sum   'Nd8 Si6 S24'
_cell_volume   846.90545043
_cell_formula_units_Z   2
loop_
 _symmetry_equiv_pos_site_id
 _symmetry_equiv_pos_as_xyz
  1  'x, y, z'
loop_
 _atom_site_type_symbol
 _atom_site_label
 _atom_site_symmetry_multiplicity
 _atom_site_fract_x
 _atom_site_fract_y
 _atom_site_fract_z
 _atom_site_occupancy
  Nd  Nd0  1  0.49661796  0.49661796  0.49661796  1
  Nd  Nd1  1  0.99661796  0.99661796  0.99661796  1
  Nd  Nd2  1  0.43275263  0.20796673  0.97191265  1
  Nd  Nd3  1  0.97191265  0.43275263  0.20796673  1
  Nd  Nd4  1  0.20796673  0.97191265  0.43275263  1
  Nd  Nd5  1  0.47191265  0.70796673  0.93275263  1
  Nd  Nd6  1  0.93275263  0.47191265  0.70796673  1
  Nd  Nd7  1  0.70796673  0.93275263  0.47191265  1
  Si  Si8  1  0.85306264  0.63975089  0.46782733  1
  Si  Si9  1  0.46782733  0.85306264  0.63975089  1
  Si  Si10  1  0.63975089  0.46782733  0.85306264  1
  Si  Si11  1  0.96782733  0.13975089  0.35306264  1
  Si  Si12  1  0.35306264  0.96782733  0.13975089  1
  Si  Si13  1  0.13975089  0.35306264  0.96782733  1
  S  S14  1  0.78425106  0.39253465  0.31823768  1
  S  S15  1  0.31823768  0.78425106  0.39253465  1
  S  S16  1  0.39253465  0.31823768  0.78425106  1
  S  S17  1  0.81823768  0.89253465  0.28425106  1
  S  S18  1  0.28425106  0.81823768  0.89253465  1
  S  S19  1  0.89253465  0.28425106  0.81823768  1
  S  S20  1  0.87155010  0.68511949  0.68126567  1
  S  S21  1  0.68126567  0.87155010  0.68511949  1
  S  S22  1  0.68511949  0.68126567  0.87155010  1
  S  S23  1  0.18126567  0.18511949  0.37155010  1
  S  S24  1  0.37155010  0.18126567  0.18511949  1
  S  S25  1  0.18511949  0.37155010  0.18126567  1
  S  S26  1  0.62177488  0.58734923  0.30210338  1
  S  S27  1  0.30210338  0.62177488  0.58734923  1
  S  S28  1  0.58734923  0.30210338  0.62177488  1
  S  S29  1  0.80210338  0.08734923  0.12177488  1
  S  S30  1  0.12177488  0.80210338  0.08734923  1
  S  S31  1  0.08734923  0.12177488  0.80210338  1
  S  S32  1  0.11417382  0.84610611  0.57864210  1
  S  S33  1  0.57864210  0.11417382  0.84610611  1
  S  S34  1  0.84610611  0.57864210  0.11417382  1
  S  S35  1  0.07864210  0.34610611  0.61417382  1
  S  S36  1  0.61417382  0.07864210  0.34610611  1
  S  S37  1  0.34610611  0.61417382  0.07864210  1
