# generated using pymatgen
data_SrMg14CrO16
_symmetry_space_group_name_H-M   'P 1'
_cell_length_a   8.74851779
_cell_length_b   8.64436934
_cell_length_c   4.40138939
_cell_angle_alpha   90.00000000
_cell_angle_beta   90.00000000
_cell_angle_gamma   90.00000000
_symmetry_Int_Tables_number   1
_chemical_formula_structural   SrMg14CrO16
_chemical_formula_sum   'Sr1 Mg14 Cr1 O16'
_cell_volume   332.85691660
_cell_formula_units_Z   1
loop_
 _symmetry_equiv_pos_site_id
 _symmetry_equiv_pos_as_xyz
  1  'x, y, z'
loop_
 _atom_site_type_symbol
 _atom_site_label
 _atom_site_symmetry_multiplicity
 _atom_site_fract_x
 _atom_site_fract_y
 _atom_site_fract_z
 _atom_site_occupancy
  Sr  Sr0  1  0.00000000  0.00000000  0.00000000  1
  Mg  Mg1  1  0.50000000  0.00000000  0.00000000  1
  Mg  Mg2  1  0.50000000  0.50000000  0.00000000  1
  Mg  Mg3  1  0.00000000  0.25822645  0.50000000  1
  Mg  Mg4  1  0.00000000  0.74177355  0.50000000  1
  Mg  Mg5  1  0.50000000  0.25144496  0.50000000  1
  Mg  Mg6  1  0.50000000  0.74855504  0.50000000  1
  Mg  Mg7  1  0.26047336  0.00000000  0.50000000  1
  Mg  Mg8  1  0.25397852  0.50000000  0.50000000  1
  Mg  Mg9  1  0.73952664  0.00000000  0.50000000  1
  Mg  Mg10  1  0.74602148  0.50000000  0.50000000  1
  Mg  Mg11  1  0.25844291  0.25576310  0.00000000  1
  Mg  Mg12  1  0.25844291  0.74423690  0.00000000  1
  Mg  Mg13  1  0.74155709  0.25576310  0.00000000  1
  Mg  Mg14  1  0.74155709  0.74423690  0.00000000  1
  Cr  Cr15  1  0.00000000  0.50000000  0.00000000  1
  O  O16  1  0.27145224  0.00000000  0.00000000  1
  O  O17  1  0.26574714  0.50000000  0.00000000  1
  O  O18  1  0.72854776  0.00000000  0.00000000  1
  O  O19  1  0.73425286  0.50000000  0.00000000  1
  O  O20  1  0.24985563  0.25027979  0.50000000  1
  O  O21  1  0.24985563  0.74972021  0.50000000  1
  O  O22  1  0.75014437  0.25027979  0.50000000  1
  O  O23  1  0.75014437  0.74972021  0.50000000  1
  O  O24  1  0.00000000  0.00000000  0.50000000  1
  O  O25  1  0.00000000  0.50000000  0.50000000  1
  O  O26  1  0.50000000  0.00000000  0.50000000  1
  O  O27  1  0.50000000  0.50000000  0.50000000  1
  O  O28  1  0.00000000  0.26891451  0.00000000  1
  O  O29  1  0.00000000  0.73108549  0.00000000  1
  O  O30  1  0.50000000  0.25178064  0.00000000  1
  O  O31  1  0.50000000  0.74821936  0.00000000  1
