# generated using pymatgen
data_Ho2ZnS4
_symmetry_space_group_name_H-M   'P 1'
_cell_length_a   6.28666917
_cell_length_b   7.82691689
_cell_length_c   13.43599392
_cell_angle_alpha   90.00000000
_cell_angle_beta   90.00000000
_cell_angle_gamma   90.00000000
_symmetry_Int_Tables_number   1
_chemical_formula_structural   Ho2ZnS4
_chemical_formula_sum   'Ho8 Zn4 S16'
_cell_volume   661.12126662
_cell_formula_units_Z   4
loop_
 _symmetry_equiv_pos_site_id
 _symmetry_equiv_pos_as_xyz
  1  'x, y, z'
loop_
 _atom_site_type_symbol
 _atom_site_label
 _atom_site_symmetry_multiplicity
 _atom_site_fract_x
 _atom_site_fract_y
 _atom_site_fract_z
 _atom_site_occupancy
  Ho  Ho0  1  0.00000000  0.50000000  -0.00000000  1
  Ho  Ho1  1  0.50000000  -0.00000000  0.50000000  1
  Ho  Ho2  1  0.00000000  -0.00000000  -0.00000000  1
  Ho  Ho3  1  0.50000000  0.50000000  0.50000000  1
  Ho  Ho4  1  0.49556608  0.75000000  0.23381953  1
  Ho  Ho5  1  0.00443392  0.75000000  0.73381953  1
  Ho  Ho6  1  0.50443392  0.25000000  0.76618047  1
  Ho  Ho7  1  0.99556608  0.25000000  0.26618047  1
  Zn  Zn8  1  0.91179601  0.75000000  0.40766114  1
  Zn  Zn9  1  0.58820399  0.75000000  0.90766114  1
  Zn  Zn10  1  0.08820399  0.25000000  0.59233886  1
  Zn  Zn11  1  0.41179601  0.25000000  0.09233886  1
  S  S12  1  0.74471107  0.51371998  0.33189294  1
  S  S13  1  0.75528893  0.98628002  0.83189294  1
  S  S14  1  0.25528893  0.01371998  0.66810706  1
  S  S15  1  0.24471107  0.48628002  0.16810706  1
  S  S16  1  0.25528893  0.48628002  0.66810706  1
  S  S17  1  0.24471107  0.01371998  0.16810706  1
  S  S18  1  0.74471107  0.98628002  0.33189294  1
  S  S19  1  0.75528893  0.51371998  0.83189294  1
  S  S20  1  0.27478790  0.75000000  0.40969116  1
  S  S21  1  0.22521210  0.75000000  0.90969116  1
  S  S22  1  0.72521210  0.25000000  0.59030884  1
  S  S23  1  0.77478790  0.25000000  0.09030884  1
  S  S24  1  0.75825529  0.75000000  0.56930531  1
  S  S25  1  0.74174471  0.75000000  0.06930531  1
  S  S26  1  0.24174471  0.25000000  0.43069469  1
  S  S27  1  0.25825529  0.25000000  0.93069469  1
