# generated using pymatgen
data_CsEr2Cl7
_symmetry_space_group_name_H-M   'P 1'
_cell_length_a   6.93176966
_cell_length_b   12.54665810
_cell_length_c   13.55419827
_cell_angle_alpha   90.00000000
_cell_angle_beta   90.00000000
_cell_angle_gamma   90.00000000
_symmetry_Int_Tables_number   1
_chemical_formula_structural   CsEr2Cl7
_chemical_formula_sum   'Cs4 Er8 Cl28'
_cell_volume   1178.81599637
_cell_formula_units_Z   4
loop_
 _symmetry_equiv_pos_site_id
 _symmetry_equiv_pos_as_xyz
  1  'x, y, z'
loop_
 _atom_site_type_symbol
 _atom_site_label
 _atom_site_symmetry_multiplicity
 _atom_site_fract_x
 _atom_site_fract_y
 _atom_site_fract_z
 _atom_site_occupancy
  Cs  Cs0  1  0.25000000  0.79931800  0.03885872  1
  Cs  Cs1  1  0.75000000  0.20068200  0.96114128  1
  Cs  Cs2  1  0.75000000  0.29931800  0.46114128  1
  Cs  Cs3  1  0.25000000  0.70068200  0.53885872  1
  Er  Er4  1  0.25000000  0.45531184  0.24162356  1
  Er  Er5  1  0.75000000  0.54468816  0.75837644  1
  Er  Er6  1  0.75000000  0.95531184  0.25837644  1
  Er  Er7  1  0.25000000  0.04468816  0.74162356  1
  Er  Er8  1  0.25000000  0.15199045  0.24941799  1
  Er  Er9  1  0.75000000  0.84800955  0.75058201  1
  Er  Er10  1  0.75000000  0.65199045  0.25058201  1
  Er  Er11  1  0.25000000  0.34800955  0.74941799  1
  Cl  Cl12  1  0.00934042  0.30263798  0.18099227  1
  Cl  Cl13  1  0.99065958  0.69736202  0.81900773  1
  Cl  Cl14  1  0.99065958  0.80263798  0.31900773  1
  Cl  Cl15  1  0.50934042  0.69736202  0.81900773  1
  Cl  Cl16  1  0.00934042  0.19736202  0.68099227  1
  Cl  Cl17  1  0.49065958  0.30263798  0.18099227  1
  Cl  Cl18  1  0.49065958  0.19736202  0.68099227  1
  Cl  Cl19  1  0.50934042  0.80263798  0.31900773  1
  Cl  Cl20  1  0.00861778  0.56949190  0.12752554  1
  Cl  Cl21  1  0.99138222  0.43050810  0.87247446  1
  Cl  Cl22  1  0.99138222  0.06949190  0.37247446  1
  Cl  Cl23  1  0.50861778  0.43050810  0.87247446  1
  Cl  Cl24  1  0.00861778  0.93050810  0.62752554  1
  Cl  Cl25  1  0.49138222  0.56949190  0.12752554  1
  Cl  Cl26  1  0.49138222  0.93050810  0.62752554  1
  Cl  Cl27  1  0.50861778  0.06949190  0.37247446  1
  Cl  Cl28  1  0.00984521  0.03681705  0.13353502  1
  Cl  Cl29  1  0.99015479  0.96318295  0.86646498  1
  Cl  Cl30  1  0.99015479  0.53681705  0.36646498  1
  Cl  Cl31  1  0.50984521  0.96318295  0.86646498  1
  Cl  Cl32  1  0.00984521  0.46318295  0.63353502  1
  Cl  Cl33  1  0.49015479  0.03681705  0.13353502  1
  Cl  Cl34  1  0.49015479  0.46318295  0.63353502  1
  Cl  Cl35  1  0.50984521  0.53681705  0.36646498  1
  Cl  Cl36  1  0.25000000  0.30548433  0.38997198  1
  Cl  Cl37  1  0.75000000  0.69451567  0.61002802  1
  Cl  Cl38  1  0.75000000  0.80548433  0.11002802  1
  Cl  Cl39  1  0.25000000  0.19451567  0.88997198  1
