# generated using pymatgen
data_RbSb
_symmetry_space_group_name_H-M   'P 1'
_cell_length_a   7.22173281
_cell_length_b   7.46034805
_cell_length_c   12.86726682
_cell_angle_alpha   97.84718788
_cell_angle_beta   90.00000000
_cell_angle_gamma   90.00000000
_symmetry_Int_Tables_number   1
_chemical_formula_structural   RbSb
_chemical_formula_sum   'Rb8 Sb8'
_cell_volume   686.75337282
_cell_formula_units_Z   8
loop_
 _symmetry_equiv_pos_site_id
 _symmetry_equiv_pos_as_xyz
  1  'x, y, z'
loop_
 _atom_site_type_symbol
 _atom_site_label
 _atom_site_symmetry_multiplicity
 _atom_site_fract_x
 _atom_site_fract_y
 _atom_site_fract_z
 _atom_site_occupancy
  Rb  Rb0  1  0.16955362  0.78631433  0.53142131  1
  Rb  Rb1  1  0.66955362  0.71368567  0.96857869  1
  Rb  Rb2  1  0.83044638  0.21368567  0.46857869  1
  Rb  Rb3  1  0.33044638  0.28631433  0.03142131  1
  Rb  Rb4  1  0.40248462  0.38221684  0.66780057  1
  Rb  Rb5  1  0.90248462  0.11778316  0.83219943  1
  Rb  Rb6  1  0.59751538  0.61778316  0.33219943  1
  Rb  Rb7  1  0.09751538  0.88221684  0.16780057  1
  Sb  Sb8  1  0.16990407  0.70237515  0.87055630  1
  Sb  Sb9  1  0.66990407  0.79762485  0.62944370  1
  Sb  Sb10  1  0.83009593  0.29762485  0.12944370  1
  Sb  Sb11  1  0.33009593  0.20237515  0.37055630  1
  Sb  Sb12  1  0.90377059  0.54531903  0.71630891  1
  Sb  Sb13  1  0.40377059  0.95468097  0.78369109  1
  Sb  Sb14  1  0.09622941  0.45468097  0.28369109  1
  Sb  Sb15  1  0.59622941  0.04531903  0.21630891  1
