# generated using pymatgen
data_Y3TaO7
_symmetry_space_group_name_H-M   'P 1'
_cell_length_a   6.41946327
_cell_length_b   6.41946327
_cell_length_c   7.47065815
_cell_angle_alpha   90.00000000
_cell_angle_beta   90.00000000
_cell_angle_gamma   109.59686764
_symmetry_Int_Tables_number   1
_chemical_formula_structural   Y3TaO7
_chemical_formula_sum   'Y6 Ta2 O14'
_cell_volume   290.02948017
_cell_formula_units_Z   2
loop_
 _symmetry_equiv_pos_site_id
 _symmetry_equiv_pos_as_xyz
  1  'x, y, z'
loop_
 _atom_site_type_symbol
 _atom_site_label
 _atom_site_symmetry_multiplicity
 _atom_site_fract_x
 _atom_site_fract_y
 _atom_site_fract_z
 _atom_site_occupancy
  Y  Y0  1  0.50000000  0.50000000  0.50000000  1
  Y  Y1  1  0.50000000  0.50000000  0.00000000  1
  Y  Y2  1  0.53410064  0.00009664  0.75000000  1
  Y  Y3  1  0.00009664  0.53410064  0.25000000  1
  Y  Y4  1  0.46589936  -0.00009664  0.25000000  1
  Y  Y5  1  -0.00009664  0.46589936  0.75000000  1
  Ta  Ta6  1  -0.00000000  -0.00000000  0.50000000  1
  Ta  Ta7  1  -0.00000000  -0.00000000  0.00000000  1
  O  O8  1  0.67799067  0.92734897  0.46822258  1
  O  O9  1  0.92734897  0.67799067  0.53177742  1
  O  O10  1  0.67799067  0.92734897  0.03177742  1
  O  O11  1  0.92734897  0.67799067  0.96822258  1
  O  O12  1  0.32200933  0.07265103  0.53177742  1
  O  O13  1  0.07265103  0.32200933  0.46822258  1
  O  O14  1  0.32200933  0.07265103  0.96822258  1
  O  O15  1  0.07265103  0.32200933  0.03177742  1
  O  O16  1  0.93408635  0.06591365  0.75000000  1
  O  O17  1  0.06591365  0.93408635  0.25000000  1
  O  O18  1  0.37092433  0.62907567  0.75000000  1
  O  O19  1  0.62907567  0.37092433  0.25000000  1
  O  O20  1  0.63781848  0.36218152  0.75000000  1
  O  O21  1  0.36218152  0.63781848  0.25000000  1
