# generated using pymatgen
data_La2(MoO4)3
_symmetry_space_group_name_H-M   'P 1'
_cell_length_a   7.03329582
_cell_length_b   7.03329582
_cell_length_c   12.01765681
_cell_angle_alpha   80.25861127
_cell_angle_beta   80.25861127
_cell_angle_gamma   114.70239876
_symmetry_Int_Tables_number   1
_chemical_formula_structural   La2(MoO4)3
_chemical_formula_sum   'La4 Mo6 O24'
_cell_volume   512.82978288
_cell_formula_units_Z   2
loop_
 _symmetry_equiv_pos_site_id
 _symmetry_equiv_pos_as_xyz
  1  'x, y, z'
loop_
 _atom_site_type_symbol
 _atom_site_label
 _atom_site_symmetry_multiplicity
 _atom_site_fract_x
 _atom_site_fract_y
 _atom_site_fract_z
 _atom_site_occupancy
  La  La0  1  0.20621734  0.45356863  0.59096853  1
  La  La1  1  0.54643137  0.79378266  0.90903147  1
  La  La2  1  0.45356863  0.20621734  0.09096853  1
  La  La3  1  0.79378266  0.54643137  0.40903147  1
  Mo  Mo4  1  0.70907669  0.96340723  0.57453535  1
  Mo  Mo5  1  0.03659277  0.29092331  0.92546465  1
  Mo  Mo6  1  0.37452494  0.62547506  0.25000000  1
  Mo  Mo7  1  0.29092331  0.03659277  0.42546465  1
  Mo  Mo8  1  0.62547506  0.37452494  0.75000000  1
  Mo  Mo9  1  0.96340723  0.70907669  0.07453535  1
  O  O10  1  0.06788452  0.46296313  0.79175166  1
  O  O11  1  0.41552400  0.82450612  0.11991400  1
  O  O12  1  0.71596396  0.16262185  0.46144551  1
  O  O13  1  0.53703687  0.93211548  0.70824834  1
  O  O14  1  0.83737815  0.28403604  0.03855449  1
  O  O15  1  0.17549388  0.58447600  0.38008600  1
  O  O16  1  0.70132371  0.62396779  0.78252355  1
  O  O17  1  0.06887561  0.96809276  0.09965764  1
  O  O18  1  0.38778590  0.30069646  0.45678422  1
  O  O19  1  0.37603221  0.29867629  0.71747645  1
  O  O20  1  0.69930354  0.61221410  0.04321578  1
  O  O21  1  0.03190724  0.93112439  0.40034236  1
  O  O22  1  0.58447600  0.17549388  0.88008600  1
  O  O23  1  0.93211548  0.53703687  0.20824834  1
  O  O24  1  0.28403604  0.83737815  0.53855449  1
  O  O25  1  0.16262185  0.71596396  0.96144551  1
  O  O26  1  0.46296313  0.06788452  0.29175166  1
  O  O27  1  0.82450612  0.41552400  0.61991400  1
  O  O28  1  0.93112439  0.03190724  0.90034236  1
  O  O29  1  0.29867629  0.37603221  0.21747645  1
  O  O30  1  0.61221410  0.69930354  0.54321578  1
  O  O31  1  0.30069646  0.38778590  0.95678422  1
  O  O32  1  0.62396779  0.70132371  0.28252355  1
  O  O33  1  0.96809276  0.06887561  0.59965764  1
