# generated using pymatgen
data_Tl2CrO4
_symmetry_space_group_name_H-M   'P 1'
_cell_length_a   5.83853200
_cell_length_b   7.93679598
_cell_length_c   10.81308441
_cell_angle_alpha   90.00000000
_cell_angle_beta   90.00000000
_cell_angle_gamma   90.00000000
_symmetry_Int_Tables_number   1
_chemical_formula_structural   Tl2CrO4
_chemical_formula_sum   'Tl8 Cr4 O16'
_cell_volume   501.07008449
_cell_formula_units_Z   4
loop_
 _symmetry_equiv_pos_site_id
 _symmetry_equiv_pos_as_xyz
  1  'x, y, z'
loop_
 _atom_site_type_symbol
 _atom_site_label
 _atom_site_symmetry_multiplicity
 _atom_site_fract_x
 _atom_site_fract_y
 _atom_site_fract_z
 _atom_site_occupancy
  Tl  Tl0  1  0.25000000  0.50700483  0.28581864  1
  Tl  Tl1  1  0.75000000  0.49299517  0.71418136  1
  Tl  Tl2  1  0.25000000  0.00700483  0.21418136  1
  Tl  Tl3  1  0.75000000  0.99299517  0.78581864  1
  Tl  Tl4  1  0.25000000  0.32276391  0.92305460  1
  Tl  Tl5  1  0.75000000  0.67723609  0.07694540  1
  Tl  Tl6  1  0.25000000  0.82276391  0.57694540  1
  Tl  Tl7  1  0.75000000  0.17723609  0.42305460  1
  Cr  Cr8  1  0.25000000  0.78697892  0.92402999  1
  Cr  Cr9  1  0.75000000  0.21302108  0.07597001  1
  Cr  Cr10  1  0.25000000  0.28697892  0.57597001  1
  Cr  Cr11  1  0.75000000  0.71302108  0.42402999  1
  O  O12  1  0.51603105  0.29055468  0.14050124  1
  O  O13  1  0.01603105  0.70944532  0.85949876  1
  O  O14  1  0.98396895  0.79055468  0.35949876  1
  O  O15  1  0.48396895  0.20944532  0.64050124  1
  O  O16  1  0.48396895  0.70944532  0.85949876  1
  O  O17  1  0.98396895  0.29055468  0.14050124  1
  O  O18  1  0.01603105  0.20944532  0.64050124  1
  O  O19  1  0.51603105  0.79055468  0.35949876  1
  O  O20  1  0.25000000  0.23288776  0.42760985  1
  O  O21  1  0.75000000  0.76711224  0.57239015  1
  O  O22  1  0.25000000  0.73288776  0.07239015  1
  O  O23  1  0.75000000  0.26711224  0.92760985  1
  O  O24  1  0.75000000  0.50598468  0.41117557  1
  O  O25  1  0.25000000  0.49401532  0.58882443  1
  O  O26  1  0.75000000  0.00598468  0.08882443  1
  O  O27  1  0.25000000  0.99401532  0.91117557  1
