# generated using pymatgen
data_Nd6Ge3Se14
_symmetry_space_group_name_H-M   'P 1'
_cell_length_a   10.66823210
_cell_length_b   10.66830187
_cell_length_c   6.08310093
_cell_angle_alpha   89.99822539
_cell_angle_beta   90.00146875
_cell_angle_gamma   120.00199549
_symmetry_Int_Tables_number   1
_chemical_formula_structural   Nd6Ge3Se14
_chemical_formula_sum   'Nd6 Ge3 Se14'
_cell_volume   599.56279083
_cell_formula_units_Z   1
loop_
 _symmetry_equiv_pos_site_id
 _symmetry_equiv_pos_as_xyz
  1  'x, y, z'
loop_
 _atom_site_type_symbol
 _atom_site_label
 _atom_site_symmetry_multiplicity
 _atom_site_fract_x
 _atom_site_fract_y
 _atom_site_fract_z
 _atom_site_occupancy
  Nd  Nd0  1  0.89535195  0.69036260  0.24470062  1
  Nd  Nd1  1  0.30965128  0.20497820  0.24469002  1
  Nd  Nd2  1  0.79500881  0.10465841  0.24471853  1
  Nd  Nd3  1  0.43746484  0.97500167  0.75078469  1
  Nd  Nd4  1  0.02499594  0.46245301  0.75076058  1
  Nd  Nd5  1  0.53753183  0.56252339  0.75075627  1
  Ge  Ge6  1  -0.00000879  0.00000647  0.82803627  1
  Ge  Ge7  1  0.33334541  0.66668566  0.33629405  1
  Ge  Ge8  1  0.66666590  0.33332716  0.48265753  1
  Se  Se9  1  0.00000098  0.00001982  0.44649025  1
  Se  Se10  1  0.33337260  0.66669098  0.95409282  1
  Se  Se11  1  0.76797901  0.85102268  0.98718949  1
  Se  Se12  1  0.14894477  0.91696300  0.98715744  1
  Se  Se13  1  0.08303437  0.23200797  0.98720895  1
  Se  Se14  1  0.56557891  0.81611454  0.49305776  1
  Se  Se15  1  0.18389947  0.74945215  0.49302019  1
  Se  Se16  1  0.25053980  0.43444346  0.49297905  1
  Se  Se17  1  0.82765651  0.58799465  0.72181321  1
  Se  Se18  1  0.41198655  0.23963802  0.72177450  1
  Se  Se19  1  0.76034161  0.17234469  0.72183067  1
  Se  Se20  1  0.50121002  0.07636376  0.23201709  1
  Se  Se21  1  0.92361233  0.42483241  0.23201329  1
  Se  Se22  1  0.57516890  0.49878232  0.23201172  1
