# generated using pymatgen
data_MgZnH20PtC4(NO3)4
_symmetry_space_group_name_H-M   'P 1'
_cell_length_a   7.47207032
_cell_length_b   8.64833022
_cell_length_c   9.46868841
_cell_angle_alpha   117.17311110
_cell_angle_beta   113.23899935
_cell_angle_gamma   90.00000000
_symmetry_Int_Tables_number   1
_chemical_formula_structural   MgZnH20PtC4(NO3)4
_chemical_formula_sum   'Mg1 Zn1 H20 Pt1 C4 N4 O12'
_cell_volume   487.87600760
_cell_formula_units_Z   1
loop_
 _symmetry_equiv_pos_site_id
 _symmetry_equiv_pos_as_xyz
  1  'x, y, z'
loop_
 _atom_site_type_symbol
 _atom_site_label
 _atom_site_symmetry_multiplicity
 _atom_site_fract_x
 _atom_site_fract_y
 _atom_site_fract_z
 _atom_site_occupancy
  Mg  Mg0  1  0.50000000  0.50000000  -0.00000000  1
  Zn  Zn1  1  0.00000000  0.50000000  -0.00000000  1
  H  H2  1  0.48292554  0.85705270  0.18745840  1
  H  H3  1  0.70453286  0.33040570  0.18745840  1
  H  H4  1  0.29546714  0.14294730  0.81254160  1
  H  H5  1  0.51707446  0.66959430  0.81254160  1
  H  H6  1  0.66013584  0.04510516  0.32150158  1
  H  H7  1  0.66136574  0.27639742  0.32150158  1
  H  H8  1  0.33863426  0.95489484  0.67849842  1
  H  H9  1  0.33986416  0.72360258  0.67849842  1
  H  H10  1  0.70301211  0.85655669  0.18776415  1
  H  H11  1  0.48475305  0.33120746  0.18776415  1
  H  H12  1  0.51524695  0.14344331  0.81223585  1
  H  H13  1  0.29698789  0.66879254  0.81223585  1
  H  H14  1  0.94756338  0.79176920  0.89547117  1
  H  H15  1  0.94790778  0.10370197  0.89547117  1
  H  H16  1  0.05209222  0.20823080  0.10452883  1
  H  H17  1  0.05243662  0.89629803  0.10452883  1
  H  H18  1  0.92099248  0.81568897  0.63205553  1
  H  H19  1  0.71106405  0.81636656  0.63205553  1
  H  H20  1  0.28893595  0.18431103  0.36794447  1
  H  H21  1  0.07900752  0.18363344  0.36794447  1
  Pt  Pt22  1  0.50000000  0.00000000  -0.00000000  1
  C  C23  1  0.92377266  0.31804377  0.63713640  1
  C  C24  1  0.71336375  0.31909263  0.63713640  1
  C  C25  1  0.28663625  0.68195623  0.36286360  1
  C  C26  1  0.07622734  0.68090737  0.36286360  1
  N  N27  1  0.59789816  0.93272917  0.19701955  1
  N  N28  1  0.59912039  0.26429138  0.19701955  1
  N  N29  1  0.40087961  0.06727083  0.80298045  1
  N  N30  1  0.40210184  0.73570862  0.80298045  1
  O  O31  1  0.07533491  0.39333736  0.78946450  1
  O  O32  1  0.71412959  0.39612614  0.78946450  1
  O  O33  1  0.28587041  0.60666264  0.21053550  1
  O  O34  1  0.92466509  0.60387386  0.21053550  1
  O  O35  1  0.92745144  0.24401575  0.48952689  1
  O  O36  1  0.56207545  0.24551214  0.48952689  1
  O  O37  1  0.43792455  0.75598425  0.51047311  1
  O  O38  1  0.07254856  0.75448786  0.51047311  1
  O  O39  1  0.00000000  0.77487025  -0.00000000  1
  O  O40  1  0.00000000  0.22512975  -0.00000000  1
  O  O41  1  0.85606889  0.85606889  0.71213779  1
  O  O42  1  0.14393111  0.14393111  0.28786221  1
