# generated using pymatgen
data_SrMnO3
_symmetry_space_group_name_H-M   'P 1'
_cell_length_a   5.45233120
_cell_length_b   5.45233131
_cell_length_c   9.09318312
_cell_angle_alpha   90.00000347
_cell_angle_beta   89.99999533
_cell_angle_gamma   120.00007155
_symmetry_Int_Tables_number   1
_chemical_formula_structural   SrMnO3
_chemical_formula_sum   'Sr4 Mn4 O12'
_cell_volume   234.10501794
_cell_formula_units_Z   4
loop_
 _symmetry_equiv_pos_site_id
 _symmetry_equiv_pos_as_xyz
  1  'x, y, z'
loop_
 _atom_site_type_symbol
 _atom_site_label
 _atom_site_symmetry_multiplicity
 _atom_site_fract_x
 _atom_site_fract_y
 _atom_site_fract_z
 _atom_site_occupancy
  Sr  Sr0  1  0.33333356  0.66666703  0.24860604  1
  Sr  Sr1  1  0.66666623  0.33333402  0.74860618  1
  Sr  Sr2  1  -0.00000026  0.00000036  0.49783367  1
  Sr  Sr3  1  -0.00000047  -0.00000017  0.99783340  1
  Mn  Mn4  1  0.33333370  0.66666669  0.88570961  1
  Mn  Mn5  1  0.66666650  0.33333292  0.11207563  1
  Mn  Mn6  1  0.66666642  0.33333364  0.38570820  1
  Mn  Mn7  1  0.33333346  0.66666736  0.61207482  1
  O  O8  1  0.50001164  0.49997863  0.49898311  1
  O  O9  1  0.50002112  0.00003343  0.49898296  1
  O  O10  1  -0.00003344  0.49998850  0.49898319  1
  O  O11  1  0.49997805  0.50001246  0.99898336  1
  O  O12  1  0.49998792  -0.00003405  0.99898292  1
  O  O13  1  0.00003390  0.50002208  0.99898288  1
  O  O14  1  0.18109154  0.36219079  0.74894678  1
  O  O15  1  0.63780941  0.81890003  0.74894678  1
  O  O16  1  0.18110048  0.81890869  0.74894690  1
  O  O17  1  0.81889983  0.63780896  0.24894688  1
  O  O18  1  0.36219120  0.18109150  0.24894680  1
  O  O19  1  0.81890821  0.18110014  0.24894690  1
