# generated using pymatgen
data_Ba4NaAl2B8(ClO6)3
_symmetry_space_group_name_H-M   'P 1'
_cell_length_a   6.92182485
_cell_length_b   12.22655458
_cell_length_c   12.22655458
_cell_angle_alpha   90.00000000
_cell_angle_beta   90.00000000
_cell_angle_gamma   90.00000000
_symmetry_Int_Tables_number   1
_chemical_formula_structural   Ba4NaAl2B8(ClO6)3
_chemical_formula_sum   'Ba8 Na2 Al4 B16 Cl6 O36'
_cell_volume   1034.73416167
_cell_formula_units_Z   2
loop_
 _symmetry_equiv_pos_site_id
 _symmetry_equiv_pos_as_xyz
  1  'x, y, z'
loop_
 _atom_site_type_symbol
 _atom_site_label
 _atom_site_symmetry_multiplicity
 _atom_site_fract_x
 _atom_site_fract_y
 _atom_site_fract_z
 _atom_site_occupancy
  Ba  Ba0  1  0.72131338  0.77790932  0.48294022  1
  Ba  Ba1  1  0.72131338  0.22209068  0.51705978  1
  Ba  Ba2  1  0.22131338  0.27790932  0.01705978  1
  Ba  Ba3  1  0.22131338  0.72209068  0.98294022  1
  Ba  Ba4  1  0.72131338  0.51705978  0.22209068  1
  Ba  Ba5  1  0.72131338  0.48294022  0.77790932  1
  Ba  Ba6  1  0.22131338  0.01705978  0.27790932  1
  Ba  Ba7  1  0.22131338  0.98294022  0.72209068  1
  Na  Na8  1  0.39389509  0.50000000  0.50000000  1
  Na  Na9  1  0.89389509  -0.00000000  -0.00000000  1
  Al  Al10  1  0.71364330  0.79745505  0.79745505  1
  Al  Al11  1  0.71364330  0.20254495  0.20254495  1
  Al  Al12  1  0.21364330  0.29745505  0.70254495  1
  Al  Al13  1  0.21364330  0.70254495  0.29745505  1
  B  B14  1  0.08665918  0.73292954  0.73292954  1
  B  B15  1  0.08665918  0.26707046  0.26707046  1
  B  B16  1  0.58665918  0.23292954  0.76707046  1
  B  B17  1  0.58665918  0.76707046  0.23292954  1
  B  B18  1  0.41785234  0.68443743  0.68443743  1
  B  B19  1  0.41785234  0.31556257  0.31556257  1
  B  B20  1  0.91785234  0.18443743  0.81556257  1
  B  B21  1  0.91785234  0.81556257  0.18443743  1
  B  B22  1  0.68231137  0.76646096  0.03429958  1
  B  B23  1  0.68231137  0.23353904  0.96570042  1
  B  B24  1  0.18231137  0.26646096  0.46570042  1
  B  B25  1  0.18231137  0.73353904  0.53429958  1
  B  B26  1  0.68231137  0.96570042  0.23353904  1
  B  B27  1  0.68231137  0.03429958  0.76646096  1
  B  B28  1  0.18231137  0.46570042  0.26646096  1
  B  B29  1  0.18231137  0.53429958  0.73353904  1
  Cl  Cl30  1  0.78118538  0.50000000  0.50000000  1
  Cl  Cl31  1  0.28118538  -0.00000000  -0.00000000  1
  Cl  Cl32  1  0.94892791  -0.00000000  0.50000000  1
  Cl  Cl33  1  0.44892791  0.50000000  0.00000000  1
  Cl  Cl34  1  0.94892791  0.50000000  0.00000000  1
  Cl  Cl35  1  0.44892791  -0.00000000  0.50000000  1
  O  O36  1  0.04659407  0.75646740  0.61428656  1
  O  O37  1  0.04659407  0.24353260  0.38571344  1
  O  O38  1  0.54659407  0.25646740  0.88571344  1
  O  O39  1  0.54659407  0.74353260  0.11428656  1
  O  O40  1  0.04659407  0.38571344  0.24353260  1
  O  O41  1  0.04659407  0.61428656  0.75646740  1
  O  O42  1  0.54659407  0.88571344  0.25646740  1
  O  O43  1  0.54659407  0.11428656  0.74353260  1
  O  O44  1  0.36867093  0.70197220  0.56352519  1
  O  O45  1  0.36867093  0.29802780  0.43647481  1
  O  O46  1  0.86867093  0.20197220  0.93647481  1
  O  O47  1  0.86867093  0.79802780  0.06352519  1
  O  O48  1  0.36867093  0.43647481  0.29802780  1
  O  O49  1  0.36867093  0.56352519  0.70197220  1
  O  O50  1  0.86867093  0.93647481  0.20197220  1
  O  O51  1  0.86867093  0.06352519  0.79802780  1
  O  O52  1  0.96998735  0.80184129  0.80184129  1
  O  O53  1  0.96998735  0.19815871  0.19815871  1
  O  O54  1  0.46998735  0.30184129  0.69815871  1
  O  O55  1  0.46998735  0.69815871  0.30184129  1
  O  O56  1  0.62149954  0.70162273  0.70162273  1
  O  O57  1  0.62149954  0.29837727  0.29837727  1
  O  O58  1  0.12149954  0.20162273  0.79837727  1
  O  O59  1  0.12149954  0.79837727  0.20162273  1
  O  O60  1  0.29458124  0.75367948  0.75367948  1
  O  O61  1  0.29458124  0.24632052  0.24632052  1
  O  O62  1  0.79458124  0.25367948  0.74632052  1
  O  O63  1  0.79458124  0.74632052  0.25367948  1
  O  O64  1  0.62442470  0.76099816  0.92821334  1
  O  O65  1  0.62442470  0.23900184  0.07178666  1
  O  O66  1  0.12442470  0.26099816  0.57178666  1
  O  O67  1  0.12442470  0.73900184  0.42821334  1
  O  O68  1  0.62442470  0.07178666  0.23900184  1
  O  O69  1  0.62442470  0.92821334  0.76099816  1
  O  O70  1  0.12442470  0.57178666  0.26099816  1
  O  O71  1  0.12442470  0.42821334  0.73900184  1
