# generated using pymatgen
data_Cs3InP2
_symmetry_space_group_name_H-M   'P 1'
_cell_length_a   9.76077191
_cell_length_b   12.99561632
_cell_length_c   15.97961884
_cell_angle_alpha   81.06012642
_cell_angle_beta   81.41061738
_cell_angle_gamma   70.54430420
_symmetry_Int_Tables_number   1
_chemical_formula_structural   Cs3InP2
_chemical_formula_sum   'Cs24 In8 P16'
_cell_volume   1877.61978945
_cell_formula_units_Z   8
loop_
 _symmetry_equiv_pos_site_id
 _symmetry_equiv_pos_as_xyz
  1  'x, y, z'
loop_
 _atom_site_type_symbol
 _atom_site_label
 _atom_site_symmetry_multiplicity
 _atom_site_fract_x
 _atom_site_fract_y
 _atom_site_fract_z
 _atom_site_occupancy
  Cs  Cs0  1  0.95723032  0.51479310  0.79917373  1
  Cs  Cs1  1  0.04276968  0.48520690  0.20082627  1
  Cs  Cs2  1  0.58795106  0.01608450  0.18943324  1
  Cs  Cs3  1  0.41204894  0.98391550  0.81056676  1
  Cs  Cs4  1  0.59469133  0.66579816  0.18047045  1
  Cs  Cs5  1  0.40530867  0.33420184  0.81952955  1
  Cs  Cs6  1  0.85208037  0.76605011  0.32459075  1
  Cs  Cs7  1  0.14791963  0.23394989  0.67540925  1
  Cs  Cs8  1  0.46206093  0.35215810  0.08599574  1
  Cs  Cs9  1  0.53793907  0.64784190  0.91400426  1
  Cs  Cs10  1  0.21414385  0.96252087  0.24800423  1
  Cs  Cs11  1  0.78585615  0.03747913  0.75199577  1
  Cs  Cs12  1  0.77907606  0.30841070  0.88432327  1
  Cs  Cs13  1  0.22092394  0.69158930  0.11567673  1
  Cs  Cs14  1  0.88717570  0.16650258  0.51622058  1
  Cs  Cs15  1  0.11282430  0.83349742  0.48377942  1
  Cs  Cs16  1  0.72966656  0.77092731  0.64535090  1
  Cs  Cs17  1  0.27033344  0.22907269  0.35464910  1
  Cs  Cs18  1  0.52351483  0.63440866  0.45862329  1
  Cs  Cs19  1  0.47648517  0.36559134  0.54137671  1
  Cs  Cs20  1  0.76101113  0.33065446  0.26527241  1
  Cs  Cs21  1  0.23898887  0.66934554  0.73472759  1
  Cs  Cs22  1  0.93733073  0.10071054  0.08488394  1
  Cs  Cs23  1  0.06266927  0.89928946  0.91511606  1
  In  In24  1  0.08326182  0.35572135  0.00940844  1
  In  In25  1  0.91673818  0.64427865  0.99059156  1
  In  In26  1  0.33640490  0.10581495  0.01270303  1
  In  In27  1  0.66359510  0.89418505  0.98729697  1
  In  In28  1  0.63960334  0.02339725  0.43800173  1
  In  In29  1  0.36039666  0.97660275  0.56199827  1
  In  In30  1  0.13565407  0.51371347  0.42718040  1
  In  In31  1  0.86434593  0.48628653  0.57281960  1
  P  P32  1  0.60686682  0.10904095  0.96125639  1
  P  P33  1  0.39313318  0.89095905  0.03874361  1
  P  P34  1  0.53461438  0.07911204  0.58631206  1
  P  P35  1  0.46538562  0.92088796  0.41368794  1
  P  P36  1  0.14396799  0.20780221  0.90172694  1
  P  P37  1  0.85603201  0.79219779  0.09827306  1
  P  P38  1  0.80876152  0.47557976  0.03882965  1
  P  P39  1  0.19123848  0.52442024  0.96117035  1
  P  P40  1  0.19863056  0.21868875  0.14103773  1
  P  P41  1  0.80136944  0.78131125  0.85896227  1
  P  P42  1  0.91106507  0.45114639  0.41743218  1
  P  P43  1  0.08893493  0.54885361  0.58256782  1
  P  P44  1  0.84877378  0.04263498  0.34100000  1
  P  P45  1  0.15122622  0.95736502  0.65900000  1
  P  P46  1  0.34190892  0.51773485  0.32076090  1
  P  P47  1  0.65809108  0.48226515  0.67923910  1
