# generated using pymatgen
data_KLiMg6O7
_symmetry_space_group_name_H-M   'P 1'
_cell_length_a   8.77227129
_cell_length_b   4.46968578
_cell_length_c   4.46968578
_cell_angle_alpha   90.00000000
_cell_angle_beta   90.00000000
_cell_angle_gamma   90.00000000
_symmetry_Int_Tables_number   1
_chemical_formula_structural   KLiMg6O7
_chemical_formula_sum   'K1 Li1 Mg6 O7'
_cell_volume   175.25323386
_cell_formula_units_Z   1
loop_
 _symmetry_equiv_pos_site_id
 _symmetry_equiv_pos_as_xyz
  1  'x, y, z'
loop_
 _atom_site_type_symbol
 _atom_site_label
 _atom_site_symmetry_multiplicity
 _atom_site_fract_x
 _atom_site_fract_y
 _atom_site_fract_z
 _atom_site_occupancy
  K  K0  1  0.99119467  0.00000000  0.00000000  1
  Li  Li1  1  0.98385378  0.50000000  0.50000000  1
  Mg  Mg2  1  0.49495752  0.00000000  0.00000000  1
  Mg  Mg3  1  0.52256568  0.50000000  0.50000000  1
  Mg  Mg4  1  0.24370905  0.00000000  0.50000000  1
  Mg  Mg5  1  0.76270699  0.00000000  0.50000000  1
  Mg  Mg6  1  0.24370905  0.50000000  0.00000000  1
  Mg  Mg7  1  0.76270699  0.50000000  -0.00000000  1
  O  O8  1  0.27074189  0.00000000  0.00000000  1
  O  O9  1  0.71894723  0.00000000  0.00000000  1
  O  O10  1  0.74883293  0.50000000  0.50000000  1
  O  O11  1  0.01957898  0.00000000  0.50000000  1
  O  O12  1  0.48345813  0.00000000  0.50000000  1
  O  O13  1  0.01957898  0.50000000  0.00000000  1
  O  O14  1  0.48345813  0.50000000  0.00000000  1
