# generated using pymatgen
data_Sr3(SnAs2)2
_symmetry_space_group_name_H-M   'P 1'
_cell_length_a   19.32223218
_cell_length_b   7.76475028
_cell_length_c   7.76350853
_cell_angle_alpha   68.01667872
_cell_angle_beta   90.00000000
_cell_angle_gamma   90.00000000
_symmetry_Int_Tables_number   1
_chemical_formula_structural   Sr3(SnAs2)2
_chemical_formula_sum   'Sr12 Sn8 As16'
_cell_volume   1080.08949245
_cell_formula_units_Z   4
loop_
 _symmetry_equiv_pos_site_id
 _symmetry_equiv_pos_as_xyz
  1  'x, y, z'
loop_
 _atom_site_type_symbol
 _atom_site_label
 _atom_site_symmetry_multiplicity
 _atom_site_fract_x
 _atom_site_fract_y
 _atom_site_fract_z
 _atom_site_occupancy
  Sr  Sr0  1  0.81767813  0.78859324  0.00964264  1
  Sr  Sr1  1  0.31767813  0.21140676  0.49035736  1
  Sr  Sr2  1  0.18232187  0.21140676  0.99035736  1
  Sr  Sr3  1  0.68232187  0.78859324  0.50964264  1
  Sr  Sr4  1  0.56009245  0.74140285  0.01095337  1
  Sr  Sr5  1  0.06009245  0.25859715  0.48904663  1
  Sr  Sr6  1  0.43990755  0.25859715  0.98904663  1
  Sr  Sr7  1  0.93990755  0.74140285  0.51095337  1
  Sr  Sr8  1  0.06155113  0.73684810  0.00499556  1
  Sr  Sr9  1  0.56155113  0.26315190  0.49500444  1
  Sr  Sr10  1  0.93844887  0.26315190  0.99500444  1
  Sr  Sr11  1  0.43844887  0.73684810  0.50499556  1
  Sn  Sn12  1  0.37735277  0.79228683  0.02828849  1
  Sn  Sn13  1  0.87735277  0.20771317  0.47171151  1
  Sn  Sn14  1  0.62264723  0.20771317  0.97171151  1
  Sn  Sn15  1  0.12264723  0.79228683  0.52828849  1
  Sn  Sn16  1  0.24357685  0.67864362  0.41011564  1
  Sn  Sn17  1  0.74357685  0.32135638  0.08988436  1
  Sn  Sn18  1  0.75642315  0.32135638  0.58988436  1
  Sn  Sn19  1  0.25642315  0.67864362  0.91011564  1
  As  As20  1  0.55477634  0.99620703  0.25816998  1
  As  As21  1  0.05477634  0.00379297  0.24183002  1
  As  As22  1  0.44522366  0.00379297  0.74183002  1
  As  As23  1  0.94522366  0.99620703  0.75816998  1
  As  As24  1  0.31725389  0.97505022  0.22199376  1
  As  As25  1  0.81725389  0.02494978  0.27800624  1
  As  As26  1  0.68274611  0.02494978  0.77800624  1
  As  As27  1  0.18274611  0.97505022  0.72199376  1
  As  As28  1  0.43648456  0.49194913  0.25239649  1
  As  As29  1  0.93648456  0.50805087  0.24760351  1
  As  As30  1  0.56351544  0.50805087  0.74760351  1
  As  As31  1  0.06351544  0.49194913  0.75239649  1
  As  As32  1  0.19509065  0.47485643  0.22732174  1
  As  As33  1  0.69509065  0.52514357  0.27267826  1
  As  As34  1  0.80490935  0.52514357  0.77267826  1
  As  As35  1  0.30490935  0.47485643  0.72732174  1
