# generated using pymatgen
data_KSi
_symmetry_space_group_name_H-M   'P 1'
_cell_length_a   10.58677164
_cell_length_b   10.58677164
_cell_length_c   11.40849226
_cell_angle_alpha   117.64465235
_cell_angle_beta   117.64465235
_cell_angle_gamma   90.00000000
_symmetry_Int_Tables_number   1
_chemical_formula_structural   KSi
_chemical_formula_sum   'K16 Si16'
_cell_volume   964.88743638
_cell_formula_units_Z   16
loop_
 _symmetry_equiv_pos_site_id
 _symmetry_equiv_pos_as_xyz
  1  'x, y, z'
loop_
 _atom_site_type_symbol
 _atom_site_label
 _atom_site_symmetry_multiplicity
 _atom_site_fract_x
 _atom_site_fract_y
 _atom_site_fract_z
 _atom_site_occupancy
  K  K0  1  0.25000000  0.39297332  0.00000000  1
  K  K1  1  0.25000000  0.89297332  0.00000000  1
  K  K2  1  0.10702668  0.75000000  0.50000000  1
  K  K3  1  0.89297332  0.25000000  0.50000000  1
  K  K4  1  0.75000000  0.60702668  -0.00000000  1
  K  K5  1  0.75000000  0.10702668  -0.00000000  1
  K  K6  1  0.60702668  0.75000000  0.50000000  1
  K  K7  1  0.39297332  0.25000000  0.50000000  1
  K  K8  1  0.75339771  0.24660229  0.75000000  1
  K  K9  1  0.49660229  0.74660229  0.75000000  1
  K  K10  1  0.00339771  0.99660229  0.25000000  1
  K  K11  1  0.74660229  0.49660229  0.25000000  1
  K  K12  1  0.24660229  0.75339771  0.25000000  1
  K  K13  1  0.50339771  0.25339771  0.25000000  1
  K  K14  1  0.99660229  0.00339771  0.75000000  1
  K  K15  1  0.25339771  0.50339771  0.75000000  1
  Si  Si16  1  0.27141732  0.48500271  0.34838874  1
  Si  Si17  1  0.57697143  0.98500271  0.34838874  1
  Si  Si18  1  0.36338703  0.07697143  0.84838874  1
  Si  Si19  1  0.98500271  0.57697143  0.84838874  1
  Si  Si20  1  0.72858268  0.51499729  0.65161126  1
  Si  Si21  1  0.42302857  0.01499729  0.65161126  1
  Si  Si22  1  0.63661297  0.92302857  0.15161126  1
  Si  Si23  1  0.01499729  0.42302857  0.15161126  1
  Si  Si24  1  0.77141732  0.86338703  0.34838874  1
  Si  Si25  1  0.07697143  0.36338703  0.34838874  1
  Si  Si26  1  0.86338703  0.77141732  0.84838874  1
  Si  Si27  1  0.48500271  0.27141732  0.84838874  1
  Si  Si28  1  0.22858268  0.13661297  0.65161126  1
  Si  Si29  1  0.92302857  0.63661297  0.65161126  1
  Si  Si30  1  0.13661297  0.22858268  0.15161126  1
  Si  Si31  1  0.51499729  0.72858268  0.15161126  1
