# generated using pymatgen
data_GdTiClO3
_symmetry_space_group_name_H-M   'P 1'
_cell_length_a   5.26079883
_cell_length_b   5.26079883
_cell_length_c   10.00018497
_cell_angle_alpha   74.47252882
_cell_angle_beta   74.47252882
_cell_angle_gamma   43.73306799
_symmetry_Int_Tables_number   1
_chemical_formula_structural   GdTiClO3
_chemical_formula_sum   'Gd2 Ti2 Cl2 O6'
_cell_volume   183.19504540
_cell_formula_units_Z   2
loop_
 _symmetry_equiv_pos_site_id
 _symmetry_equiv_pos_as_xyz
  1  'x, y, z'
loop_
 _atom_site_type_symbol
 _atom_site_label
 _atom_site_symmetry_multiplicity
 _atom_site_fract_x
 _atom_site_fract_y
 _atom_site_fract_z
 _atom_site_occupancy
  Gd  Gd0  1  0.27982895  0.27982895  0.20368712  1
  Gd  Gd1  1  0.72017105  0.72017105  0.79631288  1
  Ti  Ti2  1  0.87983360  0.87983360  0.43325758  1
  Ti  Ti3  1  0.12016640  0.12016640  0.56674242  1
  Cl  Cl4  1  0.61222765  0.61222765  0.09711665  1
  Cl  Cl5  1  0.38777235  0.38777235  0.90288335  1
  O  O6  1  0.85088812  0.85088812  0.25601105  1
  O  O7  1  0.14911188  0.14911188  0.74398895  1
  O  O8  1  0.66773536  0.66773536  0.56224527  1
  O  O9  1  0.33226464  0.33226464  0.43775473  1
  O  O10  1  0.92208156  0.92208156  0.62216173  1
  O  O11  1  0.07791844  0.07791844  0.37783827  1
