# generated using pymatgen
data_Y3TaO7
_symmetry_space_group_name_H-M   'P 1'
_cell_length_a   6.44925603
_cell_length_b   6.44925603
_cell_length_c   7.43658817
_cell_angle_alpha   90.00000000
_cell_angle_beta   90.00000000
_cell_angle_gamma   108.90163995
_symmetry_Int_Tables_number   1
_chemical_formula_structural   Y3TaO7
_chemical_formula_sum   'Y6 Ta2 O14'
_cell_volume   292.63012543
_cell_formula_units_Z   2
loop_
 _symmetry_equiv_pos_site_id
 _symmetry_equiv_pos_as_xyz
  1  'x, y, z'
loop_
 _atom_site_type_symbol
 _atom_site_label
 _atom_site_symmetry_multiplicity
 _atom_site_fract_x
 _atom_site_fract_y
 _atom_site_fract_z
 _atom_site_occupancy
  Y  Y0  1  0.99975206  0.53455899  0.24217329  1
  Y  Y1  1  0.00024794  0.46544101  0.74217329  1
  Y  Y2  1  0.53455899  0.99975206  0.75782671  1
  Y  Y3  1  0.46544101  0.00024794  0.25782671  1
  Y  Y4  1  0.46885231  0.46885231  -0.00000000  1
  Y  Y5  1  0.53114769  0.53114769  0.50000000  1
  Ta  Ta6  1  0.99829302  0.99829302  -0.00000000  1
  Ta  Ta7  1  0.00170698  0.00170698  0.50000000  1
  O  O8  1  0.93309688  0.06690312  0.75000000  1
  O  O9  1  0.06690312  0.93309688  0.25000000  1
  O  O10  1  0.36063610  0.63936390  0.25000000  1
  O  O11  1  0.63936390  0.36063610  0.75000000  1
  O  O12  1  0.37111602  0.62888398  0.75000000  1
  O  O13  1  0.62888398  0.37111602  0.25000000  1
  O  O14  1  0.32786419  0.08185693  0.97566653  1
  O  O15  1  0.67213581  0.91814307  0.47566653  1
  O  O16  1  0.30970551  0.05287952  0.54208580  1
  O  O17  1  0.69029449  0.94712048  0.04208580  1
  O  O18  1  0.05287952  0.30970551  0.45791420  1
  O  O19  1  0.94712048  0.69029449  0.95791420  1
  O  O20  1  0.91814307  0.67213581  0.52433347  1
  O  O21  1  0.08185693  0.32786419  0.02433347  1
