# generated using pymatgen
data_SrS2
_symmetry_space_group_name_H-M   'P 1'
_cell_length_a   5.79495596
_cell_length_b   5.79495632
_cell_length_c   5.79495654
_cell_angle_alpha   96.68660997
_cell_angle_beta   116.21754758
_cell_angle_gamma   116.21755093
_symmetry_Int_Tables_number   1
_chemical_formula_structural   SrS2
_chemical_formula_sum   'Sr2 S4'
_cell_volume   144.40716119
_cell_formula_units_Z   2
loop_
 _symmetry_equiv_pos_site_id
 _symmetry_equiv_pos_as_xyz
  1  'x, y, z'
loop_
 _atom_site_type_symbol
 _atom_site_label
 _atom_site_symmetry_multiplicity
 _atom_site_fract_x
 _atom_site_fract_y
 _atom_site_fract_z
 _atom_site_occupancy
  Sr  Sr0  1  0.00000000  0.75000000  0.75000000  1
  Sr  Sr1  1  0.00000000  0.25000000  0.25000000  1
  S  S2  1  0.25692364  0.37846182  0.87846182  1
  S  S3  1  0.50000000  0.87846182  0.62153818  1
  S  S4  1  0.74307636  0.62153818  0.12153818  1
  S  S5  1  0.50000000  0.12153818  0.37846182  1
