# generated using pymatgen
data_NaSbSe2
_symmetry_space_group_name_H-M   'P 1'
_cell_length_a   7.40243912
_cell_length_b   7.40243912
_cell_length_c   7.40243897
_cell_angle_alpha   32.28874778
_cell_angle_beta   32.28874778
_cell_angle_gamma   32.28874454
_symmetry_Int_Tables_number   1
_chemical_formula_structural   NaSbSe2
_chemical_formula_sum   'Na1 Sb1 Se2'
_cell_volume   102.88752123
_cell_formula_units_Z   1
loop_
 _symmetry_equiv_pos_site_id
 _symmetry_equiv_pos_as_xyz
  1  'x, y, z'
loop_
 _atom_site_type_symbol
 _atom_site_label
 _atom_site_symmetry_multiplicity
 _atom_site_fract_x
 _atom_site_fract_y
 _atom_site_fract_z
 _atom_site_occupancy
  Na  Na0  1  0.00000000  -0.00000000  -0.00000000  1
  Sb  Sb1  1  0.50000000  0.50000000  0.50000000  1
  Se  Se2  1  0.24498682  0.24498682  0.24498682  1
  Se  Se3  1  0.75501318  0.75501318  0.75501318  1
