# generated using pymatgen
data_LiMg14BiO16
_symmetry_space_group_name_H-M   'P 1'
_cell_length_a   8.56367343
_cell_length_b   8.55077485
_cell_length_c   4.31267272
_cell_angle_alpha   90.00000000
_cell_angle_beta   90.00000000
_cell_angle_gamma   90.00000000
_symmetry_Int_Tables_number   1
_chemical_formula_structural   LiMg14BiO16
_chemical_formula_sum   'Li1 Mg14 Bi1 O16'
_cell_volume   315.79995972
_cell_formula_units_Z   1
loop_
 _symmetry_equiv_pos_site_id
 _symmetry_equiv_pos_as_xyz
  1  'x, y, z'
loop_
 _atom_site_type_symbol
 _atom_site_label
 _atom_site_symmetry_multiplicity
 _atom_site_fract_x
 _atom_site_fract_y
 _atom_site_fract_z
 _atom_site_occupancy
  Li  Li0  1  0.00000000  0.00000000  -0.00000000  1
  Mg  Mg1  1  0.50000000  0.00000000  -0.00000000  1
  Mg  Mg2  1  0.50000000  0.50000000  -0.00000000  1
  Mg  Mg3  1  0.00000000  0.22873496  0.50000000  1
  Mg  Mg4  1  0.00000000  0.77126504  0.50000000  1
  Mg  Mg5  1  0.50000000  0.24504700  0.50000000  1
  Mg  Mg6  1  0.50000000  0.75495300  0.50000000  1
  Mg  Mg7  1  0.24524358  0.00000000  0.50000000  1
  Mg  Mg8  1  0.26387152  0.50000000  0.50000000  1
  Mg  Mg9  1  0.75475642  0.00000000  0.50000000  1
  Mg  Mg10  1  0.73612848  0.50000000  0.50000000  1
  Mg  Mg11  1  0.25404010  0.23636043  -0.00000000  1
  Mg  Mg12  1  0.25404010  0.76363957  -0.00000000  1
  Mg  Mg13  1  0.74595990  0.23636043  0.00000000  1
  Mg  Mg14  1  0.74595990  0.76363957  0.00000000  1
  Bi  Bi15  1  0.00000000  0.50000000  -0.00000000  1
  O  O16  1  0.26215893  0.00000000  -0.00000000  1
  O  O17  1  0.26818641  0.50000000  -0.00000000  1
  O  O18  1  0.73784107  0.00000000  -0.00000000  1
  O  O19  1  0.73181359  0.50000000  -0.00000000  1
  O  O20  1  0.24885651  0.25214149  0.50000000  1
  O  O21  1  0.24885651  0.74785851  0.50000000  1
  O  O22  1  0.75114349  0.25214149  0.50000000  1
  O  O23  1  0.75114349  0.74785851  0.50000000  1
  O  O24  1  0.00000000  0.00000000  0.50000000  1
  O  O25  1  0.00000000  0.50000000  0.50000000  1
  O  O26  1  0.50000000  0.00000000  0.50000000  1
  O  O27  1  0.50000000  0.50000000  0.50000000  1
  O  O28  1  0.00000000  0.23293042  -0.00000000  1
  O  O29  1  0.00000000  0.76706958  0.00000000  1
  O  O30  1  0.50000000  0.24943570  -0.00000000  1
  O  O31  1  0.50000000  0.75056430  0.00000000  1
