# generated using pymatgen
data_MgMn8(SO3)8
_symmetry_space_group_name_H-M   'P 1'
_cell_length_a   5.47694457
_cell_length_b   8.52889922
_cell_length_c   12.98032055
_cell_angle_alpha   88.95057656
_cell_angle_beta   89.73071943
_cell_angle_gamma   101.44038684
_symmetry_Int_Tables_number   1
_chemical_formula_structural   MgMn8(SO3)8
_chemical_formula_sum   'Mg1 Mn8 S8 O24'
_cell_volume   594.17255561
_cell_formula_units_Z   1
loop_
 _symmetry_equiv_pos_site_id
 _symmetry_equiv_pos_as_xyz
  1  'x, y, z'
loop_
 _atom_site_type_symbol
 _atom_site_label
 _atom_site_symmetry_multiplicity
 _atom_site_fract_x
 _atom_site_fract_y
 _atom_site_fract_z
 _atom_site_occupancy
  Mg  Mg0  1  0.62410125  0.99164709  0.99712743  1
  Mn  Mn1  1  0.35176744  0.61025346  0.91447742  1
  Mn  Mn2  1  0.66920679  0.88295509  0.42960234  1
  Mn  Mn3  1  0.67883243  0.39580817  0.08534495  1
  Mn  Mn4  1  0.33481924  0.11935120  0.57182436  1
  Mn  Mn5  1  0.10928521  0.18631749  0.25743944  1
  Mn  Mn6  1  0.89387395  0.32329187  0.75033511  1
  Mn  Mn7  1  0.88250061  0.81891464  0.74311481  1
  Mn  Mn8  1  0.11108356  0.67532943  0.25017356  1
  S  S9  1  0.49223786  0.49209424  0.68384536  1
  S  S10  1  0.51956796  0.01876267  0.20222967  1
  S  S11  1  0.51774074  0.51438100  0.31893709  1
  S  S12  1  0.45685549  0.97764532  0.79597239  1
  S  S13  1  0.08151831  0.73789241  0.50974512  1
  S  S14  1  0.93885597  0.75391336  0.01312867  1
  S  S15  1  0.91953830  0.26111877  0.49031676  1
  S  S16  1  0.09676461  0.24756531  0.99114523  1
  O  O17  1  0.72594162  0.03306966  0.28576830  1
  O  O18  1  0.28460842  0.46375546  0.76920959  1
  O  O19  1  0.24606965  0.97774639  0.71321462  1
  O  O20  1  0.72443763  0.52910237  0.23342410  1
  O  O21  1  0.34404712  0.37513745  0.99310123  1
  O  O22  1  0.68439115  0.12548203  0.49424258  1
  O  O23  1  0.68833570  0.62862206  0.01005992  1
  O  O24  1  0.31615497  0.87383143  0.50647022  1
  O  O25  1  0.92798687  0.33385736  0.92344661  1
  O  O26  1  0.10960938  0.18419396  0.42779688  1
  O  O27  1  0.10726362  0.66074549  0.07804675  1
  O  O28  1  0.88673811  0.81218214  0.57079729  1
  O  O29  1  0.70534459  0.06112623  0.74406110  1
  O  O30  1  0.26892514  0.44525086  0.26267180  1
  O  O31  1  0.26478415  0.94450832  0.25195051  1
  O  O32  1  0.73865561  0.55548638  0.74468769  1
  O  O33  1  0.04920596  0.75134615  0.90247949  1
  O  O34  1  0.96585670  0.73897506  0.40041298  1
  O  O35  1  0.97811630  0.25675884  0.10186810  1
  O  O36  1  0.03813512  0.26036415  0.59877857  1
  O  O37  1  0.49699590  0.80048362  0.79452039  1
  O  O38  1  0.47487084  0.68777337  0.33208908  1
  O  O39  1  0.48080645  0.19296823  0.18571588  1
  O  O40  1  0.54035929  0.32342946  0.66000960  1
