# generated using pymatgen
data_SnPS3
_symmetry_space_group_name_H-M   'P 1'
_cell_length_a   7.57141576
_cell_length_b   6.59656698
_cell_length_c   11.85949965
_cell_angle_alpha   56.10713323
_cell_angle_beta   90.00000000
_cell_angle_gamma   90.00000000
_symmetry_Int_Tables_number   1
_chemical_formula_structural   SnPS3
_chemical_formula_sum   'Sn4 P4 S12'
_cell_volume   491.67970928
_cell_formula_units_Z   4
loop_
 _symmetry_equiv_pos_site_id
 _symmetry_equiv_pos_as_xyz
  1  'x, y, z'
loop_
 _atom_site_type_symbol
 _atom_site_label
 _atom_site_symmetry_multiplicity
 _atom_site_fract_x
 _atom_site_fract_y
 _atom_site_fract_z
 _atom_site_occupancy
  Sn  Sn0  1  0.13618921  0.74468213  0.55745666  1
  Sn  Sn1  1  0.86381079  0.74468213  0.05745666  1
  Sn  Sn2  1  0.39582960  0.20372869  0.04049220  1
  Sn  Sn3  1  0.60417040  0.20372869  0.54049220  1
  P  P4  1  0.64450796  0.87592171  0.31140675  1
  P  P5  1  0.35549204  0.87592171  0.81140675  1
  P  P6  1  0.86327948  0.12459031  0.18191414  1
  P  P7  1  0.13672052  0.12459031  0.68191414  1
  S  S8  1  0.43097844  0.71613197  0.71312064  1
  S  S9  1  0.56902156  0.71613197  0.21312064  1
  S  S10  1  0.55092731  0.10358817  0.79029340  1
  S  S11  1  0.44907269  0.10358817  0.29029340  1
  S  S12  1  0.24803580  0.34678909  0.49689725  1
  S  S13  1  0.75196420  0.34678909  0.99689725  1
  S  S14  1  0.04749543  0.29875714  0.76695946  1
  S  S15  1  0.95250457  0.29875714  0.26695946  1
  S  S16  1  0.95037712  0.89290687  0.69312509  1
  S  S17  1  0.04962288  0.89290687  0.19312509  1
  S  S18  1  0.26786932  0.64780393  0.00163541  1
  S  S19  1  0.73213068  0.64780393  0.50163541  1
