# generated using pymatgen
data_K2MgZn4P4(HO8)2
_symmetry_space_group_name_H-M   'P 1'
_cell_length_a   5.37779312
_cell_length_b   9.19385116
_cell_length_c   10.29439959
_cell_angle_alpha   103.71603470
_cell_angle_beta   93.85816254
_cell_angle_gamma   109.15335122
_symmetry_Int_Tables_number   1
_chemical_formula_structural   K2MgZn4P4(HO8)2
_chemical_formula_sum   'K2 Mg1 Zn4 P4 H2 O16'
_cell_volume   461.22158012
_cell_formula_units_Z   1
loop_
 _symmetry_equiv_pos_site_id
 _symmetry_equiv_pos_as_xyz
  1  'x, y, z'
loop_
 _atom_site_type_symbol
 _atom_site_label
 _atom_site_symmetry_multiplicity
 _atom_site_fract_x
 _atom_site_fract_y
 _atom_site_fract_z
 _atom_site_occupancy
  K  K0  1  0.54024097  0.68740609  0.74303279  1
  K  K1  1  0.43662628  0.29837252  0.26955361  1
  Mg  Mg2  1  0.02826284  0.55171187  0.48405025  1
  Zn  Zn3  1  0.19300189  0.63156588  0.20684377  1
  Zn  Zn4  1  0.78999893  0.36928451  0.78564486  1
  Zn  Zn5  1  0.69213754  0.91222306  0.12476959  1
  Zn  Zn6  1  0.29555111  0.09154265  0.87731969  1
  P  P7  1  0.10292600  0.75935201  0.95968425  1
  P  P8  1  0.88091491  0.24276202  0.04458473  1
  P  P9  1  0.78768488  0.77418864  0.36952735  1
  P  P10  1  0.18908039  0.22391807  0.63602413  1
  H  H11  1  0.92808067  0.91994367  0.58602536  1
  H  H12  1  0.06354473  0.08608718  0.42081352  1
  O  O13  1  0.95197412  0.41257664  0.13968355  1
  O  O14  1  0.03509460  0.58747260  0.87130883  1
  O  O15  1  0.29247179  0.78348850  0.09526354  1
  O  O16  1  0.69319927  0.22483952  0.91194813  1
  O  O17  1  0.71588254  0.12560872  0.12007486  1
  O  O18  1  0.26716926  0.87602025  0.88448962  1
  O  O19  1  0.84771465  0.79158055  0.99376204  1
  O  O20  1  0.13486199  0.20872423  0.01062253  1
  O  O21  1  0.52946843  0.63424183  0.29998606  1
  O  O22  1  0.44096270  0.36660972  0.71027695  1
  O  O23  1  0.83310803  0.92047291  0.31199281  1
  O  O24  1  0.16528941  0.07270682  0.68676270  1
  O  O25  1  0.02935201  0.71630668  0.36345554  1
  O  O26  1  0.93432322  0.26198270  0.64238664  1
  O  O27  1  0.76707667  0.82718228  0.52646545  1
  O  O28  1  0.22149920  0.17754190  0.47920288  1
