# generated using pymatgen
data_Rb2NiO2
_symmetry_space_group_name_H-M   'P 1'
_cell_length_a   4.15488366
_cell_length_b   4.15488388
_cell_length_c   7.17803293
_cell_angle_alpha   106.82302874
_cell_angle_beta   106.82304251
_cell_angle_gamma   89.99999372
_symmetry_Int_Tables_number   1
_chemical_formula_structural   Rb2NiO2
_chemical_formula_sum   'Rb2 Ni1 O2'
_cell_volume   113.06002295
_cell_formula_units_Z   1
loop_
 _symmetry_equiv_pos_site_id
 _symmetry_equiv_pos_as_xyz
  1  'x, y, z'
loop_
 _atom_site_type_symbol
 _atom_site_label
 _atom_site_symmetry_multiplicity
 _atom_site_fract_x
 _atom_site_fract_y
 _atom_site_fract_z
 _atom_site_occupancy
  Rb  Rb0  1  0.34805300  0.34805400  0.69610699  1
  Rb  Rb1  1  0.65194600  0.65194800  0.30389401  1
  Ni  Ni2  1  -0.00000000  -0.00000000  -0.00000000  1
  O  O3  1  0.87100781  0.87100681  0.74201263  1
  O  O4  1  0.12899319  0.12899419  0.25798737  1
