# generated using pymatgen
data_Ba(H8O5)2
_symmetry_space_group_name_H-M   'P 1'
_cell_length_a   6.48781100
_cell_length_b   6.49295500
_cell_length_c   11.45469517
_cell_angle_alpha   89.90986988
_cell_angle_beta   90.00000000
_cell_angle_gamma   90.00000000
_symmetry_Int_Tables_number   1
_chemical_formula_structural   Ba(H8O5)2
_chemical_formula_sum   'Ba2 H32 O20'
_cell_volume   482.52918021
_cell_formula_units_Z   2
loop_
 _symmetry_equiv_pos_site_id
 _symmetry_equiv_pos_as_xyz
  1  'x, y, z'
loop_
 _atom_site_type_symbol
 _atom_site_label
 _atom_site_symmetry_multiplicity
 _atom_site_fract_x
 _atom_site_fract_y
 _atom_site_fract_z
 _atom_site_occupancy
  Ba  Ba0  1  0.99893300  0.99468900  0.74883500  1
  Ba  Ba1  1  0.00106700  0.99468900  0.24883500  1
  H  H2  1  0.04508800  0.45472900  0.62497700  1
  H  H3  1  0.28269000  0.39691100  0.64738400  1
  H  H4  1  0.72114500  0.58932900  0.64889900  1
  H  H5  1  0.84977100  0.66009000  0.53530600  1
  H  H6  1  0.59163600  0.27302500  0.65030800  1
  H  H7  1  0.66208400  0.15081500  0.53519600  1
  H  H8  1  0.40122200  0.71752600  0.64518400  1
  H  H9  1  0.44699200  0.95860800  0.62387300  1
  H  H10  1  0.71731000  0.39691100  0.14738400  1
  H  H11  1  0.95491200  0.45472900  0.12497700  1
  H  H12  1  0.27885500  0.58932900  0.14889900  1
  H  H13  1  0.15022900  0.66009000  0.03530600  1
  H  H14  1  0.40836400  0.27302500  0.15030800  1
  H  H15  1  0.33791600  0.15081500  0.03519600  1
  H  H16  1  0.55300800  0.95860800  0.12387300  1
  H  H17  1  0.59877800  0.71752600  0.14518400  1
  H  H18  1  0.95581500  0.53212100  0.37557900  1
  H  H19  1  0.71782700  0.59398600  0.35611900  1
  H  H20  1  0.15676200  0.33249100  0.46472800  1
  H  H21  1  0.27707200  0.39940900  0.34895800  1
  H  H22  1  0.40306400  0.71786300  0.35299600  1
  H  H23  1  0.32806800  0.84496100  0.46635100  1
  H  H24  1  0.54280300  0.04014300  0.37493300  1
  H  H25  1  0.60022900  0.27884300  0.35516300  1
  H  H26  1  0.04418500  0.53212100  0.87557900  1
  H  H27  1  0.28217300  0.59398600  0.85611900  1
  H  H28  1  0.84323800  0.33249100  0.96472800  1
  H  H29  1  0.72292800  0.39940900  0.84895800  1
  H  H30  1  0.59693600  0.71786300  0.85299600  1
  H  H31  1  0.67193200  0.84496100  0.96635100  1
  H  H32  1  0.45719700  0.04014300  0.87493300  1
  H  H33  1  0.39977100  0.27884300  0.85516300  1
  O  O34  1  0.49953500  0.49695500  0.68749300  1
  O  O35  1  0.50046500  0.49695500  0.18749300  1
  O  O36  1  0.49790300  0.49631200  0.31393900  1
  O  O37  1  0.50209700  0.49631200  0.81393900  1
  O  O38  1  0.14637600  0.33950500  0.61680200  1
  O  O39  1  0.85928700  0.64897000  0.62239400  1
  O  O40  1  0.64844600  0.13595000  0.62192900  1
  O  O41  1  0.33689700  0.85114400  0.61586000  1
  O  O42  1  0.85362400  0.33950500  0.11680200  1
  O  O43  1  0.14071300  0.64897000  0.12239400  1
  O  O44  1  0.35155400  0.13595000  0.12192900  1
  O  O45  1  0.66310300  0.85114400  0.11586000  1
  O  O46  1  0.85598200  0.64881100  0.38479000  1
  O  O47  1  0.14048200  0.34022600  0.37780900  1
  O  O48  1  0.34497600  0.85575200  0.37956000  1
  O  O49  1  0.65817500  0.14149000  0.38327100  1
  O  O50  1  0.14401800  0.64881100  0.88479000  1
  O  O51  1  0.85951800  0.34022600  0.87780900  1
  O  O52  1  0.65502400  0.85575200  0.87956000  1
  O  O53  1  0.34182500  0.14149000  0.88327100  1
