# generated using pymatgen
data_MgZn4(Se2O5)4
_symmetry_space_group_name_H-M   'P 1'
_cell_length_a   6.33234265
_cell_length_b   6.84043170
_cell_length_c   10.98030179
_cell_angle_alpha   90.56370421
_cell_angle_beta   94.99204971
_cell_angle_gamma   92.16323054
_symmetry_Int_Tables_number   1
_chemical_formula_structural   MgZn4(Se2O5)4
_chemical_formula_sum   'Mg1 Zn4 Se8 O20'
_cell_volume   473.43933577
_cell_formula_units_Z   1
loop_
 _symmetry_equiv_pos_site_id
 _symmetry_equiv_pos_as_xyz
  1  'x, y, z'
loop_
 _atom_site_type_symbol
 _atom_site_label
 _atom_site_symmetry_multiplicity
 _atom_site_fract_x
 _atom_site_fract_y
 _atom_site_fract_z
 _atom_site_occupancy
  Mg  Mg0  1  0.94141298  0.30263507  0.61566713  1
  Zn  Zn1  1  0.75241400  0.96823524  0.91100532  1
  Zn  Zn2  1  0.34674233  0.52128476  0.56262338  1
  Zn  Zn3  1  0.23573879  0.00110922  0.04698953  1
  Zn  Zn4  1  0.78184808  0.55149231  0.41280033  1
  Se  Se5  1  0.97209130  0.38046723  0.87403039  1
  Se  Se6  1  0.48709759  0.14561203  0.66173503  1
  Se  Se7  1  0.98305860  0.83497724  0.66953395  1
  Se  Se8  1  0.45026493  0.61505105  0.85849608  1
  Se  Se9  1  0.93740826  0.64133272  0.14818799  1
  Se  Se10  1  0.44812125  0.88393298  0.34283745  1
  Se  Se11  1  0.01520509  0.13113994  0.34025674  1
  Se  Se12  1  0.49410346  0.38005113  0.16928855  1
  O  O13  1  0.83919017  0.00838504  0.58866070  1
  O  O14  1  0.21292783  0.52180239  0.93453487  1
  O  O15  1  0.24353083  0.98999650  0.42574769  1
  O  O16  1  0.67812376  0.53750162  0.08468988  1
  O  O17  1  0.25673353  0.27882396  0.66676170  1
  O  O18  1  0.61206593  0.18835141  0.80593903  1
  O  O19  1  0.82391406  0.76102121  0.78178042  1
  O  O20  1  0.35513380  0.68329067  0.71600266  1
  O  O21  1  0.86245089  0.73635839  0.28236295  1
  O  O22  1  0.31871895  0.80880613  0.20887394  1
  O  O23  1  0.12926784  0.20694027  0.21654776  1
  O  O24  1  0.65911447  0.32697203  0.29686633  1
  O  O25  1  0.04437867  0.33447500  0.43785891  1
  O  O26  1  0.50193003  0.17274033  0.08371514  1
  O  O27  1  0.94117898  0.84617065  0.05812693  1
  O  O28  1  0.47425838  0.66491494  0.42692032  1
  O  O29  1  0.95919192  0.62006240  0.57154944  1
  O  O30  1  0.45531354  0.83950841  0.93440690  1
  O  O31  1  0.03726558  0.13199408  0.91323063  1
  O  O32  1  0.61438719  0.33641567  0.58322194  1
