# generated using pymatgen
data_Sm4Al2O9
_symmetry_space_group_name_H-M   'P 1'
_cell_length_a   10.73807090
_cell_length_b   7.61500514
_cell_length_c   11.26445979
_cell_angle_alpha   70.84492846
_cell_angle_beta   90.00000000
_cell_angle_gamma   90.00000000
_symmetry_Int_Tables_number   1
_chemical_formula_structural   Sm4Al2O9
_chemical_formula_sum   'Sm16 Al8 O36'
_cell_volume   870.10245016
_cell_formula_units_Z   4
loop_
 _symmetry_equiv_pos_site_id
 _symmetry_equiv_pos_as_xyz
  1  'x, y, z'
loop_
 _atom_site_type_symbol
 _atom_site_label
 _atom_site_symmetry_multiplicity
 _atom_site_fract_x
 _atom_site_fract_y
 _atom_site_fract_z
 _atom_site_occupancy
  Sm  Sm0  1  0.58817145  0.47488332  0.31003096  1
  Sm  Sm1  1  0.41182855  0.52511668  0.68996904  1
  Sm  Sm2  1  0.08817145  0.52511668  0.18996904  1
  Sm  Sm3  1  0.91182855  0.47488332  0.81003096  1
  Sm  Sm4  1  0.60366187  0.97584332  0.28721763  1
  Sm  Sm5  1  0.39633813  0.02415668  0.71278237  1
  Sm  Sm6  1  0.10366187  0.02415668  0.21278237  1
  Sm  Sm7  1  0.89633813  0.97584332  0.78721763  1
  Sm  Sm8  1  0.37465432  0.83537802  0.06809384  1
  Sm  Sm9  1  0.62534568  0.16462198  0.93190616  1
  Sm  Sm10  1  0.87465432  0.16462198  0.43190616  1
  Sm  Sm11  1  0.12534568  0.83537802  0.56809384  1
  Sm  Sm12  1  0.87835158  0.66460538  0.41236317  1
  Sm  Sm13  1  0.12164842  0.33539462  0.58763683  1
  Sm  Sm14  1  0.37835158  0.33539462  0.08763683  1
  Sm  Sm15  1  0.62164842  0.66460538  0.91236317  1
  Al  Al16  1  0.81352379  0.84747155  0.11759221  1
  Al  Al17  1  0.18647621  0.15252845  0.88240779  1
  Al  Al18  1  0.31352379  0.15252845  0.38240779  1
  Al  Al19  1  0.68647621  0.84747155  0.61759221  1
  Al  Al20  1  0.81153979  0.27885069  0.12837406  1
  Al  Al21  1  0.18846021  0.72114931  0.87162594  1
  Al  Al22  1  0.31153979  0.72114931  0.37162594  1
  Al  Al23  1  0.68846021  0.27885069  0.62837406  1
  O  O24  1  0.73494036  0.42256135  0.48058437  1
  O  O25  1  0.26505964  0.57743865  0.51941563  1
  O  O26  1  0.23494036  0.57743865  0.01941563  1
  O  O27  1  0.76505964  0.42256135  0.98058437  1
  O  O28  1  0.72922777  0.86010581  0.46576444  1
  O  O29  1  0.27077223  0.13989419  0.53423556  1
  O  O30  1  0.22922777  0.13989419  0.03423556  1
  O  O31  1  0.77077223  0.86010581  0.96576444  1
  O  O32  1  0.96722121  0.79957261  0.17116211  1
  O  O33  1  0.03277879  0.20042739  0.82883789  1
  O  O34  1  0.46722121  0.20042739  0.32883789  1
  O  O35  1  0.53277879  0.79957261  0.67116211  1
  O  O36  1  0.50436316  0.57714654  0.10660690  1
  O  O37  1  0.49563684  0.42285346  0.89339310  1
  O  O38  1  0.00436316  0.42285346  0.39339310  1
  O  O39  1  0.99563684  0.57714654  0.60660690  1
  O  O40  1  0.72487643  0.71599965  0.24693091  1
  O  O41  1  0.27512357  0.28400035  0.75306909  1
  O  O42  1  0.22487643  0.28400035  0.25306909  1
  O  O43  1  0.77512357  0.71599965  0.74693091  1
  O  O44  1  0.72783568  0.26851245  0.26512968  1
  O  O45  1  0.27216432  0.73148755  0.73487032  1
  O  O46  1  0.22783568  0.73148755  0.23487032  1
  O  O47  1  0.77216432  0.26851245  0.76512968  1
  O  O48  1  0.25913211  0.93377674  0.38322494  1
  O  O49  1  0.74086789  0.06622326  0.61677506  1
  O  O50  1  0.75913211  0.06622326  0.11677506  1
  O  O51  1  0.24086789  0.93377674  0.88322494  1
  O  O52  1  0.46951499  0.71604076  0.33905181  1
  O  O53  1  0.53048501  0.28395924  0.66094819  1
  O  O54  1  0.96951499  0.28395924  0.16094819  1
  O  O55  1  0.03048501  0.71604076  0.83905181  1
  O  O56  1  0.99145979  0.93418443  0.39512985  1
  O  O57  1  0.00854021  0.06581557  0.60487015  1
  O  O58  1  0.49145979  0.06581557  0.10487015  1
  O  O59  1  0.50854021  0.93418443  0.89512985  1
