# generated using pymatgen
data_Ho14(PbS8)3
_symmetry_space_group_name_H-M   'P 1'
_cell_length_a   7.27139980
_cell_length_b   7.27139980
_cell_length_c   18.84547823
_cell_angle_alpha   75.02468923
_cell_angle_beta   75.02468923
_cell_angle_gamma   70.09284067
_symmetry_Int_Tables_number   1
_chemical_formula_structural   Ho14(PbS8)3
_chemical_formula_sum   'Ho14 Pb3 S24'
_cell_volume   888.98978206
_cell_formula_units_Z   1
loop_
 _symmetry_equiv_pos_site_id
 _symmetry_equiv_pos_as_xyz
  1  'x, y, z'
loop_
 _atom_site_type_symbol
 _atom_site_label
 _atom_site_symmetry_multiplicity
 _atom_site_fract_x
 _atom_site_fract_y
 _atom_site_fract_z
 _atom_site_occupancy
  Ho  Ho0  1  0.78899100  0.28743200  0.80194600  1
  Ho  Ho1  1  0.81847700  0.82282600  0.96056900  1
  Ho  Ho2  1  0.12974300  0.61383500  0.12111000  1
  Ho  Ho3  1  0.38616500  0.87025700  0.87889000  1
  Ho  Ho4  1  0.16232900  0.16373700  0.28708300  1
  Ho  Ho5  1  0.45720900  0.95714800  0.46202700  1
  Ho  Ho6  1  0.17717400  0.18152300  0.03943100  1
  Ho  Ho7  1  0.70731100  0.20578200  0.19454700  1
  Ho  Ho8  1  0.20239600  0.45362400  0.83597700  1
  Ho  Ho9  1  0.49597500  0.49128800  0.62744200  1
  Ho  Ho10  1  0.50871200  0.50402500  0.37255800  1
  Ho  Ho11  1  0.04285200  0.54279100  0.53797300  1
  Ho  Ho12  1  0.54637600  0.79760400  0.16402300  1
  Ho  Ho13  1  0.83626300  0.83767100  0.71291700  1
  Pb  Pb14  1  0.96114200  0.70854300  0.33038400  1
  Pb  Pb15  1  0.29145700  0.03885800  0.66961600  1
  Pb  Pb16  1  0.87817700  0.12182300  0.50000000  1
  S  S17  1  0.03966000  0.15776000  0.91418100  1
  S  S18  1  0.03683900  0.89978200  0.80234400  1
  S  S19  1  0.41476600  0.79542800  0.03630500  1
  S  S20  1  0.83942000  0.47972700  0.08137200  1
  S  S21  1  0.76539600  0.62050900  0.86395600  1
  S  S22  1  0.20457200  0.58523400  0.96369500  1
  S  S23  1  0.74631500  0.12192100  0.36376500  1
  S  S24  1  0.18744100  0.80097000  0.41663500  1
  S  S25  1  0.37949100  0.23460400  0.13604400  1
  S  S26  1  0.10021800  0.96316100  0.19765600  1
  S  S27  1  0.84224000  0.96034000  0.08581900  1
  S  S28  1  0.53636700  0.90829500  0.28963800  1
  S  S29  1  0.87807900  0.25368500  0.63623500  1
  S  S30  1  0.52027300  0.16058000  0.91862800  1
  S  S31  1  0.09170500  0.46363300  0.71036200  1
  S  S32  1  0.50592900  0.13792900  0.75358000  1
  S  S33  1  0.70031300  0.57784000  0.46558100  1
  S  S34  1  0.42216000  0.29968700  0.53441900  1
  S  S35  1  0.37565300  0.49525800  0.24302800  1
  S  S36  1  0.18618900  0.30309600  0.41052800  1
  S  S37  1  0.86207100  0.49407100  0.24642000  1
  S  S38  1  0.69690400  0.81381100  0.58947200  1
  S  S39  1  0.50474200  0.62434700  0.75697200  1
  S  S40  1  0.19903000  0.81255900  0.58336500  1
