# generated using pymatgen
data_Ho2MgAg2(WO4)4
_symmetry_space_group_name_H-M   'P 1'
_cell_length_a   7.55838869
_cell_length_b   7.67419420
_cell_length_c   7.67419420
_cell_angle_alpha   94.06933336
_cell_angle_beta   116.39372705
_cell_angle_gamma   116.39372705
_symmetry_Int_Tables_number   1
_chemical_formula_structural   Ho2MgAg2(WO4)4
_chemical_formula_sum   'Ho2 Mg1 Ag2 W4 O16'
_cell_volume   336.57005304
_cell_formula_units_Z   1
loop_
 _symmetry_equiv_pos_site_id
 _symmetry_equiv_pos_as_xyz
  1  'x, y, z'
loop_
 _atom_site_type_symbol
 _atom_site_label
 _atom_site_symmetry_multiplicity
 _atom_site_fract_x
 _atom_site_fract_y
 _atom_site_fract_z
 _atom_site_occupancy
  Ho  Ho0  1  0.01898700  0.73787800  0.26940200  1
  Ho  Ho1  1  0.01898700  0.26940200  0.73787800  1
  Mg  Mg2  1  0.62345600  0.27486400  0.27486400  1
  Ag  Ag3  1  0.55464500  0.72514600  0.72514600  1
  Ag  Ag4  1  0.47320600  0.43741000  0.43741000  1
  W  W5  1  0.98656800  0.22509000  0.22509000  1
  W  W6  1  0.02811100  0.77318300  0.77318300  1
  W  W7  1  0.50278400  0.82678100  0.15123900  1
  W  W8  1  0.50278400  0.15123900  0.82678100  1
  O  O9  1  0.76663200  0.36026900  0.10564600  1
  O  O10  1  0.23393400  0.63588100  0.88352200  1
  O  O11  1  0.23393400  0.88352200  0.63588100  1
  O  O12  1  0.76663200  0.10564600  0.36026900  1
  O  O13  1  0.66092700  0.69670100  0.20471300  1
  O  O14  1  0.35454700  0.29062100  0.77812400  1
  O  O15  1  0.35454700  0.77812400  0.29062100  1
  O  O16  1  0.66092700  0.20471300  0.69670100  1
  O  O17  1  0.90546000  0.69561900  0.94229800  1
  O  O18  1  0.11714900  0.30499900  0.05676200  1
  O  O19  1  0.11714900  0.05676200  0.30499900  1
  O  O20  1  0.90546000  0.94229800  0.69561900  1
  O  O21  1  0.66168300  0.98516400  0.98516400  1
  O  O22  1  0.36033200  0.01951700  0.01951700  1
  O  O23  1  0.82652000  0.52102300  0.52102300  1
  O  O24  1  0.17019400  0.45975400  0.45975400  1
