# generated using pymatgen
data_Te6Mo2W
_symmetry_space_group_name_H-M   'P 1'
_cell_length_a   3.56061377
_cell_length_b   3.56070581
_cell_length_c   31.76420638
_cell_angle_alpha   90.03170105
_cell_angle_beta   89.99999998
_cell_angle_gamma   119.99916447
_symmetry_Int_Tables_number   1
_chemical_formula_structural   Te6Mo2W
_chemical_formula_sum   'Te6 Mo2 W1'
_cell_volume   348.76521992
_cell_formula_units_Z   1
loop_
 _symmetry_equiv_pos_site_id
 _symmetry_equiv_pos_as_xyz
  1  'x, y, z'
loop_
 _atom_site_type_symbol
 _atom_site_label
 _atom_site_symmetry_multiplicity
 _atom_site_fract_x
 _atom_site_fract_y
 _atom_site_fract_z
 _atom_site_occupancy
  Te  Te0  1  0.33370614  0.66741228  0.40351033  1
  Te  Te1  1  0.66645752  0.33291603  0.05923758  1
  Te  Te2  1  0.66646984  0.33293668  0.52186520  1
  Te  Te3  1  0.66666728  0.33333255  0.17194173  1
  Te  Te4  1  0.66664449  0.33328797  0.63483094  1
  Te  Te5  1  0.33335682  0.66671565  0.29057030  1
  Mo  Mo6  1  0.33324108  0.66648317  0.11554366  1
  Mo  Mo7  1  0.66679306  0.33358512  0.34701453  1
  W  W8  1  0.33326577  0.66653255  0.57832673  1
