# generated using pymatgen
data_Y2TeO6
_symmetry_space_group_name_H-M   'P 1'
_cell_length_a   5.25786431
_cell_length_b   9.06488691
_cell_length_c   9.93819650
_cell_angle_alpha   90.00033857
_cell_angle_beta   89.99996102
_cell_angle_gamma   89.99999602
_symmetry_Int_Tables_number   1
_chemical_formula_structural   Y2TeO6
_chemical_formula_sum   'Y8 Te4 O24'
_cell_volume   473.67377854
_cell_formula_units_Z   4
loop_
 _symmetry_equiv_pos_site_id
 _symmetry_equiv_pos_as_xyz
  1  'x, y, z'
loop_
 _atom_site_type_symbol
 _atom_site_label
 _atom_site_symmetry_multiplicity
 _atom_site_fract_x
 _atom_site_fract_y
 _atom_site_fract_z
 _atom_site_occupancy
  Y  Y0  1  0.96207457  0.78279246  0.86463653  1
  Y  Y1  1  0.46207237  0.71721360  0.13535492  1
  Y  Y2  1  0.03792803  0.28279153  0.63536196  1
  Y  Y3  1  0.53792767  0.21721519  0.36464419  1
  Y  Y4  1  0.51989177  0.10370346  0.96170050  1
  Y  Y5  1  0.01989508  0.39629762  0.03830590  1
  Y  Y6  1  0.48010473  0.60370358  0.53829910  1
  Y  Y7  1  0.98010418  0.89630116  0.46169403  1
  Te  Te8  1  0.46173245  0.99499083  0.64787759  1
  Te  Te9  1  0.96173070  0.50501059  0.35211707  1
  Te  Te10  1  0.53826987  0.49498180  0.85212588  1
  Te  Te11  1  0.03826910  0.00501364  0.14788194  1
  O  O12  1  0.75776712  0.41498364  0.49445788  1
  O  O13  1  0.25776640  0.08501845  0.50553676  1
  O  O14  1  0.24223403  0.91498294  0.00554130  1
  O  O15  1  0.74223601  0.58501860  0.99446358  1
  O  O16  1  0.73251251  0.11380653  0.57001074  1
  O  O17  1  0.23251693  0.38619677  0.42999470  1
  O  O18  1  0.26748873  0.61380845  0.92999043  1
  O  O19  1  0.76748274  0.88619454  0.07000374  1
  O  O20  1  0.81690420  0.35993258  0.82129842  1
  O  O21  1  0.31689978  0.14006400  0.17871038  1
  O  O22  1  0.18309942  0.85993203  0.67869908  1
  O  O23  1  0.68309803  0.64006691  0.32128952  1
  O  O24  1  0.66832290  0.94863061  0.79816951  1
  O  O25  1  0.16834520  0.55136567  0.20183282  1
  O  O26  1  0.33168175  0.44863122  0.70183102  1
  O  O27  1  0.83165394  0.05136661  0.29816746  1
  O  O28  1  0.68694314  0.64032563  0.73876065  1
  O  O29  1  0.18692789  0.85966318  0.26123967  1
  O  O30  1  0.31305326  0.14032617  0.76124264  1
  O  O31  1  0.81307218  0.35966580  0.23875945  1
  O  O32  1  0.58605056  0.84522353  0.52910770  1
  O  O33  1  0.08603348  0.65477985  0.47089692  1
  O  O34  1  0.41394838  0.34522315  0.97088979  1
  O  O35  1  0.91396287  0.15477768  0.02910425  1
