# generated using pymatgen
data_Rb2LaBr5
_symmetry_space_group_name_H-M   'P 1'
_cell_length_a   8.69267386
_cell_length_b   9.46811161
_cell_length_c   13.86262556
_cell_angle_alpha   90.00000000
_cell_angle_beta   90.00000000
_cell_angle_gamma   90.00000000
_symmetry_Int_Tables_number   1
_chemical_formula_structural   Rb2LaBr5
_chemical_formula_sum   'Rb8 La4 Br20'
_cell_volume   1140.93853127
_cell_formula_units_Z   4
loop_
 _symmetry_equiv_pos_site_id
 _symmetry_equiv_pos_as_xyz
  1  'x, y, z'
loop_
 _atom_site_type_symbol
 _atom_site_label
 _atom_site_symmetry_multiplicity
 _atom_site_fract_x
 _atom_site_fract_y
 _atom_site_fract_z
 _atom_site_occupancy
  Rb  Rb0  1  0.94584663  0.00442601  0.82791261  1
  Rb  Rb1  1  0.05415337  0.99557399  0.17208739  1
  Rb  Rb2  1  0.44584663  0.99557399  0.67208739  1
  Rb  Rb3  1  0.05415337  0.50442601  0.17208739  1
  Rb  Rb4  1  0.55415337  0.00442601  0.32791261  1
  Rb  Rb5  1  0.94584663  0.49557399  0.82791261  1
  Rb  Rb6  1  0.55415337  0.49557399  0.32791261  1
  Rb  Rb7  1  0.44584663  0.50442601  0.67208739  1
  La  La8  1  0.92539722  0.75000000  0.50534198  1
  La  La9  1  0.07460278  0.25000000  0.49465802  1
  La  La10  1  0.42539722  0.25000000  0.99465802  1
  La  La11  1  0.57460278  0.75000000  0.00534198  1
  Br  Br12  1  0.12666924  0.75000000  0.67877627  1
  Br  Br13  1  0.87333076  0.25000000  0.32122373  1
  Br  Br14  1  0.62666924  0.25000000  0.82122373  1
  Br  Br15  1  0.37333076  0.75000000  0.17877627  1
  Br  Br16  1  0.83457788  0.04355569  0.57615306  1
  Br  Br17  1  0.16542212  0.95644431  0.42384694  1
  Br  Br18  1  0.33457788  0.95644431  0.92384694  1
  Br  Br19  1  0.16542212  0.54355569  0.42384694  1
  Br  Br20  1  0.66542212  0.04355569  0.07615306  1
  Br  Br21  1  0.83457788  0.45644431  0.57615306  1
  Br  Br22  1  0.66542212  0.45644431  0.07615306  1
  Br  Br23  1  0.33457788  0.54355569  0.92384694  1
  Br  Br24  1  0.57987490  0.75000000  0.50919179  1
  Br  Br25  1  0.42012510  0.25000000  0.49080821  1
  Br  Br26  1  0.07987490  0.25000000  0.99080821  1
  Br  Br27  1  0.92012510  0.75000000  0.00919179  1
  Br  Br28  1  0.66115107  0.75000000  0.79655472  1
  Br  Br29  1  0.33884893  0.25000000  0.20344528  1
  Br  Br30  1  0.16115107  0.25000000  0.70344528  1
  Br  Br31  1  0.83884893  0.75000000  0.29655472  1
