# generated using pymatgen
data_MgMn6Nb4O18
_symmetry_space_group_name_H-M   'P 1'
_cell_length_a   5.37425323
_cell_length_b   5.53872063
_cell_length_c   15.31950574
_cell_angle_alpha   80.23286493
_cell_angle_beta   95.52993222
_cell_angle_gamma   120.75727861
_symmetry_Int_Tables_number   1
_chemical_formula_structural   MgMn6Nb4O18
_chemical_formula_sum   'Mg1 Mn6 Nb4 O18'
_cell_volume   386.16164597
_cell_formula_units_Z   1
loop_
 _symmetry_equiv_pos_site_id
 _symmetry_equiv_pos_as_xyz
  1  'x, y, z'
loop_
 _atom_site_type_symbol
 _atom_site_label
 _atom_site_symmetry_multiplicity
 _atom_site_fract_x
 _atom_site_fract_y
 _atom_site_fract_z
 _atom_site_occupancy
  Mg  Mg0  1  0.02312700  0.92702700  0.51217000  1
  Mn  Mn1  1  0.59797500  0.31980300  0.68192400  1
  Mn  Mn2  1  0.67741800  0.39748500  0.97861900  1
  Mn  Mn3  1  0.69901000  0.27223000  0.45390800  1
  Mn  Mn4  1  0.34882500  0.57598900  0.48795700  1
  Mn  Mn5  1  0.35117400  0.72237500  0.00643000  1
  Mn  Mn6  1  0.67863500  0.35496500  0.18082600  1
  Nb  Nb7  1  0.00527300  0.11655100  0.87093200  1
  Nb  Nb8  1  0.01471900  0.00375200  0.13869600  1
  Nb  Nb9  1  0.93306700  0.96785500  0.67897300  1
  Nb  Nb10  1  0.01989100  0.99474000  0.33178000  1
  O  O11  1  0.37380000  0.34930400  0.08973300  1
  O  O12  1  0.69120700  0.77786500  0.92573600  1
  O  O13  1  0.95867200  0.24397000  0.23591300  1
  O  O14  1  0.34372400  0.07782500  0.24518500  1
  O  O15  1  0.97799100  0.67511000  0.09417500  1
  O  O16  1  0.67021500  0.64502300  0.58851600  1
  O  O17  1  0.72214000  0.05945900  0.75318100  1
  O  O18  1  0.02974600  0.41149900  0.92270500  1
  O  O19  1  0.04406700  0.68675100  0.42717200  1
  O  O20  1  0.29642700  0.03179400  0.61703000  1
  O  O21  1  0.24403900  0.20545100  0.76061300  1
  O  O22  1  0.93541500  0.21872900  0.56377400  1
  O  O23  1  0.80539100  0.70721200  0.24686800  1
  O  O24  1  0.29710000  0.06243200  0.93660400  1
  O  O25  1  0.71195600  0.04982500  0.08106400  1
  O  O26  1  0.71957500  0.94299600  0.40760600  1
  O  O27  1  0.31210500  0.25343000  0.41681300  1
  O  O28  1  0.85065200  0.61521600  0.74693300  1
