# generated using pymatgen
data_ZnP4O11
_symmetry_space_group_name_H-M   'P 1'
_cell_length_a   22.28775363
_cell_length_b   5.30901113
_cell_length_c   7.40587787
_cell_angle_alpha   69.97136751
_cell_angle_beta   90.00000000
_cell_angle_gamma   90.00000000
_symmetry_Int_Tables_number   1
_chemical_formula_structural   ZnP4O11
_chemical_formula_sum   'Zn4 P16 O44'
_cell_volume   823.30971909
_cell_formula_units_Z   4
loop_
 _symmetry_equiv_pos_site_id
 _symmetry_equiv_pos_as_xyz
  1  'x, y, z'
loop_
 _atom_site_type_symbol
 _atom_site_label
 _atom_site_symmetry_multiplicity
 _atom_site_fract_x
 _atom_site_fract_y
 _atom_site_fract_z
 _atom_site_occupancy
  Zn  Zn0  1  0.88571459  0.00818191  0.13013255  1
  Zn  Zn1  1  0.38571459  0.99181809  0.36986745  1
  Zn  Zn2  1  0.11428541  0.99181809  0.86986745  1
  Zn  Zn3  1  0.61428541  0.00818191  0.63013255  1
  P  P4  1  0.17803610  0.31774165  0.44491564  1
  P  P5  1  0.67803610  0.68225835  0.05508436  1
  P  P6  1  0.82196390  0.68225835  0.55508436  1
  P  P7  1  0.32196390  0.31774165  0.94491564  1
  P  P8  1  0.07215270  0.69515611  0.31134903  1
  P  P9  1  0.57215270  0.30484389  0.18865097  1
  P  P10  1  0.92784730  0.30484389  0.68865097  1
  P  P11  1  0.42784730  0.69515611  0.81134903  1
  P  P12  1  0.19591607  0.38844300  0.03008373  1
  P  P13  1  0.69591607  0.61155700  0.46991627  1
  P  P14  1  0.80408393  0.61155700  0.96991627  1
  P  P15  1  0.30408393  0.38844300  0.53008373  1
  P  P16  1  0.96424487  0.40268383  0.29160671  1
  P  P17  1  0.46424487  0.59731617  0.20839329  1
  P  P18  1  0.03575513  0.59731617  0.70839329  1
  P  P19  1  0.53575513  0.40268383  0.79160671  1
  O  O20  1  0.33738090  0.64087161  0.47699098  1
  O  O21  1  0.83738090  0.35912839  0.02300902  1
  O  O22  1  0.66261910  0.35912839  0.52300902  1
  O  O23  1  0.16261910  0.64087161  0.97699098  1
  O  O24  1  0.54487371  0.21881295  0.68508246  1
  O  O25  1  0.04487371  0.78118705  0.81491754  1
  O  O26  1  0.45512629  0.78118705  0.31491754  1
  O  O27  1  0.95512629  0.21881295  0.18508246  1
  O  O28  1  0.56665328  0.66060259  0.75092861  1
  O  O29  1  0.06665328  0.33939741  0.74907139  1
  O  O30  1  0.43334672  0.33939741  0.24907139  1
  O  O31  1  0.93334672  0.66060259  0.25092861  1
  O  O32  1  0.31565126  0.17831657  0.44688383  1
  O  O33  1  0.81565126  0.82168343  0.05311617  1
  O  O34  1  0.68434874  0.82168343  0.55311617  1
  O  O35  1  0.18434874  0.17831657  0.94688383  1
  O  O36  1  0.30609335  0.25010166  0.76217241  1
  O  O37  1  0.95428806  0.23111131  0.51865412  1
  O  O38  1  0.54571194  0.23111131  0.01865412  1
  O  O39  1  0.04571194  0.76888869  0.48134588  1
  O  O40  1  0.46378229  0.45044771  0.79502434  1
  O  O41  1  0.96378229  0.54955229  0.70497566  1
  O  O42  1  0.53621771  0.54955229  0.20497566  1
  O  O43  1  0.03621771  0.45044771  0.29502434  1
  O  O44  1  0.19390665  0.25010166  0.26217241  1
  O  O45  1  0.69390665  0.74989834  0.23782759  1
  O  O46  1  0.80609335  0.74989834  0.73782759  1
  O  O47  1  0.26671682  0.45832779  0.99960051  1
  O  O48  1  0.42350987  0.93209525  0.63951652  1
  O  O49  1  0.92350987  0.06790475  0.86048348  1
  O  O50  1  0.57649013  0.06790475  0.36048348  1
  O  O51  1  0.07649013  0.93209525  0.13951652  1
  O  O52  1  0.36462412  0.56831075  0.88116254  1
  O  O53  1  0.86462412  0.43168925  0.61883746  1
  O  O54  1  0.63537588  0.43168925  0.11883746  1
  O  O55  1  0.13537588  0.56831075  0.38116254  1
  O  O56  1  0.34531674  0.08028619  0.09421847  1
  O  O57  1  0.84531674  0.91971381  0.40578153  1
  O  O58  1  0.65468326  0.91971381  0.90578153  1
  O  O59  1  0.15468326  0.08028619  0.59421847  1
  O  O60  1  0.23328318  0.45832779  0.49960051  1
  O  O61  1  0.73328318  0.54167221  0.00039949  1
  O  O62  1  0.76671682  0.54167221  0.50039949  1
  O  O63  1  0.45428806  0.76888869  0.98134588  1
