# generated using pymatgen
data_La4GeO8
_symmetry_space_group_name_H-M   'P 1'
_cell_length_a   5.84592851
_cell_length_b   7.66857879
_cell_length_c   18.29072347
_cell_angle_alpha   90.00000000
_cell_angle_beta   90.00000000
_cell_angle_gamma   90.00000000
_symmetry_Int_Tables_number   1
_chemical_formula_structural   La4GeO8
_chemical_formula_sum   'La16 Ge4 O32'
_cell_volume   819.97246335
_cell_formula_units_Z   4
loop_
 _symmetry_equiv_pos_site_id
 _symmetry_equiv_pos_as_xyz
  1  'x, y, z'
loop_
 _atom_site_type_symbol
 _atom_site_label
 _atom_site_symmetry_multiplicity
 _atom_site_fract_x
 _atom_site_fract_y
 _atom_site_fract_z
 _atom_site_occupancy
  La  La0  1  0.53514974  0.25000000  0.28263662  1
  La  La1  1  0.96485026  0.25000000  0.78263662  1
  La  La2  1  0.48142438  0.49086814  0.89621202  1
  La  La3  1  0.01857562  0.00913186  0.39621202  1
  La  La4  1  0.01857562  0.49086814  0.39621202  1
  La  La5  1  0.48142438  0.00913186  0.89621202  1
  La  La6  1  0.98505322  0.25000000  0.98867176  1
  La  La7  1  0.51494678  0.25000000  0.48867176  1
  La  La8  1  0.01494678  0.75000000  0.01132824  1
  La  La9  1  0.48505322  0.75000000  0.51132824  1
  La  La10  1  0.51857562  0.50913186  0.10378798  1
  La  La11  1  0.98142438  0.99086814  0.60378798  1
  La  La12  1  0.98142438  0.50913186  0.60378798  1
  La  La13  1  0.51857562  0.99086814  0.10378798  1
  La  La14  1  0.46485026  0.75000000  0.71736338  1
  La  La15  1  0.03514974  0.75000000  0.21736338  1
  Ge  Ge16  1  0.49875694  0.25000000  0.69169306  1
  Ge  Ge17  1  0.00124306  0.25000000  0.19169306  1
  Ge  Ge18  1  0.50124306  0.75000000  0.30830694  1
  Ge  Ge19  1  0.99875694  0.75000000  0.80830694  1
  O  O20  1  0.19838874  0.75000000  0.88218491  1
  O  O21  1  0.30161126  0.75000000  0.38218491  1
  O  O22  1  0.72617407  0.75000000  0.62512888  1
  O  O23  1  0.77382593  0.75000000  0.12512888  1
  O  O24  1  0.21102405  0.25000000  0.66178676  1
  O  O25  1  0.28897595  0.25000000  0.16178676  1
  O  O26  1  0.74041812  0.51791507  0.99470207  1
  O  O27  1  0.75958188  0.98208493  0.49470207  1
  O  O28  1  0.75958188  0.51791507  0.49470207  1
  O  O29  1  0.74041812  0.98208493  0.99470207  1
  O  O30  1  0.71102405  0.75000000  0.83821324  1
  O  O31  1  0.78897595  0.75000000  0.33821324  1
  O  O32  1  0.22617407  0.25000000  0.87487112  1
  O  O33  1  0.27382593  0.25000000  0.37487112  1
  O  O34  1  0.57690455  0.43606418  0.74324647  1
  O  O35  1  0.92309545  0.06393582  0.24324647  1
  O  O36  1  0.92309545  0.43606418  0.24324647  1
  O  O37  1  0.57690455  0.06393582  0.74324647  1
  O  O38  1  0.69838874  0.25000000  0.61781509  1
  O  O39  1  0.80161126  0.25000000  0.11781509  1
  O  O40  1  0.42309545  0.56393582  0.25675353  1
  O  O41  1  0.07690455  0.93606418  0.75675353  1
  O  O42  1  0.07690455  0.56393582  0.75675353  1
  O  O43  1  0.42309545  0.93606418  0.25675353  1
  O  O44  1  0.23445799  0.75000000  0.61579616  1
  O  O45  1  0.26554201  0.75000000  0.11579616  1
  O  O46  1  0.73445799  0.25000000  0.88420384  1
  O  O47  1  0.76554201  0.25000000  0.38420384  1
  O  O48  1  0.25958188  0.48208493  0.00529793  1
  O  O49  1  0.24041812  0.01791507  0.50529793  1
  O  O50  1  0.24041812  0.48208493  0.50529793  1
  O  O51  1  0.25958188  0.01791507  0.00529793  1
