# generated using pymatgen
data_Tb2Te3
_symmetry_space_group_name_H-M   'P 1'
_cell_length_a   7.58446737
_cell_length_b   7.58446737
_cell_length_c   13.83669023
_cell_angle_alpha   100.58904251
_cell_angle_beta   100.58904251
_cell_angle_gamma   109.27478182
_symmetry_Int_Tables_number   1
_chemical_formula_structural   Tb2Te3
_chemical_formula_sum   'Tb8 Te12'
_cell_volume   712.44861516
_cell_formula_units_Z   4
loop_
 _symmetry_equiv_pos_site_id
 _symmetry_equiv_pos_as_xyz
  1  'x, y, z'
loop_
 _atom_site_type_symbol
 _atom_site_label
 _atom_site_symmetry_multiplicity
 _atom_site_fract_x
 _atom_site_fract_y
 _atom_site_fract_z
 _atom_site_occupancy
  Tb  Tb0  1  0.70807766  0.95770424  0.91637005  1
  Tb  Tb1  1  0.54229576  0.79192234  0.58362995  1
  Tb  Tb2  1  0.29192234  0.04229576  0.08362995  1
  Tb  Tb3  1  0.45770424  0.20807766  0.41637005  1
  Tb  Tb4  1  0.37398559  0.62399087  0.24805759  1
  Tb  Tb5  1  0.87600913  0.12601441  0.25194241  1
  Tb  Tb6  1  0.62601441  0.37600913  0.75194241  1
  Tb  Tb7  1  0.12399087  0.87398559  0.74805759  1
  Te  Te8  1  0.87447930  0.12432352  0.75023178  1
  Te  Te9  1  0.37567648  0.62552070  0.74976822  1
  Te  Te10  1  0.12552070  0.87567648  0.24976822  1
  Te  Te11  1  0.62432352  0.37447930  0.25023178  1
  Te  Te12  1  0.54402342  0.79599414  0.08504936  1
  Te  Te13  1  0.70400586  0.95597658  0.41495064  1
  Te  Te14  1  0.21109900  0.46027134  0.41513838  1
  Te  Te15  1  0.03972866  0.28890100  0.08486162  1
  Te  Te16  1  0.45597658  0.20400586  0.91495064  1
  Te  Te17  1  0.29599414  0.04402342  0.58504936  1
  Te  Te18  1  0.78890100  0.53972866  0.58486162  1
  Te  Te19  1  0.96027134  0.71109900  0.91513838  1
