# generated using pymatgen
data_Er4BClO7
_symmetry_space_group_name_H-M   'P 1'
_cell_length_a   7.92638122
_cell_length_b   8.45155153
_cell_length_c   12.03556699
_cell_angle_alpha   60.74184630
_cell_angle_beta   90.00000000
_cell_angle_gamma   90.00000000
_symmetry_Int_Tables_number   1
_chemical_formula_structural   Er4BClO7
_chemical_formula_sum   'Er16 B4 Cl4 O28'
_cell_volume   703.40715980
_cell_formula_units_Z   4
loop_
 _symmetry_equiv_pos_site_id
 _symmetry_equiv_pos_as_xyz
  1  'x, y, z'
loop_
 _atom_site_type_symbol
 _atom_site_label
 _atom_site_symmetry_multiplicity
 _atom_site_fract_x
 _atom_site_fract_y
 _atom_site_fract_z
 _atom_site_occupancy
  Er  Er0  1  0.62439892  0.79598830  0.22241924  1
  Er  Er1  1  0.87560108  0.79598830  0.72241924  1
  Er  Er2  1  0.37560108  0.20401170  0.77758076  1
  Er  Er3  1  0.12439892  0.20401170  0.27758076  1
  Er  Er4  1  0.61717087  0.42629922  0.90757348  1
  Er  Er5  1  0.88282913  0.42629922  0.40757348  1
  Er  Er6  1  0.38282913  0.57370078  0.09242652  1
  Er  Er7  1  0.11717087  0.57370078  0.59242652  1
  Er  Er8  1  0.63979285  0.56833757  0.58130717  1
  Er  Er9  1  0.86020715  0.56833757  0.08130717  1
  Er  Er10  1  0.36020715  0.43166243  0.41869283  1
  Er  Er11  1  0.13979285  0.43166243  0.91869283  1
  Er  Er12  1  0.61434079  0.18197669  0.27852053  1
  Er  Er13  1  0.88565921  0.18197669  0.77852053  1
  Er  Er14  1  0.38565921  0.81802331  0.72147947  1
  Er  Er15  1  0.11434079  0.81802331  0.22147947  1
  B  B16  1  0.86908875  0.87022971  0.41387182  1
  B  B17  1  0.63091125  0.87022971  0.91387182  1
  B  B18  1  0.13091125  0.12977029  0.58612818  1
  B  B19  1  0.36908875  0.12977029  0.08612818  1
  Cl  Cl20  1  0.84736831  0.11858426  0.03113113  1
  Cl  Cl21  1  0.65263169  0.11858426  0.53113113  1
  Cl  Cl22  1  0.15263169  0.88141574  0.96886887  1
  Cl  Cl23  1  0.34736831  0.88141574  0.46886887  1
  O  O24  1  0.62234589  0.53977518  0.40275173  1
  O  O25  1  0.87765411  0.53977518  0.90275173  1
  O  O26  1  0.37765411  0.46022482  0.59724827  1
  O  O27  1  0.12234589  0.46022482  0.09724827  1
  O  O28  1  0.63767909  0.31108021  0.77238019  1
  O  O29  1  0.86232091  0.31108021  0.27238019  1
  O  O30  1  0.36232091  0.68891979  0.22761981  1
  O  O31  1  0.13767909  0.68891979  0.72761981  1
  O  O32  1  0.61746228  0.68009291  0.71766558  1
  O  O33  1  0.88253772  0.68009291  0.21766558  1
  O  O34  1  0.38253772  0.31990709  0.28233442  1
  O  O35  1  0.11746228  0.31990709  0.78233442  1
  O  O36  1  0.62076669  0.42469203  0.09270234  1
  O  O37  1  0.87923331  0.42469203  0.59270234  1
  O  O38  1  0.37923331  0.57530797  0.90729766  1
  O  O39  1  0.12076669  0.57530797  0.40729766  1
  O  O40  1  0.89080734  0.77251564  0.54375354  1
  O  O41  1  0.60919266  0.77251564  0.04375354  1
  O  O42  1  0.10919266  0.22748436  0.45624646  1
  O  O43  1  0.39080734  0.22748436  0.95624646  1
  O  O44  1  0.00326057  0.93956359  0.33325637  1
  O  O45  1  0.49673943  0.93956359  0.83325637  1
  O  O46  1  0.99673943  0.06043641  0.66674363  1
  O  O47  1  0.50326057  0.06043641  0.16674363  1
  O  O48  1  0.70904982  0.88663682  0.36622098  1
  O  O49  1  0.79095018  0.88663682  0.86622098  1
  O  O50  1  0.29095018  0.11336318  0.63377902  1
  O  O51  1  0.20904982  0.11336318  0.13377902  1
