# generated using pymatgen
data_K2GaP2
_symmetry_space_group_name_H-M   'P 1'
_cell_length_a   13.98102857
_cell_length_b   8.67573813
_cell_length_c   10.94037050
_cell_angle_alpha   61.49291653
_cell_angle_beta   90.00000000
_cell_angle_gamma   90.00000000
_symmetry_Int_Tables_number   1
_chemical_formula_structural   K2GaP2
_chemical_formula_sum   'K16 Ga8 P16'
_cell_volume   1166.12991353
_cell_formula_units_Z   8
loop_
 _symmetry_equiv_pos_site_id
 _symmetry_equiv_pos_as_xyz
  1  'x, y, z'
loop_
 _atom_site_type_symbol
 _atom_site_label
 _atom_site_symmetry_multiplicity
 _atom_site_fract_x
 _atom_site_fract_y
 _atom_site_fract_z
 _atom_site_occupancy
  K  K0  1  0.11691625  0.51174052  0.93280915  1
  K  K1  1  0.38308375  0.51174052  0.43280915  1
  K  K2  1  0.88308375  0.48825948  0.06719085  1
  K  K3  1  0.61321710  0.21365264  0.97320195  1
  K  K4  1  0.62817055  0.01259452  0.46193817  1
  K  K5  1  0.38678290  0.78634736  0.02679805  1
  K  K6  1  0.88678290  0.21365264  0.47320195  1
  K  K7  1  0.86706665  0.57603342  0.60032974  1
  K  K8  1  0.36706665  0.42396658  0.89967026  1
  K  K9  1  0.13293335  0.42396658  0.39967026  1
  K  K10  1  0.63293335  0.57603342  0.10032974  1
  K  K11  1  0.87182945  0.01259452  0.96193817  1
  K  K12  1  0.37182945  0.98740548  0.53806183  1
  K  K13  1  0.12817055  0.98740548  0.03806183  1
  K  K14  1  0.61691625  0.48825948  0.56719085  1
  K  K15  1  0.11321710  0.78634736  0.52679805  1
  Ga  Ga16  1  0.55842628  0.00647499  0.75774838  1
  Ga  Ga17  1  0.05842628  0.99352501  0.74225162  1
  Ga  Ga18  1  0.44157372  0.99352501  0.24225162  1
  Ga  Ga19  1  0.78344387  0.85547177  0.75340870  1
  Ga  Ga20  1  0.28344387  0.14452823  0.74659130  1
  Ga  Ga21  1  0.21655613  0.14452823  0.24659130  1
  Ga  Ga22  1  0.71655613  0.85547177  0.25340870  1
  Ga  Ga23  1  0.94157372  0.00647499  0.25774838  1
  P  P24  1  0.53660269  0.73415098  0.77849763  1
  P  P25  1  0.31757597  0.36499758  0.21877493  1
  P  P26  1  0.81757597  0.63500242  0.28122507  1
  P  P27  1  0.71349999  0.10827198  0.72543589  1
  P  P28  1  0.21349999  0.89172802  0.77456411  1
  P  P29  1  0.28650001  0.89172802  0.27456411  1
  P  P30  1  0.78650001  0.10827198  0.22543589  1
  P  P31  1  0.55551101  0.79420732  0.25605917  1
  P  P32  1  0.05551101  0.20579268  0.24394083  1
  P  P33  1  0.44448899  0.20579268  0.74394083  1
  P  P34  1  0.68242403  0.63500242  0.78122507  1
  P  P35  1  0.94448899  0.79420732  0.75605917  1
  P  P36  1  0.96339731  0.73415098  0.27849763  1
  P  P37  1  0.46339731  0.26584902  0.22150237  1
  P  P38  1  0.03660269  0.26584902  0.72150237  1
  P  P39  1  0.18242403  0.36499758  0.71877493  1
