# generated using pymatgen
data_SmBiS3
_symmetry_space_group_name_H-M   'P 1'
_cell_length_a   4.04604410
_cell_length_b   10.90302464
_cell_length_c   11.01537037
_cell_angle_alpha   90.00000000
_cell_angle_beta   90.00000000
_cell_angle_gamma   90.00000000
_symmetry_Int_Tables_number   1
_chemical_formula_structural   SmBiS3
_chemical_formula_sum   'Sm4 Bi4 S12'
_cell_volume   485.93335401
_cell_formula_units_Z   4
loop_
 _symmetry_equiv_pos_site_id
 _symmetry_equiv_pos_as_xyz
  1  'x, y, z'
loop_
 _atom_site_type_symbol
 _atom_site_label
 _atom_site_symmetry_multiplicity
 _atom_site_fract_x
 _atom_site_fract_y
 _atom_site_fract_z
 _atom_site_occupancy
  Sm  Sm0  1  0.25000000  0.17164333  0.49005366  1
  Sm  Sm1  1  0.25000000  0.32835667  0.99005366  1
  Sm  Sm2  1  0.75000000  0.82835667  0.50994634  1
  Sm  Sm3  1  0.75000000  0.67164333  0.00994634  1
  Bi  Bi4  1  0.75000000  0.46679824  0.67188777  1
  Bi  Bi5  1  0.75000000  0.03320176  0.17188777  1
  Bi  Bi6  1  0.25000000  0.53320176  0.32811223  1
  Bi  Bi7  1  0.25000000  0.96679824  0.82811223  1
  S  S8  1  0.25000000  0.63472130  0.54685042  1
  S  S9  1  0.25000000  0.86527870  0.04685042  1
  S  S10  1  0.75000000  0.36527870  0.45314958  1
  S  S11  1  0.75000000  0.13472130  0.95314958  1
  S  S12  1  0.75000000  0.06175746  0.61519646  1
  S  S13  1  0.75000000  0.43824254  0.11519646  1
  S  S14  1  0.25000000  0.93824254  0.38480354  1
  S  S15  1  0.25000000  0.56175746  0.88480354  1
  S  S16  1  0.25000000  0.30605745  0.72336046  1
  S  S17  1  0.25000000  0.19394255  0.22336046  1
  S  S18  1  0.75000000  0.69394255  0.27663954  1
  S  S19  1  0.75000000  0.80605745  0.77663954  1
