# generated using pymatgen
data_Cd4SF6
_symmetry_space_group_name_H-M   'P 1'
_cell_length_a   7.89101126
_cell_length_b   7.89101126
_cell_length_c   5.51059734
_cell_angle_alpha   90.00000000
_cell_angle_beta   90.00000000
_cell_angle_gamma   90.00000000
_symmetry_Int_Tables_number   1
_chemical_formula_structural   Cd4SF6
_chemical_formula_sum   'Cd8 S2 F12'
_cell_volume   343.13419867
_cell_formula_units_Z   2
loop_
 _symmetry_equiv_pos_site_id
 _symmetry_equiv_pos_as_xyz
  1  'x, y, z'
loop_
 _atom_site_type_symbol
 _atom_site_label
 _atom_site_symmetry_multiplicity
 _atom_site_fract_x
 _atom_site_fract_y
 _atom_site_fract_z
 _atom_site_occupancy
  Cd  Cd0  1  0.50000000  0.76499896  0.23358962  1
  Cd  Cd1  1  0.50000000  0.23500104  0.23358962  1
  Cd  Cd2  1  0.26499896  0.00000000  0.73358962  1
  Cd  Cd3  1  0.73500104  0.00000000  0.73358962  1
  Cd  Cd4  1  0.00000000  0.73500104  0.26641038  1
  Cd  Cd5  1  0.00000000  0.26499896  0.26641038  1
  Cd  Cd6  1  0.23500104  0.50000000  0.76641038  1
  Cd  Cd7  1  0.76499896  0.50000000  0.76641038  1
  S  S8  1  0.00000000  0.00000000  0.50000000  1
  S  S9  1  0.50000000  0.50000000  0.00000000  1
  F  F10  1  0.28556445  0.28556445  0.50000000  1
  F  F11  1  0.28556445  0.71443555  0.50000000  1
  F  F12  1  0.71443555  0.28556445  0.50000000  1
  F  F13  1  0.71443555  0.71443555  0.50000000  1
  F  F14  1  0.78556445  0.78556445  0.00000000  1
  F  F15  1  0.78556445  0.21443555  0.00000000  1
  F  F16  1  0.21443555  0.78556445  0.00000000  1
  F  F17  1  0.21443555  0.21443555  0.00000000  1
  F  F18  1  0.50000000  0.00000000  0.97354038  1
  F  F19  1  0.50000000  0.00000000  0.47354038  1
  F  F20  1  0.00000000  0.50000000  0.52645962  1
  F  F21  1  0.00000000  0.50000000  0.02645962  1
