# generated using pymatgen
data_ZnTeO3
_symmetry_space_group_name_H-M   'P 1'
_cell_length_a   6.32906732
_cell_length_b   7.33928353
_cell_length_c   12.32774028
_cell_angle_alpha   90.00000000
_cell_angle_beta   90.00000000
_cell_angle_gamma   90.00000000
_symmetry_Int_Tables_number   1
_chemical_formula_structural   ZnTeO3
_chemical_formula_sum   'Zn8 Te8 O24'
_cell_volume   572.63363911
_cell_formula_units_Z   8
loop_
 _symmetry_equiv_pos_site_id
 _symmetry_equiv_pos_as_xyz
  1  'x, y, z'
loop_
 _atom_site_type_symbol
 _atom_site_label
 _atom_site_symmetry_multiplicity
 _atom_site_fract_x
 _atom_site_fract_y
 _atom_site_fract_z
 _atom_site_occupancy
  Zn  Zn0  1  0.87792430  0.89062354  0.40998313  1
  Zn  Zn1  1  0.37792430  0.10937646  0.09001687  1
  Zn  Zn2  1  0.62207570  0.39062354  0.59001687  1
  Zn  Zn3  1  0.12207570  0.60937646  0.90998313  1
  Zn  Zn4  1  0.12207570  0.10937646  0.59001687  1
  Zn  Zn5  1  0.62207570  0.89062354  0.90998313  1
  Zn  Zn6  1  0.37792430  0.60937646  0.40998313  1
  Zn  Zn7  1  0.87792430  0.39062354  0.09001687  1
  Te  Te8  1  0.90962050  0.93647360  0.14367677  1
  Te  Te9  1  0.40962050  0.06352640  0.35632323  1
  Te  Te10  1  0.59037950  0.43647360  0.85632323  1
  Te  Te11  1  0.09037950  0.56352640  0.64367677  1
  Te  Te12  1  0.09037950  0.06352640  0.85632323  1
  Te  Te13  1  0.59037950  0.93647360  0.64367677  1
  Te  Te14  1  0.40962050  0.56352640  0.14367677  1
  Te  Te15  1  0.90962050  0.43647360  0.35632323  1
  O  O16  1  0.52928020  0.34427001  0.08985115  1
  O  O17  1  0.02928020  0.65572999  0.41014885  1
  O  O18  1  0.97071980  0.84427001  0.91014885  1
  O  O19  1  0.47071980  0.15572999  0.58985115  1
  O  O20  1  0.47071980  0.65572999  0.91014885  1
  O  O21  1  0.97071980  0.34427001  0.58985115  1
  O  O22  1  0.02928020  0.15572999  0.08985115  1
  O  O23  1  0.52928020  0.84427001  0.41014885  1
  O  O24  1  0.65543201  0.46193725  0.43446896  1
  O  O25  1  0.15543201  0.53806275  0.06553104  1
  O  O26  1  0.84456799  0.96193725  0.56553104  1
  O  O27  1  0.34456799  0.03806275  0.93446896  1
  O  O28  1  0.34456799  0.53806275  0.56553104  1
  O  O29  1  0.84456799  0.46193725  0.93446896  1
  O  O30  1  0.15543201  0.03806275  0.43446896  1
  O  O31  1  0.65543201  0.96193725  0.06553104  1
  O  O32  1  0.80277177  0.52747173  0.22503711  1
  O  O33  1  0.30277177  0.47252827  0.27496289  1
  O  O34  1  0.69722823  0.02747173  0.77496289  1
  O  O35  1  0.19722823  0.97252827  0.72503711  1
  O  O36  1  0.19722823  0.47252827  0.77496289  1
  O  O37  1  0.69722823  0.52747173  0.72503711  1
  O  O38  1  0.30277177  0.97252827  0.22503711  1
  O  O39  1  0.80277177  0.02747173  0.27496289  1
