# generated using pymatgen
data_Sr3(GeP2)2
_symmetry_space_group_name_H-M   'P 1'
_cell_length_a   18.19033179
_cell_length_b   7.28128117
_cell_length_c   7.48648608
_cell_angle_alpha   67.93461039
_cell_angle_beta   90.00000000
_cell_angle_gamma   90.00000000
_symmetry_Int_Tables_number   1
_chemical_formula_structural   Sr3(GeP2)2
_chemical_formula_sum   'Sr12 Ge8 P16'
_cell_volume   918.94966062
_cell_formula_units_Z   4
loop_
 _symmetry_equiv_pos_site_id
 _symmetry_equiv_pos_as_xyz
  1  'x, y, z'
loop_
 _atom_site_type_symbol
 _atom_site_label
 _atom_site_symmetry_multiplicity
 _atom_site_fract_x
 _atom_site_fract_y
 _atom_site_fract_z
 _atom_site_occupancy
  Sr  Sr0  1  0.31551993  0.01099834  0.78380509  1
  Sr  Sr1  1  0.81551993  0.48900166  0.21619491  1
  Sr  Sr2  1  0.68448007  0.98900166  0.21619491  1
  Sr  Sr3  1  0.18448007  0.51099834  0.78380509  1
  Sr  Sr4  1  0.44173193  0.99506946  0.26086988  1
  Sr  Sr5  1  0.94173193  0.50493054  0.73913012  1
  Sr  Sr6  1  0.55826807  0.00493054  0.73913012  1
  Sr  Sr7  1  0.05826807  0.49506946  0.26086988  1
  Sr  Sr8  1  0.43598168  0.51152789  0.74356583  1
  Sr  Sr9  1  0.93598168  0.98847211  0.25643417  1
  Sr  Sr10  1  0.56401832  0.48847211  0.25643417  1
  Sr  Sr11  1  0.06401832  0.01152789  0.74356583  1
  Ge  Ge12  1  0.62770763  0.52625462  0.78746995  1
  Ge  Ge13  1  0.12770763  0.97374538  0.21253005  1
  Ge  Ge14  1  0.37229237  0.47374538  0.21253005  1
  Ge  Ge15  1  0.87229237  0.02625462  0.78746995  1
  Ge  Ge16  1  0.74110470  0.40862712  0.68618345  1
  Ge  Ge17  1  0.75889530  0.90862712  0.68618345  1
  Ge  Ge18  1  0.25889530  0.59137288  0.31381655  1
  Ge  Ge19  1  0.24110470  0.09137288  0.31381655  1
  P  P20  1  0.43137708  0.26333556  0.48930696  1
  P  P21  1  0.93137708  0.23666444  0.51069304  1
  P  P22  1  0.56862292  0.73666444  0.51069304  1
  P  P23  1  0.06862292  0.76333556  0.48930696  1
  P  P24  1  0.43902129  0.74135493  0.01123407  1
  P  P25  1  0.93902129  0.75864507  0.98876593  1
  P  P26  1  0.56097871  0.25864507  0.98876593  1
  P  P27  1  0.06097871  0.24135493  0.01123407  1
  P  P28  1  0.18528299  0.78170851  0.04970022  1
  P  P29  1  0.68528299  0.71829149  0.95029978  1
  P  P30  1  0.81471701  0.21829149  0.95029978  1
  P  P31  1  0.31471701  0.28170851  0.04970022  1
  P  P32  1  0.79897592  0.71761377  0.50518221  1
  P  P33  1  0.70102408  0.21761377  0.50518221  1
  P  P34  1  0.20102408  0.28238623  0.49481779  1
  P  P35  1  0.29897592  0.78238623  0.49481779  1
