# generated using pymatgen
data_Ho3Te3N
_symmetry_space_group_name_H-M   'P 1'
_cell_length_a   11.91322313
_cell_length_b   8.06747915
_cell_length_c   8.60340981
_cell_angle_alpha   71.19691715
_cell_angle_beta   90.00000000
_cell_angle_gamma   90.00000000
_symmetry_Int_Tables_number   1
_chemical_formula_structural   Ho3Te3N
_chemical_formula_sum   'Ho12 Te12 N4'
_cell_volume   782.74244045
_cell_formula_units_Z   4
loop_
 _symmetry_equiv_pos_site_id
 _symmetry_equiv_pos_as_xyz
  1  'x, y, z'
loop_
 _atom_site_type_symbol
 _atom_site_label
 _atom_site_symmetry_multiplicity
 _atom_site_fract_x
 _atom_site_fract_y
 _atom_site_fract_z
 _atom_site_occupancy
  Ho  Ho0  1  0.02265684  0.60150107  0.13748254  1
  Ho  Ho1  1  0.52265684  0.39849893  0.36251746  1
  Ho  Ho2  1  0.97734316  0.39849893  0.86251746  1
  Ho  Ho3  1  0.47734316  0.60150107  0.63748254  1
  Ho  Ho4  1  0.41236830  0.83860245  0.20619265  1
  Ho  Ho5  1  0.91236830  0.16139755  0.29380735  1
  Ho  Ho6  1  0.58763170  0.16139755  0.79380735  1
  Ho  Ho7  1  0.08763170  0.83860245  0.70619265  1
  Ho  Ho8  1  0.70862118  0.76579202  0.34738507  1
  Ho  Ho9  1  0.20862118  0.23420798  0.15261493  1
  Ho  Ho10  1  0.29137882  0.23420798  0.65261493  1
  Ho  Ho11  1  0.79137882  0.76579202  0.84738507  1
  Te  Te12  1  0.97976133  0.77731955  0.41383709  1
  Te  Te13  1  0.47976133  0.22268045  0.08616291  1
  Te  Te14  1  0.02023867  0.22268045  0.58616291  1
  Te  Te15  1  0.52023867  0.77731955  0.91383709  1
  Te  Te16  1  0.26632243  0.50814491  0.31143925  1
  Te  Te17  1  0.76632243  0.49185509  0.18856075  1
  Te  Te18  1  0.73367757  0.49185509  0.68856075  1
  Te  Te19  1  0.23367757  0.50814491  0.81143925  1
  Te  Te20  1  0.30762646  0.95423431  0.48252810  1
  Te  Te21  1  0.80762646  0.04576569  0.01747190  1
  Te  Te22  1  0.69237354  0.04576569  0.51747190  1
  Te  Te23  1  0.19237354  0.95423431  0.98252810  1
  N  N24  1  0.53470599  0.67271630  0.37704288  1
  N  N25  1  0.03470599  0.32728370  0.12295712  1
  N  N26  1  0.46529401  0.32728370  0.62295712  1
  N  N27  1  0.96529401  0.67271630  0.87704288  1
