# generated using pymatgen
data_Sr(ScS2)2
_symmetry_space_group_name_H-M   'P 1'
_cell_length_a   3.79949535
_cell_length_b   11.69713916
_cell_length_c   13.72711071
_cell_angle_alpha   90.00000000
_cell_angle_beta   90.00000000
_cell_angle_gamma   90.00000000
_symmetry_Int_Tables_number   1
_chemical_formula_structural   Sr(ScS2)2
_chemical_formula_sum   'Sr4 Sc8 S16'
_cell_volume   610.07708151
_cell_formula_units_Z   4
loop_
 _symmetry_equiv_pos_site_id
 _symmetry_equiv_pos_as_xyz
  1  'x, y, z'
loop_
 _atom_site_type_symbol
 _atom_site_label
 _atom_site_symmetry_multiplicity
 _atom_site_fract_x
 _atom_site_fract_y
 _atom_site_fract_z
 _atom_site_occupancy
  Sr  Sr0  1  0.25000000  0.23907948  0.33349817  1
  Sr  Sr1  1  0.75000000  0.76092052  0.66650183  1
  Sr  Sr2  1  0.25000000  0.73907948  0.16650183  1
  Sr  Sr3  1  0.75000000  0.26092052  0.83349817  1
  Sc  Sc4  1  0.25000000  0.56004388  0.39056037  1
  Sc  Sc5  1  0.75000000  0.43995612  0.60943963  1
  Sc  Sc6  1  0.25000000  0.06004388  0.10943963  1
  Sc  Sc7  1  0.75000000  0.93995612  0.89056037  1
  Sc  Sc8  1  0.25000000  0.58085321  0.90148407  1
  Sc  Sc9  1  0.75000000  0.41914679  0.09851593  1
  Sc  Sc10  1  0.25000000  0.08085321  0.59851593  1
  Sc  Sc11  1  0.75000000  0.91914679  0.40148407  1
  S  S12  1  0.25000000  0.58631082  0.57490562  1
  S  S13  1  0.75000000  0.41368918  0.42509438  1
  S  S14  1  0.25000000  0.08631082  0.92509438  1
  S  S15  1  0.75000000  0.91368918  0.07490562  1
  S  S16  1  0.25000000  0.47228635  0.21562174  1
  S  S17  1  0.75000000  0.52771365  0.78437826  1
  S  S18  1  0.25000000  0.97228635  0.28437826  1
  S  S19  1  0.75000000  0.02771365  0.71562174  1
  S  S20  1  0.25000000  0.87735110  0.52671371  1
  S  S21  1  0.75000000  0.12264890  0.47328629  1
  S  S22  1  0.25000000  0.37735110  0.97328629  1
  S  S23  1  0.75000000  0.62264890  0.02671371  1
  S  S24  1  0.75000000  0.70375412  0.33985951  1
  S  S25  1  0.25000000  0.29624588  0.66014049  1
  S  S26  1  0.75000000  0.20375412  0.16014049  1
  S  S27  1  0.25000000  0.79624588  0.83985951  1
