# generated using pymatgen
data_RbNbGeO5
_symmetry_space_group_name_H-M   'P 1'
_cell_length_a   7.58624522
_cell_length_b   10.59485609
_cell_length_c   20.98767377
_cell_angle_alpha   90.00000000
_cell_angle_beta   90.00000000
_cell_angle_gamma   90.00000000
_symmetry_Int_Tables_number   1
_chemical_formula_structural   RbNbGeO5
_chemical_formula_sum   'Rb12 Nb12 Ge12 O60'
_cell_volume   1686.88798085
_cell_formula_units_Z   12
loop_
 _symmetry_equiv_pos_site_id
 _symmetry_equiv_pos_as_xyz
  1  'x, y, z'
loop_
 _atom_site_type_symbol
 _atom_site_label
 _atom_site_symmetry_multiplicity
 _atom_site_fract_x
 _atom_site_fract_y
 _atom_site_fract_z
 _atom_site_occupancy
  Rb  Rb0  1  0.23969389  0.38231780  0.34863193  1
  Rb  Rb1  1  0.26030611  0.61768220  0.84863193  1
  Rb  Rb2  1  0.76030611  0.88231780  0.15136807  1
  Rb  Rb3  1  0.73969389  0.11768220  0.65136807  1
  Rb  Rb4  1  0.25896356  0.68600908  0.16713752  1
  Rb  Rb5  1  0.24103644  0.31399092  0.66713752  1
  Rb  Rb6  1  0.74103644  0.18600908  0.33286248  1
  Rb  Rb7  1  0.75896356  0.81399092  0.83286248  1
  Rb  Rb8  1  0.22178260  0.38463733  0.01718251  1
  Rb  Rb9  1  0.27821740  0.61536267  0.51718251  1
  Rb  Rb10  1  0.77821740  0.88463733  0.48281749  1
  Rb  Rb11  1  0.72178260  0.11536267  0.98281749  1
  Nb  Nb12  1  0.25766835  0.02086732  0.39899917  1
  Nb  Nb13  1  0.24233165  0.97913268  0.89899917  1
  Nb  Nb14  1  0.74233165  0.52086732  0.10100083  1
  Nb  Nb15  1  0.75766835  0.47913268  0.60100083  1
  Nb  Nb16  1  0.47995910  0.26676153  0.49964229  1
  Nb  Nb17  1  0.02004090  0.73323847  0.99964229  1
  Nb  Nb18  1  0.52004090  0.76676153  0.00035771  1
  Nb  Nb19  1  0.97995910  0.23323847  0.50035771  1
  Nb  Nb20  1  0.23562085  0.01477561  0.07357728  1
  Nb  Nb21  1  0.26437915  0.98522439  0.57357728  1
  Nb  Nb22  1  0.76437915  0.51477561  0.42642272  1
  Nb  Nb23  1  0.73562085  0.48522439  0.92642272  1
  Ge  Ge24  1  0.51930410  0.24447826  0.14847745  1
  Ge  Ge25  1  0.98069590  0.75552174  0.64847745  1
  Ge  Ge26  1  0.48069590  0.74447826  0.35152255  1
  Ge  Ge27  1  0.01930410  0.25552174  0.85152255  1
  Ge  Ge28  1  0.23502735  0.11683318  0.23043472  1
  Ge  Ge29  1  0.26497265  0.88316682  0.73043472  1
  Ge  Ge30  1  0.76497265  0.61683318  0.26956528  1
  Ge  Ge31  1  0.73502735  0.38316682  0.76956528  1
  Ge  Ge32  1  0.06450178  0.73142317  0.35180673  1
  Ge  Ge33  1  0.43549822  0.26857683  0.85180673  1
  Ge  Ge34  1  0.93549822  0.23142317  0.14819327  1
  Ge  Ge35  1  0.56450178  0.76857683  0.64819327  1
  O  O36  1  0.06095218  0.10287014  0.56278593  1
  O  O37  1  0.43904782  0.89712986  0.06278593  1
  O  O38  1  0.93904782  0.60287014  0.93721407  1
  O  O39  1  0.56095218  0.39712986  0.43721407  1
  O  O40  1  0.23972995  0.08979261  0.31184162  1
  O  O41  1  0.26027005  0.91020739  0.81184162  1
  O  O42  1  0.76027005  0.58979261  0.18815838  1
  O  O43  1  0.73972995  0.41020739  0.68815838  1
  O  O44  1  0.02847337  0.13908262  0.08808924  1
  O  O45  1  0.47152663  0.86091738  0.58808924  1
  O  O46  1  0.97152663  0.63908262  0.41191076  1
  O  O47  1  0.52847337  0.36091738  0.91191076  1
  O  O48  1  0.03628233  0.20823772  0.22439015  1
  O  O49  1  0.46371767  0.79176228  0.72439015  1
  O  O50  1  0.96371767  0.70823772  0.27560985  1
  O  O51  1  0.53628233  0.29176228  0.77560985  1
  O  O52  1  0.41217472  0.16652519  0.08680818  1
  O  O53  1  0.08782528  0.83347481  0.58680818  1
  O  O54  1  0.58782528  0.66652519  0.41319182  1
  O  O55  1  0.91217472  0.33347481  0.91319182  1
  O  O56  1  0.40953004  0.23120860  0.22364161  1
  O  O57  1  0.09046996  0.76879140  0.72364161  1
  O  O58  1  0.59046996  0.73120860  0.27635839  1
  O  O59  1  0.90953004  0.26879140  0.77635839  1
  O  O60  1  0.23740001  0.31240581  0.50134711  1
  O  O61  1  0.26259999  0.68759419  0.00134711  1
  O  O62  1  0.76259999  0.81240581  0.99865289  1
  O  O63  1  0.73740001  0.18759419  0.49865289  1
  O  O64  1  0.42784158  0.14559105  0.42563826  1
  O  O65  1  0.07215842  0.85440895  0.92563826  1
  O  O66  1  0.57215842  0.64559105  0.07436174  1
  O  O67  1  0.92784158  0.35440895  0.57436174  1
  O  O68  1  0.73579955  0.43908209  0.01438329  1
  O  O69  1  0.76420045  0.56091791  0.51438329  1
  O  O70  1  0.26420045  0.93908209  0.48561671  1
  O  O71  1  0.23579955  0.06091791  0.98561671  1
  O  O72  1  0.05638577  0.12487294  0.42867825  1
  O  O73  1  0.44361423  0.87512706  0.92867825  1
  O  O74  1  0.94361423  0.62487294  0.07132175  1
  O  O75  1  0.55638577  0.37512706  0.57132175  1
  O  O76  1  0.72290803  0.16494763  0.16525344  1
  O  O77  1  0.77709197  0.83505237  0.66525344  1
  O  O78  1  0.27709197  0.66494763  0.33474656  1
  O  O79  1  0.22290803  0.33505237  0.83474656  1
  O  O80  1  0.24579281  0.99325686  0.17580893  1
  O  O81  1  0.25420719  0.00674314  0.67580893  1
  O  O82  1  0.75420719  0.49325686  0.32419107  1
  O  O83  1  0.74579281  0.50674314  0.82419107  1
  O  O84  1  0.54413834  0.40395384  0.13053464  1
  O  O85  1  0.95586166  0.59604616  0.63053464  1
  O  O86  1  0.45586166  0.90395384  0.36946536  1
  O  O87  1  0.04413834  0.09604616  0.86946536  1
  O  O88  1  0.06545688  0.88919231  0.37315656  1
  O  O89  1  0.43454312  0.11080769  0.87315656  1
  O  O90  1  0.93454312  0.38919231  0.12684344  1
  O  O91  1  0.56545688  0.61080769  0.62684344  1
  O  O92  1  0.42511401  0.12509301  0.56515093  1
  O  O93  1  0.07488599  0.87490699  0.06515093  1
  O  O94  1  0.57488599  0.62509301  0.93484907  1
  O  O95  1  0.92511401  0.37490699  0.43484907  1
