# generated using pymatgen
data_SiC
_symmetry_space_group_name_H-M   'P 1'
_cell_length_a   3.07659534
_cell_length_b   3.07659534
_cell_length_c   42.81679088
_cell_angle_alpha   87.94077350
_cell_angle_beta   87.94077350
_cell_angle_gamma   59.99997716
_symmetry_Int_Tables_number   1
_chemical_formula_structural   SiC
_chemical_formula_sum   'Si17 C17'
_cell_volume   350.68020704
_cell_formula_units_Z   17
loop_
 _symmetry_equiv_pos_site_id
 _symmetry_equiv_pos_as_xyz
  1  'x, y, z'
loop_
 _atom_site_type_symbol
 _atom_site_label
 _atom_site_symmetry_multiplicity
 _atom_site_fract_x
 _atom_site_fract_y
 _atom_site_fract_z
 _atom_site_occupancy
  Si  Si0  1  0.00001149  0.00001149  0.99997338  1
  Si  Si1  1  0.96080069  0.96080069  0.11764473  1
  Si  Si2  1  0.88238997  0.88238997  0.35287551  1
  Si  Si3  1  0.84313738  0.84313738  0.47057841  1
  Si  Si4  1  0.76473718  0.76473718  0.70582062  1
  Si  Si5  1  0.72549244  0.72549244  0.82353044  1
  Si  Si6  1  0.64704010  0.64704010  0.05880970  1
  Si  Si7  1  0.58824256  0.58824256  0.23526775  1
  Si  Si8  1  0.52944067  0.52944067  0.41173166  1
  Si  Si9  1  0.47056904  0.47056904  0.58821804  1
  Si  Si10  1  0.41177605  0.41177605  0.76468132  1
  Si  Si11  1  0.35297057  0.35297057  0.94115269  1
  Si  Si12  1  0.27453386  0.27453386  0.17640139  1
  Si  Si13  1  0.23528197  0.23528197  0.29411498  1
  Si  Si14  1  0.15689135  0.15689135  0.52934569  1
  Si  Si15  1  0.11763611  0.11763611  0.64706434  1
  Si  Si16  1  0.03922682  0.03922682  0.88229500  1
  C  C17  1  0.98531120  0.98531120  0.04405732  1
  C  C18  1  0.94608179  0.94608179  0.16175677  1
  C  C19  1  0.86766974  0.86766974  0.39698387  1
  C  C20  1  0.82842729  0.82842729  0.51470101  1
  C  C21  1  0.75002294  0.75002294  0.74993035  1
  C  C22  1  0.71078282  0.71078282  0.86765084  1
  C  C23  1  0.63232154  0.63232154  0.10304532  1
  C  C24  1  0.57349479  0.57349479  0.27951634  1
  C  C25  1  0.51467629  0.51467629  0.45597662  1
  C  C26  1  0.45584363  0.45584363  0.63246545  1
  C  C27  1  0.39702312  0.39702312  0.80892704  1
  C  C28  1  0.33820326  0.33820326  0.98538715  1
  C  C29  1  0.25982354  0.25982354  0.22051534  1
  C  C30  1  0.22058692  0.22058692  0.33823546  1
  C  C31  1  0.14217418  0.14217418  0.57346534  1
  C  C32  1  0.10293912  0.10293912  0.69117725  1
  C  C33  1  0.02453560  0.02453560  0.92640287  1
