# generated using pymatgen
data_K3NbS4
_symmetry_space_group_name_H-M   'P 1'
_cell_length_a   9.31351488
_cell_length_b   9.50901242
_cell_length_c   10.75533038
_cell_angle_alpha   90.00000000
_cell_angle_beta   90.00000000
_cell_angle_gamma   90.00000000
_symmetry_Int_Tables_number   1
_chemical_formula_structural   K3NbS4
_chemical_formula_sum   'K12 Nb4 S16'
_cell_volume   952.51710404
_cell_formula_units_Z   4
loop_
 _symmetry_equiv_pos_site_id
 _symmetry_equiv_pos_as_xyz
  1  'x, y, z'
loop_
 _atom_site_type_symbol
 _atom_site_label
 _atom_site_symmetry_multiplicity
 _atom_site_fract_x
 _atom_site_fract_y
 _atom_site_fract_z
 _atom_site_occupancy
  K  K0  1  0.05980273  0.28777441  0.95504035  1
  K  K1  1  0.63330954  0.42318760  0.25000000  1
  K  K2  1  0.36669046  0.57681240  0.75000000  1
  K  K3  1  0.86669046  0.92318760  0.75000000  1
  K  K4  1  0.94019727  0.71222559  0.04495965  1
  K  K5  1  0.44019727  0.78777441  0.45504035  1
  K  K6  1  0.55980273  0.21222559  0.95504035  1
  K  K7  1  0.05980273  0.28777441  0.54495965  1
  K  K8  1  0.94019727  0.71222559  0.45504035  1
  K  K9  1  0.55980273  0.21222559  0.54495965  1
  K  K10  1  0.44019727  0.78777441  0.04495965  1
  K  K11  1  0.13330954  0.07681240  0.25000000  1
  Nb  Nb12  1  0.21357893  0.51214955  0.25000000  1
  Nb  Nb13  1  0.71357893  0.98785045  0.25000000  1
  Nb  Nb14  1  0.28642107  0.01214955  0.75000000  1
  Nb  Nb15  1  0.78642107  0.48785045  0.75000000  1
  S  S16  1  0.66555016  0.55194785  0.92572014  1
  S  S17  1  0.16555016  0.94805215  0.57427986  1
  S  S18  1  0.83444984  0.05194785  0.07427986  1
  S  S19  1  0.33444984  0.44805215  0.42572014  1
  S  S20  1  0.33444984  0.44805215  0.07427986  1
  S  S21  1  0.83444984  0.05194785  0.42572014  1
  S  S22  1  0.16555016  0.94805215  0.92572014  1
  S  S23  1  0.66555016  0.55194785  0.57427986  1
  S  S24  1  0.18853692  0.75157502  0.25000000  1
  S  S25  1  0.68853692  0.74842498  0.25000000  1
  S  S26  1  0.31146308  0.25157502  0.75000000  1
  S  S27  1  0.81146308  0.24842498  0.75000000  1
  S  S28  1  0.99018351  0.41122495  0.25000000  1
  S  S29  1  0.00981649  0.58877505  0.75000000  1
  S  S30  1  0.50981649  0.91122495  0.75000000  1
  S  S31  1  0.49018351  0.08877505  0.25000000  1
