# generated using pymatgen
data_Pr3Se3N
_symmetry_space_group_name_H-M   'P 1'
_cell_length_a   4.16893905
_cell_length_b   12.92747934
_cell_length_c   13.62519608
_cell_angle_alpha   90.00000000
_cell_angle_beta   90.00000000
_cell_angle_gamma   90.00000000
_symmetry_Int_Tables_number   1
_chemical_formula_structural   Pr3Se3N
_chemical_formula_sum   'Pr12 Se12 N4'
_cell_volume   734.31459311
_cell_formula_units_Z   4
loop_
 _symmetry_equiv_pos_site_id
 _symmetry_equiv_pos_as_xyz
  1  'x, y, z'
loop_
 _atom_site_type_symbol
 _atom_site_label
 _atom_site_symmetry_multiplicity
 _atom_site_fract_x
 _atom_site_fract_y
 _atom_site_fract_z
 _atom_site_occupancy
  Pr  Pr0  1  0.25000000  0.71208935  0.86400829  1
  Pr  Pr1  1  0.75000000  0.28791065  0.13599171  1
  Pr  Pr2  1  0.75000000  0.78791065  0.36400829  1
  Pr  Pr3  1  0.25000000  0.21208935  0.63599171  1
  Pr  Pr4  1  0.25000000  0.57375532  0.63129265  1
  Pr  Pr5  1  0.75000000  0.42624468  0.36870735  1
  Pr  Pr6  1  0.75000000  0.92624468  0.13129265  1
  Pr  Pr7  1  0.25000000  0.07375532  0.86870735  1
  Pr  Pr8  1  0.25000000  0.53966304  0.15251927  1
  Pr  Pr9  1  0.75000000  0.46033696  0.84748073  1
  Pr  Pr10  1  0.75000000  0.96033696  0.65251927  1
  Pr  Pr11  1  0.25000000  0.03966304  0.34748073  1
  Se  Se12  1  0.25000000  0.77269424  0.19282137  1
  Se  Se13  1  0.75000000  0.22730576  0.80717863  1
  Se  Se14  1  0.75000000  0.72730576  0.69282137  1
  Se  Se15  1  0.25000000  0.27269424  0.30717863  1
  Se  Se16  1  0.25000000  0.08962616  0.10784751  1
  Se  Se17  1  0.75000000  0.91037384  0.89215249  1
  Se  Se18  1  0.75000000  0.41037384  0.60784751  1
  Se  Se19  1  0.25000000  0.58962616  0.39215249  1
  Se  Se20  1  0.25000000  0.86706372  0.49761159  1
  Se  Se21  1  0.75000000  0.13293628  0.50238841  1
  Se  Se22  1  0.75000000  0.63293628  -0.00238841  1
  Se  Se23  1  0.25000000  0.36706372  0.00238841  1
  N  N24  1  0.25000000  0.54389284  0.79708134  1
  N  N25  1  0.75000000  0.45610716  0.20291866  1
  N  N26  1  0.75000000  0.95610716  0.29708134  1
  N  N27  1  0.25000000  0.04389284  0.70291866  1
