# generated using pymatgen
data_Mn2SiO4
_symmetry_space_group_name_H-M   'P 1'
_cell_length_a   4.89611994
_cell_length_b   6.25712441
_cell_length_c   10.57596765
_cell_angle_alpha   90.00000000
_cell_angle_beta   90.00000000
_cell_angle_gamma   90.00000000
_symmetry_Int_Tables_number   1
_chemical_formula_structural   Mn2SiO4
_chemical_formula_sum   'Mn8 Si4 O16'
_cell_volume   324.00144864
_cell_formula_units_Z   4
loop_
 _symmetry_equiv_pos_site_id
 _symmetry_equiv_pos_as_xyz
  1  'x, y, z'
loop_
 _atom_site_type_symbol
 _atom_site_label
 _atom_site_symmetry_multiplicity
 _atom_site_fract_x
 _atom_site_fract_y
 _atom_site_fract_z
 _atom_site_occupancy
  Mn  Mn0  1  0.48506426  0.75000000  0.21994744  1
  Mn  Mn1  1  0.98506426  0.25000000  0.28005256  1
  Mn  Mn2  1  0.51493574  0.25000000  0.78005256  1
  Mn  Mn3  1  0.01493574  0.75000000  0.71994744  1
  Mn  Mn4  1  0.50000000  0.50000000  0.50000000  1
  Mn  Mn5  1  -0.00000000  0.50000000  0.00000000  1
  Mn  Mn6  1  0.50000000  0.00000000  0.50000000  1
  Mn  Mn7  1  -0.00000000  0.00000000  0.00000000  1
  Si  Si8  1  0.92797752  0.75000000  0.40339212  1
  Si  Si9  1  0.42797752  0.25000000  0.09660788  1
  Si  Si10  1  0.07202248  0.25000000  0.59660788  1
  Si  Si11  1  0.57202248  0.75000000  0.90339212  1
  O  O12  1  0.21288867  0.45908379  0.66408895  1
  O  O13  1  0.71288867  0.54091621  0.83591105  1
  O  O14  1  0.78711133  0.95908379  0.33591105  1
  O  O15  1  0.28711133  0.04091621  0.16408895  1
  O  O16  1  0.78711133  0.54091621  0.33591105  1
  O  O17  1  0.28711133  0.45908379  0.16408895  1
  O  O18  1  0.21288867  0.04091621  0.66408895  1
  O  O19  1  0.71288867  0.95908379  0.83591105  1
  O  O20  1  0.70998563  0.75000000  0.04685635  1
  O  O21  1  0.20998563  0.25000000  0.45314365  1
  O  O22  1  0.29001437  0.25000000  0.95314365  1
  O  O23  1  0.79001437  0.75000000  0.54685635  1
  O  O24  1  0.24052064  0.75000000  0.90648902  1
  O  O25  1  0.74052064  0.25000000  0.59351098  1
  O  O26  1  0.75947936  0.25000000  0.09351098  1
  O  O27  1  0.25947936  0.75000000  0.40648902  1
