# generated using pymatgen
data_Pr7(IO6)3
_symmetry_space_group_name_H-M   'P 1'
_cell_length_a   17.15802513
_cell_length_b   17.15802513
_cell_length_c   4.01843953
_cell_angle_alpha   90.00000000
_cell_angle_beta   90.00000000
_cell_angle_gamma   119.99999628
_symmetry_Int_Tables_number   1
_chemical_formula_structural   Pr7(IO6)3
_chemical_formula_sum   'Pr14 I6 O36'
_cell_volume   1024.52529248
_cell_formula_units_Z   2
loop_
 _symmetry_equiv_pos_site_id
 _symmetry_equiv_pos_as_xyz
  1  'x, y, z'
loop_
 _atom_site_type_symbol
 _atom_site_label
 _atom_site_symmetry_multiplicity
 _atom_site_fract_x
 _atom_site_fract_y
 _atom_site_fract_z
 _atom_site_occupancy
  Pr  Pr0  1  0.44119690  0.32370919  0.25000000  1
  Pr  Pr1  1  0.55880310  0.67629081  0.75000000  1
  Pr  Pr2  1  0.67629081  0.11748771  0.25000000  1
  Pr  Pr3  1  0.32370919  0.88251229  0.75000000  1
  Pr  Pr4  1  0.88251229  0.55880310  0.25000000  1
  Pr  Pr5  1  0.11748771  0.44119690  0.75000000  1
  Pr  Pr6  1  0.15968032  0.22219909  0.25000000  1
  Pr  Pr7  1  0.84031968  0.77780091  0.75000000  1
  Pr  Pr8  1  0.77780091  0.93748123  0.25000000  1
  Pr  Pr9  1  0.22219909  0.06251877  0.75000000  1
  Pr  Pr10  1  0.06251877  0.84031968  0.25000000  1
  Pr  Pr11  1  0.93748123  0.15968032  0.75000000  1
  Pr  Pr12  1  0.33333300  0.66666700  0.25000000  1
  Pr  Pr13  1  0.66666700  0.33333300  0.75000000  1
  I  I14  1  0.45850652  0.12374120  0.25000000  1
  I  I15  1  0.54149348  0.87625880  0.75000000  1
  I  I16  1  0.87625880  0.33476532  0.25000000  1
  I  I17  1  0.12374120  0.66523468  0.75000000  1
  I  I18  1  0.66523468  0.54149348  0.25000000  1
  I  I19  1  0.33476532  0.45850652  0.75000000  1
  O  O20  1  0.10247948  0.51055332  0.25000000  1
  O  O21  1  0.89752052  0.48944668  0.75000000  1
  O  O22  1  0.48944668  0.59192616  0.25000000  1
  O  O23  1  0.51055332  0.40807384  0.75000000  1
  O  O24  1  0.40807384  0.89752052  0.25000000  1
  O  O25  1  0.59192616  0.10247948  0.75000000  1
  O  O26  1  0.31111996  0.31304463  0.25000000  1
  O  O27  1  0.68888004  0.68695537  0.75000000  1
  O  O28  1  0.68695537  0.99807533  0.25000000  1
  O  O29  1  0.31304463  0.00192467  0.75000000  1
  O  O30  1  0.00192467  0.68888004  0.25000000  1
  O  O31  1  0.99807533  0.31111996  0.75000000  1
  O  O32  1  0.18625931  0.10473667  0.25000000  1
  O  O33  1  0.81374069  0.89526333  0.75000000  1
  O  O34  1  0.89526333  0.08152263  0.25000000  1
  O  O35  1  0.10473667  0.91847737  0.75000000  1
  O  O36  1  0.91847737  0.81374069  0.25000000  1
  O  O37  1  0.08152263  0.18625931  0.75000000  1
  O  O38  1  0.19290562  0.51614379  0.25000000  1
  O  O39  1  0.80709438  0.48385621  0.75000000  1
  O  O40  1  0.48385621  0.67676183  0.25000000  1
  O  O41  1  0.51614379  0.32323817  0.75000000  1
  O  O42  1  0.32323817  0.80709438  0.25000000  1
  O  O43  1  0.67676183  0.19290562  0.75000000  1
  O  O44  1  0.37290931  0.16257170  0.25000000  1
  O  O45  1  0.62709069  0.83742830  0.75000000  1
  O  O46  1  0.83742830  0.21033761  0.25000000  1
  O  O47  1  0.16257170  0.78966239  0.75000000  1
  O  O48  1  0.78966239  0.62709069  0.25000000  1
  O  O49  1  0.21033761  0.37290931  0.75000000  1
  O  O50  1  0.56975974  0.23675389  0.25000000  1
  O  O51  1  0.43024026  0.76324611  0.75000000  1
  O  O52  1  0.76324611  0.33300485  0.25000000  1
  O  O53  1  0.23675389  0.66699515  0.75000000  1
  O  O54  1  0.66699515  0.43024026  0.25000000  1
  O  O55  1  0.33300485  0.56975974  0.75000000  1
