# generated using pymatgen
data_MgAu4Se4(ClO3)4
_symmetry_space_group_name_H-M   'P 1'
_cell_length_a   4.56771312
_cell_length_b   9.86155649
_cell_length_c   11.32220779
_cell_angle_alpha   86.69702371
_cell_angle_beta   92.20919522
_cell_angle_gamma   85.76112810
_symmetry_Int_Tables_number   1
_chemical_formula_structural   MgAu4Se4(ClO3)4
_chemical_formula_sum   'Mg1 Au4 Se4 Cl4 O12'
_cell_volume   507.29660746
_cell_formula_units_Z   1
loop_
 _symmetry_equiv_pos_site_id
 _symmetry_equiv_pos_as_xyz
  1  'x, y, z'
loop_
 _atom_site_type_symbol
 _atom_site_label
 _atom_site_symmetry_multiplicity
 _atom_site_fract_x
 _atom_site_fract_y
 _atom_site_fract_z
 _atom_site_occupancy
  Mg  Mg0  1  0.83479190  0.64022035  0.06753211  1
  Au  Au1  1  0.02379247  0.48561437  0.39965418  1
  Au  Au2  1  0.01461060  0.02022838  0.99466180  1
  Au  Au3  1  0.97995402  0.41702989  0.81845882  1
  Au  Au4  1  0.02710741  0.99343663  0.48894279  1
  Se  Se5  1  0.72504715  0.89783108  0.24325719  1
  Se  Se6  1  0.23030592  0.72417858  0.88431773  1
  Se  Se7  1  0.76654515  0.31129724  0.07731765  1
  Se  Se8  1  0.26381268  0.12439762  0.73223813  1
  Cl  Cl9  1  0.30747133  0.48626676  0.68221169  1
  Cl  Cl10  1  0.51370580  0.52361644  0.35575886  1
  Cl  Cl11  1  0.26443416  0.19244515  0.46157517  1
  Cl  Cl12  1  0.75703386  0.80526840  0.51417859  1
  O  O13  1  0.68841284  0.00364869  0.11035480  1
  O  O14  1  0.65560403  0.36153601  0.92941818  1
  O  O15  1  0.90779480  0.75522961  0.20107878  1
  O  O16  1  0.08938889  0.20452811  0.05381618  1
  O  O17  1  0.93994431  0.44562741  0.12268395  1
  O  O18  1  0.94118463  0.83258550  0.93715677  1
  O  O19  1  0.40495383  0.67478772  0.01566367  1
  O  O20  1  0.94778999  0.23314046  0.75116038  1
  O  O21  1  0.01402581  0.98056069  0.31086686  1
  O  O22  1  0.95603314  0.60262248  0.88902465  1
  O  O23  1  0.33232606  0.04144522  0.87260158  1
  O  O24  1  0.06670725  0.99870721  0.66940251  1
