# generated using pymatgen
data_Nd2(SeO3)3
_symmetry_space_group_name_H-M   'P 1'
_cell_length_a   6.97473729
_cell_length_b   8.34036148
_cell_length_c   14.11067458
_cell_angle_alpha   90.00000000
_cell_angle_beta   90.00000000
_cell_angle_gamma   90.00000000
_symmetry_Int_Tables_number   1
_chemical_formula_structural   Nd2(SeO3)3
_chemical_formula_sum   'Nd8 Se12 O36'
_cell_volume   820.84376605
_cell_formula_units_Z   4
loop_
 _symmetry_equiv_pos_site_id
 _symmetry_equiv_pos_as_xyz
  1  'x, y, z'
loop_
 _atom_site_type_symbol
 _atom_site_label
 _atom_site_symmetry_multiplicity
 _atom_site_fract_x
 _atom_site_fract_y
 _atom_site_fract_z
 _atom_site_occupancy
  Nd  Nd0  1  0.31777999  0.29935012  0.06266508  1
  Nd  Nd1  1  0.68222001  0.70064988  0.93733492  1
  Nd  Nd2  1  0.81777999  0.20064988  0.93733492  1
  Nd  Nd3  1  0.68222001  0.70064988  0.56266508  1
  Nd  Nd4  1  0.18222001  0.79935012  0.06266508  1
  Nd  Nd5  1  0.31777999  0.29935012  0.43733492  1
  Nd  Nd6  1  0.18222001  0.79935012  0.43733492  1
  Nd  Nd7  1  0.81777999  0.20064988  0.56266508  1
  Se  Se8  1  0.09311174  0.03986553  0.25000000  1
  Se  Se9  1  0.90688826  0.96013447  0.75000000  1
  Se  Se10  1  0.59311174  0.46013447  0.75000000  1
  Se  Se11  1  0.40688826  0.53986553  0.25000000  1
  Se  Se12  1  0.32102604  0.04864073  0.62564754  1
  Se  Se13  1  0.67897396  0.95135927  0.37435246  1
  Se  Se14  1  0.82102604  0.45135927  0.37435246  1
  Se  Se15  1  0.67897396  0.95135927  0.12564754  1
  Se  Se16  1  0.17897396  0.54864073  0.62564754  1
  Se  Se17  1  0.32102604  0.04864073  0.87435246  1
  Se  Se18  1  0.17897396  0.54864073  0.87435246  1
  Se  Se19  1  0.82102604  0.45135927  0.12564754  1
  O  O20  1  0.43018041  0.33650407  0.25000000  1
  O  O21  1  0.56981959  0.66349593  0.75000000  1
  O  O22  1  0.93018041  0.16349593  0.75000000  1
  O  O23  1  0.06981959  0.83650407  0.25000000  1
  O  O24  1  0.46652310  0.20671022  0.59753942  1
  O  O25  1  0.53347690  0.79328978  0.40246058  1
  O  O26  1  0.96652310  0.29328978  0.40246058  1
  O  O27  1  0.53347690  0.79328978  0.09753942  1
  O  O28  1  0.03347690  0.70671022  0.59753942  1
  O  O29  1  0.46652310  0.20671022  0.90246058  1
  O  O30  1  0.03347690  0.70671022  0.90246058  1
  O  O31  1  0.96652310  0.29328978  0.09753942  1
  O  O32  1  0.58636062  0.11564142  0.07265196  1
  O  O33  1  0.41363938  0.88435858  0.92734804  1
  O  O34  1  0.08636062  0.38435858  0.92734804  1
  O  O35  1  0.41363938  0.88435858  0.57265196  1
  O  O36  1  0.91363938  0.61564142  0.07265196  1
  O  O37  1  0.58636062  0.11564142  0.42734804  1
  O  O38  1  0.91363938  0.61564142  0.42734804  1
  O  O39  1  0.08636062  0.38435858  0.57265196  1
  O  O40  1  0.24207156  0.05307977  0.15378063  1
  O  O41  1  0.75792844  0.94692023  0.84621937  1
  O  O42  1  0.74207156  0.44692023  0.84621937  1
  O  O43  1  0.75792844  0.94692023  0.65378063  1
  O  O44  1  0.25792844  0.55307977  0.15378063  1
  O  O45  1  0.24207156  0.05307977  0.34621937  1
  O  O46  1  0.25792844  0.55307977  0.34621937  1
  O  O47  1  0.74207156  0.44692023  0.65378063  1
  O  O48  1  0.14577261  0.07532183  0.54059478  1
  O  O49  1  0.85422739  0.92467817  0.45940522  1
  O  O50  1  0.64577261  0.42467817  0.45940522  1
  O  O51  1  0.85422739  0.92467817  0.04059478  1
  O  O52  1  0.35422739  0.57532183  0.54059478  1
  O  O53  1  0.14577261  0.07532183  0.95940522  1
  O  O54  1  0.35422739  0.57532183  0.95940522  1
  O  O55  1  0.64577261  0.42467817  0.04059478  1
