# generated using pymatgen
data_Re2Cl5O4
_symmetry_space_group_name_H-M   'P 1'
_cell_length_a   5.59126752
_cell_length_b   6.36912976
_cell_length_c   8.52505051
_cell_angle_alpha   110.03798419
_cell_angle_beta   106.35098039
_cell_angle_gamma   94.11489109
_symmetry_Int_Tables_number   1
_chemical_formula_structural   Re2Cl5O4
_chemical_formula_sum   'Re2 Cl5 O4'
_cell_volume   268.86985977
_cell_formula_units_Z   1
loop_
 _symmetry_equiv_pos_site_id
 _symmetry_equiv_pos_as_xyz
  1  'x, y, z'
loop_
 _atom_site_type_symbol
 _atom_site_label
 _atom_site_symmetry_multiplicity
 _atom_site_fract_x
 _atom_site_fract_y
 _atom_site_fract_z
 _atom_site_occupancy
  Re  Re0  1  0.88505194  0.44607581  0.44110651  1
  Re  Re1  1  0.96610774  0.00865389  0.99513107  1
  Cl  Cl2  1  0.24897406  0.98287780  0.23809768  1
  Cl  Cl3  1  0.62838859  0.11161964  0.83273261  1
  Cl  Cl4  1  0.68410150  0.73677537  0.00247571  1
  Cl  Cl5  1  0.19088437  0.36538828  0.07533933  1
  Cl  Cl6  1  0.11565242  0.32501303  0.63678742  1
  O  O7  1  0.61210927  0.50423680  0.48500830  1
  O  O8  1  0.04712305  0.68642650  0.44621221  1
  O  O9  1  0.81060342  0.23494442  0.23268793  1
  O  O10  1  0.07390364  0.85448645  0.83532023  1
