# generated using pymatgen
data_TeS7Br2
_symmetry_space_group_name_H-M   'P 1'
_cell_length_a   9.03502510
_cell_length_b   9.82651901
_cell_length_c   13.53471472
_cell_angle_alpha   90.00000000
_cell_angle_beta   90.00000000
_cell_angle_gamma   90.00000000
_symmetry_Int_Tables_number   1
_chemical_formula_structural   TeS7Br2
_chemical_formula_sum   'Te4 S28 Br8'
_cell_volume   1201.65049130
_cell_formula_units_Z   4
loop_
 _symmetry_equiv_pos_site_id
 _symmetry_equiv_pos_as_xyz
  1  'x, y, z'
loop_
 _atom_site_type_symbol
 _atom_site_label
 _atom_site_symmetry_multiplicity
 _atom_site_fract_x
 _atom_site_fract_y
 _atom_site_fract_z
 _atom_site_occupancy
  Te  Te0  1  0.25000000  0.30152851  0.40484148  1
  Te  Te1  1  0.25000000  0.80152851  0.09515852  1
  Te  Te2  1  0.75000000  0.69847149  0.59515852  1
  Te  Te3  1  0.75000000  0.19847149  0.90484148  1
  S  S4  1  0.46229135  0.17434118  0.47924372  1
  S  S5  1  0.03770865  0.67434118  0.02075628  1
  S  S6  1  0.96229135  0.82565882  0.52075628  1
  S  S7  1  0.53770865  0.32565882  0.97924372  1
  S  S8  1  0.53770865  0.82565882  0.52075628  1
  S  S9  1  0.96229135  0.32565882  0.97924372  1
  S  S10  1  0.03770865  0.17434118  0.47924372  1
  S  S11  1  0.46229135  0.67434118  0.02075628  1
  S  S12  1  0.52737221  0.26093183  0.60567298  1
  S  S13  1  0.97262779  0.76093183  0.89432702  1
  S  S14  1  0.02737221  0.73906817  0.39432702  1
  S  S15  1  0.47262779  0.23906817  0.10567298  1
  S  S16  1  0.47262779  0.73906817  0.39432702  1
  S  S17  1  0.02737221  0.23906817  0.10567298  1
  S  S18  1  0.97262779  0.26093183  0.60567298  1
  S  S19  1  0.52737221  0.76093183  0.89432702  1
  S  S20  1  0.43165195  0.15353087  0.72115899  1
  S  S21  1  0.06834805  0.65353087  0.77884101  1
  S  S22  1  0.93165195  0.84646913  0.27884101  1
  S  S23  1  0.56834805  0.34646913  0.22115899  1
  S  S24  1  0.56834805  0.84646913  0.27884101  1
  S  S25  1  0.93165195  0.34646913  0.22115899  1
  S  S26  1  0.06834805  0.15353087  0.72115899  1
  S  S27  1  0.43165195  0.65353087  0.77884101  1
  S  S28  1  0.25000000  0.25635641  0.77220491  1
  S  S29  1  0.25000000  0.75635641  0.72779509  1
  S  S30  1  0.75000000  0.74364359  0.22779509  1
  S  S31  1  0.75000000  0.24364359  0.27220491  1
  Br  Br32  1  0.25000000  0.48957795  0.53858459  1
  Br  Br33  1  0.25000000  0.98957795  0.96141541  1
  Br  Br34  1  0.75000000  0.51042205  0.46141541  1
  Br  Br35  1  0.75000000  0.01042205  0.03858459  1
  Br  Br36  1  0.25000000  0.07404759  0.29204288  1
  Br  Br37  1  0.25000000  0.57404759  0.20795712  1
  Br  Br38  1  0.75000000  0.92595241  0.70795712  1
  Br  Br39  1  0.75000000  0.42595241  0.79204288  1
