# generated using pymatgen
data_GaBO3
_symmetry_space_group_name_H-M   'P 1'
_cell_length_a   5.42485507
_cell_length_b   5.42485507
_cell_length_c   5.42485479
_cell_angle_alpha   49.89604770
_cell_angle_beta   49.89604770
_cell_angle_gamma   49.89606989
_symmetry_Int_Tables_number   1
_chemical_formula_structural   GaBO3
_chemical_formula_sum   'Ga2 B2 O6'
_cell_volume   85.93315290
_cell_formula_units_Z   2
loop_
 _symmetry_equiv_pos_site_id
 _symmetry_equiv_pos_as_xyz
  1  'x, y, z'
loop_
 _atom_site_type_symbol
 _atom_site_label
 _atom_site_symmetry_multiplicity
 _atom_site_fract_x
 _atom_site_fract_y
 _atom_site_fract_z
 _atom_site_occupancy
  Ga  Ga0  1  0.50000000  0.50000000  0.50000000  1
  Ga  Ga1  1  0.00000000  -0.00000000  -0.00000000  1
  B  B2  1  0.25000000  0.25000000  0.25000000  1
  B  B3  1  0.75000000  0.75000000  0.75000000  1
  O  O4  1  0.94889205  0.55110795  0.25000000  1
  O  O5  1  0.25000000  0.94889205  0.55110795  1
  O  O6  1  0.55110795  0.25000000  0.94889205  1
  O  O7  1  0.75000000  0.05110795  0.44889205  1
  O  O8  1  0.44889205  0.75000000  0.05110795  1
  O  O9  1  0.05110795  0.44889205  0.75000000  1
