# generated using pymatgen
data_AlVO4
_symmetry_space_group_name_H-M   'P 1'
_cell_length_a   6.53240492
_cell_length_b   7.75001244
_cell_length_c   9.12769359
_cell_angle_alpha   96.16664346
_cell_angle_beta   107.27636435
_cell_angle_gamma   101.46287465
_symmetry_Int_Tables_number   1
_chemical_formula_structural   AlVO4
_chemical_formula_sum   'Al6 V6 O24'
_cell_volume   425.55639227
_cell_formula_units_Z   6
loop_
 _symmetry_equiv_pos_site_id
 _symmetry_equiv_pos_as_xyz
  1  'x, y, z'
loop_
 _atom_site_type_symbol
 _atom_site_label
 _atom_site_symmetry_multiplicity
 _atom_site_fract_x
 _atom_site_fract_y
 _atom_site_fract_z
 _atom_site_occupancy
  Al  Al0  1  0.74928452  0.70022404  0.40834806  1
  Al  Al1  1  0.25071548  0.29977596  0.59165194  1
  Al  Al2  1  0.46100917  0.88287980  0.21031125  1
  Al  Al3  1  0.53899083  0.11712020  0.78968875  1
  Al  Al4  1  0.96240358  0.30756795  0.00720100  1
  Al  Al5  1  0.03759642  0.69243205  0.99279900  1
  V  V6  1  0.00273644  0.99522711  0.25481654  1
  V  V7  1  0.99726356  0.00477289  0.74518346  1
  V  V8  1  0.19607056  0.60088064  0.34390815  1
  V  V9  1  0.80392944  0.39911936  0.65609185  1
  V  V10  1  0.51681978  0.30051980  0.12447373  1
  V  V11  1  0.48318022  0.69948020  0.87552627  1
  O  O12  1  0.04951062  0.84943877  0.85380776  1
  O  O13  1  0.95048938  0.15056123  0.14619224  1
  O  O14  1  0.84345595  0.13261967  0.82536452  1
  O  O15  1  0.15654405  0.86738033  0.17463548  1
  O  O16  1  0.95109826  0.47701553  0.85782800  1
  O  O17  1  0.04890174  0.52298447  0.14217200  1
  O  O18  1  0.74870907  0.70301490  0.96885693  1
  O  O19  1  0.25129093  0.29698510  0.03114307  1
  O  O20  1  0.64575728  0.27349212  0.97567990  1
  O  O21  1  0.35424272  0.72650788  0.02432010  1
  O  O22  1  0.47769285  0.88218496  0.78495163  1
  O  O23  1  0.52230715  0.11781504  0.21504837  1
  O  O24  1  0.64237998  0.49204242  0.25410729  1
  O  O25  1  0.35762002  0.50795758  0.74589271  1
  O  O26  1  0.25746652  0.43444169  0.43505826  1
  O  O27  1  0.74253348  0.56555831  0.56494174  1
  O  O28  1  0.04234726  0.70278709  0.42584084  1
  O  O29  1  0.95765274  0.29721291  0.57415916  1
  O  O30  1  0.16033344  0.09755936  0.43272870  1
  O  O31  1  0.83966656  0.90244064  0.56727130  1
  O  O32  1  0.45722257  0.74284617  0.36127222  1
  O  O33  1  0.54277743  0.25715383  0.63872778  1
  O  O34  1  0.75048149  0.86430919  0.26324847  1
  O  O35  1  0.24951851  0.13569081  0.73675153  1
