# generated using pymatgen
data_La7SmMn4(FeO5)4
_symmetry_space_group_name_H-M   'P 1'
_cell_length_a   11.06090525
_cell_length_b   11.89371255
_cell_length_c   17.89303083
_cell_angle_alpha   109.39032653
_cell_angle_beta   108.00038949
_cell_angle_gamma   89.96613504
_symmetry_Int_Tables_number   1
_chemical_formula_structural   La7SmMn4(FeO5)4
_chemical_formula_sum   'La28 Sm4 Mn16 Fe16 O80'
_cell_volume   2098.02997453
_cell_formula_units_Z   4
loop_
 _symmetry_equiv_pos_site_id
 _symmetry_equiv_pos_as_xyz
  1  'x, y, z'
loop_
 _atom_site_type_symbol
 _atom_site_label
 _atom_site_symmetry_multiplicity
 _atom_site_fract_x
 _atom_site_fract_y
 _atom_site_fract_z
 _atom_site_occupancy
  La  La0  1  0.30036011  0.06527724  0.11019990  1
  La  La1  1  0.30286713  0.06600583  0.60923997  1
  La  La2  1  0.30336790  0.56642383  0.60988476  1
  La  La3  1  0.80307261  0.06615598  0.60960572  1
  La  La4  1  0.80274176  0.56595685  0.10866709  1
  La  La5  1  0.80307101  0.56591299  0.60974693  1
  La  La6  1  0.19364550  0.43317374  0.38998162  1
  La  La7  1  0.19184376  0.43505503  0.89220678  1
  La  La8  1  0.19269125  0.93354571  0.38874731  1
  La  La9  1  0.19380723  0.93442286  0.89037032  1
  La  La10  1  0.69343259  0.43361684  0.38992166  1
  La  La11  1  0.69341685  0.93339949  0.38983308  1
  La  La12  1  0.69310305  0.93457748  0.89100269  1
  La  La13  1  0.05216972  0.29357898  0.10996238  1
  La  La14  1  0.05305590  0.29410764  0.60982371  1
  La  La15  1  0.05243363  0.79353948  0.60922336  1
  La  La16  1  0.55380445  0.29242005  0.10957247  1
  La  La17  1  0.55358589  0.29443540  0.61124960  1
  La  La18  1  0.55033880  0.79394550  0.11011048  1
  La  La19  1  0.55310940  0.79277044  0.60964944  1
  La  La20  1  0.44376537  0.20635174  0.39006026  1
  La  La21  1  0.44520374  0.20790205  0.89073697  1
  La  La22  1  0.44247427  0.70557720  0.38884536  1
  La  La23  1  0.44348552  0.70554114  0.89053209  1
  La  La24  1  0.94249386  0.20540418  0.38859673  1
  La  La25  1  0.94072314  0.20768989  0.89070848  1
  La  La26  1  0.94340987  0.70629207  0.38906005  1
  La  La27  1  0.94301155  0.70579081  0.89122211  1
  Sm  Sm28  1  0.29934526  0.56804466  0.10838629  1
  Sm  Sm29  1  0.80075811  0.06636200  0.10801868  1
  Sm  Sm30  1  0.69178364  0.43299305  0.89230083  1
  Sm  Sm31  1  0.05217239  0.79203924  0.10877868  1
  Mn  Mn32  1  0.10556790  0.09391844  0.24758270  1
  Mn  Mn33  1  0.11012412  0.09787339  0.75095431  1
  Mn  Mn34  1  0.11090003  0.59716400  0.24843512  1
  Mn  Mn35  1  0.10952288  0.59608063  0.75048542  1
  Mn  Mn36  1  0.61086947  0.09533487  0.24896498  1
  Mn  Mn37  1  0.60981512  0.09752321  0.75032551  1
  Mn  Mn38  1  0.60639266  0.59601265  0.24807306  1
  Mn  Mn39  1  0.61088371  0.59572512  0.75207233  1
  Mn  Mn40  1  0.35871722  0.40450930  0.24826575  1
  Mn  Mn41  1  0.36119663  0.40369391  0.75097498  1
  Mn  Mn42  1  0.35664873  0.90149614  0.24851841  1
  Mn  Mn43  1  0.36004649  0.90396014  0.75056309  1
  Mn  Mn44  1  0.85941168  0.40252330  0.24907248  1
  Mn  Mn45  1  0.85791924  0.40379262  0.75151845  1
  Mn  Mn46  1  0.86028759  0.90310842  0.24706508  1
  Mn  Mn47  1  0.85996125  0.90378728  0.75090377  1
  Fe  Fe48  1  0.00586849  0.99943914  0.00112551  1
  Fe  Fe49  1  0.00554281  0.00004285  0.49945374  1
  Fe  Fe50  1  0.00552140  0.50171630  0.00134628  1
  Fe  Fe51  1  0.00570447  0.49982475  0.49963052  1
  Fe  Fe52  1  0.50621950  0.00029037  0.00069869  1
  Fe  Fe53  1  0.50532274  0.99955696  0.49974463  1
  Fe  Fe54  1  0.50583318  0.50058858  0.00062281  1
  Fe  Fe55  1  0.50567300  0.49964170  0.50000461  1
  Fe  Fe56  1  0.25640332  0.25171227  0.00154578  1
  Fe  Fe57  1  0.25547467  0.24977783  0.49955655  1
  Fe  Fe58  1  0.25563692  0.75061037  0.00079513  1
  Fe  Fe59  1  0.25568268  0.75022873  0.49974338  1
  Fe  Fe60  1  0.75577729  0.24951438  0.00045346  1
  Fe  Fe61  1  0.75552198  0.24961280  0.50004881  1
  Fe  Fe62  1  0.75693016  0.75046596  0.00111227  1
  Fe  Fe63  1  0.75518637  0.74959975  0.49960318  1
  O  O64  1  0.11587796  0.11733884  0.47768615  1
  O  O65  1  0.11532647  0.11901979  0.97827820  1
  O  O66  1  0.11588877  0.61804829  0.47816125  1
  O  O67  1  0.11693719  0.62131836  0.98217392  1
  O  O68  1  0.61629947  0.11617792  0.47806631  1
  O  O69  1  0.61691236  0.11783357  0.97921931  1
  O  O70  1  0.61615677  0.61639472  0.47864450  1
  O  O71  1  0.61690558  0.61514882  0.97580109  1
  O  O72  1  0.14036511  0.38798843  0.02493216  1
  O  O73  1  0.13817469  0.38287939  0.52140342  1
  O  O74  1  0.13658194  0.88202127  0.02571578  1
  O  O75  1  0.13747576  0.88285685  0.52048194  1
  O  O76  1  0.63579243  0.38159394  0.01931735  1
  O  O77  1  0.63743283  0.38148074  0.52149033  1
  O  O78  1  0.64100761  0.88578051  0.02414793  1
  O  O79  1  0.63756887  0.88147541  0.52122011  1
  O  O80  1  0.36614539  0.11121584  0.47832507  1
  O  O81  1  0.36677947  0.11114484  0.97869296  1
  O  O82  1  0.36626771  0.61128814  0.47826899  1
  O  O83  1  0.36610690  0.61035287  0.98006586  1
  O  O84  1  0.86660532  0.11139713  0.47868921  1
  O  O85  1  0.86549249  0.10905533  0.98045533  1
  O  O86  1  0.86643277  0.61156940  0.47829964  1
  O  O87  1  0.86328562  0.60737195  0.97577263  1
  O  O88  1  0.38700500  0.39323581  0.02544190  1
  O  O89  1  0.38766231  0.38852826  0.52074204  1
  O  O90  1  0.38695824  0.88862575  0.02133249  1
  O  O91  1  0.38794060  0.88873448  0.52128422  1
  O  O92  1  0.88504187  0.38789410  0.01922334  1
  O  O93  1  0.88771816  0.38862523  0.52123242  1
  O  O94  1  0.89070616  0.89153522  0.02808752  1
  O  O95  1  0.88730117  0.88884842  0.52062118  1
  O  O96  1  0.09623165  0.11813405  0.13935342  1
  O  O97  1  0.09413094  0.11595672  0.63933011  1
  O  O98  1  0.10198008  0.61862633  0.13885667  1
  O  O99  1  0.09413701  0.61577807  0.63940825  1
  O  O100  1  0.60370153  0.11536931  0.13939310  1
  O  O101  1  0.59424476  0.11603290  0.63899557  1
  O  O102  1  0.59804560  0.61691389  0.13875734  1
  O  O103  1  0.59491018  0.61451668  0.64034260  1
  O  O104  1  0.45443097  0.38466885  0.35967975  1
  O  O105  1  0.46431098  0.38483272  0.86081959  1
  O  O106  1  0.45229964  0.88383218  0.36028206  1
  O  O107  1  0.45493830  0.88363480  0.86137238  1
  O  O108  1  0.95464342  0.38402081  0.36062850  1
  O  O109  1  0.95762558  0.38498351  0.86190988  1
  O  O110  1  0.95491085  0.88470353  0.35918964  1
  O  O111  1  0.95616005  0.88428332  0.86203120  1
  O  O112  1  0.34634833  0.27072472  0.13967474  1
  O  O113  1  0.34506425  0.27384026  0.63933153  1
  O  O114  1  0.34696131  0.77102715  0.13907624  1
  O  O115  1  0.34436739  0.77391947  0.63930458  1
  O  O116  1  0.84401594  0.27096442  0.13848842  1
  O  O117  1  0.84250456  0.27429221  0.63990424  1
  O  O118  1  0.85551226  0.77057470  0.13918915  1
  O  O119  1  0.84423152  0.77372079  0.63949268  1
  O  O120  1  0.20278913  0.22406346  0.35921979  1
  O  O121  1  0.20756753  0.22856576  0.86153366  1
  O  O122  1  0.20508468  0.72702301  0.36030431  1
  O  O123  1  0.20512825  0.72653161  0.86149929  1
  O  O124  1  0.70514148  0.22592996  0.36036022  1
  O  O125  1  0.70516517  0.22862077  0.86124851  1
  O  O126  1  0.70282017  0.72538966  0.35983662  1
  O  O127  1  0.70612155  0.72883688  0.86175584  1
  O  O128  1  0.41753511  0.07131537  0.24980254  1
  O  O129  1  0.41665144  0.07369657  0.75032831  1
  O  O130  1  0.41052465  0.57376774  0.24447855  1
  O  O131  1  0.41627076  0.57375671  0.75015166  1
  O  O132  1  0.91027721  0.07369225  0.24461155  1
  O  O133  1  0.91643666  0.07389136  0.75061494  1
  O  O134  1  0.91784032  0.57213448  0.24905272  1
  O  O135  1  0.91584006  0.57280043  0.75056241  1
  O  O136  1  0.16633238  0.42735314  0.25003398  1
  O  O137  1  0.16791246  0.42686507  0.75087444  1
  O  O138  1  0.16054660  0.92186306  0.24446076  1
  O  O139  1  0.16649537  0.92732663  0.75034441  1
  O  O140  1  0.66613317  0.42726593  0.24963945  1
  O  O141  1  0.66617017  0.42652825  0.75584678  1
  O  O142  1  0.66779606  0.92570602  0.24969700  1
  O  O143  1  0.66645057  0.92750931  0.75014945  1
