# generated using pymatgen
data_WNCl3
_symmetry_space_group_name_H-M   'P 1'
_cell_length_a   8.12441992
_cell_length_b   8.26346325
_cell_length_c   9.19329053
_cell_angle_alpha   97.92750325
_cell_angle_beta   107.37182532
_cell_angle_gamma   110.76745427
_symmetry_Int_Tables_number   1
_chemical_formula_structural   WNCl3
_chemical_formula_sum   'W4 N4 Cl12'
_cell_volume   529.82416380
_cell_formula_units_Z   4
loop_
 _symmetry_equiv_pos_site_id
 _symmetry_equiv_pos_as_xyz
  1  'x, y, z'
loop_
 _atom_site_type_symbol
 _atom_site_label
 _atom_site_symmetry_multiplicity
 _atom_site_fract_x
 _atom_site_fract_y
 _atom_site_fract_z
 _atom_site_occupancy
  W  W0  1  0.00884301  0.05609517  0.22869989  1
  W  W1  1  0.99115699  0.94390483  0.77130011  1
  W  W2  1  0.87993621  0.65123284  0.38071215  1
  W  W3  1  0.12006379  0.34876716  0.61928785  1
  N  N4  1  0.05073012  0.21746626  0.39203334  1
  N  N5  1  0.94926988  0.78253374  0.60796666  1
  N  N6  1  0.94559062  0.83657142  0.30984985  1
  N  N7  1  0.05440938  0.16342858  0.69015015  1
  Cl  Cl8  1  0.30700080  0.06306193  0.29512244  1
  Cl  Cl9  1  0.69299920  0.93693807  0.70487756  1
  Cl  Cl10  1  0.93822670  0.77433947  0.95119644  1
  Cl  Cl11  1  0.06177330  0.22566053  0.04880356  1
  Cl  Cl12  1  0.68627383  0.95261984  0.10686035  1
  Cl  Cl13  1  0.31372617  0.04738016  0.89313965  1
  Cl  Cl14  1  0.18447765  0.64465831  0.47391120  1
  Cl  Cl15  1  0.81552235  0.35534169  0.52608880  1
  Cl  Cl16  1  0.78400196  0.42410433  0.15975407  1
  Cl  Cl17  1  0.21599804  0.57589567  0.84024593  1
  Cl  Cl18  1  0.57478996  0.60315596  0.34544232  1
  Cl  Cl19  1  0.42521004  0.39684404  0.65455768  1
