# generated using pymatgen
data_TlGeSbO5
_symmetry_space_group_name_H-M   'P 1'
_cell_length_a   6.77440568
_cell_length_b   10.95134065
_cell_length_c   13.60540559
_cell_angle_alpha   90.00000000
_cell_angle_beta   90.00000000
_cell_angle_gamma   90.00000000
_symmetry_Int_Tables_number   1
_chemical_formula_structural   TlGeSbO5
_chemical_formula_sum   'Tl8 Ge8 Sb8 O40'
_cell_volume   1009.36904489
_cell_formula_units_Z   8
loop_
 _symmetry_equiv_pos_site_id
 _symmetry_equiv_pos_as_xyz
  1  'x, y, z'
loop_
 _atom_site_type_symbol
 _atom_site_label
 _atom_site_symmetry_multiplicity
 _atom_site_fract_x
 _atom_site_fract_y
 _atom_site_fract_z
 _atom_site_occupancy
  Tl  Tl0  1  0.79476474  0.90391589  0.60801540  1
  Tl  Tl1  1  0.20523526  0.40391589  0.39198460  1
  Tl  Tl2  1  0.29476474  0.40391589  0.89198460  1
  Tl  Tl3  1  0.70523526  0.90391589  0.10801540  1
  Tl  Tl4  1  0.71532837  0.64577330  0.88803462  1
  Tl  Tl5  1  0.28467163  0.14577330  0.11196538  1
  Tl  Tl6  1  0.21532837  0.14577330  0.61196538  1
  Tl  Tl7  1  0.78467163  0.64577330  0.38803462  1
  Ge  Ge8  1  0.99233023  0.50101129  0.68149475  1
  Ge  Ge9  1  0.00766977  0.00101129  0.31850525  1
  Ge  Ge10  1  0.49233023  0.00101129  0.81850525  1
  Ge  Ge11  1  0.50766977  0.50101129  0.18149475  1
  Ge  Ge12  1  0.18331545  0.75071409  0.99676532  1
  Ge  Ge13  1  0.81668455  0.25071409  0.00323468  1
  Ge  Ge14  1  0.68331545  0.25071409  0.50323468  1
  Ge  Ge15  1  0.31668455  0.75071409  0.49676532  1
  Sb  Sb16  1  0.99463233  0.99980970  0.88067460  1
  Sb  Sb17  1  0.00536767  0.49980970  0.11932540  1
  Sb  Sb18  1  0.49463233  0.49980970  0.61932540  1
  Sb  Sb19  1  0.50536767  0.99980970  0.38067460  1
  Sb  Sb20  1  0.24656300  0.75504536  0.74505367  1
  Sb  Sb21  1  0.75343700  0.25504536  0.25494633  1
  Sb  Sb22  1  0.74656300  0.25504536  0.75494633  1
  Sb  Sb23  1  0.25343700  0.75504536  0.24505367  1
  O  O24  1  0.04024788  0.63164071  0.21889525  1
  O  O25  1  0.95975212  0.13164071  0.78110475  1
  O  O26  1  0.54024788  0.13164071  0.28110475  1
  O  O27  1  0.45975212  0.63164071  0.71889525  1
  O  O28  1  0.71068296  0.53161314  0.10292718  1
  O  O29  1  0.28931704  0.03161314  0.89707282  1
  O  O30  1  0.21068296  0.03161314  0.39707282  1
  O  O31  1  0.78931704  0.53161314  0.60292718  1
  O  O32  1  0.83544593  0.27097450  0.39854554  1
  O  O33  1  0.16455407  0.77097450  0.60145446  1
  O  O34  1  0.33544593  0.77097450  0.10145446  1
  O  O35  1  0.66455407  0.27097450  0.89854554  1
  O  O36  1  0.46084379  0.62723954  0.26132940  1
  O  O37  1  0.53915621  0.12723954  0.73867060  1
  O  O38  1  0.96084379  0.12723954  0.23867060  1
  O  O39  1  0.03915621  0.62723954  0.76132940  1
  O  O40  1  0.94812247  0.38625943  0.77255409  1
  O  O41  1  0.05187753  0.88625943  0.22744591  1
  O  O42  1  0.44812247  0.88625943  0.72744591  1
  O  O43  1  0.55187753  0.38625943  0.27255409  1
  O  O44  1  0.53462705  0.37754071  0.72585403  1
  O  O45  1  0.46537295  0.87754071  0.27414597  1
  O  O46  1  0.03462705  0.87754071  0.77414597  1
  O  O47  1  0.96537295  0.37754071  0.22585403  1
  O  O48  1  0.54211967  0.11460186  0.49411121  1
  O  O49  1  0.45788033  0.61460186  0.50588879  1
  O  O50  1  0.04211967  0.61460186  0.00588879  1
  O  O51  1  0.95788033  0.11460186  0.99411121  1
  O  O52  1  0.33064542  0.74030580  0.88902081  1
  O  O53  1  0.66935458  0.24030580  0.11097919  1
  O  O54  1  0.83064542  0.24030580  0.61097919  1
  O  O55  1  0.16935458  0.74030580  0.38902081  1
  O  O56  1  0.01003399  0.87062345  0.98562883  1
  O  O57  1  0.98996601  0.37062345  0.01437117  1
  O  O58  1  0.51003399  0.37062345  0.51437117  1
  O  O59  1  0.48996601  0.87062345  0.48562883  1
  O  O60  1  0.20158025  0.45923124  0.61178940  1
  O  O61  1  0.79841975  0.95923124  0.38821060  1
  O  O62  1  0.70158025  0.95923124  0.88821060  1
  O  O63  1  0.29841975  0.45923124  0.11178940  1
