# generated using pymatgen
data_NbCl2O
_symmetry_space_group_name_H-M   'P 1'
_cell_length_a   3.91678724
_cell_length_b   7.04157653
_cell_length_c   6.74211724
_cell_angle_alpha   104.42154985
_cell_angle_beta   90.00000000
_cell_angle_gamma   106.14795072
_symmetry_Int_Tables_number   1
_chemical_formula_structural   NbCl2O
_chemical_formula_sum   'Nb2 Cl4 O2'
_cell_volume   172.50529084
_cell_formula_units_Z   2
loop_
 _symmetry_equiv_pos_site_id
 _symmetry_equiv_pos_as_xyz
  1  'x, y, z'
loop_
 _atom_site_type_symbol
 _atom_site_label
 _atom_site_symmetry_multiplicity
 _atom_site_fract_x
 _atom_site_fract_y
 _atom_site_fract_z
 _atom_site_occupancy
  Nb  Nb0  1  0.96327464  0.99983943  0.71871118  1
  Nb  Nb1  1  0.96343620  0.00016057  0.28128882  1
  Cl  Cl2  1  0.87628227  0.74202810  0.93337063  1
  Cl  Cl3  1  0.13425517  0.25797190  0.06662937  1
  Cl  Cl4  1  0.85052854  0.70046574  0.42151906  1
  Cl  Cl5  1  0.15006381  0.29953426  0.57848094  1
  O  O6  1  0.49460073  0.99903908  0.72693160  1
  O  O7  1  0.49555965  0.00096092  0.27306840  1
