# generated using pymatgen
data_BaGa4Se7
_symmetry_space_group_name_H-M   'P 1'
_cell_length_a   6.59331972
_cell_length_b   7.69455763
_cell_length_c   14.83515140
_cell_angle_alpha   58.96791641
_cell_angle_beta   90.00000000
_cell_angle_gamma   90.00000000
_symmetry_Int_Tables_number   1
_chemical_formula_structural   BaGa4Se7
_chemical_formula_sum   'Ba2 Ga8 Se14'
_cell_volume   644.91006523
_cell_formula_units_Z   2
loop_
 _symmetry_equiv_pos_site_id
 _symmetry_equiv_pos_as_xyz
  1  'x, y, z'
loop_
 _atom_site_type_symbol
 _atom_site_label
 _atom_site_symmetry_multiplicity
 _atom_site_fract_x
 _atom_site_fract_y
 _atom_site_fract_z
 _atom_site_occupancy
  Ba  Ba0  1  0.35209107  0.56565644  0.45306186  1
  Ba  Ba1  1  0.64790893  0.56565644  0.95306186  1
  Ga  Ga2  1  0.16547962  0.00852739  0.75914597  1
  Ga  Ga3  1  0.83452038  0.00852739  0.25914597  1
  Ga  Ga4  1  0.01027022  -0.00031254  0.49966502  1
  Ga  Ga5  1  0.98972978  -0.00031254  -0.00033498  1
  Ga  Ga6  1  0.15802416  0.49125077  0.77254806  1
  Ga  Ga7  1  0.84197584  0.49125077  0.27254806  1
  Ga  Ga8  1  0.36279026  0.23686491  0.27535703  1
  Ga  Ga9  1  0.63720974  0.23686491  0.77535703  1
  Se  Se10  1  0.14913146  0.78649280  0.94493934  1
  Se  Se11  1  0.85086854  0.78649280  0.44493934  1
  Se  Se12  1  0.36226545  0.00457775  0.46028252  1
  Se  Se13  1  0.63773455  0.00457775  0.96028252  1
  Se  Se14  1  0.10636986  0.32735048  0.95685659  1
  Se  Se15  1  0.89363014  0.32735048  0.45685659  1
  Se  Se16  1  0.01927561  0.32822154  0.19153692  1
  Se  Se17  1  0.98072439  0.32822154  0.69153692  1
  Se  Se18  1  0.51127899  0.10034864  0.17741611  1
  Se  Se19  1  0.48872101  0.10034864  0.67741611  1
  Se  Se20  1  0.49667016  0.56563060  0.22216312  1
  Se  Se21  1  0.50332984  0.56563060  0.72216312  1
  Se  Se22  1  0.02459866  0.81731023  0.19498646  1
  Se  Se23  1  0.97540134  0.81731023  0.69498646  1
