# generated using pymatgen
data_K2Pd3Se4
_symmetry_space_group_name_H-M   'P 1'
_cell_length_a   6.35779401
_cell_length_b   6.37251504
_cell_length_c   13.64665214
_cell_angle_alpha   83.32700763
_cell_angle_beta   76.52958412
_cell_angle_gamma   60.07639271
_symmetry_Int_Tables_number   1
_chemical_formula_structural   K2Pd3Se4
_chemical_formula_sum   'K4 Pd6 Se8'
_cell_volume   466.00777666
_cell_formula_units_Z   2
loop_
 _symmetry_equiv_pos_site_id
 _symmetry_equiv_pos_as_xyz
  1  'x, y, z'
loop_
 _atom_site_type_symbol
 _atom_site_label
 _atom_site_symmetry_multiplicity
 _atom_site_fract_x
 _atom_site_fract_y
 _atom_site_fract_z
 _atom_site_occupancy
  K  K0  1  0.30110822  0.25000000  0.39778457  1
  K  K1  1  0.44889178  0.25000000  0.10221543  1
  K  K2  1  0.69889178  0.75000000  0.60221543  1
  K  K3  1  0.55110822  0.75000000  0.89778457  1
  Pd  Pd4  1  0.37396154  0.75000000  0.25207693  1
  Pd  Pd5  1  0.12396154  0.25000000  0.75207693  1
  Pd  Pd6  1  0.62603846  0.25000000  0.74792307  1
  Pd  Pd7  1  0.12500000  0.75000000  0.75000000  1
  Pd  Pd8  1  0.87500000  0.25000000  0.25000000  1
  Pd  Pd9  1  0.87603846  0.75000000  0.24792307  1
  Se  Se10  1  0.34722279  0.41672014  0.62550676  1
  Se  Se11  1  0.02726945  0.08327986  0.62550676  1
  Se  Se12  1  0.23605807  0.41672014  0.87449324  1
  Se  Se13  1  0.11055031  0.91672014  0.12550676  1
  Se  Se14  1  0.65277721  0.58327986  0.37449324  1
  Se  Se15  1  0.88945069  0.08327986  0.87449324  1
  Se  Se16  1  0.76394193  0.58327986  0.12550676  1
  Se  Se17  1  0.97273055  0.91672014  0.37449324  1
