# generated using pymatgen
data_Rb4TiO4
_symmetry_space_group_name_H-M   'P 1'
_cell_length_a   6.67393886
_cell_length_b   6.71095014
_cell_length_c   9.94985463
_cell_angle_alpha   71.73693974
_cell_angle_beta   79.08337314
_cell_angle_gamma   66.13852456
_symmetry_Int_Tables_number   1
_chemical_formula_structural   Rb4TiO4
_chemical_formula_sum   'Rb8 Ti2 O8'
_cell_volume   386.01212574
_cell_formula_units_Z   2
loop_
 _symmetry_equiv_pos_site_id
 _symmetry_equiv_pos_as_xyz
  1  'x, y, z'
loop_
 _atom_site_type_symbol
 _atom_site_label
 _atom_site_symmetry_multiplicity
 _atom_site_fract_x
 _atom_site_fract_y
 _atom_site_fract_z
 _atom_site_occupancy
  Rb  Rb0  1  0.24029822  0.76684757  0.03266456  1
  Rb  Rb1  1  0.27999567  0.50869943  0.43848108  1
  Rb  Rb2  1  0.25359673  0.40867570  0.84171139  1
  Rb  Rb3  1  0.21415149  0.96794298  0.62404211  1
  Rb  Rb4  1  0.78584851  0.03205702  0.37595789  1
  Rb  Rb5  1  0.74640327  0.59132430  0.15828861  1
  Rb  Rb6  1  0.72000433  0.49130057  0.56151892  1
  Rb  Rb7  1  0.75970178  0.23315243  0.96733544  1
  Ti  Ti8  1  0.26890669  0.15890670  0.24843620  1
  Ti  Ti9  1  0.73109331  0.84109330  0.75156380  1
  O  O10  1  0.12755848  0.16554781  0.10452319  1
  O  O11  1  0.05029309  0.29516577  0.37040740  1
  O  O12  1  0.44613960  0.32610514  0.18818777  1
  O  O13  1  0.56547328  0.13013343  0.65482615  1
  O  O14  1  0.43452672  0.86986657  0.34517385  1
  O  O15  1  0.55386040  0.67389486  0.81181223  1
  O  O16  1  0.94970691  0.70483423  0.62959260  1
  O  O17  1  0.87244152  0.83445219  0.89547681  1
