# generated using pymatgen
data_GaSeCl
_symmetry_space_group_name_H-M   'P 1'
_cell_length_a   3.80587905
_cell_length_b   5.57993424
_cell_length_c   15.06543023
_cell_angle_alpha   90.00000000
_cell_angle_beta   90.00000000
_cell_angle_gamma   90.00000000
_symmetry_Int_Tables_number   1
_chemical_formula_structural   GaSeCl
_chemical_formula_sum   'Ga4 Se4 Cl4'
_cell_volume   319.93783503
_cell_formula_units_Z   4
loop_
 _symmetry_equiv_pos_site_id
 _symmetry_equiv_pos_as_xyz
  1  'x, y, z'
loop_
 _atom_site_type_symbol
 _atom_site_label
 _atom_site_symmetry_multiplicity
 _atom_site_fract_x
 _atom_site_fract_y
 _atom_site_fract_z
 _atom_site_occupancy
  Ga  Ga0  1  0.50000000  0.53217696  0.18971816  1
  Ga  Ga1  1  -0.00000000  0.96782304  0.68971816  1
  Ga  Ga2  1  -0.00000000  0.03217696  0.31028184  1
  Ga  Ga3  1  0.50000000  0.46782304  0.81028184  1
  Se  Se4  1  0.50000000  0.23912115  0.67258741  1
  Se  Se5  1  -0.00000000  0.73912115  0.82741259  1
  Se  Se6  1  0.00000000  0.26087885  0.17258741  1
  Se  Se7  1  0.50000000  0.76087885  0.32741259  1
  Cl  Cl8  1  0.50000000  0.23353357  0.92385485  1
  Cl  Cl9  1  0.00000000  0.73353357  0.57614515  1
  Cl  Cl10  1  0.50000000  0.76646643  0.07614515  1
  Cl  Cl11  1  -0.00000000  0.26646643  0.42385485  1
