# generated using pymatgen
data_MoSeS
_symmetry_space_group_name_H-M   'P 1'
_cell_length_a   3.25003562
_cell_length_b   3.25003564
_cell_length_c   35.86214318
_cell_angle_alpha   89.99438898
_cell_angle_beta   90.00562390
_cell_angle_gamma   120.00094100
_symmetry_Int_Tables_number   1
_chemical_formula_structural   MoSeS
_chemical_formula_sum   'Mo4 Se4 S4'
_cell_volume   328.04920843
_cell_formula_units_Z   4
loop_
 _symmetry_equiv_pos_site_id
 _symmetry_equiv_pos_as_xyz
  1  'x, y, z'
loop_
 _atom_site_type_symbol
 _atom_site_label
 _atom_site_symmetry_multiplicity
 _atom_site_fract_x
 _atom_site_fract_y
 _atom_site_fract_z
 _atom_site_occupancy
  Mo  Mo0  1  0.33337231  0.66662738  0.71867407  1
  Mo  Mo1  1  0.33328881  0.66671015  0.09461977  1
  Mo  Mo2  1  0.66669486  0.33330636  0.90535999  1
  Mo  Mo3  1  0.66663005  0.33337000  0.28134038  1
  Se  Se4  1  0.33341341  0.66658849  0.95220620  1
  Se  Se5  1  0.66656296  0.33343556  0.04778158  1
  Se  Se6  1  0.66668209  0.33331687  0.14142981  1
  Se  Se7  1  0.33334016  0.66666088  0.85856339  1
  S  S8  1  0.33333003  0.66667002  0.32402445  1
  S  S9  1  0.66668234  0.33331715  0.67598722  1
  S  S10  1  0.66672700  0.33327298  0.76138563  1
  S  S11  1  0.33327598  0.66672415  0.23862751  1
