# generated using pymatgen
data_Li5V3P8O29
_symmetry_space_group_name_H-M   'P 1'
_cell_length_a   9.78241260
_cell_length_b   9.80694168
_cell_length_c   14.07094492
_cell_angle_alpha   90.16446173
_cell_angle_beta   90.19043428
_cell_angle_gamma   59.81253199
_symmetry_Int_Tables_number   1
_chemical_formula_structural   Li5V3P8O29
_chemical_formula_sum   'Li10 V6 P16 O58'
_cell_volume   1166.82879663
_cell_formula_units_Z   2
loop_
 _symmetry_equiv_pos_site_id
 _symmetry_equiv_pos_as_xyz
  1  'x, y, z'
loop_
 _atom_site_type_symbol
 _atom_site_label
 _atom_site_symmetry_multiplicity
 _atom_site_fract_x
 _atom_site_fract_y
 _atom_site_fract_z
 _atom_site_occupancy
  Li  Li0  1  0.77132647  0.90582671  0.55838248  1
  Li  Li1  1  0.90952927  0.32039737  0.55700714  1
  Li  Li2  1  0.76286328  0.33226253  0.06125466  1
  Li  Li3  1  0.32952098  0.90155764  0.06159689  1
  Li  Li4  1  0.68020599  0.22631511  0.43890313  1
  Li  Li5  1  0.30882471  0.77510032  0.55872213  1
  Li  Li6  1  0.23405830  0.66384009  0.94284205  1
  Li  Li7  1  0.23184356  0.09124469  0.43796672  1
  Li  Li8  1  0.09629157  0.23350770  0.94402558  1
  Li  Li9  1  0.95259247  0.98122166  0.99593717  1
  V  V10  1  0.56698549  0.43341312  0.25221853  1
  V  V11  1  0.43221329  0.56717854  0.74989996  1
  V  V12  1  0.56867824  0.00227525  0.75373982  1
  V  V13  1  0.43691464  0.99889817  0.24612129  1
  V  V14  1  0.99758709  0.57397039  0.24907334  1
  V  V15  1  0.00249581  0.43701740  0.75145683  1
  P  P16  1  0.91683911  0.77647645  0.84112574  1
  P  P17  1  0.76935558  0.91234703  0.34146407  1
  P  P18  1  0.91441763  0.31937110  0.34185455  1
  P  P19  1  0.67053361  0.66045585  0.12777308  1
  P  P20  1  0.66710567  0.66798562  0.63140470  1
  P  P21  1  0.77508645  0.31552244  0.84345595  1
  P  P22  1  0.68301497  0.23042154  0.66053618  1
  P  P23  1  0.31558832  0.91307585  0.84146168  1
  P  P24  1  0.69064720  0.08577808  0.15825850  1
  P  P25  1  0.31952898  0.77211831  0.34189285  1
  P  P26  1  0.22637319  0.68626200  0.16013236  1
  P  P27  1  0.33023359  0.33290529  0.36906002  1
  P  P28  1  0.33218532  0.33415176  0.87129652  1
  P  P29  1  0.08512489  0.68556214  0.65564446  1
  P  P30  1  0.23087445  0.08926898  0.65918942  1
  P  P31  1  0.08609782  0.23084748  0.15845082  1
  O  O32  1  0.99166141  0.76491726  0.56990104  1
  O  O33  1  0.91737563  0.74545694  0.33530689  1
  O  O34  1  0.79122603  0.00299795  0.07546856  1
  O  O35  1  0.74555787  0.91425521  0.83618427  1
  O  O36  1  0.91881099  0.61736454  0.82928822  1
  O  O37  1  0.81393200  0.66768819  0.17657820  1
  O  O38  1  0.90479422  0.47831320  0.32362422  1
  O  O39  1  0.99813432  0.23035904  0.07022258  1
  O  O40  1  0.92194672  0.33971293  0.83653653  1
  O  O41  1  0.67237037  0.81551648  0.66835686  1
  O  O42  1  0.62157626  0.89870245  0.32212743  1
  O  O43  1  0.81631773  0.51700275  0.67816723  1
  O  O44  1  0.67948074  0.65375181  0.02209690  1
  O  O45  1  0.67936528  0.65214761  0.52587086  1
  O  O46  1  0.68059042  0.50709493  0.16886048  1
  O  O47  1  0.47418543  0.90389522  0.82776978  1
  O  O48  1  0.51401348  0.80834365  0.16465797  1
  O  O49  1  0.74924509  0.33466464  0.34298886  1
  O  O50  1  0.79482825  0.20846117  0.75056691  1
  O  O51  1  0.75752357  0.24522871  0.57073305  1
  O  O52  1  0.79171550  0.22579259  0.93275881  1
  O  O53  1  0.62097287  0.47152480  0.83050980  1
  O  O54  1  0.51365745  0.67261254  0.66970323  1
  O  O55  1  0.65784724  0.25894720  0.16408263  1
  O  O56  1  0.48055538  0.62074094  0.32097808  1
  O  O57  1  0.33903223  0.91957844  0.33684451  1
  O  O58  1  0.78848453  0.00900908  0.25606065  1
  O  O59  1  0.75844370  0.99694056  0.43268842  1
  O  O60  1  0.23677250  0.00342158  0.56944256  1
  O  O61  1  0.66641462  0.08247206  0.66017503  1
  O  O62  1  0.52073787  0.38069225  0.67967842  1
  O  O63  1  0.33423806  0.74580835  0.83828524  1
  O  O64  1  0.48519504  0.32937254  0.33426608  1
  O  O65  1  0.37980031  0.52928213  0.17036437  1
  O  O66  1  0.21925717  0.77555202  0.07067349  1
  O  O67  1  0.24767500  0.76405339  0.43267083  1
  O  O68  1  0.20741613  0.79418166  0.25144831  1
  O  O69  1  0.25322930  0.66302615  0.65757284  1
  O  O70  1  0.48226818  0.19470688  0.82773348  1
  O  O71  1  0.53450935  0.08435648  0.16705694  1
  O  O72  1  0.31933759  0.49140412  0.83569486  1
  O  O73  1  0.30916049  0.33358669  0.97612090  1
  O  O74  1  0.32105498  0.33379806  0.47468808  1
  O  O75  1  0.18462342  0.47919247  0.32015832  1
  O  O76  1  0.38213464  0.09623545  0.67701707  1
  O  O77  1  0.32807387  0.18483405  0.32665501  1
  O  O78  1  0.08097820  0.66329523  0.16505436  1
  O  O79  1  0.00190284  0.79309782  0.74825693  1
  O  O80  1  0.00490560  0.78533252  0.92556066  1
  O  O81  1  0.09546000  0.52409480  0.67788215  1
  O  O82  1  0.18454580  0.32582762  0.82415892  1
  O  O83  1  0.08868504  0.38464800  0.17213640  1
  O  O84  1  0.25427244  0.08394414  0.15745878  1
  O  O85  1  0.22752779  0.99842769  0.93039095  1
  O  O86  1  0.20631427  0.00209461  0.74954489  1
  O  O87  1  0.08141250  0.25722279  0.66037432  1
  O  O88  1  0.00425132  0.24015411  0.43110778  1
  O  O89  1  0.00285404  0.20762587  0.25118542  1
