# generated using pymatgen
data_K2MgZn4P4(HO8)2
_symmetry_space_group_name_H-M   'P 1'
_cell_length_a   5.42188011
_cell_length_b   9.15435799
_cell_length_c   9.61216005
_cell_angle_alpha   97.08706384
_cell_angle_beta   101.63358438
_cell_angle_gamma   108.44764856
_symmetry_Int_Tables_number   1
_chemical_formula_structural   K2MgZn4P4(HO8)2
_chemical_formula_sum   'K2 Mg1 Zn4 P4 H2 O16'
_cell_volume   434.18600495
_cell_formula_units_Z   1
loop_
 _symmetry_equiv_pos_site_id
 _symmetry_equiv_pos_as_xyz
  1  'x, y, z'
loop_
 _atom_site_type_symbol
 _atom_site_label
 _atom_site_symmetry_multiplicity
 _atom_site_fract_x
 _atom_site_fract_y
 _atom_site_fract_z
 _atom_site_occupancy
  K  K0  1  0.40513588  0.68168717  0.68917890  1
  K  K1  1  0.59486412  0.31831283  0.31082110  1
  Mg  Mg2  1  0.50000000  0.00000000  0.50000000  1
  Zn  Zn3  1  0.21678421  0.61623291  0.22994286  1
  Zn  Zn4  1  0.78321579  0.38376709  0.77005714  1
  Zn  Zn5  1  0.68985072  0.88808942  0.11141364  1
  Zn  Zn6  1  0.31014928  0.11191058  0.88858636  1
  P  P7  1  0.08631337  0.75797398  0.94826224  1
  P  P8  1  0.91368663  0.24202602  0.05173776  1
  P  P9  1  0.84246835  0.74399757  0.39012609  1
  P  P10  1  0.15753165  0.25600243  0.60987391  1
  H  H11  1  0.96958228  0.91377934  0.60052090  1
  H  H12  1  0.03041772  0.08622066  0.39947910  1
  O  O13  1  0.97687163  0.40032255  0.15297130  1
  O  O14  1  0.02312837  0.59967745  0.84702870  1
  O  O15  1  0.29124802  0.76611091  0.09670241  1
  O  O16  1  0.70875198  0.23388909  0.90329759  1
  O  O17  1  0.75248522  0.11098272  0.12030129  1
  O  O18  1  0.24751478  0.88901728  0.87969871  1
  O  O19  1  0.82664151  0.77728824  0.97508451  1
  O  O20  1  0.17335749  0.22271176  0.02491549  1
  O  O21  1  0.57081437  0.61047695  0.32629779  1
  O  O22  1  0.42918563  0.38952305  0.67370221  1
  O  O23  1  0.87234913  0.88765282  0.31579453  1
  O  O24  1  0.12765087  0.11234718  0.68420547  1
  O  O25  1  0.07446054  0.68051489  0.39276310  1
  O  O26  1  0.92553946  0.31948511  0.60723690  1
  O  O27  1  0.85125750  0.80160893  0.55676362  1
  O  O28  1  0.14874250  0.19839107  0.44323638  1
