# generated using pymatgen
data_Ca(TmS2)2
_symmetry_space_group_name_H-M   'P 1'
_cell_length_a   3.84789429
_cell_length_b   12.82120829
_cell_length_c   12.99823651
_cell_angle_alpha   90.00000000
_cell_angle_beta   90.00000000
_cell_angle_gamma   90.00000000
_symmetry_Int_Tables_number   1
_chemical_formula_structural   Ca(TmS2)2
_chemical_formula_sum   'Ca4 Tm8 S16'
_cell_volume   641.26350304
_cell_formula_units_Z   4
loop_
 _symmetry_equiv_pos_site_id
 _symmetry_equiv_pos_as_xyz
  1  'x, y, z'
loop_
 _atom_site_type_symbol
 _atom_site_label
 _atom_site_symmetry_multiplicity
 _atom_site_fract_x
 _atom_site_fract_y
 _atom_site_fract_z
 _atom_site_occupancy
  Ca  Ca0  1  0.25000000  0.36879837  0.58343343  1
  Ca  Ca1  1  0.25000000  0.86879837  0.91656657  1
  Ca  Ca2  1  0.75000000  0.63120163  0.41656657  1
  Ca  Ca3  1  0.75000000  0.13120163  0.08343343  1
  Tm  Tm4  1  0.25000000  0.10675921  0.41677482  1
  Tm  Tm5  1  0.25000000  0.60675921  0.08322518  1
  Tm  Tm6  1  0.75000000  0.89324079  0.58322518  1
  Tm  Tm7  1  0.75000000  0.39324079  0.91677482  1
  Tm  Tm8  1  0.25000000  0.14705689  0.79787676  1
  Tm  Tm9  1  0.25000000  0.64705689  0.70212324  1
  Tm  Tm10  1  0.75000000  0.85294311  0.20212324  1
  Tm  Tm11  1  0.75000000  0.35294311  0.29787676  1
  S  S12  1  0.25000000  0.21747575  0.23842149  1
  S  S13  1  0.25000000  0.71747575  0.26157851  1
  S  S14  1  0.75000000  0.78252425  0.76157851  1
  S  S15  1  0.75000000  0.28252425  0.73842149  1
  S  S16  1  0.25000000  0.25833609  0.97330793  1
  S  S17  1  0.25000000  0.75833609  0.52669207  1
  S  S18  1  0.75000000  0.74166391  0.02669207  1
  S  S19  1  0.75000000  0.24166391  0.47330793  1
  S  S20  1  0.25000000  0.46907468  0.38151613  1
  S  S21  1  0.25000000  0.96907468  0.11848387  1
  S  S22  1  0.75000000  0.53092532  0.61848387  1
  S  S23  1  0.75000000  0.03092532  0.88151613  1
  S  S24  1  0.25000000  0.03399673  0.61785394  1
  S  S25  1  0.25000000  0.53399673  0.88214606  1
  S  S26  1  0.75000000  0.96600327  0.38214606  1
  S  S27  1  0.75000000  0.46600327  0.11785394  1
