# generated using pymatgen
data_ZrSeS
_symmetry_space_group_name_H-M   'P 1'
_cell_length_a   3.75003683
_cell_length_b   3.75001084
_cell_length_c   6.23482089
_cell_angle_alpha   89.99934065
_cell_angle_beta   90.01380021
_cell_angle_gamma   119.99974785
_symmetry_Int_Tables_number   1
_chemical_formula_structural   ZrSeS
_chemical_formula_sum   'Zr1 Se1 S1'
_cell_volume   75.93181085
_cell_formula_units_Z   1
loop_
 _symmetry_equiv_pos_site_id
 _symmetry_equiv_pos_as_xyz
  1  'x, y, z'
loop_
 _atom_site_type_symbol
 _atom_site_label
 _atom_site_symmetry_multiplicity
 _atom_site_fract_x
 _atom_site_fract_y
 _atom_site_fract_z
 _atom_site_occupancy
  Zr  Zr0  1  -0.00002460  -0.00001571  0.01250955  1
  Se  Se1  1  0.66653721  0.33327614  0.75337843  1
  S  S2  1  0.33348739  0.66673957  0.23411203  1
