# generated using pymatgen
data_FeSO4
_symmetry_space_group_name_H-M   'P 1'
_cell_length_a   4.78237395
_cell_length_b   6.74733555
_cell_length_c   8.70361969
_cell_angle_alpha   90.00000000
_cell_angle_beta   90.00000000
_cell_angle_gamma   90.00000000
_symmetry_Int_Tables_number   1
_chemical_formula_structural   FeSO4
_chemical_formula_sum   'Fe4 S4 O16'
_cell_volume   280.85085254
_cell_formula_units_Z   4
loop_
 _symmetry_equiv_pos_site_id
 _symmetry_equiv_pos_as_xyz
  1  'x, y, z'
loop_
 _atom_site_type_symbol
 _atom_site_label
 _atom_site_symmetry_multiplicity
 _atom_site_fract_x
 _atom_site_fract_y
 _atom_site_fract_z
 _atom_site_occupancy
  Fe  Fe0  1  0.50000000  0.50000000  0.50000000  1
  Fe  Fe1  1  0.00000000  0.50000000  -0.00000000  1
  Fe  Fe2  1  0.50000000  -0.00000000  0.50000000  1
  Fe  Fe3  1  0.00000000  -0.00000000  -0.00000000  1
  S  S4  1  0.52413568  0.75000000  0.17764916  1
  S  S5  1  0.02413568  0.25000000  0.32235084  1
  S  S6  1  0.47586432  0.25000000  0.82235084  1
  S  S7  1  0.97586432  0.75000000  0.67764916  1
  O  O8  1  0.23244081  0.75000000  0.12111537  1
  O  O9  1  0.73244081  0.25000000  0.37888463  1
  O  O10  1  0.76755919  0.25000000  0.87888463  1
  O  O11  1  0.26755919  0.75000000  0.62111537  1
  O  O12  1  0.53220197  0.75000000  0.34922427  1
  O  O13  1  0.03220197  0.25000000  0.15077573  1
  O  O14  1  0.46779803  0.25000000  0.65077573  1
  O  O15  1  0.96779803  0.75000000  0.84922427  1
  O  O16  1  0.83561883  0.93055297  0.62532461  1
  O  O17  1  0.33561883  0.06944703  0.87467539  1
  O  O18  1  0.16438117  0.43055297  0.37467539  1
  O  O19  1  0.66438117  0.56944703  0.12532461  1
  O  O20  1  0.16438117  0.06944703  0.37467539  1
  O  O21  1  0.66438117  0.93055297  0.12532461  1
  O  O22  1  0.83561883  0.56944703  0.62532461  1
  O  O23  1  0.33561883  0.43055297  0.87467539  1
