# generated using pymatgen
data_NaHO
_symmetry_space_group_name_H-M   'P 1'
_cell_length_a   5.45784720
_cell_length_b   5.45793685
_cell_length_c   5.45845287
_cell_angle_alpha   110.30857035
_cell_angle_beta   110.31072250
_cell_angle_gamma   107.80980616
_symmetry_Int_Tables_number   1
_chemical_formula_structural   NaHO
_chemical_formula_sum   'Na4 H4 O4'
_cell_volume   125.08622303
_cell_formula_units_Z   4
loop_
 _symmetry_equiv_pos_site_id
 _symmetry_equiv_pos_as_xyz
  1  'x, y, z'
loop_
 _atom_site_type_symbol
 _atom_site_label
 _atom_site_symmetry_multiplicity
 _atom_site_fract_x
 _atom_site_fract_y
 _atom_site_fract_z
 _atom_site_occupancy
  Na  Na0  1  0.00015536  -0.00001073  -0.00003816  1
  Na  Na1  1  0.49991285  0.50007726  -0.00020692  1
  Na  Na2  1  0.49988771  -0.00003666  0.49994841  1
  Na  Na3  1  0.00014495  0.50006770  0.50031123  1
  H  H4  1  0.01783254  0.01783131  0.49995593  1
  H  H5  1  0.98214459  0.48214522  0.00003943  1
  H  H6  1  0.48216504  0.98217442  0.00005110  1
  H  H7  1  0.51780089  0.51779903  0.49995610  1
  O  O8  1  0.86758878  0.86758841  0.49990740  1
  O  O9  1  0.13239412  0.63239675  0.00008654  1
  O  O10  1  0.63241502  0.13241226  0.00007765  1
  O  O11  1  0.36755814  0.36755305  0.49990929  1
