# generated using pymatgen
data_CaTaAlO5
_symmetry_space_group_name_H-M   'P 1'
_cell_length_a   5.58089205
_cell_length_b   5.58089120
_cell_length_c   7.34975365
_cell_angle_alpha   104.30506774
_cell_angle_beta   104.30506122
_cell_angle_gamma   106.23076398
_symmetry_Int_Tables_number   1
_chemical_formula_structural   CaTaAlO5
_chemical_formula_sum   'Ca2 Ta2 Al2 O10'
_cell_volume   200.30602127
_cell_formula_units_Z   2
loop_
 _symmetry_equiv_pos_site_id
 _symmetry_equiv_pos_as_xyz
  1  'x, y, z'
loop_
 _atom_site_type_symbol
 _atom_site_label
 _atom_site_symmetry_multiplicity
 _atom_site_fract_x
 _atom_site_fract_y
 _atom_site_fract_z
 _atom_site_occupancy
  Ca  Ca0  1  0.33258561  0.66741439  0.75000000  1
  Ca  Ca1  1  0.66741439  0.33258561  0.25000000  1
  Ta  Ta2  1  0.00000000  0.00000000  -0.00000000  1
  Ta  Ta3  1  0.00000000  0.00000000  0.50000000  1
  Al  Al4  1  0.68343748  0.31656252  0.75000000  1
  Al  Al5  1  0.31656252  0.68343748  0.25000000  1
  O  O6  1  0.07421005  0.92578995  0.75000000  1
  O  O7  1  0.92578995  0.07421005  0.25000000  1
  O  O8  1  0.10039872  0.69261093  0.38768157  1
  O  O9  1  0.30738907  0.89960128  0.11231843  1
  O  O10  1  0.89960128  0.30738907  0.61231843  1
  O  O11  1  0.69261093  0.10039872  0.88768157  1
  O  O12  1  0.36708188  0.25099030  0.58692851  1
  O  O13  1  0.74900970  0.63291812  0.91307149  1
  O  O14  1  0.63291812  0.74900970  0.41307149  1
  O  O15  1  0.25099030  0.36708188  0.08692851  1
