# generated using pymatgen
data_Tb4Mg(PO4)4
_symmetry_space_group_name_H-M   'P 1'
_cell_length_a   6.59520604
_cell_length_b   7.76548398
_cell_length_c   6.65301664
_cell_angle_alpha   93.26777657
_cell_angle_beta   85.33537094
_cell_angle_gamma   98.29275163
_symmetry_Int_Tables_number   1
_chemical_formula_structural   Tb4Mg(PO4)4
_chemical_formula_sum   'Tb4 Mg1 P4 O16'
_cell_volume   335.70029710
_cell_formula_units_Z   1
loop_
 _symmetry_equiv_pos_site_id
 _symmetry_equiv_pos_as_xyz
  1  'x, y, z'
loop_
 _atom_site_type_symbol
 _atom_site_label
 _atom_site_symmetry_multiplicity
 _atom_site_fract_x
 _atom_site_fract_y
 _atom_site_fract_z
 _atom_site_occupancy
  Tb  Tb0  1  0.49531018  0.31987476  0.68920949  1
  Tb  Tb1  1  0.84553417  0.66672722  0.85871659  1
  Tb  Tb2  1  0.60863460  0.88845706  0.37282645  1
  Tb  Tb3  1  0.08949160  0.30798233  0.13060505  1
  Mg  Mg4  1  0.20341640  0.98709322  0.62605749  1
  P  P5  1  0.92769119  0.22386743  0.63408694  1
  P  P6  1  0.38124075  0.69918116  0.85200493  1
  P  P7  1  0.05541441  0.74461225  0.33467758  1
  P  P8  1  0.60678326  0.29713206  0.16892340  1
  O  O9  1  0.07313327  0.19607002  0.44380885  1
  O  O10  1  0.53873850  0.75160306  0.01626736  1
  O  O11  1  0.94240735  0.79046264  0.54583125  1
  O  O12  1  0.42492406  0.23906766  0.03294103  1
  O  O13  1  0.04868648  0.17339385  0.81110644  1
  O  O14  1  0.51869242  0.70854545  0.64831804  1
  O  O15  1  0.90784759  0.79423047  0.18205785  1
  O  O16  1  0.52354166  0.38595577  0.36287798  1
  O  O17  1  0.72301623  0.09847023  0.62677261  1
  O  O18  1  0.27068975  0.50803990  0.87490356  1
  O  O19  1  0.26303941  0.86695750  0.33655196  1
  O  O20  1  0.77867724  0.42341044  0.05358043  1
  O  O21  1  0.86391743  0.40815233  0.66036036  1
  O  O22  1  0.20643905  0.81280541  0.85082481  1
  O  O23  1  0.09411977  0.55656449  0.30359632  1
  O  O24  1  0.72319722  0.14134329  0.20346323  1
