# generated using pymatgen
data_Tm2MgSe4
_symmetry_space_group_name_H-M   'P 1'
_cell_length_a   13.12273484
_cell_length_b   7.82167192
_cell_length_c   13.38731182
_cell_angle_alpha   90.00000000
_cell_angle_beta   90.00000000
_cell_angle_gamma   90.00000000
_symmetry_Int_Tables_number   1
_chemical_formula_structural   Tm2MgSe4
_chemical_formula_sum   'Tm16 Mg8 Se32'
_cell_volume   1374.09679989
_cell_formula_units_Z   8
loop_
 _symmetry_equiv_pos_site_id
 _symmetry_equiv_pos_as_xyz
  1  'x, y, z'
loop_
 _atom_site_type_symbol
 _atom_site_label
 _atom_site_symmetry_multiplicity
 _atom_site_fract_x
 _atom_site_fract_y
 _atom_site_fract_z
 _atom_site_occupancy
  Tm  Tm0  1  0.10772495  0.88386397  0.68634581  1
  Tm  Tm1  1  0.89227505  0.11613603  0.18634581  1
  Tm  Tm2  1  0.39227505  0.88386397  0.18634581  1
  Tm  Tm3  1  0.60772495  0.11613603  0.68634581  1
  Tm  Tm4  1  0.12693426  0.38229700  0.32618445  1
  Tm  Tm5  1  0.87306574  0.61770300  0.82618445  1
  Tm  Tm6  1  0.37306574  0.38229700  0.82618445  1
  Tm  Tm7  1  0.62693426  0.61770300  0.32618445  1
  Tm  Tm8  1  0.13370384  0.63034741  0.99044999  1
  Tm  Tm9  1  0.86629616  0.36965259  0.49044999  1
  Tm  Tm10  1  0.36629616  0.63034741  0.49044999  1
  Tm  Tm11  1  0.63370384  0.36965259  0.99044999  1
  Tm  Tm12  1  0.13374127  0.13029724  0.99122065  1
  Tm  Tm13  1  0.86625873  0.86970276  0.49122065  1
  Tm  Tm14  1  0.36625873  0.13029724  0.49122065  1
  Tm  Tm15  1  0.63374127  0.86970276  0.99122065  1
  Mg  Mg16  1  0.11153967  0.38291555  0.69047656  1
  Mg  Mg17  1  0.88846033  0.61708445  0.19047656  1
  Mg  Mg18  1  0.38846033  0.38291555  0.19047656  1
  Mg  Mg19  1  0.61153967  0.61708445  0.69047656  1
  Mg  Mg20  1  0.12623351  0.87942907  0.32146826  1
  Mg  Mg21  1  0.87376649  0.12057093  0.82146826  1
  Mg  Mg22  1  0.37376649  0.87942907  0.82146826  1
  Mg  Mg23  1  0.62623351  0.12057093  0.32146826  1
  Se  Se24  1  0.01392524  0.87688015  0.87744848  1
  Se  Se25  1  0.98607476  0.12311985  0.37744848  1
  Se  Se26  1  0.48607476  0.87688015  0.37744848  1
  Se  Se27  1  0.51392524  0.12311985  0.87744848  1
  Se  Se28  1  0.03377479  0.37708724  0.13102782  1
  Se  Se29  1  0.96622521  0.62291276  0.63102782  1
  Se  Se30  1  0.46622521  0.37708724  0.63102782  1
  Se  Se31  1  0.53377479  0.62291276  0.13102782  1
  Se  Se32  1  0.02223435  0.37538454  0.87075979  1
  Se  Se33  1  0.97776565  0.62461546  0.37075979  1
  Se  Se34  1  0.47776565  0.37538454  0.37075979  1
  Se  Se35  1  0.52223435  0.62461546  0.87075979  1
  Se  Se36  1  0.04341670  0.87580499  0.13554187  1
  Se  Se37  1  0.95658330  0.12419501  0.63554187  1
  Se  Se38  1  0.45658330  0.87580499  0.63554187  1
  Se  Se39  1  0.54341670  0.12419501  0.13554187  1
  Se  Se40  1  0.21161880  0.88099351  0.50432499  1
  Se  Se41  1  0.78838120  0.11900649  0.00432499  1
  Se  Se42  1  0.28838120  0.88099351  0.00432499  1
  Se  Se43  1  0.71161880  0.11900649  0.50432499  1
  Se  Se44  1  0.21310610  0.38078635  0.51747740  1
  Se  Se45  1  0.78689390  0.61921365  0.01747740  1
  Se  Se46  1  0.28689390  0.38078635  0.01747740  1
  Se  Se47  1  0.71310610  0.61921365  0.51747740  1
  Se  Se48  1  0.23152991  0.13109513  0.77641958  1
  Se  Se49  1  0.76847009  0.86890487  0.27641958  1
  Se  Se50  1  0.26847009  0.13109513  0.27641958  1
  Se  Se51  1  0.73152991  0.86890487  0.77641958  1
  Se  Se52  1  0.23232745  0.63433311  0.77785534  1
  Se  Se53  1  0.76767255  0.36566689  0.27785534  1
  Se  Se54  1  0.26767255  0.63433311  0.27785534  1
  Se  Se55  1  0.73232745  0.36566689  0.77785534  1
