# generated using pymatgen
data_BaInF5
_symmetry_space_group_name_H-M   'P 1'
_cell_length_a   7.71506906
_cell_length_b   7.60899170
_cell_length_c   15.64893954
_cell_angle_alpha   84.44044390
_cell_angle_beta   90.00000000
_cell_angle_gamma   90.00000000
_symmetry_Int_Tables_number   1
_chemical_formula_structural   BaInF5
_chemical_formula_sum   'Ba8 In8 F40'
_cell_volume   914.33241083
_cell_formula_units_Z   8
loop_
 _symmetry_equiv_pos_site_id
 _symmetry_equiv_pos_as_xyz
  1  'x, y, z'
loop_
 _atom_site_type_symbol
 _atom_site_label
 _atom_site_symmetry_multiplicity
 _atom_site_fract_x
 _atom_site_fract_y
 _atom_site_fract_z
 _atom_site_occupancy
  Ba  Ba0  1  0.35188520  0.00263685  0.13713715  1
  Ba  Ba1  1  0.64811480  0.99736315  0.86286285  1
  Ba  Ba2  1  0.85188520  0.99736315  0.36286285  1
  Ba  Ba3  1  0.14811480  0.00263685  0.63713715  1
  Ba  Ba4  1  0.84461010  0.30178208  0.08681841  1
  Ba  Ba5  1  0.15538990  0.69821792  0.91318159  1
  Ba  Ba6  1  0.34461010  0.69821792  0.41318159  1
  Ba  Ba7  1  0.65538990  0.30178208  0.58681841  1
  In  In8  1  0.87905422  0.50538849  0.33756329  1
  In  In9  1  0.12094578  0.49461151  0.66243671  1
  In  In10  1  0.37905422  0.49461151  0.16243671  1
  In  In11  1  0.62094578  0.50538849  0.83756329  1
  In  In12  1  0.81881184  0.80670546  0.12472554  1
  In  In13  1  0.18118816  0.19329454  0.87527446  1
  In  In14  1  0.31881184  0.19329454  0.37527446  1
  In  In15  1  0.68118816  0.80670546  0.62472554  1
  F  F16  1  0.29871979  0.68873828  0.06963213  1
  F  F17  1  0.70128021  0.31126172  0.93036787  1
  F  F18  1  0.79871979  0.31126172  0.43036787  1
  F  F19  1  0.20128021  0.68873828  0.56963213  1
  F  F20  1  0.91695689  0.64412975  0.03915197  1
  F  F21  1  0.08304311  0.35587025  0.96084803  1
  F  F22  1  0.41695689  0.35587025  0.46084803  1
  F  F23  1  0.58304311  0.64412975  0.53915197  1
  F  F24  1  0.48379800  0.99144287  0.60440717  1
  F  F25  1  0.51620200  0.00855713  0.39559283  1
  F  F26  1  0.98379800  0.00855713  0.89559283  1
  F  F27  1  0.01620200  0.99144287  0.10440717  1
  F  F28  1  0.69961677  0.97470745  0.20518044  1
  F  F29  1  0.30038323  0.02529255  0.79481956  1
  F  F30  1  0.19961677  0.02529255  0.29481956  1
  F  F31  1  0.80038323  0.97470745  0.70518044  1
  F  F32  1  0.95494555  0.68240242  0.22989651  1
  F  F33  1  0.04505445  0.31759758  0.77010349  1
  F  F34  1  0.45494555  0.31759758  0.27010349  1
  F  F35  1  0.54505445  0.68240242  0.72989651  1
  F  F36  1  0.67059316  0.96222634  0.03612579  1
  F  F37  1  0.32940684  0.03777366  0.96387421  1
  F  F38  1  0.17059316  0.03777366  0.46387421  1
  F  F39  1  0.82940684  0.96222634  0.53612579  1
  F  F40  1  0.66946555  0.66992878  0.34735099  1
  F  F41  1  0.33053445  0.33007122  0.65264901  1
  F  F42  1  0.16946555  0.33007122  0.15264901  1
  F  F43  1  0.83053445  0.66992878  0.84735099  1
  F  F44  1  0.83922599  0.31047263  0.25703672  1
  F  F45  1  0.16077401  0.68952737  0.74296328  1
  F  F46  1  0.33922599  0.68952737  0.24296328  1
  F  F47  1  0.66077401  0.31047263  0.75703672  1
  F  F48  1  0.50028002  0.31140739  0.09211756  1
  F  F49  1  0.49971998  0.68859261  0.90788244  1
  F  F50  1  0.00028002  0.68859261  0.40788244  1
  F  F51  1  0.99971998  0.31140739  0.59211756  1
  F  F52  1  0.63786261  0.60112334  0.15040910  1
  F  F53  1  0.36213739  0.39887666  0.84959090  1
  F  F54  1  0.13786261  0.39887666  0.34959090  1
  F  F55  1  0.86213739  0.60112334  0.65040910  1
