# generated using pymatgen
data_K3NaCr2O8
_symmetry_space_group_name_H-M   'P 1'
_cell_length_a   5.78466490
_cell_length_b   5.78466444
_cell_length_c   7.45980288
_cell_angle_alpha   90.00000000
_cell_angle_beta   90.00000000
_cell_angle_gamma   119.99999208
_symmetry_Int_Tables_number   1
_chemical_formula_structural   K3NaCr2O8
_chemical_formula_sum   'K3 Na1 Cr2 O8'
_cell_volume   216.17944366
_cell_formula_units_Z   1
loop_
 _symmetry_equiv_pos_site_id
 _symmetry_equiv_pos_as_xyz
  1  'x, y, z'
loop_
 _atom_site_type_symbol
 _atom_site_label
 _atom_site_symmetry_multiplicity
 _atom_site_fract_x
 _atom_site_fract_y
 _atom_site_fract_z
 _atom_site_occupancy
  K  K0  1  -0.00000000  -0.00000000  0.50000000  1
  K  K1  1  0.66666700  0.33333300  0.16038994  1
  K  K2  1  0.33333300  0.66666700  0.83961006  1
  Na  Na3  1  -0.00000000  -0.00000000  0.00000000  1
  Cr  Cr4  1  0.66666700  0.33333300  0.72339119  1
  Cr  Cr5  1  0.33333300  0.66666700  0.27660881  1
  O  O6  1  0.35866659  0.17933280  0.80192876  1
  O  O7  1  0.82066720  0.17933280  0.80192876  1
  O  O8  1  0.82066720  0.64133341  0.80192876  1
  O  O9  1  0.17933280  0.82066720  0.19807124  1
  O  O10  1  0.64133341  0.82066720  0.19807124  1
  O  O11  1  0.17933280  0.35866659  0.19807124  1
  O  O12  1  0.33333300  0.66666700  0.49439087  1
  O  O13  1  0.66666700  0.33333300  0.50560913  1
