# generated using pymatgen
data_Ba2TmCl7
_symmetry_space_group_name_H-M   'P 1'
_cell_length_a   15.56039835
_cell_length_b   6.83546164
_cell_length_c   10.55422492
_cell_angle_alpha   89.45767214
_cell_angle_beta   90.00000000
_cell_angle_gamma   90.00000000
_symmetry_Int_Tables_number   1
_chemical_formula_structural   Ba2TmCl7
_chemical_formula_sum   'Ba8 Tm4 Cl28'
_cell_volume   1122.52352412
_cell_formula_units_Z   4
loop_
 _symmetry_equiv_pos_site_id
 _symmetry_equiv_pos_as_xyz
  1  'x, y, z'
loop_
 _atom_site_type_symbol
 _atom_site_label
 _atom_site_symmetry_multiplicity
 _atom_site_fract_x
 _atom_site_fract_y
 _atom_site_fract_z
 _atom_site_occupancy
  Ba  Ba0  1  0.27997295  0.23514701  0.54858280  1
  Ba  Ba1  1  0.72002705  0.76485299  0.45141720  1
  Ba  Ba2  1  0.77997295  0.76485299  0.95141720  1
  Ba  Ba3  1  0.22002705  0.23514701  0.04858280  1
  Ba  Ba4  1  0.43935962  0.76506919  0.82354548  1
  Ba  Ba5  1  0.56064038  0.23493081  0.17645452  1
  Ba  Ba6  1  0.93935962  0.23493081  0.67645452  1
  Ba  Ba7  1  0.06064038  0.76506919  0.32354548  1
  Tm  Tm8  1  0.12707614  0.71609024  0.78187519  1
  Tm  Tm9  1  0.87292386  0.28390976  0.21812481  1
  Tm  Tm10  1  0.62707614  0.28390976  0.71812481  1
  Tm  Tm11  1  0.37292386  0.71609024  0.28187519  1
  Cl  Cl12  1  0.07071794  0.37464931  0.87622514  1
  Cl  Cl13  1  0.92928206  0.62535069  0.12377486  1
  Cl  Cl14  1  0.57071794  0.62535069  0.62377486  1
  Cl  Cl15  1  0.42928206  0.37464931  0.37622514  1
  Cl  Cl16  1  0.10524256  0.98508230  0.58716532  1
  Cl  Cl17  1  0.89475744  0.01491770  0.41283468  1
  Cl  Cl18  1  0.60524256  0.01491770  0.91283468  1
  Cl  Cl19  1  0.39475744  0.98508230  0.08716532  1
  Cl  Cl20  1  0.96127968  0.79398142  0.78777951  1
  Cl  Cl21  1  0.03872032  0.20601858  0.21222049  1
  Cl  Cl22  1  0.46127968  0.20601858  0.71222049  1
  Cl  Cl23  1  0.53872032  0.79398142  0.28777951  1
  Cl  Cl24  1  0.36118635  0.79105422  0.52579514  1
  Cl  Cl25  1  0.63881365  0.20894578  0.47420486  1
  Cl  Cl26  1  0.86118635  0.20894578  0.97420486  1
  Cl  Cl27  1  0.13881365  0.79105422  0.02579514  1
  Cl  Cl28  1  0.25673281  0.98661572  0.80107803  1
  Cl  Cl29  1  0.74326719  0.01338428  0.19892197  1
  Cl  Cl30  1  0.75673281  0.01338428  0.69892197  1
  Cl  Cl31  1  0.24326719  0.98661572  0.30107803  1
  Cl  Cl32  1  0.27132468  0.50217404  0.79456930  1
  Cl  Cl33  1  0.72867532  0.49782596  0.20543070  1
  Cl  Cl34  1  0.77132468  0.49782596  0.70543070  1
  Cl  Cl35  1  0.22867532  0.50217404  0.29456930  1
  Cl  Cl36  1  0.10463399  0.50081140  0.57251548  1
  Cl  Cl37  1  0.89536601  0.49918860  0.42748452  1
  Cl  Cl38  1  0.60463399  0.49918860  0.92748452  1
  Cl  Cl39  1  0.39536601  0.50081140  0.07251548  1
