# generated using pymatgen
data_SnGeSe2
_symmetry_space_group_name_H-M   'P 1'
_cell_length_a   3.95963426
_cell_length_b   4.67704212
_cell_length_c   11.37081754
_cell_angle_alpha   90.00000000
_cell_angle_beta   90.00000000
_cell_angle_gamma   90.00000000
_symmetry_Int_Tables_number   1
_chemical_formula_structural   SnGeSe2
_chemical_formula_sum   'Sn2 Ge2 Se4'
_cell_volume   210.58044788
_cell_formula_units_Z   2
loop_
 _symmetry_equiv_pos_site_id
 _symmetry_equiv_pos_as_xyz
  1  'x, y, z'
loop_
 _atom_site_type_symbol
 _atom_site_label
 _atom_site_symmetry_multiplicity
 _atom_site_fract_x
 _atom_site_fract_y
 _atom_site_fract_z
 _atom_site_occupancy
  Sn  Sn0  1  0.50000000  0.36605253  0.38335379  1
  Sn  Sn1  1  0.50000000  0.63394747  0.88335379  1
  Ge  Ge2  1  -0.00000000  0.12293311  0.62746016  1
  Ge  Ge3  1  -0.00000000  0.87706689  0.12746016  1
  Se  Se4  1  -0.00000000  0.23592637  0.84557655  1
  Se  Se5  1  -0.00000000  0.76407363  0.34557655  1
  Se  Se6  1  0.50000000  0.23363339  0.14360951  1
  Se  Se7  1  0.50000000  0.76636661  0.64360951  1
