# generated using pymatgen
data_In(PO3)3
_symmetry_space_group_name_H-M   'P 1'
_cell_length_a   11.95820465
_cell_length_b   11.95820465
_cell_length_c   9.68373843
_cell_angle_alpha   69.97900582
_cell_angle_beta   69.97900582
_cell_angle_gamma   110.79931498
_symmetry_Int_Tables_number   1
_chemical_formula_structural   In(PO3)3
_chemical_formula_sum   'In6 P18 O54'
_cell_volume   1032.77242424
_cell_formula_units_Z   6
loop_
 _symmetry_equiv_pos_site_id
 _symmetry_equiv_pos_as_xyz
  1  'x, y, z'
loop_
 _atom_site_type_symbol
 _atom_site_label
 _atom_site_symmetry_multiplicity
 _atom_site_fract_x
 _atom_site_fract_y
 _atom_site_fract_z
 _atom_site_occupancy
  In  In0  1  0.19158074  0.01185558  0.48792709  1
  In  In1  1  0.01185558  0.19158074  0.98792709  1
  In  In2  1  0.33899099  0.82540600  0.02318720  1
  In  In3  1  0.82540600  0.33899099  0.52318720  1
  In  In4  1  0.52156112  0.67748141  0.48892280  1
  In  In5  1  0.67748141  0.52156112  0.98892280  1
  P  P6  1  0.54251146  0.16103817  0.23291353  1
  P  P7  1  0.16103817  0.54251146  0.73291353  1
  P  P8  1  0.83873599  0.88904652  0.71177180  1
  P  P9  1  0.88904652  0.83873599  0.21177180  1
  P  P10  1  0.08078622  0.80562127  0.33552314  1
  P  P11  1  0.80562127  0.08078622  0.83552314  1
  P  P12  1  0.74827425  0.14674229  0.33938239  1
  P  P13  1  0.14674229  0.74827425  0.83938239  1
  P  P14  1  0.46616910  0.18454448  0.78186653  1
  P  P15  1  0.18454448  0.46616910  0.28186653  1
  P  P16  1  0.48515691  0.42360951  0.81863918  1
  P  P17  1  0.42360951  0.48515691  0.31863918  1
  P  P18  1  0.27469860  0.21902443  0.65429873  1
  P  P19  1  0.21902443  0.27469860  0.15429873  1
  P  P20  1  0.54201376  0.93118934  0.18105338  1
  P  P21  1  0.93118934  0.54201376  0.68105338  1
  P  P22  1  0.60065201  0.87393963  0.67101280  1
  P  P23  1  0.87393963  0.60065201  0.17101280  1
  O  O24  1  0.75144566  0.74166320  0.86020519  1
  O  O25  1  0.74166320  0.75144566  0.36020519  1
  O  O26  1  0.83646280  0.25570944  0.36040929  1
  O  O27  1  0.25570944  0.83646280  0.86040929  1
  O  O28  1  0.82239609  0.11124026  0.22010566  1
  O  O29  1  0.11124026  0.82239609  0.72010566  1
  O  O30  1  0.67381153  0.96199702  0.02442509  1
  O  O31  1  0.96199702  0.67381153  0.52442509  1
  O  O32  1  0.99062234  0.86045128  0.28391529  1
  O  O33  1  0.86045128  0.99062234  0.78391529  1
  O  O34  1  0.41287951  0.84429774  0.18907202  1
  O  O35  1  0.84429774  0.41287951  0.68907202  1
  O  O36  1  0.18457460  0.91379038  0.34260505  1
  O  O37  1  0.91379038  0.18457460  0.84260505  1
  O  O38  1  0.65952396  0.19840543  0.27983735  1
  O  O39  1  0.19840543  0.65952396  0.77983735  1
  O  O40  1  0.62579549  0.00789284  0.52230284  1
  O  O41  1  0.00789284  0.62579549  0.02230284  1
  O  O42  1  0.13778284  0.75816754  0.22081554  1
  O  O43  1  0.75816754  0.13778284  0.72081554  1
  O  O44  1  0.57174949  0.29647103  0.10791800  1
  O  O45  1  0.29647103  0.57174949  0.60791800  1
  O  O46  1  0.40242328  0.06137465  0.39773345  1
  O  O47  1  0.06137465  0.40242328  0.89773345  1
  O  O48  1  0.26518328  0.44163902  0.37942111  1
  O  O49  1  0.44163902  0.26518328  0.87942111  1
  O  O50  1  0.35601607  0.40115910  0.97119313  1
  O  O51  1  0.40115910  0.35601607  0.47119313  1
  O  O52  1  0.04494073  0.42182962  0.41707846  1
  O  O53  1  0.42182962  0.04494073  0.91707846  1
  O  O54  1  0.48378628  0.48578015  0.15613137  1
  O  O55  1  0.48578015  0.48378628  0.65613137  1
  O  O56  1  0.16102071  0.35679905  0.22173642  1
  O  O57  1  0.35679905  0.16102071  0.72173642  1
  O  O58  1  0.50495954  0.61642902  0.31097720  1
  O  O59  1  0.61642902  0.50495954  0.81097720  1
  O  O60  1  0.25907562  0.20281360  0.26847123  1
  O  O61  1  0.20281360  0.25907562  0.76847123  1
  O  O62  1  0.11410376  0.18643566  0.12853747  1
  O  O63  1  0.18643566  0.11410376  0.62853747  1
  O  O64  1  0.08525349  0.57336792  0.63014194  1
  O  O65  1  0.57336792  0.08525349  0.13014194  1
  O  O66  1  0.87112057  0.54645399  0.84003770  1
  O  O67  1  0.54645399  0.87112057  0.34003770  1
  O  O68  1  0.92061541  0.75833100  0.11729527  1
  O  O69  1  0.75833100  0.92061541  0.61729527  1
  O  O70  1  0.27467555  0.60976628  0.12462648  1
  O  O71  1  0.60976628  0.27467555  0.62462648  1
  O  O72  1  0.94018326  0.97841305  0.06908701  1
  O  O73  1  0.97841305  0.94018326  0.56908701  1
  O  O74  1  0.74837890  0.53353711  0.16081623  1
  O  O75  1  0.53353711  0.74837890  0.66081623  1
  O  O76  1  0.86232195  0.52797013  0.33835464  1
  O  O77  1  0.52797013  0.86232195  0.83835464  1
