# generated using pymatgen
data_Cs2(PSe2)3
_symmetry_space_group_name_H-M   'P 1'
_cell_length_a   10.76050465
_cell_length_b   11.02297027
_cell_length_c   15.49046420
_cell_angle_alpha   53.96831903
_cell_angle_beta   90.00000000
_cell_angle_gamma   90.00000000
_symmetry_Int_Tables_number   1
_chemical_formula_structural   Cs2(PSe2)3
_chemical_formula_sum   'Cs8 P12 Se24'
_cell_volume   1485.86304314
_cell_formula_units_Z   4
loop_
 _symmetry_equiv_pos_site_id
 _symmetry_equiv_pos_as_xyz
  1  'x, y, z'
loop_
 _atom_site_type_symbol
 _atom_site_label
 _atom_site_symmetry_multiplicity
 _atom_site_fract_x
 _atom_site_fract_y
 _atom_site_fract_z
 _atom_site_occupancy
  Cs  Cs0  1  -0.00087490  0.75604298  0.25454838  1
  Cs  Cs1  1  0.00087490  0.24395702  0.74545162  1
  Cs  Cs2  1  0.49912510  0.24395702  0.24545162  1
  Cs  Cs3  1  0.50087490  0.75604298  0.75454838  1
  Cs  Cs4  1  0.99916895  0.34359807  0.17857370  1
  Cs  Cs5  1  0.00083105  0.65640193  0.82142630  1
  Cs  Cs6  1  0.49916895  0.65640193  0.32142630  1
  Cs  Cs7  1  0.50083105  0.34359807  0.67857370  1
  P  P8  1  0.95123212  0.99579294  0.43850492  1
  P  P9  1  0.04876788  0.00420706  0.56149508  1
  P  P10  1  0.45123212  0.00420706  0.06149508  1
  P  P11  1  0.54876788  0.99579294  0.93850492  1
  P  P12  1  0.68407941  0.85259551  0.44412990  1
  P  P13  1  0.31592059  0.14740449  0.55587010  1
  P  P14  1  0.18407941  0.14740449  0.05587010  1
  P  P15  1  0.81592059  0.85259551  0.94412990  1
  P  P16  1  0.69985135  0.64095540  0.05491770  1
  P  P17  1  0.30014865  0.35904460  0.94508230  1
  P  P18  1  0.19985135  0.35904460  0.44508230  1
  P  P19  1  0.80014865  0.64095540  0.55491770  1
  Se  Se20  1  0.49412979  0.79969728  0.49046808  1
  Se  Se21  1  0.50587021  0.20030272  0.50953192  1
  Se  Se22  1  0.99412979  0.20030272  0.00953192  1
  Se  Se23  1  0.00587021  0.79969728  0.99046808  1
  Se  Se24  1  0.78878425  0.50308584  0.49988994  1
  Se  Se25  1  0.21121575  0.49691416  0.50011006  1
  Se  Se26  1  0.28878425  0.49691416  0.00011006  1
  Se  Se27  1  0.71121575  0.50308584  0.99988994  1
  Se  Se28  1  0.50263125  0.74742539  0.01351879  1
  Se  Se29  1  0.49736875  0.25257461  0.98648121  1
  Se  Se30  1  0.00263125  0.25257461  0.48648121  1
  Se  Se31  1  -0.00263125  0.74742539  0.51351879  1
  Se  Se32  1  0.73541521  0.95682965  0.28195569  1
  Se  Se33  1  0.26458479  0.04317035  0.71804431  1
  Se  Se34  1  0.23541521  0.04317035  0.21804431  1
  Se  Se35  1  0.76458479  0.95682965  0.78195569  1
  Se  Se36  1  0.74202716  0.98644573  0.00399654  1
  Se  Se37  1  0.25797284  0.01355427  0.99600346  1
  Se  Se38  1  0.24202716  0.01355427  0.49600346  1
  Se  Se39  1  0.75797284  0.98644573  0.50399654  1
  Se  Se40  1  0.74441344  0.53603332  0.21894243  1
  Se  Se41  1  0.25558656  0.46396668  0.78105757  1
  Se  Se42  1  0.24441344  0.46396668  0.28105757  1
  Se  Se43  1  0.75558656  0.53603332  0.71894243  1
