# generated using pymatgen
data_ZnN6
_symmetry_space_group_name_H-M   'P 1'
_cell_length_a   5.94709868
_cell_length_b   5.94709831
_cell_length_c   19.08772587
_cell_angle_alpha   90.00000000
_cell_angle_beta   90.00000000
_cell_angle_gamma   120.00001061
_symmetry_Int_Tables_number   1
_chemical_formula_structural   ZnN6
_chemical_formula_sum   'Zn6 N36'
_cell_volume   584.64876535
_cell_formula_units_Z   6
loop_
 _symmetry_equiv_pos_site_id
 _symmetry_equiv_pos_as_xyz
  1  'x, y, z'
loop_
 _atom_site_type_symbol
 _atom_site_label
 _atom_site_symmetry_multiplicity
 _atom_site_fract_x
 _atom_site_fract_y
 _atom_site_fract_z
 _atom_site_occupancy
  Zn  Zn0  1  0.16433070  0.81786700  0.35866757  1
  Zn  Zn1  1  0.65353529  0.83566930  0.69200157  1
  Zn  Zn2  1  0.18213300  0.34646471  0.02533457  1
  Zn  Zn3  1  0.34646134  0.18213298  0.64133407  1
  Zn  Zn4  1  0.81786802  0.16433136  0.30800007  1
  Zn  Zn5  1  0.83566864  0.65353866  0.97466707  1
  N  N6  1  0.43529738  0.97578034  0.28417290  1
  N  N7  1  0.54048196  0.56470262  0.61750690  1
  N  N8  1  0.02421966  0.45951804  0.95083990  1
  N  N9  1  0.45952231  0.02422533  0.71582915  1
  N  N10  1  0.97577467  0.43529698  0.38249515  1
  N  N11  1  0.56470302  0.54047769  0.04916215  1
  N  N12  1  0.37456753  0.01181950  0.22596035  1
  N  N13  1  0.63725397  0.62543247  0.55929435  1
  N  N14  1  0.98818050  0.36274603  0.89262735  1
  N  N15  1  0.36274800  0.98818379  0.77404132  1
  N  N16  1  0.01181621  0.37456521  0.44070732  1
  N  N17  1  0.62543479  0.63725200  0.10737432  1
  N  N18  1  0.31954035  0.04612595  0.17113203  1
  N  N19  1  0.72658360  0.68045965  0.50446603  1
  N  N20  1  0.95387405  0.27341640  0.83779903  1
  N  N21  1  0.27341475  0.95387660  0.82886927  1
  N  N22  1  0.04612340  0.31953615  0.49553527  1
  N  N23  1  0.68046385  0.72658525  0.16220227  1
  N  N24  1  0.86257830  0.86257960  0.33333603  1
  N  N25  1  0.00000230  0.13742170  0.66667003  1
  N  N26  1  0.13742040  0.99999770  0.00000303  1
  N  N27  1  0.65673792  0.65674128  0.33333995  1
  N  N28  1  0.00000436  0.34326208  0.66667395  1
  N  N29  1  0.34325872  0.99999564  0.00000695  1
  N  N30  1  0.46460515  0.46461007  0.33334480  1
  N  N31  1  0.00000391  0.53539485  0.66667880  1
  N  N32  1  0.53538993  0.99999609  0.00001180  1
  N  N33  1  0.39545348  0.99439884  0.43872285  1
  N  N34  1  0.59894336  0.60454652  0.77205685  1
  N  N35  1  0.00560116  0.40105664  0.10538985  1
  N  N36  1  0.40104493  0.00559577  0.56127847  1
  N  N37  1  0.99440423  0.39544916  0.22794447  1
  N  N38  1  0.60455084  0.59895507  0.89461147  1
  N  N39  1  0.39033424  0.99999724  0.50000025  1
  N  N40  1  0.60966400  0.60966576  0.83333425  1
  N  N41  1  0.00000276  0.39033600  0.16666725  1
