# generated using pymatgen
data_SrMg14FeO16
_symmetry_space_group_name_H-M   'P 1'
_cell_length_a   8.69339045
_cell_length_b   8.63271187
_cell_length_c   4.41807687
_cell_angle_alpha   90.00000000
_cell_angle_beta   90.00000000
_cell_angle_gamma   90.00000000
_symmetry_Int_Tables_number   1
_chemical_formula_structural   SrMg14FeO16
_chemical_formula_sum   'Sr1 Mg14 Fe1 O16'
_cell_volume   331.56577822
_cell_formula_units_Z   1
loop_
 _symmetry_equiv_pos_site_id
 _symmetry_equiv_pos_as_xyz
  1  'x, y, z'
loop_
 _atom_site_type_symbol
 _atom_site_label
 _atom_site_symmetry_multiplicity
 _atom_site_fract_x
 _atom_site_fract_y
 _atom_site_fract_z
 _atom_site_occupancy
  Sr  Sr0  1  0.00000000  0.50000000  0.00000000  1
  Mg  Mg1  1  0.50000000  0.00000000  0.00000000  1
  Mg  Mg2  1  0.50000000  0.50000000  0.00000000  1
  Mg  Mg3  1  0.00000000  0.24042177  0.50000000  1
  Mg  Mg4  1  0.00000000  0.75957823  0.50000000  1
  Mg  Mg5  1  0.50000000  0.24799669  0.50000000  1
  Mg  Mg6  1  0.50000000  0.75200331  0.50000000  1
  Mg  Mg7  1  0.25012831  0.00000000  0.50000000  1
  Mg  Mg8  1  0.25965655  0.50000000  0.50000000  1
  Mg  Mg9  1  0.74987169  0.00000000  0.50000000  1
  Mg  Mg10  1  0.74034345  0.50000000  0.50000000  1
  Mg  Mg11  1  0.25755280  0.24389613  0.00000000  1
  Mg  Mg12  1  0.25755280  0.75610387  0.00000000  1
  Mg  Mg13  1  0.74244720  0.24389613  0.00000000  1
  Mg  Mg14  1  0.74244720  0.75610387  0.00000000  1
  Fe  Fe15  1  0.00000000  0.00000000  0.00000000  1
  O  O16  1  0.26164133  0.00000000  0.00000000  1
  O  O17  1  0.27125531  0.50000000  0.00000000  1
  O  O18  1  0.73835867  0.00000000  0.00000000  1
  O  O19  1  0.72874469  0.50000000  0.00000000  1
  O  O20  1  0.24910117  0.24993122  0.50000000  1
  O  O21  1  0.24910117  0.75006878  0.50000000  1
  O  O22  1  0.75089883  0.24993122  0.50000000  1
  O  O23  1  0.75089883  0.75006878  0.50000000  1
  O  O24  1  0.00000000  0.00000000  0.50000000  1
  O  O25  1  0.00000000  0.50000000  0.50000000  1
  O  O26  1  0.50000000  0.00000000  0.50000000  1
  O  O27  1  0.50000000  0.50000000  0.50000000  1
  O  O28  1  0.00000000  0.23005609  0.00000000  1
  O  O29  1  0.00000000  0.76994391  0.00000000  1
  O  O30  1  0.50000000  0.24710537  0.00000000  1
  O  O31  1  0.50000000  0.75289463  0.00000000  1
