# generated using pymatgen
data_Rb2WSe4
_symmetry_space_group_name_H-M   'P 1'
_cell_length_a   7.33794274
_cell_length_b   10.17254099
_cell_length_c   12.98323829
_cell_angle_alpha   90.00000000
_cell_angle_beta   90.00000000
_cell_angle_gamma   90.00000000
_symmetry_Int_Tables_number   1
_chemical_formula_structural   Rb2WSe4
_chemical_formula_sum   'Rb8 W4 Se16'
_cell_volume   969.14061635
_cell_formula_units_Z   4
loop_
 _symmetry_equiv_pos_site_id
 _symmetry_equiv_pos_as_xyz
  1  'x, y, z'
loop_
 _atom_site_type_symbol
 _atom_site_label
 _atom_site_symmetry_multiplicity
 _atom_site_fract_x
 _atom_site_fract_y
 _atom_site_fract_z
 _atom_site_occupancy
  Rb  Rb0  1  0.25000000  0.45318791  0.83963598  1
  Rb  Rb1  1  0.25000000  0.95318791  0.66036402  1
  Rb  Rb2  1  0.75000000  0.54681209  0.16036402  1
  Rb  Rb3  1  0.75000000  0.04681209  0.33963598  1
  Rb  Rb4  1  0.25000000  0.15904796  0.11320119  1
  Rb  Rb5  1  0.25000000  0.65904796  0.38679881  1
  Rb  Rb6  1  0.75000000  0.84095204  0.88679881  1
  Rb  Rb7  1  0.75000000  0.34095204  0.61320119  1
  W  W8  1  0.25000000  0.25010664  0.42974471  1
  W  W9  1  0.25000000  0.75010664  0.07025529  1
  W  W10  1  0.75000000  0.74989336  0.57025529  1
  W  W11  1  0.75000000  0.24989336  0.92974471  1
  Se  Se12  1  0.00512627  0.14987955  0.86029022  1
  Se  Se13  1  0.49487373  0.64987955  0.63970978  1
  Se  Se14  1  0.50512627  0.85012045  0.13970978  1
  Se  Se15  1  0.99487373  0.35012045  0.36029022  1
  Se  Se16  1  0.99487373  0.85012045  0.13970978  1
  Se  Se17  1  0.50512627  0.35012045  0.36029022  1
  Se  Se18  1  0.49487373  0.14987955  0.86029022  1
  Se  Se19  1  0.00512627  0.64987955  0.63970978  1
  Se  Se20  1  0.25000000  0.02654264  0.38902416  1
  Se  Se21  1  0.25000000  0.52654264  0.11097584  1
  Se  Se22  1  0.75000000  0.97345736  0.61097584  1
  Se  Se23  1  0.75000000  0.47345736  0.88902416  1
  Se  Se24  1  0.25000000  0.28151554  0.60677373  1
  Se  Se25  1  0.25000000  0.78151554  0.89322627  1
  Se  Se26  1  0.75000000  0.71848446  0.39322627  1
  Se  Se27  1  0.75000000  0.21848446  0.10677373  1
