# generated using pymatgen
data_EuICl
_symmetry_space_group_name_H-M   'P 1'
_cell_length_a   4.68513089
_cell_length_b   8.21567869
_cell_length_c   9.48260020
_cell_angle_alpha   90.00000000
_cell_angle_beta   90.00000000
_cell_angle_gamma   90.00000000
_symmetry_Int_Tables_number   1
_chemical_formula_structural   EuICl
_chemical_formula_sum   'Eu4 I4 Cl4'
_cell_volume   364.99979020
_cell_formula_units_Z   4
loop_
 _symmetry_equiv_pos_site_id
 _symmetry_equiv_pos_as_xyz
  1  'x, y, z'
loop_
 _atom_site_type_symbol
 _atom_site_label
 _atom_site_symmetry_multiplicity
 _atom_site_fract_x
 _atom_site_fract_y
 _atom_site_fract_z
 _atom_site_occupancy
  Eu  Eu0  1  0.25000000  0.71359554  0.62312939  1
  Eu  Eu1  1  0.75000000  0.28640446  0.37687061  1
  Eu  Eu2  1  0.75000000  0.78640446  0.12312939  1
  Eu  Eu3  1  0.25000000  0.21359554  0.87687061  1
  I  I4  1  0.25000000  0.47430737  0.16839673  1
  I  I5  1  0.75000000  0.52569263  0.83160327  1
  I  I6  1  0.75000000  0.02569263  0.66839673  1
  I  I7  1  0.25000000  0.97430737  0.33160327  1
  Cl  Cl8  1  0.25000000  0.85686140  0.93737668  1
  Cl  Cl9  1  0.75000000  0.14313860  0.06262332  1
  Cl  Cl10  1  0.75000000  0.64313860  0.43737668  1
  Cl  Cl11  1  0.25000000  0.35686140  0.56262332  1
