# generated using pymatgen
data_Y3Si5N9O
_symmetry_space_group_name_H-M   'P 1'
_cell_length_a   4.97403160
_cell_length_b   10.65924995
_cell_length_c   16.15304594
_cell_angle_alpha   90.00000000
_cell_angle_beta   90.00000000
_cell_angle_gamma   90.00000000
_symmetry_Int_Tables_number   1
_chemical_formula_structural   Y3Si5N9O
_chemical_formula_sum   'Y12 Si20 N36 O4'
_cell_volume   856.42554830
_cell_formula_units_Z   4
loop_
 _symmetry_equiv_pos_site_id
 _symmetry_equiv_pos_as_xyz
  1  'x, y, z'
loop_
 _atom_site_type_symbol
 _atom_site_label
 _atom_site_symmetry_multiplicity
 _atom_site_fract_x
 _atom_site_fract_y
 _atom_site_fract_z
 _atom_site_occupancy
  Y  Y0  1  0.66316659  0.92849776  0.59999965  1
  Y  Y1  1  0.33683341  0.07150224  0.40000035  1
  Y  Y2  1  0.33683341  0.42849776  0.40000035  1
  Y  Y3  1  0.33683341  0.57150224  0.09999965  1
  Y  Y4  1  0.66316659  0.57150224  0.59999965  1
  Y  Y5  1  0.66316659  0.42849776  0.90000035  1
  Y  Y6  1  0.66316659  0.07150224  0.90000035  1
  Y  Y7  1  0.33683341  0.92849776  0.09999965  1
  Y  Y8  1  0.70318572  0.75000000  0.79605913  1
  Y  Y9  1  0.29681428  0.25000000  0.20394087  1
  Y  Y10  1  0.29681428  0.75000000  0.29605913  1
  Y  Y11  1  0.70318572  0.25000000  0.70394087  1
  Si  Si12  1  0.25111869  0.75000000  0.66982347  1
  Si  Si13  1  0.74888131  0.25000000  0.33017653  1
  Si  Si14  1  0.74888131  0.75000000  0.16982347  1
  Si  Si15  1  0.25111869  0.25000000  0.83017653  1
  Si  Si16  1  0.89550682  0.89633285  0.42373965  1
  Si  Si17  1  0.10449318  0.10366715  0.57626035  1
  Si  Si18  1  0.10449318  0.39633285  0.57626035  1
  Si  Si19  1  0.10449318  0.60366715  0.92373965  1
  Si  Si20  1  0.89550682  0.60366715  0.42373965  1
  Si  Si21  1  0.89550682  0.39633285  0.07626035  1
  Si  Si22  1  0.89550682  0.10366715  0.07626035  1
  Si  Si23  1  0.10449318  0.89633285  0.92373965  1
  Si  Si24  1  0.61006269  0.75000000  0.97276059  1
  Si  Si25  1  0.38993731  0.25000000  0.02723941  1
  Si  Si26  1  0.38993731  0.75000000  0.47276059  1
  Si  Si27  1  0.61006269  0.25000000  0.52723941  1
  Si  Si28  1  0.18230984  0.00000000  0.75000000  1
  Si  Si29  1  0.81769016  0.00000000  0.25000000  1
  Si  Si30  1  0.81769016  0.50000000  0.25000000  1
  Si  Si31  1  0.18230984  0.50000000  0.75000000  1
  N  N32  1  0.97694295  0.94401235  0.82942656  1
  N  N33  1  0.02305705  0.05598765  0.17057344  1
  N  N34  1  0.02305705  0.44401235  0.17057344  1
  N  N35  1  0.02305705  0.55598765  0.32942656  1
  N  N36  1  0.97694295  0.55598765  0.82942656  1
  N  N37  1  0.97694295  0.44401235  0.67057344  1
  N  N38  1  0.97694295  0.05598765  0.67057344  1
  N  N39  1  0.02305705  0.94401235  0.32942656  1
  N  N40  1  0.94166279  0.75000000  0.93714863  1
  N  N41  1  0.05833721  0.25000000  0.06285137  1
  N  N42  1  0.05833721  0.75000000  0.43714863  1
  N  N43  1  0.94166279  0.25000000  0.56285137  1
  N  N44  1  0.40382749  0.75000000  0.57557539  1
  N  N45  1  0.59617251  0.25000000  0.42442461  1
  N  N46  1  0.59617251  0.75000000  0.07557539  1
  N  N47  1  0.40382749  0.25000000  0.92442461  1
  N  N48  1  0.44748441  0.87966664  0.93201480  1
  N  N49  1  0.55251559  0.12033336  0.06798520  1
  N  N50  1  0.55251559  0.37966664  0.06798520  1
  N  N51  1  0.55251559  0.62033336  0.43201480  1
  N  N52  1  0.44748441  0.62033336  0.93201480  1
  N  N53  1  0.44748441  0.37966664  0.56798520  1
  N  N54  1  0.44748441  0.12033336  0.56798520  1
  N  N55  1  0.55251559  0.87966664  0.43201480  1
  N  N56  1  -0.00000000  0.00000000  0.00000000  1
  N  N57  1  0.00000000  0.50000000  0.00000000  1
  N  N58  1  -0.00000000  0.50000000  0.50000000  1
  N  N59  1  0.00000000  0.00000000  0.50000000  1
  N  N60  1  0.38915280  0.87906073  0.71741729  1
  N  N61  1  0.61084720  0.12093927  0.28258271  1
  N  N62  1  0.61084720  0.37906073  0.28258271  1
  N  N63  1  0.61084720  0.62093927  0.21741729  1
  N  N64  1  0.38915280  0.62093927  0.71741729  1
  N  N65  1  0.38915280  0.37906073  0.78258271  1
  N  N66  1  0.38915280  0.12093927  0.78258271  1
  N  N67  1  0.61084720  0.87906073  0.21741729  1
  O  O68  1  0.91784870  0.75000000  0.66692294  1
  O  O69  1  0.08215130  0.25000000  0.33307706  1
  O  O70  1  0.08215130  0.75000000  0.16692294  1
  O  O71  1  0.91784870  0.25000000  0.83307706  1
