# generated using pymatgen
data_Na2NiMo6H26(NO15)2
_symmetry_space_group_name_H-M   'P 1'
_cell_length_a   11.36734049
_cell_length_b   12.07577129
_cell_length_c   12.02631001
_cell_angle_alpha   116.75628687
_cell_angle_beta   90.00000000
_cell_angle_gamma   90.00000000
_symmetry_Int_Tables_number   1
_chemical_formula_structural   Na2NiMo6H26(NO15)2
_chemical_formula_sum   'Na4 Ni2 Mo12 H52 N4 O60'
_cell_volume   1474.08775277
_cell_formula_units_Z   2
loop_
 _symmetry_equiv_pos_site_id
 _symmetry_equiv_pos_as_xyz
  1  'x, y, z'
loop_
 _atom_site_type_symbol
 _atom_site_label
 _atom_site_symmetry_multiplicity
 _atom_site_fract_x
 _atom_site_fract_y
 _atom_site_fract_z
 _atom_site_occupancy
  Na  Na0  1  0.80462660  0.08367759  0.42672434  1
  Na  Na1  1  0.30462660  0.91632241  0.07327566  1
  Na  Na2  1  0.19537340  0.91632241  0.57327566  1
  Na  Na3  1  0.69537340  0.08367759  0.92672434  1
  Ni  Ni4  1  0.50000000  0.50000000  0.50000000  1
  Ni  Ni5  1  0.00000000  0.50000000  0.00000000  1
  Mo  Mo6  1  0.72709112  0.33699639  0.31841676  1
  Mo  Mo7  1  0.22709112  0.66300361  0.18158324  1
  Mo  Mo8  1  0.27290888  0.66300361  0.68158324  1
  Mo  Mo9  1  0.77290888  0.33699639  0.81841676  1
  Mo  Mo10  1  0.50629813  0.81116387  0.63732618  1
  Mo  Mo11  1  0.00629813  0.18883613  0.86267382  1
  Mo  Mo12  1  0.49370187  0.18883613  0.36267382  1
  Mo  Mo13  1  0.99370187  0.81116387  0.13732618  1
  Mo  Mo14  1  0.73461913  0.64556030  0.45999786  1
  Mo  Mo15  1  0.23461913  0.35443970  0.04000214  1
  Mo  Mo16  1  0.26538087  0.35443970  0.54000214  1
  Mo  Mo17  1  0.76538087  0.64556030  0.95999786  1
  H  H18  1  0.65073843  0.35504841  0.55263382  1
  H  H19  1  0.15073843  0.64495159  0.94736618  1
  H  H20  1  0.34926157  0.64495159  0.44736618  1
  H  H21  1  0.84926157  0.35504841  0.05263382  1
  H  H22  1  0.57003657  0.50018756  0.28240499  1
  H  H23  1  0.07003657  0.49981244  0.21759501  1
  H  H24  1  0.42996343  0.49981244  0.71759501  1
  H  H25  1  0.92996343  0.50018756  0.78240499  1
  H  H26  1  0.64814824  0.64387202  0.68379569  1
  H  H27  1  0.14814824  0.35612798  0.81620431  1
  H  H28  1  0.35185176  0.35612798  0.31620431  1
  H  H29  1  0.85185176  0.64387202  0.18379569  1
  H  H30  1  0.77578865  0.05671912  0.65441797  1
  H  H31  1  0.27578865  0.94328088  0.84558203  1
  H  H32  1  0.22421135  0.94328088  0.34558203  1
  H  H33  1  0.72421135  0.05671912  0.15441797  1
  H  H34  1  0.71209621  0.93306681  0.56939105  1
  H  H35  1  0.21209621  0.06693319  0.93060895  1
  H  H36  1  0.28790379  0.06693319  0.43060895  1
  H  H37  1  0.78790379  0.93306681  0.06939105  1
  H  H38  1  0.52626264  0.59239477  0.16570029  1
  H  H39  1  0.02626264  0.40760523  0.33429971  1
  H  H40  1  0.47373736  0.40760523  0.83429971  1
  H  H41  1  0.97373736  0.59239477  0.66570029  1
  H  H42  1  0.47989043  0.45928117  0.10075869  1
  H  H43  1  0.97989043  0.54071883  0.39924131  1
  H  H44  1  0.52010957  0.54071883  0.89924131  1
  H  H45  1  0.02010957  0.45928117  0.60075869  1
  H  H46  1  0.06744244  0.10855039  0.47770669  1
  H  H47  1  0.56744244  0.89144961  0.02229331  1
  H  H48  1  0.93255756  0.89144961  0.52229331  1
  H  H49  1  0.43255756  0.10855039  0.97770669  1
  H  H50  1  0.98452034  0.16606800  0.59458863  1
  H  H51  1  0.48452034  0.83393200  0.90541137  1
  H  H52  1  0.01547966  0.83393200  0.40541137  1
  H  H53  1  0.51547966  0.16606800  0.09458863  1
  H  H54  1  0.55674350  0.80454302  0.36513350  1
  H  H55  1  0.05674350  0.19545698  0.13486650  1
  H  H56  1  0.44325650  0.19545698  0.63486650  1
  H  H57  1  0.94325650  0.80454302  0.86513350  1
  H  H58  1  0.59882395  0.79687114  0.22286095  1
  H  H59  1  0.09882395  0.20312886  0.27713905  1
  H  H60  1  0.40117605  0.20312886  0.77713905  1
  H  H61  1  0.90117605  0.79687114  0.72286095  1
  H  H62  1  0.45573317  0.81762986  0.26347150  1
  H  H63  1  0.95573317  0.18237014  0.23652850  1
  H  H64  1  0.54426683  0.18237014  0.73652850  1
  H  H65  1  0.04426683  0.81762986  0.76347150  1
  H  H66  1  0.55489804  0.93304221  0.34005006  1
  H  H67  1  0.05489804  0.06695779  0.15994994  1
  H  H68  1  0.44510196  0.06695779  0.65994994  1
  H  H69  1  0.94510196  0.93304221  0.84005006  1
  N  N70  1  0.54081970  0.83698906  0.29893044  1
  N  N71  1  0.04081970  0.16301094  0.20106956  1
  N  N72  1  0.45918030  0.16301094  0.70106956  1
  N  N73  1  0.95918030  0.83698906  0.79893044  1
  O  O74  1  0.60980878  0.35506479  0.48014522  1
  O  O75  1  0.10980878  0.64493521  0.01985478  1
  O  O76  1  0.39019122  0.64493521  0.51985478  1
  O  O77  1  0.89019122  0.35506479  0.98014522  1
  O  O78  1  0.60354831  0.49682329  0.35839299  1
  O  O79  1  0.10354831  0.50317671  0.14160701  1
  O  O80  1  0.39645169  0.50317671  0.64160701  1
  O  O81  1  0.89645169  0.49682329  0.85839299  1
  O  O82  1  0.61153437  0.64229584  0.60825070  1
  O  O83  1  0.11153437  0.35770416  0.89174930  1
  O  O84  1  0.38846563  0.35770416  0.39174930  1
  O  O85  1  0.88846563  0.64229584  0.10825070  1
  O  O86  1  0.58580009  0.22954085  0.24926319  1
  O  O87  1  0.08580009  0.77045915  0.25073681  1
  O  O88  1  0.41419991  0.77045915  0.75073681  1
  O  O89  1  0.91419991  0.22954085  0.74926319  1
  O  O90  1  0.81730227  0.22651309  0.33675313  1
  O  O91  1  0.31730227  0.77348691  0.16324687  1
  O  O92  1  0.18269773  0.77348691  0.66324687  1
  O  O93  1  0.68269773  0.22651309  0.83675313  1
  O  O94  1  0.77574817  0.32906187  0.17709232  1
  O  O95  1  0.27574817  0.67093813  0.32290768  1
  O  O96  1  0.22425183  0.67093813  0.82290768  1
  O  O97  1  0.72425183  0.32906187  0.67709232  1
  O  O98  1  0.80380062  0.48734049  0.43740609  1
  O  O99  1  0.30380062  0.51265951  0.06259391  1
  O  O100  1  0.19619938  0.51265951  0.56259391  1
  O  O101  1  0.69619938  0.48734049  0.93740609  1
  O  O102  1  0.78823170  0.65338333  0.32734819  1
  O  O103  1  0.28823170  0.34661667  0.17265181  1
  O  O104  1  0.21176830  0.34661667  0.67265181  1
  O  O105  1  0.71176830  0.65338333  0.82734819  1
  O  O106  1  0.82914396  0.73870429  0.58188057  1
  O  O107  1  0.32914396  0.26129571  0.91811943  1
  O  O108  1  0.17085604  0.26129571  0.41811943  1
  O  O109  1  0.67085604  0.73870429  0.08188057  1
  O  O110  1  0.60184331  0.76406524  0.48474251  1
  O  O111  1  0.10184331  0.23593476  0.01525749  1
  O  O112  1  0.39815669  0.23593476  0.51525749  1
  O  O113  1  0.89815669  0.76406524  0.98474251  1
  O  O114  1  0.60532665  0.91376536  0.74664195  1
  O  O115  1  0.10532665  0.08623464  0.75335805  1
  O  O116  1  0.39467335  0.08623464  0.25335805  1
  O  O117  1  0.89467335  0.91376536  0.24664195  1
  O  O118  1  0.40716993  0.90922019  0.60841579  1
  O  O119  1  0.90716993  0.09077981  0.89158421  1
  O  O120  1  0.59283007  0.09077981  0.39158421  1
  O  O121  1  0.09283007  0.90922019  0.10841579  1
  O  O122  1  0.76674129  0.99489697  0.56761479  1
  O  O123  1  0.26674129  0.00510303  0.93238521  1
  O  O124  1  0.23325871  0.00510303  0.43238521  1
  O  O125  1  0.73325871  0.99489697  0.06761479  1
  O  O126  1  0.54274501  0.50964492  0.15564855  1
  O  O127  1  0.04274501  0.49035508  0.34435145  1
  O  O128  1  0.45725499  0.49035508  0.84435145  1
  O  O129  1  0.95725499  0.50964492  0.65564855  1
  O  O130  1  0.98826518  0.14008637  0.50442921  1
  O  O131  1  0.48826518  0.85991363  0.99557079  1
  O  O132  1  0.01173482  0.85991363  0.49557079  1
  O  O133  1  0.51173482  0.14008637  0.00442921  1
