# generated using pymatgen
data_NaInBP2HO9
_symmetry_space_group_name_H-M   'P 1'
_cell_length_a   5.17658486
_cell_length_b   16.79093092
_cell_length_c   8.95999236
_cell_angle_alpha   90.00000000
_cell_angle_beta   121.13523207
_cell_angle_gamma   90.00000000
_symmetry_Int_Tables_number   1
_chemical_formula_structural   NaInBP2HO9
_chemical_formula_sum   'Na4 In4 B4 P8 H4 O36'
_cell_volume   666.61302120
_cell_formula_units_Z   4
loop_
 _symmetry_equiv_pos_site_id
 _symmetry_equiv_pos_as_xyz
  1  'x, y, z'
loop_
 _atom_site_type_symbol
 _atom_site_label
 _atom_site_symmetry_multiplicity
 _atom_site_fract_x
 _atom_site_fract_y
 _atom_site_fract_z
 _atom_site_occupancy
  Na  Na0  1  0.47451474  0.16140491  0.33390542  1
  Na  Na1  1  0.52548526  0.66140491  0.16609458  1
  Na  Na2  1  0.52548526  0.83859509  0.66609458  1
  Na  Na3  1  0.47451474  0.33859509  0.83390542  1
  In  In4  1  0.97276645  0.33992471  0.29751677  1
  In  In5  1  0.02723355  0.83992471  0.20248323  1
  In  In6  1  0.02723355  0.66007529  0.70248323  1
  In  In7  1  0.97276645  0.16007529  0.79751677  1
  B  B8  1  0.15000766  0.52377476  0.25748590  1
  B  B9  1  0.84999234  0.02377476  0.24251410  1
  B  B10  1  0.84999234  0.47622524  0.74251410  1
  B  B11  1  0.15000766  0.97622524  0.75748590  1
  P  P12  1  0.27157656  0.66857733  0.42309164  1
  P  P13  1  0.72842344  0.16857733  0.07690836  1
  P  P14  1  0.72842344  0.33142267  0.57690836  1
  P  P15  1  0.27157656  0.83142267  0.92309164  1
  P  P16  1  0.76315539  0.91225532  0.43447653  1
  P  P17  1  0.23684461  0.41225532  0.06552347  1
  P  P18  1  0.23684461  0.08774468  0.56552347  1
  P  P19  1  0.76315539  0.58774468  0.93447653  1
  H  H20  1  0.23521728  0.46902596  0.48072085  1
  H  H21  1  0.76478272  0.96902596  0.01927915  1
  H  H22  1  0.76478272  0.53097404  0.51927915  1
  H  H23  1  0.23521728  0.03097404  0.98072085  1
  O  O24  1  0.01732284  0.65856157  0.46109129  1
  O  O25  1  0.98267716  0.15856157  0.03890871  1
  O  O26  1  0.98267716  0.34143843  0.53890871  1
  O  O27  1  0.01732284  0.84143843  0.96109129  1
  O  O28  1  0.01721220  0.86694608  0.43545594  1
  O  O29  1  0.98278780  0.36694608  0.06454406  1
  O  O30  1  0.98278780  0.13305392  0.56454406  1
  O  O31  1  0.01721220  0.63305392  0.93545594  1
  O  O32  1  0.16270274  0.71945457  0.26068081  1
  O  O33  1  0.83729726  0.21945457  0.23931919  1
  O  O34  1  0.83729726  0.28054543  0.73931919  1
  O  O35  1  0.16270274  0.78054543  0.76068081  1
  O  O36  1  0.13593307  0.05734692  0.37857664  1
  O  O37  1  0.86406693  0.55734692  0.12142336  1
  O  O38  1  0.86406693  0.94265308  0.62142336  1
  O  O39  1  0.13593307  0.44265308  0.87857664  1
  O  O40  1  0.07919036  0.46780462  0.35804811  1
  O  O41  1  0.92080964  0.96780462  0.14195189  1
  O  O42  1  0.92080964  0.53219538  0.64195189  1
  O  O43  1  0.07919036  0.03219538  0.85804811  1
  O  O44  1  0.67869390  0.98614956  0.31298069  1
  O  O45  1  0.32130610  0.48614956  0.18701931  1
  O  O46  1  0.32130610  0.01385044  0.68701931  1
  O  O47  1  0.67869390  0.51385044  0.81298069  1
  O  O48  1  0.35528141  0.58578410  0.37610110  1
  O  O49  1  0.64471859  0.08578410  0.12389890  1
  O  O50  1  0.64471859  0.41421590  0.62389890  1
  O  O51  1  0.35528141  0.91421590  0.87610110  1
  O  O52  1  0.43801766  0.30099332  0.41944579  1
  O  O53  1  0.56198234  0.80099332  0.08055421  1
  O  O54  1  0.56198234  0.69900668  0.58055421  1
  O  O55  1  0.43801766  0.19900668  0.91944579  1
  O  O56  1  0.48729999  0.86369622  0.38314021  1
  O  O57  1  0.51270001  0.36369622  0.11685979  1
  O  O58  1  0.51270001  0.13630378  0.61685979  1
  O  O59  1  0.48729999  0.63630378  0.88314021  1
