# generated using pymatgen
data_Mg14CuBiO16
_symmetry_space_group_name_H-M   'P 1'
_cell_length_a   8.73450442
_cell_length_b   8.70077501
_cell_length_c   4.37563892
_cell_angle_alpha   90.00000000
_cell_angle_beta   90.00000000
_cell_angle_gamma   90.00000000
_symmetry_Int_Tables_number   1
_chemical_formula_structural   Mg14CuBiO16
_chemical_formula_sum   'Mg14 Cu1 Bi1 O16'
_cell_volume   332.53524627
_cell_formula_units_Z   1
loop_
 _symmetry_equiv_pos_site_id
 _symmetry_equiv_pos_as_xyz
  1  'x, y, z'
loop_
 _atom_site_type_symbol
 _atom_site_label
 _atom_site_symmetry_multiplicity
 _atom_site_fract_x
 _atom_site_fract_y
 _atom_site_fract_z
 _atom_site_occupancy
  Mg  Mg0  1  0.50000000  0.00000000  0.00000000  1
  Mg  Mg1  1  0.50000000  0.50000000  0.00000000  1
  Mg  Mg2  1  -0.00000000  0.22968711  0.50000000  1
  Mg  Mg3  1  -0.00000000  0.77031289  0.50000000  1
  Mg  Mg4  1  0.50000000  0.24559109  0.50000000  1
  Mg  Mg5  1  0.50000000  0.75440891  0.50000000  1
  Mg  Mg6  1  0.24856773  0.00000000  0.50000000  1
  Mg  Mg7  1  0.26452101  0.50000000  0.50000000  1
  Mg  Mg8  1  0.75143227  0.00000000  0.50000000  1
  Mg  Mg9  1  0.73547899  0.50000000  0.50000000  1
  Mg  Mg10  1  0.25539907  0.23706387  -0.00000000  1
  Mg  Mg11  1  0.25539907  0.76293613  0.00000000  1
  Mg  Mg12  1  0.74460093  0.23706387  -0.00000000  1
  Mg  Mg13  1  0.74460093  0.76293613  0.00000000  1
  Cu  Cu14  1  -0.00000000  0.00000000  0.00000000  1
  Bi  Bi15  1  -0.00000000  0.50000000  0.00000000  1
  O  O16  1  0.27096381  0.00000000  -0.00000000  1
  O  O17  1  0.26782762  0.50000000  0.00000000  1
  O  O18  1  0.72903619  0.00000000  0.00000000  1
  O  O19  1  0.73217238  0.50000000  -0.00000000  1
  O  O20  1  0.24854633  0.25151270  0.50000000  1
  O  O21  1  0.24854633  0.74848730  0.50000000  1
  O  O22  1  0.75145367  0.25151270  0.50000000  1
  O  O23  1  0.75145367  0.74848730  0.50000000  1
  O  O24  1  -0.00000000  0.00000000  0.50000000  1
  O  O25  1  -0.00000000  0.50000000  0.50000000  1
  O  O26  1  0.50000000  0.00000000  0.50000000  1
  O  O27  1  0.50000000  0.50000000  0.50000000  1
  O  O28  1  -0.00000000  0.23659892  0.00000000  1
  O  O29  1  -0.00000000  0.76340108  -0.00000000  1
  O  O30  1  0.50000000  0.25167669  0.00000000  1
  O  O31  1  0.50000000  0.74832331  -0.00000000  1
