# generated using pymatgen
data_Rb2LaI5
_symmetry_space_group_name_H-M   'P 1'
_cell_length_a   9.36586979
_cell_length_b   10.12849541
_cell_length_c   14.82060997
_cell_angle_alpha   90.00000000
_cell_angle_beta   90.00000000
_cell_angle_gamma   90.00000000
_symmetry_Int_Tables_number   1
_chemical_formula_structural   Rb2LaI5
_chemical_formula_sum   'Rb8 La4 I20'
_cell_volume   1405.91521031
_cell_formula_units_Z   4
loop_
 _symmetry_equiv_pos_site_id
 _symmetry_equiv_pos_as_xyz
  1  'x, y, z'
loop_
 _atom_site_type_symbol
 _atom_site_label
 _atom_site_symmetry_multiplicity
 _atom_site_fract_x
 _atom_site_fract_y
 _atom_site_fract_z
 _atom_site_occupancy
  Rb  Rb0  1  0.94075566  0.00377757  0.82741411  1
  Rb  Rb1  1  0.05924434  0.99622243  0.17258589  1
  Rb  Rb2  1  0.44075566  0.99622243  0.67258589  1
  Rb  Rb3  1  0.05924434  0.50377757  0.17258589  1
  Rb  Rb4  1  0.55924434  0.00377757  0.32741411  1
  Rb  Rb5  1  0.94075566  0.49622243  0.82741411  1
  Rb  Rb6  1  0.55924434  0.49622243  0.32741411  1
  Rb  Rb7  1  0.44075566  0.50377757  0.67258589  1
  La  La8  1  0.92194982  0.75000000  0.50523232  1
  La  La9  1  0.07805018  0.25000000  0.49476768  1
  La  La10  1  0.42194982  0.25000000  0.99476768  1
  La  La11  1  0.57805018  0.75000000  0.00523232  1
  I  I12  1  0.12567636  0.75000000  0.68093885  1
  I  I13  1  0.87432364  0.25000000  0.31906115  1
  I  I14  1  0.62567636  0.25000000  0.81906115  1
  I  I15  1  0.37432364  0.75000000  0.18093885  1
  I  I16  1  0.83105302  0.04508065  0.57488253  1
  I  I17  1  0.16894698  0.95491935  0.42511747  1
  I  I18  1  0.33105302  0.95491935  0.92511747  1
  I  I19  1  0.16894698  0.54508065  0.42511747  1
  I  I20  1  0.66894698  0.04508065  0.07488253  1
  I  I21  1  0.83105302  0.45491935  0.57488253  1
  I  I22  1  0.66894698  0.45491935  0.07488253  1
  I  I23  1  0.33105302  0.54508065  0.92511747  1
  I  I24  1  0.57183943  0.75000000  0.50819667  1
  I  I25  1  0.42816057  0.25000000  0.49180333  1
  I  I26  1  0.07183943  0.25000000  0.99180333  1
  I  I27  1  0.92816057  0.75000000  0.00819667  1
  I  I28  1  0.65897496  0.75000000  0.79394408  1
  I  I29  1  0.34102504  0.25000000  0.20605592  1
  I  I30  1  0.15897496  0.25000000  0.70605592  1
  I  I31  1  0.84102504  0.75000000  0.29394408  1
