# generated using pymatgen
data_K4MgV6O16
_symmetry_space_group_name_H-M   'P 1'
_cell_length_a   5.49975016
_cell_length_b   8.99716087
_cell_length_c   9.12240036
_cell_angle_alpha   86.00191119
_cell_angle_beta   91.28041364
_cell_angle_gamma   95.58007694
_symmetry_Int_Tables_number   1
_chemical_formula_structural   K4MgV6O16
_chemical_formula_sum   'K4 Mg1 V6 O16'
_cell_volume   448.10841569
_cell_formula_units_Z   1
loop_
 _symmetry_equiv_pos_site_id
 _symmetry_equiv_pos_as_xyz
  1  'x, y, z'
loop_
 _atom_site_type_symbol
 _atom_site_label
 _atom_site_symmetry_multiplicity
 _atom_site_fract_x
 _atom_site_fract_y
 _atom_site_fract_z
 _atom_site_occupancy
  K  K0  1  0.22161600  0.61474200  0.17995700  1
  K  K1  1  0.18874600  0.77535400  0.61975800  1
  K  K2  1  0.12481800  0.24847000  0.42240300  1
  K  K3  1  0.17725800  0.31104400  0.84777200  1
  Mg  Mg4  1  0.16852800  0.01717800  0.17182100  1
  V  V5  1  0.64015100  0.88848200  0.35929700  1
  V  V6  1  0.63915800  0.34261200  0.14476600  1
  V  V7  1  0.60826800  0.13128200  0.64593800  1
  V  V8  1  0.69879700  0.62627900  0.87086800  1
  V  V9  1  0.61953200  0.98933800  0.00168600  1
  V  V10  1  0.65725100  0.51024200  0.50203600  1
  O  O11  1  0.96218700  0.51202200  0.49844200  1
  O  O12  1  0.92624400  0.03771800  0.01103200  1
  O  O13  1  0.55486400  0.47899900  0.00101700  1
  O  O14  1  0.50818500  0.01158900  0.50386000  1
  O  O15  1  0.00175800  0.62300400  0.88265300  1
  O  O16  1  0.91151200  0.13975900  0.66081700  1
  O  O17  1  0.96636200  0.94636400  0.33664800  1
  O  O18  1  0.94166000  0.33111900  0.14562500  1
  O  O19  1  0.59445600  0.59219600  0.69440700  1
  O  O20  1  0.55597100  0.40521200  0.30917000  1
  O  O21  1  0.46901100  0.17093000  0.10533500  1
  O  O22  1  0.44849700  0.89243600  0.16646200  1
  O  O23  1  0.48029000  0.07061800  0.82081000  1
  O  O24  1  0.61038400  0.79613600  0.91778100  1
  O  O25  1  0.51877200  0.31235100  0.59811400  1
  O  O26  1  0.53961100  0.68166900  0.41009500  1
