# generated using pymatgen
data_As4Se3
_symmetry_space_group_name_H-M   'P 1'
_cell_length_a   8.35569139
_cell_length_b   9.79604634
_cell_length_c   10.68721376
_cell_angle_alpha   90.00000000
_cell_angle_beta   90.00000000
_cell_angle_gamma   90.00000000
_symmetry_Int_Tables_number   1
_chemical_formula_structural   As4Se3
_chemical_formula_sum   'As16 Se12'
_cell_volume   874.77772985
_cell_formula_units_Z   4
loop_
 _symmetry_equiv_pos_site_id
 _symmetry_equiv_pos_as_xyz
  1  'x, y, z'
loop_
 _atom_site_type_symbol
 _atom_site_label
 _atom_site_symmetry_multiplicity
 _atom_site_fract_x
 _atom_site_fract_y
 _atom_site_fract_z
 _atom_site_occupancy
  As  As0  1  0.25000000  0.01393665  0.91792213  1
  As  As1  1  0.25000000  0.51393665  0.58207787  1
  As  As2  1  0.75000000  0.98606335  0.08207787  1
  As  As3  1  0.75000000  0.48606335  0.41792213  1
  As  As4  1  0.25000000  0.16824060  0.43747549  1
  As  As5  1  0.25000000  0.66824060  0.06252451  1
  As  As6  1  0.75000000  0.83175940  0.56252451  1
  As  As7  1  0.75000000  0.33175940  0.93747549  1
  As  As8  1  0.10081515  0.35298116  0.71856537  1
  As  As9  1  0.39918485  0.85298116  0.78143463  1
  As  As10  1  0.60081515  0.64701884  0.28143463  1
  As  As11  1  0.89918485  0.14701884  0.21856537  1
  As  As12  1  0.89918485  0.64701884  0.28143463  1
  As  As13  1  0.60081515  0.14701884  0.21856537  1
  As  As14  1  0.39918485  0.35298116  0.71856537  1
  As  As15  1  0.10081515  0.85298116  0.78143463  1
  Se  Se16  1  0.03508840  0.17046600  0.58435010  1
  Se  Se17  1  0.46491160  0.67046600  0.91564990  1
  Se  Se18  1  0.53508840  0.82953400  0.41564990  1
  Se  Se19  1  0.96491160  0.32953400  0.08435010  1
  Se  Se20  1  0.96491160  0.82953400  0.41564990  1
  Se  Se21  1  0.53508840  0.32953400  0.08435010  1
  Se  Se22  1  0.46491160  0.17046600  0.58435010  1
  Se  Se23  1  0.03508840  0.67046600  0.91564990  1
  Se  Se24  1  0.25000000  0.40506405  0.38545728  1
  Se  Se25  1  0.25000000  0.90506405  0.11454272  1
  Se  Se26  1  0.75000000  0.59493595  0.61454272  1
  Se  Se27  1  0.75000000  0.09493595  0.88545728  1
