# generated using pymatgen
data_Rb2ZnI4
_symmetry_space_group_name_H-M   'P 1'
_cell_length_a   7.72937229
_cell_length_b   8.25262802
_cell_length_c   10.41354362
_cell_angle_alpha   90.00000000
_cell_angle_beta   109.61585382
_cell_angle_gamma   90.00000000
_symmetry_Int_Tables_number   1
_chemical_formula_structural   Rb2ZnI4
_chemical_formula_sum   'Rb4 Zn2 I8'
_cell_volume   625.70498835
_cell_formula_units_Z   2
loop_
 _symmetry_equiv_pos_site_id
 _symmetry_equiv_pos_as_xyz
  1  'x, y, z'
loop_
 _atom_site_type_symbol
 _atom_site_label
 _atom_site_symmetry_multiplicity
 _atom_site_fract_x
 _atom_site_fract_y
 _atom_site_fract_z
 _atom_site_occupancy
  Rb  Rb0  1  0.30549792  0.74799983  0.96246912  1
  Rb  Rb1  1  0.69450208  0.24799983  0.03753088  1
  Rb  Rb2  1  0.20679086  0.74717298  0.41554562  1
  Rb  Rb3  1  0.79320914  0.24717298  0.58445438  1
  Zn  Zn4  1  0.69855523  0.75578082  0.78493342  1
  Zn  Zn5  1  0.30144477  0.25578082  0.21506658  1
  I  I6  1  0.48609086  0.50021870  0.72322053  1
  I  I7  1  0.51390914  0.00021870  0.27677947  1
  I  I8  1  0.52344859  0.50539037  0.27894096  1
  I  I9  1  0.47655141  0.00539037  0.72105904  1
  I  I10  1  0.86829978  0.76043927  0.05036030  1
  I  I11  1  0.13170022  0.26043927  0.94963970  1
  I  I12  1  0.91959003  0.75759904  0.64316412  1
  I  I13  1  0.08040997  0.25759904  0.35683588  1
