# generated using pymatgen
data_Mn5O8
_symmetry_space_group_name_H-M   'P 1'
_cell_length_a   4.86711385
_cell_length_b   5.73181565
_cell_length_c   5.90879728
_cell_angle_alpha   118.98997882
_cell_angle_beta   107.23387467
_cell_angle_gamma   90.01032413
_symmetry_Int_Tables_number   1
_chemical_formula_structural   Mn5O8
_chemical_formula_sum   'Mn5 O8'
_cell_volume   135.65833629
_cell_formula_units_Z   1
loop_
 _symmetry_equiv_pos_site_id
 _symmetry_equiv_pos_as_xyz
  1  'x, y, z'
loop_
 _atom_site_type_symbol
 _atom_site_label
 _atom_site_symmetry_multiplicity
 _atom_site_fract_x
 _atom_site_fract_y
 _atom_site_fract_z
 _atom_site_occupancy
  Mn  Mn0  1  0.33870638  0.27728145  0.55457015  1
  Mn  Mn1  1  0.66129224  0.72271939  0.44542939  1
  Mn  Mn2  1  0.00003809  0.25979010  0.99995348  1
  Mn  Mn3  1  -0.00003558  0.74020913  0.00004640  1
  Mn  Mn4  1  0.49999992  -0.00000141  -0.00000027  1
  O  O5  1  0.06989506  0.39472142  0.78917368  1
  O  O6  1  0.93010059  0.60527943  0.21082348  1
  O  O7  1  0.08791325  0.89587603  0.79156288  1
  O  O8  1  0.91208928  0.10412788  0.20843804  1
  O  O9  1  0.39891155  0.33872828  0.22246616  1
  O  O10  1  0.39884197  0.88359303  0.22243290  1
  O  O11  1  0.60108803  0.66127016  0.77753491  1
  O  O12  1  0.60116023  0.11640511  0.77756880  1
