# generated using pymatgen
data_Na3TaS4
_symmetry_space_group_name_H-M   'P 1'
_cell_length_a   8.02850381
_cell_length_b   14.31702455
_cell_length_c   14.91322586
_cell_angle_alpha   85.67166699
_cell_angle_beta   74.38488202
_cell_angle_gamma   73.71692860
_symmetry_Int_Tables_number   1
_chemical_formula_structural   Na3TaS4
_chemical_formula_sum   'Na24 Ta8 S32'
_cell_volume   1584.70055129
_cell_formula_units_Z   8
loop_
 _symmetry_equiv_pos_site_id
 _symmetry_equiv_pos_as_xyz
  1  'x, y, z'
loop_
 _atom_site_type_symbol
 _atom_site_label
 _atom_site_symmetry_multiplicity
 _atom_site_fract_x
 _atom_site_fract_y
 _atom_site_fract_z
 _atom_site_occupancy
  Na  Na0  1  0.16910977  0.50000000  0.50000000  1
  Na  Na1  1  0.41910977  0.00000000  -0.00000000  1
  Na  Na2  1  0.68455679  0.50000000  0.50000000  1
  Na  Na3  1  0.93455679  0.00000000  -0.00000000  1
  Na  Na4  1  0.94522483  0.50366304  0.00704236  1
  Na  Na5  1  0.45593023  0.49633696  0.99295764  1
  Na  Na6  1  0.19888788  0.99633696  0.50704236  1
  Na  Na7  1  0.70226719  0.00366304  0.49295764  1
  Na  Na8  1  0.26134533  0.74086972  0.55546411  1
  Na  Na9  1  0.55767915  0.25913028  0.44453589  1
  Na  Na10  1  0.75221504  0.75913028  0.05546411  1
  Na  Na11  1  0.56680944  0.24086972  0.94453589  1
  Na  Na12  1  0.11689733  0.69064275  0.22071985  1
  Na  Na13  1  0.02825993  0.30935725  0.77928015  1
  Na  Na14  1  0.55754008  0.80935725  0.72071985  1
  Na  Na15  1  0.08761718  0.19064275  0.27928015  1
  Na  Na16  1  0.06329549  0.45036487  0.25385861  1
  Na  Na17  1  0.76751897  0.54963513  0.74614139  1
  Na  Na18  1  0.26366036  0.04963513  0.75385861  1
  Na  Na19  1  0.06715410  0.95036487  0.24614139  1
  Na  Na20  1  0.62123722  0.27636227  0.18615715  1
  Na  Na21  1  0.08375664  0.72363773  0.81384285  1
  Na  Na22  1  0.64759949  0.22363773  0.68615715  1
  Na  Na23  1  0.55739438  0.77636227  0.31384285  1
  Ta  Ta24  1  0.35868154  0.75442577  0.98727788  1
  Ta  Ta25  1  0.10038519  0.24557423  0.01272212  1
  Ta  Ta26  1  0.86310731  0.74557423  0.48727788  1
  Ta  Ta27  1  0.09595943  0.25442577  0.51272212  1
  Ta  Ta28  1  0.58940521  0.52011104  0.26973055  1
  Ta  Ta29  1  0.37924680  0.47988896  0.73026945  1
  Ta  Ta30  1  0.85951625  0.97988896  0.76973055  1
  Ta  Ta31  1  0.60913576  0.02011104  0.23026945  1
  S  S32  1  0.15036404  0.66846702  0.00369984  1
  S  S33  1  0.82253090  0.33153298  0.99630016  1
  S  S34  1  0.56883106  0.83153298  0.50369984  1
  S  S35  1  0.90406388  0.16846702  0.49630016  1
  S  S36  1  0.35878128  0.80928475  0.12772084  1
  S  S37  1  0.29578687  0.19071525  0.87227916  1
  S  S38  1  0.91806603  0.69071525  0.62772084  1
  S  S39  1  0.23650212  0.30928475  0.37227916  1
  S  S40  1  0.63809971  0.65395411  0.92489284  1
  S  S41  1  0.21694666  0.34604589  0.07510716  1
  S  S42  1  0.04205382  0.84604589  0.42489284  1
  S  S43  1  0.31299255  0.15395411  0.57510716  1
  S  S44  1  0.29273353  0.88630695  0.89408796  1
  S  S45  1  0.07312844  0.11369305  0.10591204  1
  S  S46  1  0.92904048  0.61369305  0.39408796  1
  S  S47  1  0.93682149  0.38630695  0.60591204  1
  S  S48  1  0.39921749  0.49916852  0.18853955  1
  S  S49  1  0.08692557  0.50083148  0.81146045  1
  S  S50  1  0.64838602  0.00083148  0.68853955  1
  S  S51  1  0.33775704  0.99916852  0.31146045  1
  S  S52  1  0.78826984  0.59983224  0.18234403  1
  S  S53  1  0.57044610  0.40016776  0.81765597  1
  S  S54  1  0.13810208  0.90016776  0.68234403  1
  S  S55  1  0.72061387  0.09983224  0.31765597  1
  S  S56  1  0.75231723  0.37243072  0.31205152  1
  S  S57  1  0.43679947  0.62756928  0.68794848  1
  S  S58  1  0.87474795  0.12756928  0.81205152  1
  S  S59  1  0.81436875  0.87243072  0.18794848  1
  S  S60  1  0.42510912  0.60860737  0.40041682  1
  S  S61  1  0.43413331  0.39139263  0.59958318  1
  S  S62  1  0.78371649  0.89139263  0.90041682  1
  S  S63  1  0.57552594  0.10860737  0.09958318  1
