# generated using pymatgen
data_TeO3
_symmetry_space_group_name_H-M   'P 1'
_cell_length_a   4.99412348
_cell_length_b   5.19024875
_cell_length_c   7.23539083
_cell_angle_alpha   90.00000000
_cell_angle_beta   90.00000000
_cell_angle_gamma   90.00000000
_symmetry_Int_Tables_number   1
_chemical_formula_structural   TeO3
_chemical_formula_sum   'Te4 O12'
_cell_volume   187.54670729
_cell_formula_units_Z   4
loop_
 _symmetry_equiv_pos_site_id
 _symmetry_equiv_pos_as_xyz
  1  'x, y, z'
loop_
 _atom_site_type_symbol
 _atom_site_label
 _atom_site_symmetry_multiplicity
 _atom_site_fract_x
 _atom_site_fract_y
 _atom_site_fract_z
 _atom_site_occupancy
  Te  Te0  1  0.00000000  -0.00000000  0.50000000  1
  Te  Te1  1  0.50000000  0.50000000  0.50000000  1
  Te  Te2  1  0.50000000  0.50000000  -0.00000000  1
  Te  Te3  1  0.00000000  -0.00000000  -0.00000000  1
  O  O4  1  0.37671785  0.52594376  0.25000000  1
  O  O5  1  0.87671785  0.97405624  0.75000000  1
  O  O6  1  0.12328215  0.02594376  0.25000000  1
  O  O7  1  0.62328215  0.47405624  0.75000000  1
  O  O8  1  0.18484500  0.30918313  0.93916775  1
  O  O9  1  0.68484500  0.19081687  0.06083225  1
  O  O10  1  0.31515500  0.80918313  0.56083225  1
  O  O11  1  0.81515500  0.69081687  0.43916775  1
  O  O12  1  0.18484500  0.30918313  0.56083225  1
  O  O13  1  0.68484500  0.19081687  0.43916775  1
  O  O14  1  0.81515500  0.69081687  0.06083225  1
  O  O15  1  0.31515500  0.80918313  0.93916775  1
