# generated using pymatgen
data_LiErO2
_symmetry_space_group_name_H-M   'P 1'
_cell_length_a   6.10398005
_cell_length_b   6.05581173
_cell_length_c   6.12872990
_cell_angle_alpha   61.18603200
_cell_angle_beta   90.00000000
_cell_angle_gamma   90.00000000
_symmetry_Int_Tables_number   1
_chemical_formula_structural   LiErO2
_chemical_formula_sum   'Li4 Er4 O8'
_cell_volume   198.49695642
_cell_formula_units_Z   4
loop_
 _symmetry_equiv_pos_site_id
 _symmetry_equiv_pos_as_xyz
  1  'x, y, z'
loop_
 _atom_site_type_symbol
 _atom_site_label
 _atom_site_symmetry_multiplicity
 _atom_site_fract_x
 _atom_site_fract_y
 _atom_site_fract_z
 _atom_site_occupancy
  Li  Li0  1  0.34829403  0.71655252  0.05428796  1
  Li  Li1  1  0.84829403  0.28344748  0.44571204  1
  Li  Li2  1  0.65170597  0.28344748  0.94571204  1
  Li  Li3  1  0.15170597  0.71655252  0.55428796  1
  Er  Er4  1  0.87044553  0.76338210  0.98261454  1
  Er  Er5  1  0.62955447  0.76338210  0.48261454  1
  Er  Er6  1  0.12955447  0.23661790  0.01738546  1
  Er  Er7  1  0.37044553  0.23661790  0.51738546  1
  O  O8  1  0.66624930  0.00710086  0.66523798  1
  O  O9  1  0.61063168  0.54325614  0.26441952  1
  O  O10  1  0.16624930  0.99289914  0.83476202  1
  O  O11  1  0.33375070  0.99289914  0.33476202  1
  O  O12  1  0.38936832  0.45674386  0.73558048  1
  O  O13  1  0.11063168  0.45674386  0.23558048  1
  O  O14  1  0.88936832  0.54325614  0.76441952  1
  O  O15  1  0.83375070  0.00710086  0.16523798  1
