# generated using pymatgen
data_CoBi2SO7
_symmetry_space_group_name_H-M   'P 1'
_cell_length_a   5.41908093
_cell_length_b   14.25504431
_cell_length_c   15.74685577
_cell_angle_alpha   90.00000000
_cell_angle_beta   90.00000000
_cell_angle_gamma   90.00000000
_symmetry_Int_Tables_number   1
_chemical_formula_structural   CoBi2SO7
_chemical_formula_sum   'Co8 Bi16 S8 O56'
_cell_volume   1216.43262136
_cell_formula_units_Z   8
loop_
 _symmetry_equiv_pos_site_id
 _symmetry_equiv_pos_as_xyz
  1  'x, y, z'
loop_
 _atom_site_type_symbol
 _atom_site_label
 _atom_site_symmetry_multiplicity
 _atom_site_fract_x
 _atom_site_fract_y
 _atom_site_fract_z
 _atom_site_occupancy
  Co  Co0  1  0.72805198  0.01434638  0.32555722  1
  Co  Co1  1  0.22805198  0.48565362  0.67444278  1
  Co  Co2  1  0.27194802  0.51434638  0.17444278  1
  Co  Co3  1  0.77194802  0.98565362  0.82555722  1
  Co  Co4  1  0.27194802  0.98565362  0.67444278  1
  Co  Co5  1  0.77194802  0.51434638  0.32555722  1
  Co  Co6  1  0.72805198  0.48565362  0.82555722  1
  Co  Co7  1  0.22805198  0.01434638  0.17444278  1
  Bi  Bi8  1  0.72224225  0.87935507  0.15609311  1
  Bi  Bi9  1  0.22224225  0.62064493  0.84390689  1
  Bi  Bi10  1  0.27775775  0.37935507  0.34390689  1
  Bi  Bi11  1  0.77775775  0.12064493  0.65609311  1
  Bi  Bi12  1  0.27775775  0.12064493  0.84390689  1
  Bi  Bi13  1  0.77775775  0.37935507  0.15609311  1
  Bi  Bi14  1  0.72224225  0.62064493  0.65609311  1
  Bi  Bi15  1  0.22224225  0.87935507  0.34390689  1
  Bi  Bi16  1  0.75320716  0.08481087  0.01893220  1
  Bi  Bi17  1  0.25320716  0.41518913  0.98106780  1
  Bi  Bi18  1  0.24679284  0.58481087  0.48106780  1
  Bi  Bi19  1  0.74679284  0.91518913  0.51893220  1
  Bi  Bi20  1  0.24679284  0.91518913  0.98106780  1
  Bi  Bi21  1  0.74679284  0.58481087  0.01893220  1
  Bi  Bi22  1  0.75320716  0.41518913  0.51893220  1
  Bi  Bi23  1  0.25320716  0.08481087  0.48106780  1
  S  S24  1  0.80040053  0.20653370  0.39084963  1
  S  S25  1  0.30040053  0.29346630  0.60915037  1
  S  S26  1  0.19959947  0.70653370  0.10915037  1
  S  S27  1  0.69959947  0.79346630  0.89084963  1
  S  S28  1  0.19959947  0.79346630  0.60915037  1
  S  S29  1  0.69959947  0.70653370  0.39084963  1
  S  S30  1  0.80040053  0.29346630  0.89084963  1
  S  S31  1  0.30040053  0.20653370  0.10915037  1
  O  O32  1  0.47968405  0.98151546  0.08392274  1
  O  O33  1  0.97968405  0.51848454  0.91607726  1
  O  O34  1  0.52031595  0.48151546  0.41607726  1
  O  O35  1  0.02031595  0.01848454  0.58392274  1
  O  O36  1  0.52031595  0.01848454  0.91607726  1
  O  O37  1  0.02031595  0.48151546  0.08392274  1
  O  O38  1  0.47968405  0.51848454  0.58392274  1
  O  O39  1  0.97968405  0.98151546  0.41607726  1
  O  O40  1  0.96972676  0.97021745  0.07950959  1
  O  O41  1  0.46972676  0.52978255  0.92049041  1
  O  O42  1  0.03027324  0.47021745  0.42049041  1
  O  O43  1  0.53027324  0.02978255  0.57950959  1
  O  O44  1  0.03027324  0.02978255  0.92049041  1
  O  O45  1  0.53027324  0.47021745  0.07950959  1
  O  O46  1  0.96972676  0.52978255  0.57950959  1
  O  O47  1  0.46972676  0.97021745  0.42049041  1
  O  O48  1  0.97614044  0.95228852  0.24883239  1
  O  O49  1  0.47614044  0.54771148  0.75116761  1
  O  O50  1  0.02385956  0.45228852  0.25116761  1
  O  O51  1  0.52385956  0.04771148  0.74883239  1
  O  O52  1  0.02385956  0.04771148  0.75116761  1
  O  O53  1  0.52385956  0.45228852  0.24883239  1
  O  O54  1  0.97614044  0.54771148  0.74883239  1
  O  O55  1  0.47614044  0.95228852  0.25116761  1
  O  O56  1  0.73720270  0.30542438  0.37254397  1
  O  O57  1  0.23720270  0.19457562  0.62745603  1
  O  O58  1  0.26279730  0.80542438  0.12745603  1
  O  O59  1  0.76279730  0.69457562  0.87254397  1
  O  O60  1  0.26279730  0.69457562  0.62745603  1
  O  O61  1  0.76279730  0.80542438  0.37254397  1
  O  O62  1  0.73720270  0.19457562  0.87254397  1
  O  O63  1  0.23720270  0.30542438  0.12745603  1
  O  O64  1  0.80991397  0.19136552  0.48355126  1
  O  O65  1  0.30991397  0.30863448  0.51644874  1
  O  O66  1  0.19008603  0.69136552  0.01644874  1
  O  O67  1  0.69008603  0.80863448  0.98355126  1
  O  O68  1  0.19008603  0.80863448  0.51644874  1
  O  O69  1  0.69008603  0.69136552  0.48355126  1
  O  O70  1  0.80991397  0.30863448  0.98355126  1
  O  O71  1  0.30991397  0.19136552  0.01644874  1
  O  O72  1  0.60530051  0.14494825  0.35408485  1
  O  O73  1  0.10530051  0.35505175  0.64591515  1
  O  O74  1  0.39469949  0.64494825  0.14591515  1
  O  O75  1  0.89469949  0.85505175  0.85408485  1
  O  O76  1  0.39469949  0.85505175  0.64591515  1
  O  O77  1  0.89469949  0.64494825  0.35408485  1
  O  O78  1  0.60530051  0.35505175  0.85408485  1
  O  O79  1  0.10530051  0.14494825  0.14591515  1
  O  O80  1  0.03925905  0.18376390  0.35229522  1
  O  O81  1  0.53925905  0.31623610  0.64770478  1
  O  O82  1  0.96074095  0.68376390  0.14770478  1
  O  O83  1  0.46074095  0.81623610  0.85229522  1
  O  O84  1  0.96074095  0.81623610  0.64770478  1
  O  O85  1  0.46074095  0.68376390  0.35229522  1
  O  O86  1  0.03925905  0.31623610  0.85229522  1
  O  O87  1  0.53925905  0.18376390  0.14770478  1
