# generated using pymatgen
data_Sr6Mg(Te4O11)2
_symmetry_space_group_name_H-M   'P 1'
_cell_length_a   7.64324299
_cell_length_b   10.02337120
_cell_length_c   9.47394098
_cell_angle_alpha   99.27843863
_cell_angle_beta   109.07161678
_cell_angle_gamma   97.48277824
_symmetry_Int_Tables_number   1
_chemical_formula_structural   Sr6Mg(Te4O11)2
_chemical_formula_sum   'Sr6 Mg1 Te8 O22'
_cell_volume   663.85025855
_cell_formula_units_Z   1
loop_
 _symmetry_equiv_pos_site_id
 _symmetry_equiv_pos_as_xyz
  1  'x, y, z'
loop_
 _atom_site_type_symbol
 _atom_site_label
 _atom_site_symmetry_multiplicity
 _atom_site_fract_x
 _atom_site_fract_y
 _atom_site_fract_z
 _atom_site_occupancy
  Sr  Sr0  1  0.28900687  0.99806429  0.12096363  1
  Sr  Sr1  1  0.72608873  0.97044850  0.90820464  1
  Sr  Sr2  1  0.84000242  0.06045146  0.34591064  1
  Sr  Sr3  1  0.16314477  0.92670797  0.67742270  1
  Sr  Sr4  1  0.31392796  0.53215806  0.61257085  1
  Sr  Sr5  1  0.69810649  0.46138433  0.36858340  1
  Mg  Mg6  1  0.19106237  0.23032401  0.89018579  1
  Te  Te7  1  0.05112133  0.29265434  0.19074469  1
  Te  Te8  1  0.95572567  0.68257362  0.80905011  1
  Te  Te9  1  0.88857542  0.29455206  0.67134695  1
  Te  Te10  1  0.01573737  0.73492033  0.24120471  1
  Te  Te11  1  0.50430539  0.69619429  0.04312232  1
  Te  Te12  1  0.56390448  0.30468121  0.94737756  1
  Te  Te13  1  0.53827730  0.81856308  0.47739581  1
  Te  Te14  1  0.42013537  0.18157777  0.50971429  1
  O  O15  1  0.98317397  0.58919399  0.62838014  1
  O  O16  1  0.02363933  0.40431766  0.37085991  1
  O  O17  1  0.50063409  0.62686681  0.45121125  1
  O  O18  1  0.49102642  0.36901750  0.51671058  1
  O  O19  1  0.79486873  0.19349870  0.13249140  1
  O  O20  1  0.20957215  0.78645620  0.89259758  1
  O  O21  1  0.66701654  0.19344034  0.70141059  1
  O  O22  1  0.31490212  0.82855033  0.30790189  1
  O  O23  1  0.44235155  0.86011444  0.63527942  1
  O  O24  1  0.54057508  0.11685933  0.37448157  1
  O  O25  1  0.01276164  0.13547109  0.65438670  1
  O  O26  1  0.99330946  0.85948527  0.40290512  1
  O  O27  1  0.45624580  0.34601876  0.10002918  1
  O  O28  1  0.56291280  0.68134064  0.86575499  1
  O  O29  1  0.58935871  0.89024911  0.11758710  1
  O  O30  1  0.41699608  0.11737250  0.88868070  1
  O  O31  1  0.97435266  0.84427836  0.09350061  1
  O  O32  1  0.05625994  0.13899825  0.00120755  1
  O  O33  1  0.15966019  0.16178275  0.31323302  1
  O  O34  1  0.85844814  0.83094497  0.73040008  1
  O  O35  1  0.72985348  0.63843442  0.17675246  1
  O  O36  1  0.35462616  0.35919625  0.80266307  1
