# generated using pymatgen
data_SrCaCrBiO6
_symmetry_space_group_name_H-M   'P 1'
_cell_length_a   5.64192003
_cell_length_b   5.64192003
_cell_length_c   8.34211327
_cell_angle_alpha   90.00000000
_cell_angle_beta   90.00000000
_cell_angle_gamma   90.00000000
_symmetry_Int_Tables_number   1
_chemical_formula_structural   SrCaCrBiO6
_chemical_formula_sum   'Sr2 Ca2 Cr2 Bi2 O12'
_cell_volume   265.53999000
_cell_formula_units_Z   2
loop_
 _symmetry_equiv_pos_site_id
 _symmetry_equiv_pos_as_xyz
  1  'x, y, z'
loop_
 _atom_site_type_symbol
 _atom_site_label
 _atom_site_symmetry_multiplicity
 _atom_site_fract_x
 _atom_site_fract_y
 _atom_site_fract_z
 _atom_site_occupancy
  Sr  Sr0  1  0.50000000  -0.00000000  0.25000000  1
  Sr  Sr1  1  0.00000000  0.50000000  0.75000000  1
  Ca  Ca2  1  0.00000000  0.50000000  0.25000000  1
  Ca  Ca3  1  0.50000000  -0.00000000  0.75000000  1
  Cr  Cr4  1  0.00000000  -0.00000000  0.50000000  1
  Cr  Cr5  1  0.50000000  0.50000000  0.00000000  1
  Bi  Bi6  1  0.00000000  -0.00000000  0.00000000  1
  Bi  Bi7  1  0.50000000  0.50000000  0.50000000  1
  O  O8  1  0.00000000  -0.00000000  0.25578148  1
  O  O9  1  0.50000000  0.50000000  0.24421852  1
  O  O10  1  0.00000000  -0.00000000  0.74421852  1
  O  O11  1  0.50000000  0.50000000  0.75578148  1
  O  O12  1  0.32653299  0.18805652  0.98906319  1
  O  O13  1  0.67346701  0.81194348  0.98906319  1
  O  O14  1  0.81194348  0.32653299  0.01093681  1
  O  O15  1  0.18805652  0.67346701  0.01093681  1
  O  O16  1  0.82653299  0.31194348  0.48906319  1
  O  O17  1  0.17346701  0.68805652  0.48906319  1
  O  O18  1  0.31194348  0.17346701  0.51093681  1
  O  O19  1  0.68805652  0.82653299  0.51093681  1
