# generated using pymatgen
data_NaTb(SiO3)2
_symmetry_space_group_name_H-M   'P 1'
_cell_length_a   5.47971900
_cell_length_b   9.34676771
_cell_length_c   9.68287427
_cell_angle_alpha   117.30998939
_cell_angle_beta   97.04150297
_cell_angle_gamma   100.09080878
_symmetry_Int_Tables_number   1
_chemical_formula_structural   NaTb(SiO3)2
_chemical_formula_sum   'Na3 Tb3 Si6 O18'
_cell_volume   421.99992222
_cell_formula_units_Z   3
loop_
 _symmetry_equiv_pos_site_id
 _symmetry_equiv_pos_as_xyz
  1  'x, y, z'
loop_
 _atom_site_type_symbol
 _atom_site_label
 _atom_site_symmetry_multiplicity
 _atom_site_fract_x
 _atom_site_fract_y
 _atom_site_fract_z
 _atom_site_occupancy
  Na  Na0  1  -0.00000000  -0.00000000  0.00000000  1
  Na  Na1  1  0.16521646  0.60391735  0.93714969  1
  Na  Na2  1  0.83478354  0.39608265  0.06285031  1
  Tb  Tb3  1  -0.00000000  0.50000000  0.50000000  1
  Tb  Tb4  1  0.32016148  0.77687953  0.36471212  1
  Tb  Tb5  1  0.67983852  0.22312047  0.63528788  1
  Si  Si6  1  0.77201557  0.75949483  0.12405477  1
  Si  Si7  1  0.22798443  0.24050517  0.87594523  1
  Si  Si8  1  0.89397553  0.88241275  0.63403794  1
  Si  Si9  1  0.10602447  0.11758725  0.36596206  1
  Si  Si10  1  0.60432465  0.63883452  0.74910325  1
  Si  Si11  1  0.39567535  0.36116548  0.25089675  1
  O  O12  1  0.50007450  0.71538390  0.15793654  1
  O  O13  1  0.49992550  0.28461610  0.84206346  1
  O  O14  1  0.98057036  0.67610969  0.16535043  1
  O  O15  1  0.01942964  0.32389031  0.83464957  1
  O  O16  1  0.89405469  0.96317033  0.21173709  1
  O  O17  1  0.10594531  0.03682967  0.78826291  1
  O  O18  1  0.03287794  0.75605694  0.51542839  1
  O  O19  1  0.96712206  0.24394306  0.48457161  1
  O  O20  1  0.70143751  0.94979391  0.55288843  1
  O  O21  1  0.29856249  0.05020609  0.44711157  1
  O  O22  1  0.73879491  0.78903826  0.71723131  1
  O  O23  1  0.26120509  0.21096174  0.28276869  1
  O  O24  1  0.30477102  0.61434074  0.72796559  1
  O  O25  1  0.69522898  0.38565926  0.27203441  1
  O  O26  1  0.69416710  0.47377392  0.63885199  1
  O  O27  1  0.30583290  0.52622608  0.36114801  1
  O  O28  1  0.75493405  0.71111014  0.93533058  1
  O  O29  1  0.24506595  0.28888986  0.06466942  1
