# generated using pymatgen
data_Tb4(SiS4)3
_symmetry_space_group_name_H-M   'P 1'
_cell_length_a   11.04664019
_cell_length_b   9.89462770
_cell_length_c   17.19897033
_cell_angle_alpha   69.19931799
_cell_angle_beta   90.00000000
_cell_angle_gamma   90.00000000
_symmetry_Int_Tables_number   1
_chemical_formula_structural   Tb4(SiS4)3
_chemical_formula_sum   'Tb16 Si12 S48'
_cell_volume   1757.36018349
_cell_formula_units_Z   4
loop_
 _symmetry_equiv_pos_site_id
 _symmetry_equiv_pos_as_xyz
  1  'x, y, z'
loop_
 _atom_site_type_symbol
 _atom_site_label
 _atom_site_symmetry_multiplicity
 _atom_site_fract_x
 _atom_site_fract_y
 _atom_site_fract_z
 _atom_site_occupancy
  Tb  Tb0  1  0.73913385  0.96852216  0.20991776  1
  Tb  Tb1  1  0.23913385  0.03147784  0.29008224  1
  Tb  Tb2  1  0.26086615  0.03147784  0.79008224  1
  Tb  Tb3  1  0.76086615  0.96852216  0.70991776  1
  Tb  Tb4  1  0.12601079  0.60462004  0.36656022  1
  Tb  Tb5  1  0.62601079  0.39537996  0.13343978  1
  Tb  Tb6  1  0.87398921  0.39537996  0.63343978  1
  Tb  Tb7  1  0.37398921  0.60462004  0.86656022  1
  Tb  Tb8  1  0.84954070  0.18419183  0.44103183  1
  Tb  Tb9  1  0.34954070  0.81580817  0.05896817  1
  Tb  Tb10  1  0.15045930  0.81580817  0.55896817  1
  Tb  Tb11  1  0.65045930  0.18419183  0.94103183  1
  Tb  Tb12  1  0.51830103  0.51600327  0.37482556  1
  Tb  Tb13  1  0.01830103  0.48399673  0.12517444  1
  Tb  Tb14  1  0.48169897  0.48399673  0.62517444  1
  Tb  Tb15  1  0.98169897  0.51600327  0.87482556  1
  Si  Si16  1  0.78570946  0.52447892  0.26707221  1
  Si  Si17  1  0.28570946  0.47552108  0.23292779  1
  Si  Si18  1  0.21429054  0.47552108  0.73292779  1
  Si  Si19  1  0.71429054  0.52447892  0.76707221  1
  Si  Si20  1  0.61850925  0.24204925  0.55987652  1
  Si  Si21  1  0.11850925  0.75795075  0.94012348  1
  Si  Si22  1  0.38149075  0.75795075  0.44012348  1
  Si  Si23  1  0.88149075  0.24204925  0.05987652  1
  Si  Si24  1  0.94966850  0.89902792  0.38141885  1
  Si  Si25  1  0.44966850  0.10097208  0.11858115  1
  Si  Si26  1  0.05033150  0.10097208  0.61858115  1
  Si  Si27  1  0.55033150  0.89902792  0.88141885  1
  S  S28  1  0.95763546  0.43364955  0.31368660  1
  S  S29  1  0.45763546  0.56635045  0.18631340  1
  S  S30  1  0.04236454  0.56635045  0.68631340  1
  S  S31  1  0.54236454  0.43364955  0.81368660  1
  S  S32  1  0.44407228  0.31622416  0.52646890  1
  S  S33  1  0.94407228  0.68377584  0.97353110  1
  S  S34  1  0.55592772  0.68377584  0.47353110  1
  S  S35  1  0.05592772  0.31622416  0.02646890  1
  S  S36  1  0.77315560  0.97848805  0.37165377  1
  S  S37  1  0.27315560  0.02151195  0.12834623  1
  S  S38  1  0.22684440  0.02151195  0.62834623  1
  S  S39  1  0.72684440  0.97848805  0.87165377  1
  S  S40  1  0.02414693  0.30708112  0.52591673  1
  S  S41  1  0.52414693  0.69291888  0.97408327  1
  S  S42  1  0.97585307  0.69291888  0.47408327  1
  S  S43  1  0.47585307  0.30708112  0.02591673  1
  S  S44  1  0.02492716  0.88221888  0.27079946  1
  S  S45  1  0.52492716  0.11778112  0.22920054  1
  S  S46  1  0.97507284  0.11778112  0.72920054  1
  S  S47  1  0.47507284  0.88221888  0.77079946  1
  S  S48  1  0.06466108  0.05333456  0.40641039  1
  S  S49  1  0.56466108  0.94666544  0.09358961  1
  S  S50  1  0.93533892  0.94666544  0.59358961  1
  S  S51  1  0.43533892  0.05333456  0.90641039  1
  S  S52  1  0.65588504  0.04119669  0.55244848  1
  S  S53  1  0.15588504  0.95880331  0.94755152  1
  S  S54  1  0.34411496  0.95880331  0.44755152  1
  S  S55  1  0.84411496  0.04119669  0.05244848  1
  S  S56  1  0.74110886  0.40209927  0.48704281  1
  S  S57  1  0.24110886  0.59790073  0.01295719  1
  S  S58  1  0.25889114  0.59790073  0.51295719  1
  S  S59  1  0.75889114  0.40209927  0.98704281  1
  S  S60  1  0.66562165  0.34257742  0.31303192  1
  S  S61  1  0.16562165  0.65742258  0.18696808  1
  S  S62  1  0.33437835  0.65742258  0.68696808  1
  S  S63  1  0.83437835  0.34257742  0.81303192  1
  S  S64  1  0.28906469  0.39379241  0.36338447  1
  S  S65  1  0.78906469  0.60620759  0.13661553  1
  S  S66  1  0.71093531  0.60620759  0.63661553  1
  S  S67  1  0.21093531  0.39379241  0.86338447  1
  S  S68  1  0.34829638  0.76497011  0.31657845  1
  S  S69  1  0.84829638  0.23502989  0.18342155  1
  S  S70  1  0.65170362  0.23502989  0.68342155  1
  S  S71  1  0.15170362  0.76497011  0.81657845  1
  S  S72  1  0.72234585  0.68712675  0.30897789  1
  S  S73  1  0.22234585  0.31287325  0.19102211  1
  S  S74  1  0.27765415  0.31287325  0.69102211  1
  S  S75  1  0.77765415  0.68712675  0.80897789  1
