# generated using pymatgen
data_SrMg14CoO16
_symmetry_space_group_name_H-M   'P 1'
_cell_length_a   8.68320853
_cell_length_b   8.62293789
_cell_length_c   4.39386341
_cell_angle_alpha   90.00000000
_cell_angle_beta   90.00000000
_cell_angle_gamma   90.00000000
_symmetry_Int_Tables_number   1
_chemical_formula_structural   SrMg14CoO16
_chemical_formula_sum   'Sr1 Mg14 Co1 O16'
_cell_volume   328.98950274
_cell_formula_units_Z   1
loop_
 _symmetry_equiv_pos_site_id
 _symmetry_equiv_pos_as_xyz
  1  'x, y, z'
loop_
 _atom_site_type_symbol
 _atom_site_label
 _atom_site_symmetry_multiplicity
 _atom_site_fract_x
 _atom_site_fract_y
 _atom_site_fract_z
 _atom_site_occupancy
  Sr  Sr0  1  0.00000000  0.50000000  -0.00000000  1
  Mg  Mg1  1  0.50000000  0.00000000  -0.00000000  1
  Mg  Mg2  1  0.50000000  0.50000000  -0.00000000  1
  Mg  Mg3  1  0.00000000  0.24065845  0.50000000  1
  Mg  Mg4  1  0.00000000  0.75934155  0.50000000  1
  Mg  Mg5  1  0.50000000  0.24830002  0.50000000  1
  Mg  Mg6  1  0.50000000  0.75169998  0.50000000  1
  Mg  Mg7  1  0.25067854  0.00000000  0.50000000  1
  Mg  Mg8  1  0.25977166  0.50000000  0.50000000  1
  Mg  Mg9  1  0.74932146  0.00000000  0.50000000  1
  Mg  Mg10  1  0.74022834  0.50000000  0.50000000  1
  Mg  Mg11  1  0.25635492  0.24325549  -0.00000000  1
  Mg  Mg12  1  0.25635492  0.75674451  0.00000000  1
  Mg  Mg13  1  0.74364508  0.24325549  -0.00000000  1
  Mg  Mg14  1  0.74364508  0.75674451  0.00000000  1
  Co  Co15  1  0.00000000  0.00000000  -0.00000000  1
  O  O16  1  0.25999445  0.00000000  -0.00000000  1
  O  O17  1  0.27136714  0.50000000  -0.00000000  1
  O  O18  1  0.74000555  0.00000000  -0.00000000  1
  O  O19  1  0.72863286  0.50000000  -0.00000000  1
  O  O20  1  0.24904294  0.24983208  0.50000000  1
  O  O21  1  0.24904294  0.75016792  0.50000000  1
  O  O22  1  0.75095706  0.24983208  0.50000000  1
  O  O23  1  0.75095706  0.75016792  0.50000000  1
  O  O24  1  0.00000000  0.00000000  0.50000000  1
  O  O25  1  0.00000000  0.50000000  0.50000000  1
  O  O26  1  0.50000000  0.00000000  0.50000000  1
  O  O27  1  0.50000000  0.50000000  0.50000000  1
  O  O28  1  0.00000000  0.22857757  -0.00000000  1
  O  O29  1  0.00000000  0.77142243  -0.00000000  1
  O  O30  1  0.50000000  0.24659279  0.00000000  1
  O  O31  1  0.50000000  0.75340721  -0.00000000  1
