# generated using pymatgen
data_ErMnO3
_symmetry_space_group_name_H-M   'P 1'
_cell_length_a   5.19873505
_cell_length_b   5.75413520
_cell_length_c   7.32288723
_cell_angle_alpha   89.99999594
_cell_angle_beta   90.00008523
_cell_angle_gamma   90.00258600
_symmetry_Int_Tables_number   1
_chemical_formula_structural   ErMnO3
_chemical_formula_sum   'Er4 Mn4 O12'
_cell_volume   219.05849135
_cell_formula_units_Z   4
loop_
 _symmetry_equiv_pos_site_id
 _symmetry_equiv_pos_as_xyz
  1  'x, y, z'
loop_
 _atom_site_type_symbol
 _atom_site_label
 _atom_site_symmetry_multiplicity
 _atom_site_fract_x
 _atom_site_fract_y
 _atom_site_fract_z
 _atom_site_occupancy
  Er  Er0  1  0.01861768  0.91601811  0.74999957  1
  Er  Er1  1  0.51862194  0.58398245  0.25000018  1
  Er  Er2  1  0.48136300  0.41602349  0.74999982  1
  Er  Er3  1  0.98136800  0.08397621  0.25000032  1
  Mn  Mn4  1  0.49998567  0.00001263  0.49999748  1
  Mn  Mn5  1  -0.00001459  0.49998718  0.50000239  1
  Mn  Mn6  1  -0.00001436  0.49998726  -0.00000250  1
  Mn  Mn7  1  0.49998538  0.00001281  0.00000254  1
  O  O8  1  0.69941483  0.32694505  0.44302973  1
  O  O9  1  0.19942064  0.17305475  0.55696792  1
  O  O10  1  0.80059668  0.82694560  0.05697000  1
  O  O11  1  0.30060095  0.67305563  0.94302826  1
  O  O12  1  0.30060158  0.67305492  0.55697177  1
  O  O13  1  0.80059644  0.82694492  0.44303051  1
  O  O14  1  0.19942020  0.17305435  0.94303158  1
  O  O15  1  0.69941600  0.32694457  0.05697022  1
  O  O16  1  0.12102492  0.45742253  0.24999975  1
  O  O17  1  0.62102612  0.04258012  0.74999943  1
  O  O18  1  0.37898400  0.95742864  0.25000054  1
  O  O19  1  0.87898492  0.54256876  0.75000048  1
