# generated using pymatgen
data_KBaPS4
_symmetry_space_group_name_H-M   'P 1'
_cell_length_a   6.75560489
_cell_length_b   9.81325683
_cell_length_c   12.16371181
_cell_angle_alpha   90.00000000
_cell_angle_beta   90.00000000
_cell_angle_gamma   90.00000000
_symmetry_Int_Tables_number   1
_chemical_formula_structural   KBaPS4
_chemical_formula_sum   'K4 Ba4 P4 S16'
_cell_volume   806.38702020
_cell_formula_units_Z   4
loop_
 _symmetry_equiv_pos_site_id
 _symmetry_equiv_pos_as_xyz
  1  'x, y, z'
loop_
 _atom_site_type_symbol
 _atom_site_label
 _atom_site_symmetry_multiplicity
 _atom_site_fract_x
 _atom_site_fract_y
 _atom_site_fract_z
 _atom_site_occupancy
  K  K0  1  0.25000000  0.16805197  0.62191380  1
  K  K1  1  0.75000000  0.83194803  0.37808620  1
  K  K2  1  0.75000000  0.66805197  0.87808620  1
  K  K3  1  0.25000000  0.33194803  0.12191380  1
  Ba  Ba4  1  0.25000000  0.62020653  0.64199160  1
  Ba  Ba5  1  0.75000000  0.37979347  0.35800840  1
  Ba  Ba6  1  0.75000000  0.12020653  0.85800840  1
  Ba  Ba7  1  0.25000000  0.87979347  0.14199160  1
  P  P8  1  0.75000000  0.10259102  0.17417643  1
  P  P9  1  0.25000000  0.60259102  0.32582357  1
  P  P10  1  0.75000000  0.39740898  0.67417643  1
  P  P11  1  0.25000000  0.89740898  0.82582357  1
  S  S12  1  0.49371482  0.60436487  0.22731582  1
  S  S13  1  0.99371482  0.39563513  0.77268418  1
  S  S14  1  0.50628518  0.10436487  0.27268418  1
  S  S15  1  0.00628518  0.89563513  0.72731582  1
  S  S16  1  0.25000000  0.07027353  0.92040889  1
  S  S17  1  0.25000000  0.42972647  0.42040889  1
  S  S18  1  0.75000000  0.92972647  0.07959111  1
  S  S19  1  0.75000000  0.57027353  0.57959111  1
  S  S20  1  0.25000000  0.77878375  0.41526399  1
  S  S21  1  0.75000000  0.22121625  0.58473601  1
  S  S22  1  0.75000000  0.27878375  0.08473601  1
  S  S23  1  0.25000000  0.72121625  0.91526399  1
  S  S24  1  0.99371482  0.10436487  0.27268418  1
  S  S25  1  0.49371482  0.89563513  0.72731582  1
  S  S26  1  0.00628518  0.60436487  0.22731582  1
  S  S27  1  0.50628518  0.39563513  0.77268418  1
