# generated using pymatgen
data_RbP11
_symmetry_space_group_name_H-M   'P 1'
_cell_length_a   9.73894193
_cell_length_b   6.71213280
_cell_length_c   18.36803596
_cell_angle_alpha   85.41895942
_cell_angle_beta   90.00000000
_cell_angle_gamma   90.00000000
_symmetry_Int_Tables_number   1
_chemical_formula_structural   RbP11
_chemical_formula_sum   'Rb4 P44'
_cell_volume   1196.86565135
_cell_formula_units_Z   4
loop_
 _symmetry_equiv_pos_site_id
 _symmetry_equiv_pos_as_xyz
  1  'x, y, z'
loop_
 _atom_site_type_symbol
 _atom_site_label
 _atom_site_symmetry_multiplicity
 _atom_site_fract_x
 _atom_site_fract_y
 _atom_site_fract_z
 _atom_site_occupancy
  Rb  Rb0  1  0.47158960  0.92486721  0.66726029  1
  Rb  Rb1  1  0.52841040  0.07513279  0.33273971  1
  Rb  Rb2  1  0.97158960  0.07513279  0.33273971  1
  Rb  Rb3  1  0.02841040  0.92486721  0.66726029  1
  P  P4  1  0.40463345  0.85329979  0.08719388  1
  P  P5  1  0.59536655  0.14670021  0.91280612  1
  P  P6  1  0.90463345  0.14670021  0.91280612  1
  P  P7  1  0.09536655  0.85329979  0.08719388  1
  P  P8  1  0.75000000  0.80198169  0.22275573  1
  P  P9  1  0.25000000  0.19801831  0.77724427  1
  P  P10  1  0.91124645  0.68732123  0.06152727  1
  P  P11  1  0.08875355  0.31267877  0.93847273  1
  P  P12  1  0.41124645  0.31267877  0.93847273  1
  P  P13  1  0.58875355  0.68732123  0.06152727  1
  P  P14  1  0.75000000  0.74710379  0.45944118  1
  P  P15  1  0.25000000  0.25289621  0.54055882  1
  P  P16  1  0.75000000  0.34293333  0.95652147  1
  P  P17  1  0.25000000  0.65706667  0.04347853  1
  P  P18  1  0.36735622  0.78262598  0.20580743  1
  P  P19  1  0.63264378  0.21737402  0.79419257  1
  P  P20  1  0.86735622  0.21737402  0.79419257  1
  P  P21  1  0.13264378  0.78262598  0.20580743  1
  P  P22  1  0.75000000  0.73739690  0.57628528  1
  P  P23  1  0.25000000  0.26260310  0.42371472  1
  P  P24  1  0.75000000  0.87645401  0.10689188  1
  P  P25  1  0.25000000  0.12354599  0.89310812  1
  P  P26  1  0.91226083  0.54008401  0.42759078  1
  P  P27  1  0.08773917  0.45991599  0.57240922  1
  P  P28  1  0.41226083  0.45991599  0.57240922  1
  P  P29  1  0.58773917  0.54008401  0.42759078  1
  P  P30  1  0.75000000  0.48300879  0.21993388  1
  P  P31  1  0.25000000  0.51699121  0.78006612  1
  P  P32  1  0.75000000  0.62117974  0.87374417  1
  P  P33  1  0.25000000  0.37882026  0.12625583  1
  P  P34  1  0.40418979  0.45462143  0.20621905  1
  P  P35  1  0.59581021  0.54537857  0.79378095  1
  P  P36  1  0.90418979  0.54537857  0.79378095  1
  P  P37  1  0.09581021  0.45462143  0.20621905  1
  P  P38  1  0.41173560  0.69200625  0.47612926  1
  P  P39  1  0.58826440  0.30799375  0.52387074  1
  P  P40  1  0.91173560  0.30799375  0.52387074  1
  P  P41  1  0.08826440  0.69200625  0.47612926  1
  P  P42  1  0.91290493  0.41447218  0.14047560  1
  P  P43  1  0.08709507  0.58552782  0.85952440  1
  P  P44  1  0.41290493  0.58552782  0.85952440  1
  P  P45  1  0.58709507  0.41447218  0.14047560  1
  P  P46  1  0.75000000  0.41784365  0.59467761  1
  P  P47  1  0.25000000  0.58215635  0.40532239  1
