# generated using pymatgen
data_Sm31(CuSe16)3
_symmetry_space_group_name_H-M   'P 1'
_cell_length_a   7.64970737
_cell_length_b   7.65385160
_cell_length_c   45.86938906
_cell_angle_alpha   109.78772690
_cell_angle_beta   109.75610437
_cell_angle_gamma   108.73006350
_symmetry_Int_Tables_number   1
_chemical_formula_structural   Sm31(CuSe16)3
_chemical_formula_sum   'Sm31 Cu3 Se48'
_cell_volume   2070.79422693
_cell_formula_units_Z   1
loop_
 _symmetry_equiv_pos_site_id
 _symmetry_equiv_pos_as_xyz
  1  'x, y, z'
loop_
 _atom_site_type_symbol
 _atom_site_label
 _atom_site_symmetry_multiplicity
 _atom_site_fract_x
 _atom_site_fract_y
 _atom_site_fract_z
 _atom_site_occupancy
  Sm  Sm0  1  0.11463044  0.74073371  0.97846226  1
  Sm  Sm1  1  0.25555975  0.62740605  0.89458512  1
  Sm  Sm2  1  0.11317139  0.74561133  0.81207663  1
  Sm  Sm3  1  0.37409966  0.24060050  0.93873965  1
  Sm  Sm4  1  0.25557851  0.62692380  0.72814776  1
  Sm  Sm5  1  0.11533388  0.74722818  0.64624141  1
  Sm  Sm6  1  0.62480238  0.37414762  0.87481611  1
  Sm  Sm7  1  0.37547294  0.24117978  0.77194096  1
  Sm  Sm8  1  0.75899486  0.89018764  0.85583366  1
  Sm  Sm9  1  0.26470899  0.63727410  0.56356357  1
  Sm  Sm10  1  0.12356438  0.74431395  0.47707960  1
  Sm  Sm11  1  0.62610771  0.37601104  0.70861816  1
  Sm  Sm12  1  0.37634666  0.24227887  0.60546763  1
  Sm  Sm13  1  0.75986776  0.89127701  0.68943149  1
  Sm  Sm14  1  0.12946858  0.74701791  0.31503586  1
  Sm  Sm15  1  0.63737537  0.38290031  0.54355996  1
  Sm  Sm16  1  0.36518716  0.24729229  0.43522092  1
  Sm  Sm17  1  0.75526622  0.88182498  0.52201708  1
  Sm  Sm18  1  0.24148951  0.62432724  0.22668392  1
  Sm  Sm19  1  0.63146318  0.38132352  0.37642827  1
  Sm  Sm20  1  0.37799648  0.25555860  0.26990406  1
  Sm  Sm21  1  0.74777557  0.87225669  0.35413018  1
  Sm  Sm22  1  0.85377220  0.10989828  0.45628535  1
  Sm  Sm23  1  0.24019637  0.62195556  0.06337401  1
  Sm  Sm24  1  0.60865995  0.35291729  0.20544779  1
  Sm  Sm25  1  0.36981490  0.24709105  0.10375168  1
  Sm  Sm26  1  0.74549049  0.86430034  0.18498621  1
  Sm  Sm27  1  0.88536646  0.14134715  0.29388665  1
  Sm  Sm28  1  0.62909649  0.37776842  0.04213165  1
  Sm  Sm29  1  0.75952108  0.88628522  0.01974964  1
  Sm  Sm30  1  0.87790623  0.12824801  0.12561867  1
  Cu  Cu31  1  0.88467465  0.13681738  0.96123811  1
  Cu  Cu32  1  0.88521692  0.13435786  0.79496425  1
  Cu  Cu33  1  0.88010979  0.13366075  0.62759064  1
  Se  Se34  1  0.98349455  0.86131222  0.91762925  1
  Se  Se35  1  0.98513105  0.86222992  0.75111277  1
  Se  Se36  1  0.13105641  0.14256924  0.85208845  1
  Se  Se37  1  0.37597227  0.51877578  0.83475381  1
  Se  Se38  1  0.47976248  0.99085978  0.97546843  1
  Se  Se39  1  0.63241786  0.62198222  0.93994464  1
  Se  Se40  1  0.98619138  0.86392619  0.58507487  1
  Se  Se41  1  0.51679713  0.01361840  0.89522668  1
  Se  Se42  1  0.13207779  0.14394880  0.68582530  1
  Se  Se43  1  0.37701146  0.51948560  0.66842962  1
  Se  Se44  1  0.48150831  0.98959744  0.80907421  1
  Se  Se45  1  0.63254734  0.62383848  0.77374076  1
  Se  Se46  1  0.99662822  0.85785695  0.41754855  1
  Se  Se47  1  0.85560111  0.47308056  0.83161602  1
  Se  Se48  1  0.00887127  0.36459484  0.91497551  1
  Se  Se49  1  0.51821483  0.01430772  0.72884747  1
  Se  Se50  1  0.15009174  0.14336585  0.52407959  1
  Se  Se51  1  0.35999122  0.50391468  0.50051542  1
  Se  Se52  1  0.48210028  0.99138929  0.64281740  1
  Se  Se53  1  0.63671488  0.62754647  0.60822758  1
  Se  Se54  1  0.00314023  0.86232445  0.25040632  1
  Se  Se55  1  0.85597183  0.47277455  0.66524482  1
  Se  Se56  1  0.52902744  0.01523938  0.56325730  1
  Se  Se57  1  0.14142914  0.13536496  0.35720195  1
  Se  Se58  1  0.00943060  0.36556228  0.74864450  1
  Se  Se59  1  0.00005711  0.35929884  0.25001261  1
  Se  Se60  1  0.35550964  0.49640528  0.33222185  1
  Se  Se61  1  0.50612335  0.01378228  0.47804313  1
  Se  Se62  1  0.65416970  0.65016439  0.44274647  1
  Se  Se63  1  0.99372211  0.85224038  0.08076520  1
  Se  Se64  1  0.86371613  0.50559440  0.50114022  1
  Se  Se65  1  0.01450737  0.36891959  0.58272594  1
  Se  Se66  1  0.14847203  0.15351138  0.19199948  1
  Se  Se67  1  0.49643699  0.99995140  0.39093145  1
  Se  Se68  1  0.35517879  0.49556632  0.16696354  1
  Se  Se69  1  0.49767461  0.00078474  0.30911287  1
  Se  Se70  1  0.64516344  0.65089680  0.27343340  1
  Se  Se71  1  0.84298938  0.50093340  0.33329073  1
  Se  Se72  1  0.51588010  0.00496494  0.22775087  1
  Se  Se73  1  0.99794902  0.34243303  0.41675624  1
  Se  Se74  1  0.13624914  0.14398938  0.01879420  1
  Se  Se75  1  0.37921573  0.51902393  0.00166658  1
  Se  Se76  1  0.49865595  0.99419405  0.14035726  1
  Se  Se77  1  0.63188817  0.63757759  0.10599051  1
  Se  Se78  1  0.84121150  0.49702399  0.16629772  1
  Se  Se79  1  0.49509719  0.99986579  0.05876663  1
  Se  Se80  1  0.85366459  0.46485798  0.99727712  1
  Se  Se81  1  0.99620025  0.34123163  0.08252986  1
