# generated using pymatgen
data_Zr4N3OF5
_symmetry_space_group_name_H-M   'P 1'
_cell_length_a   5.36986549
_cell_length_b   5.15051942
_cell_length_c   21.54204488
_cell_angle_alpha   89.73781346
_cell_angle_beta   90.00000000
_cell_angle_gamma   90.00000000
_symmetry_Int_Tables_number   1
_chemical_formula_structural   Zr4N3OF5
_chemical_formula_sum   'Zr16 N12 O4 F20'
_cell_volume   595.79494676
_cell_formula_units_Z   4
loop_
 _symmetry_equiv_pos_site_id
 _symmetry_equiv_pos_as_xyz
  1  'x, y, z'
loop_
 _atom_site_type_symbol
 _atom_site_label
 _atom_site_symmetry_multiplicity
 _atom_site_fract_x
 _atom_site_fract_y
 _atom_site_fract_z
 _atom_site_occupancy
  Zr  Zr0  1  0.71267837  0.81320651  0.12788875  1
  Zr  Zr1  1  0.28732163  0.18679349  0.87211125  1
  Zr  Zr2  1  0.21267837  0.18679349  0.37211125  1
  Zr  Zr3  1  0.78732163  0.81320651  0.62788875  1
  Zr  Zr4  1  0.27023731  0.80936373  0.25003043  1
  Zr  Zr5  1  0.72976269  0.19063627  0.74996957  1
  Zr  Zr6  1  0.77023731  0.19063627  0.24996957  1
  Zr  Zr7  1  0.22976269  0.80936373  0.75003043  1
  Zr  Zr8  1  0.71955414  0.80075302  0.37157574  1
  Zr  Zr9  1  0.28044586  0.19924698  0.62842426  1
  Zr  Zr10  1  0.21955414  0.19924698  0.12842426  1
  Zr  Zr11  1  0.78044586  0.80075302  0.87157574  1
  Zr  Zr12  1  0.73315085  0.19763925  0.99922350  1
  Zr  Zr13  1  0.26684915  0.80236075  0.00077650  1
  Zr  Zr14  1  0.23315085  0.80236075  0.50077650  1
  Zr  Zr15  1  0.76684915  0.19763925  0.49922350  1
  N  N16  1  0.96429113  0.97075441  0.43789448  1
  N  N17  1  0.03570887  0.02924559  0.56210552  1
  N  N18  1  0.46429113  0.02924559  0.06210552  1
  N  N19  1  0.53570887  0.97075441  0.93789448  1
  N  N20  1  0.50140229  0.95851265  0.68558343  1
  N  N21  1  0.49859771  0.04148735  0.31441657  1
  N  N22  1  0.00140229  0.04148735  0.81441657  1
  N  N23  1  -0.00140229  0.95851265  0.18558343  1
  N  N24  1  -0.00212863  0.95588377  0.31224970  1
  N  N25  1  0.00212863  0.04411623  0.68775030  1
  N  N26  1  0.49787137  0.04411623  0.18775030  1
  N  N27  1  0.50212863  0.95588377  0.81224970  1
  O  O28  1  0.46459104  0.01441507  0.43983290  1
  O  O29  1  0.53540896  0.98558493  0.56016710  1
  O  O30  1  0.96459104  0.98558493  0.06016710  1
  O  O31  1  0.03540896  0.01441507  0.93983290  1
  F  F32  1  0.62619802  0.57691587  0.25155879  1
  F  F33  1  0.37380198  0.42308413  0.74844121  1
  F  F34  1  0.12619802  0.42308413  0.24844121  1
  F  F35  1  0.87380198  0.57691587  0.75155879  1
  F  F36  1  0.61998796  0.54773840  0.04774358  1
  F  F37  1  0.38001204  0.45226160  0.95225642  1
  F  F38  1  0.11998796  0.45226160  0.45225642  1
  F  F39  1  0.88001204  0.54773840  0.54774358  1
  F  F40  1  0.62294884  0.52336903  0.44841674  1
  F  F41  1  0.37705116  0.47663097  0.55158326  1
  F  F42  1  0.12294884  0.47663097  0.05158326  1
  F  F43  1  0.87705116  0.52336903  0.94841674  1
  F  F44  1  0.86463633  0.43523896  0.14977711  1
  F  F45  1  0.13536367  0.56476104  0.85022289  1
  F  F46  1  0.36463633  0.56476104  0.35022289  1
  F  F47  1  0.63536367  0.43523896  0.64977711  1
  F  F48  1  0.87649398  0.43122158  0.34830603  1
  F  F49  1  0.12350602  0.56877842  0.65169397  1
  F  F50  1  0.37649398  0.56877842  0.15169397  1
  F  F51  1  0.62350602  0.43122158  0.84830603  1
