# generated using pymatgen
data_Tb2(MoO4)3
_symmetry_space_group_name_H-M   'P 1'
_cell_length_a   7.37075316
_cell_length_b   7.37075316
_cell_length_c   10.58881821
_cell_angle_alpha   90.00000000
_cell_angle_beta   90.00000000
_cell_angle_gamma   90.00000000
_symmetry_Int_Tables_number   1
_chemical_formula_structural   Tb2(MoO4)3
_chemical_formula_sum   'Tb4 Mo6 O24'
_cell_volume   575.26933843
_cell_formula_units_Z   2
loop_
 _symmetry_equiv_pos_site_id
 _symmetry_equiv_pos_as_xyz
  1  'x, y, z'
loop_
 _atom_site_type_symbol
 _atom_site_label
 _atom_site_symmetry_multiplicity
 _atom_site_fract_x
 _atom_site_fract_y
 _atom_site_fract_z
 _atom_site_occupancy
  Tb  Tb0  1  0.18653144  0.68653144  0.26127181  1
  Tb  Tb1  1  0.81346856  0.31346856  0.26127181  1
  Tb  Tb2  1  0.68653144  0.81346856  0.73872819  1
  Tb  Tb3  1  0.31346856  0.18653144  0.73872819  1
  Mo  Mo4  1  0.20726785  0.70726785  0.64434158  1
  Mo  Mo5  1  0.79273215  0.29273215  0.64434158  1
  Mo  Mo6  1  0.70726785  0.79273215  0.35565842  1
  Mo  Mo7  1  0.29273215  0.20726785  0.35565842  1
  Mo  Mo8  1  -0.00000000  -0.00000000  0.00000000  1
  Mo  Mo9  1  0.50000000  0.50000000  0.00000000  1
  O  O10  1  0.19483196  0.69483196  0.47942267  1
  O  O11  1  0.80516804  0.30516804  0.47942267  1
  O  O12  1  0.69483196  0.80516804  0.52057733  1
  O  O13  1  0.30516804  0.19483196  0.52057733  1
  O  O14  1  0.62629467  0.12629467  0.69007133  1
  O  O15  1  0.37370533  0.87370533  0.69007133  1
  O  O16  1  0.12629467  0.37370533  0.30992867  1
  O  O17  1  0.87370533  0.62629467  0.30992867  1
  O  O18  1  0.77515379  0.00362393  0.29588733  1
  O  O19  1  0.22484621  0.99637607  0.29588733  1
  O  O20  1  0.50362393  0.27515379  0.29588733  1
  O  O21  1  0.49637607  0.72484621  0.29588733  1
  O  O22  1  0.00362393  0.22484621  0.70411267  1
  O  O23  1  0.99637607  0.77515379  0.70411267  1
  O  O24  1  0.72484621  0.50362393  0.70411267  1
  O  O25  1  0.27515379  0.49637607  0.70411267  1
  O  O26  1  0.80970444  0.96005500  0.90360781  1
  O  O27  1  0.19029556  0.03994500  0.90360781  1
  O  O28  1  0.46005500  0.30970444  0.90360781  1
  O  O29  1  0.53994500  0.69029556  0.90360781  1
  O  O30  1  0.96005500  0.19029556  0.09639219  1
  O  O31  1  0.03994500  0.80970444  0.09639219  1
  O  O32  1  0.69029556  0.46005500  0.09639219  1
  O  O33  1  0.30970444  0.53994500  0.09639219  1
