# generated using pymatgen
data_Er2SiO5
_symmetry_space_group_name_H-M   'P 1'
_cell_length_a   6.61375892
_cell_length_b   6.68969839
_cell_length_c   9.01904217
_cell_angle_alpha   90.00000000
_cell_angle_beta   103.49063797
_cell_angle_gamma   90.00000000
_symmetry_Int_Tables_number   1
_chemical_formula_structural   Er2SiO5
_chemical_formula_sum   'Er8 Si4 O20'
_cell_volume   388.02871136
_cell_formula_units_Z   4
loop_
 _symmetry_equiv_pos_site_id
 _symmetry_equiv_pos_as_xyz
  1  'x, y, z'
loop_
 _atom_site_type_symbol
 _atom_site_label
 _atom_site_symmetry_multiplicity
 _atom_site_fract_x
 _atom_site_fract_y
 _atom_site_fract_z
 _atom_site_occupancy
  Er  Er0  1  0.26918811  0.12109417  0.46867201  1
  Er  Er1  1  0.23081189  0.62109417  0.53132799  1
  Er  Er2  1  0.73081189  0.87890583  0.53132799  1
  Er  Er3  1  0.76918811  0.37890583  0.46867201  1
  Er  Er4  1  0.02988535  0.63990306  0.86223054  1
  Er  Er5  1  0.47011465  0.13990306  0.13776946  1
  Er  Er6  1  0.97011465  0.36009694  0.13776946  1
  Er  Er7  1  0.52988535  0.86009694  0.86223054  1
  Si  Si8  1  0.01242440  0.09381645  0.79852045  1
  Si  Si9  1  0.48757560  0.59381645  0.20147955  1
  Si  Si10  1  0.98757560  0.90618355  0.20147955  1
  Si  Si11  1  0.51242440  0.40618355  0.79852045  1
  O  O12  1  0.43153705  0.87951087  0.61021795  1
  O  O13  1  0.06846295  0.37951087  0.38978205  1
  O  O14  1  0.56846295  0.12048913  0.38978205  1
  O  O15  1  0.93153705  0.62048913  0.61021795  1
  O  O16  1  0.01123550  0.29154101  0.89809663  1
  O  O17  1  0.48876450  0.79154101  0.10190337  1
  O  O18  1  0.98876450  0.70845899  0.10190337  1
  O  O19  1  0.51123550  0.20845899  0.89809663  1
  O  O20  1  0.98177277  0.14205196  0.61463574  1
  O  O21  1  0.51822723  0.64205196  0.38536426  1
  O  O22  1  0.01822723  0.85794804  0.38536426  1
  O  O23  1  0.48177277  0.35794804  0.61463574  1
  O  O24  1  0.31777182  0.56486222  0.78941091  1
  O  O25  1  0.18222818  0.06486222  0.21058909  1
  O  O26  1  0.68222818  0.43513778  0.21058909  1
  O  O27  1  0.81777182  0.93513778  0.78941091  1
  O  O28  1  0.70242430  0.55931268  0.86247856  1
  O  O29  1  0.79757570  0.05931268  0.13752144  1
  O  O30  1  0.29757570  0.44068732  0.13752144  1
  O  O31  1  0.20242430  0.94068732  0.86247856  1
