# generated using pymatgen
data_HoPS4
_symmetry_space_group_name_H-M   'P 1'
_cell_length_a   12.13874595
_cell_length_b   12.13877354
_cell_length_c   12.13878526
_cell_angle_alpha   127.78687234
_cell_angle_beta   127.78615927
_cell_angle_gamma   76.97123990
_symmetry_Int_Tables_number   1
_chemical_formula_structural   HoPS4
_chemical_formula_sum   'Ho8 P8 S32'
_cell_volume   1084.44808227
_cell_formula_units_Z   8
loop_
 _symmetry_equiv_pos_site_id
 _symmetry_equiv_pos_as_xyz
  1  'x, y, z'
loop_
 _atom_site_type_symbol
 _atom_site_label
 _atom_site_symmetry_multiplicity
 _atom_site_fract_x
 _atom_site_fract_y
 _atom_site_fract_z
 _atom_site_occupancy
  Ho  Ho0  1  0.00000614  0.00000054  0.00001134  1
  Ho  Ho1  1  0.74999692  0.24999243  0.49999726  1
  Ho  Ho2  1  0.24999208  0.75000221  0.50000594  1
  Ho  Ho3  1  0.50000986  0.50001126  -0.00000729  1
  Ho  Ho4  1  0.74998925  0.74999768  0.99999011  1
  Ho  Ho5  1  0.49999679  0.00001105  0.50000139  1
  Ho  Ho6  1  0.00000543  0.50000520  0.50000829  1
  Ho  Ho7  1  0.25000148  0.24999948  0.00000163  1
  P  P8  1  0.12499685  0.41287750  0.78787424  1
  P  P9  1  0.12499532  0.91287638  0.28786824  1
  P  P10  1  0.66287845  0.87499550  0.28787629  1
  P  P11  1  0.58712506  0.37499707  0.71212600  1
  P  P12  1  0.62499594  0.83712435  0.71211919  1
  P  P13  1  0.62499760  0.33712404  0.21212558  1
  P  P14  1  0.08712426  0.37500134  0.21212502  1
  P  P15  1  0.16287972  0.87500101  0.78787746  1
  S  S16  1  0.48474291  0.20883613  0.45086625  1
  S  S17  1  0.75798770  0.03388696  0.54913722  1
  S  S18  1  0.78389019  0.73473966  0.77589711  1
  S  S19  1  0.95884141  0.00798306  0.22409301  1
  S  S20  1  0.49201495  0.54115847  0.77590889  1
  S  S21  1  0.76524919  0.71610005  0.22408802  1
  S  S22  1  0.29115834  0.01526149  0.54913447  1
  S  S23  1  0.46611697  0.74201486  0.45086375  1
  S  S24  1  0.28003496  0.46915171  0.32030260  1
  S  S25  1  0.21914861  0.39885162  0.68911453  1
  S  S26  1  0.70973562  0.53001879  0.31086032  1
  S  S27  1  0.96998122  0.79026823  0.68914234  1
  S  S28  1  0.10114891  0.28085497  0.31088686  1
  S  S29  1  0.54027778  0.35117319  0.32032218  1
  S  S30  1  0.03084711  0.21996640  0.67969986  1
  S  S31  1  0.14883601  0.95972432  0.67968608  1
  S  S32  1  0.46996687  0.78084474  0.17970098  1
  S  S33  1  0.53085399  0.85114629  0.81088528  1
  S  S34  1  0.04026898  0.71997758  0.18913866  1
  S  S35  1  0.78001934  0.45973037  0.81085589  1
  S  S36  1  0.64884686  0.96914057  0.18910876  1
  S  S37  1  0.20972500  0.89883632  0.17968644  1
  S  S38  1  0.71915452  0.03003639  0.82030614  1
  S  S39  1  0.60117402  0.29027851  0.82032081  1
  S  S40  1  0.99201424  0.21611294  0.95086286  1
  S  S41  1  0.96610790  0.51525156  0.72409127  1
  S  S42  1  0.79115503  0.24200881  0.27589599  1
  S  S43  1  0.25798649  0.70884197  0.72409164  1
  S  S44  1  0.98474814  0.53389491  0.27590991  1
  S  S45  1  0.45884068  0.23474326  0.95087001  1
  S  S46  1  0.28388116  0.50798886  0.04913902  1
  S  S47  1  0.26525573  0.04116096  0.04913220  1
