# generated using pymatgen
data_KSi2N3
_symmetry_space_group_name_H-M   'P 1'
_cell_length_a   5.52457460
_cell_length_b   5.65967719
_cell_length_c   5.00480610
_cell_angle_alpha   90.00000000
_cell_angle_beta   90.00000000
_cell_angle_gamma   120.81229933
_symmetry_Int_Tables_number   1
_chemical_formula_structural   KSi2N3
_chemical_formula_sum   'K2 Si4 N6'
_cell_volume   134.39869755
_cell_formula_units_Z   2
loop_
 _symmetry_equiv_pos_site_id
 _symmetry_equiv_pos_as_xyz
  1  'x, y, z'
loop_
 _atom_site_type_symbol
 _atom_site_label
 _atom_site_symmetry_multiplicity
 _atom_site_fract_x
 _atom_site_fract_y
 _atom_site_fract_z
 _atom_site_occupancy
  K  K0  1  0.00000000  0.64842163  0.48251019  1
  K  K1  1  -0.00000000  0.35157837  0.98251019  1
  Si  Si2  1  0.34887872  0.31543112  0.48955953  1
  Si  Si3  1  0.65112128  0.96655340  0.48955953  1
  Si  Si4  1  0.65112128  0.68456888  0.98955953  1
  Si  Si5  1  0.34887872  0.03344660  0.98955953  1
  N  N6  1  0.47672864  0.35720319  0.82474363  1
  N  N7  1  0.52327136  0.88047456  0.82474363  1
  N  N8  1  0.52327136  0.64279681  0.32474363  1
  N  N9  1  0.47672864  0.11952544  0.32474363  1
  N  N10  1  -0.00000000  0.82854236  0.97688650  1
  N  N11  1  0.00000000  0.17145764  0.47688650  1
