# generated using pymatgen
data_Rb2VCuS4
_symmetry_space_group_name_H-M   'P 1'
_cell_length_a   13.56192828
_cell_length_b   12.09847748
_cell_length_c   7.23217928
_cell_angle_alpha   85.16440650
_cell_angle_beta   62.73734773
_cell_angle_gamma   32.09824577
_symmetry_Int_Tables_number   1
_chemical_formula_structural   Rb2VCuS4
_chemical_formula_sum   'Rb4 V2 Cu2 S8'
_cell_volume   429.24004612
_cell_formula_units_Z   2
loop_
 _symmetry_equiv_pos_site_id
 _symmetry_equiv_pos_as_xyz
  1  'x, y, z'
loop_
 _atom_site_type_symbol
 _atom_site_label
 _atom_site_symmetry_multiplicity
 _atom_site_fract_x
 _atom_site_fract_y
 _atom_site_fract_z
 _atom_site_occupancy
  Rb  Rb0  1  0.57201129  0.57201129  0.92798871  1
  Rb  Rb1  1  0.92798871  0.92798871  0.57201129  1
  Rb  Rb2  1  0.32201129  0.32201129  0.67798871  1
  Rb  Rb3  1  0.67798871  0.67798871  0.32201129  1
  V  V4  1  0.75000000  0.75000000  0.75000000  1
  V  V5  1  0.50000000  0.50000000  0.50000000  1
  Cu  Cu6  1  0.00000000  0.00000000  -0.00000000  1
  Cu  Cu7  1  0.25000000  0.25000000  0.25000000  1
  S  S8  1  0.22734424  0.87805008  0.58534723  1
  S  S9  1  0.30925845  0.58534723  0.87805008  1
  S  S10  1  0.58534723  0.30925845  0.22734424  1
  S  S11  1  0.87805008  0.22734424  0.30925845  1
  S  S12  1  0.37194992  0.02265576  0.94074155  1
  S  S13  1  0.94074155  0.66465277  0.37194992  1
  S  S14  1  0.66465277  0.94074155  0.02265576  1
  S  S15  1  0.02265576  0.37194992  0.66465277  1
