# generated using pymatgen
data_Re2Cl5O4
_symmetry_space_group_name_H-M   'P 1'
_cell_length_a   5.86524760
_cell_length_b   6.06231504
_cell_length_c   7.83037268
_cell_angle_alpha   69.79879477
_cell_angle_beta   79.66491611
_cell_angle_gamma   85.28249273
_symmetry_Int_Tables_number   1
_chemical_formula_structural   Re2Cl5O4
_chemical_formula_sum   'Re2 Cl5 O4'
_cell_volume   256.99578535
_cell_formula_units_Z   1
loop_
 _symmetry_equiv_pos_site_id
 _symmetry_equiv_pos_as_xyz
  1  'x, y, z'
loop_
 _atom_site_type_symbol
 _atom_site_label
 _atom_site_symmetry_multiplicity
 _atom_site_fract_x
 _atom_site_fract_y
 _atom_site_fract_z
 _atom_site_occupancy
  Re  Re0  1  0.36134076  0.46300192  0.56349454  1
  Re  Re1  1  0.01634859  0.99546249  0.00073514  1
  Cl  Cl2  1  0.96955982  0.95754850  0.72610746  1
  Cl  Cl3  1  0.15981823  0.12871386  0.19994563  1
  Cl  Cl4  1  0.34328996  0.76283395  0.99401278  1
  Cl  Cl5  1  0.79121181  0.33260939  0.92523610  1
  Cl  Cl6  1  0.59779126  0.28411391  0.39934550  1
  O  O7  1  0.29370990  0.27549811  0.78946834  1
  O  O8  1  0.82248556  0.80291359  0.14796919  1
  O  O9  1  0.11265451  0.54735363  0.47175488  1
  O  O10  1  0.48979060  0.70645165  0.56103143  1
