# generated using pymatgen
data_BaNpO4
_symmetry_space_group_name_H-M   'P 1'
_cell_length_a   5.78227900
_cell_length_b   8.11699070
_cell_length_c   8.19200228
_cell_angle_alpha   90.00000000
_cell_angle_beta   90.00000000
_cell_angle_gamma   90.00000000
_symmetry_Int_Tables_number   1
_chemical_formula_structural   BaNpO4
_chemical_formula_sum   'Ba4 Np4 O16'
_cell_volume   384.48920929
_cell_formula_units_Z   4
loop_
 _symmetry_equiv_pos_site_id
 _symmetry_equiv_pos_as_xyz
  1  'x, y, z'
loop_
 _atom_site_type_symbol
 _atom_site_label
 _atom_site_symmetry_multiplicity
 _atom_site_fract_x
 _atom_site_fract_y
 _atom_site_fract_z
 _atom_site_occupancy
  Ba  Ba0  1  0.47794216  0.19637537  0.25000000  1
  Ba  Ba1  1  0.52205784  0.80362463  0.75000000  1
  Ba  Ba2  1  0.52205784  0.69637537  0.25000000  1
  Ba  Ba3  1  0.47794216  0.30362463  0.75000000  1
  Np  Np4  1  0.00000000  -0.00000000  0.00000000  1
  Np  Np5  1  0.00000000  -0.00000000  0.50000000  1
  Np  Np6  1  0.00000000  0.50000000  0.50000000  1
  Np  Np7  1  0.00000000  0.50000000  0.00000000  1
  O  O8  1  0.11682672  0.52482986  0.25000000  1
  O  O9  1  0.88317328  0.47517014  0.75000000  1
  O  O10  1  0.88317328  0.02482986  0.25000000  1
  O  O11  1  0.11682672  0.97517014  0.75000000  1
  O  O12  1  0.70566692  0.42577813  0.06741430  1
  O  O13  1  0.29433308  0.57422187  0.93258570  1
  O  O14  1  0.29433308  0.57422187  0.56741430  1
  O  O15  1  0.29433308  0.92577813  0.43258570  1
  O  O16  1  0.70566692  0.42577813  0.43258570  1
  O  O17  1  0.70566692  0.07422187  0.56741430  1
  O  O18  1  0.70566692  0.07422187  0.93258570  1
  O  O19  1  0.29433308  0.92577813  0.06741430  1
  O  O20  1  0.14412967  0.25000000  0.00000000  1
  O  O21  1  0.85587033  0.75000000  0.00000000  1
  O  O22  1  0.85587033  0.75000000  0.50000000  1
  O  O23  1  0.14412967  0.25000000  0.50000000  1
