# generated using pymatgen
data_Li7Mn(O2F)2
_symmetry_space_group_name_H-M   'P 1'
_cell_length_a   5.42800000
_cell_length_b   5.77824292
_cell_length_c   10.03887339
_cell_angle_alpha   105.19299865
_cell_angle_beta   87.17868953
_cell_angle_gamma   115.50172812
_symmetry_Int_Tables_number   1
_chemical_formula_structural   Li7Mn(O2F)2
_chemical_formula_sum   'Li14 Mn2 O8 F4'
_cell_volume   273.52092524
_cell_formula_units_Z   2
loop_
 _symmetry_equiv_pos_site_id
 _symmetry_equiv_pos_as_xyz
  1  'x, y, z'
loop_
 _atom_site_type_symbol
 _atom_site_label
 _atom_site_symmetry_multiplicity
 _atom_site_fract_x
 _atom_site_fract_y
 _atom_site_fract_z
 _atom_site_occupancy
  Li  Li0  1  0.05341500  0.96431000  0.76530300  1
  Li  Li1  1  0.48491000  0.37556100  0.25202400  1
  Li  Li2  1  0.53167100  0.04559300  0.61122400  1
  Li  Li3  1  0.96787700  0.44925200  0.88363600  1
  Li  Li4  1  0.05396300  0.78967500  0.55616100  1
  Li  Li5  1  0.52773700  0.29077000  0.04175200  1
  Li  Li6  1  0.95813700  0.64245700  0.33584000  1
  Li  Li7  1  0.47382600  0.75572300  0.94149500  1
  Li  Li8  1  0.95783700  0.19612500  0.46935900  1
  Li  Li9  1  0.98887500  0.50542200  0.10992100  1
  Li  Li10  1  0.49254500  0.97321900  0.38298400  1
  Li  Li11  1  0.47460300  0.57045100  0.72729200  1
  Li  Li12  1  0.00413800  0.09871700  0.25262700  1
  Li  Li13  1  0.52767300  0.86105400  0.17189300  1
  Mn  Mn14  1  0.00309600  0.96235100  0.03937200  1
  Mn  Mn15  1  0.50393400  0.50153500  0.49341500  1
  O  O16  1  0.24935400  0.16455100  0.59802600  1
  O  O17  1  0.29303600  0.03972800  0.19834600  1
  O  O18  1  0.16019400  0.80029300  0.96338400  1
  O  O19  1  0.67032500  0.31354200  0.43438500  1
  O  O20  1  0.69616000  0.63171300  0.10838100  1
  O  O21  1  0.34021900  0.70035100  0.53939000  1
  O  O22  1  0.82724100  0.17492000  0.06044900  1
  O  O23  1  0.77666400  0.84131600  0.38902500  1
  F  F24  1  0.83518400  0.59359500  0.71056400  1
  F  F25  1  0.29009200  0.38906700  0.89121300  1
  F  F26  1  0.68476300  0.92560700  0.78657700  1
  F  F27  1  0.17253100  0.44310300  0.28596200  1
