# generated using pymatgen
data_Rb2B2Se7
_symmetry_space_group_name_H-M   'P 1'
_cell_length_a   8.85201869
_cell_length_b   8.85230180
_cell_length_c   12.74810045
_cell_angle_alpha   60.70599558
_cell_angle_beta   60.70498598
_cell_angle_gamma   49.19368521
_symmetry_Int_Tables_number   1
_chemical_formula_structural   Rb2B2Se7
_chemical_formula_sum   'Rb4 B4 Se14'
_cell_volume   637.31242043
_cell_formula_units_Z   2
loop_
 _symmetry_equiv_pos_site_id
 _symmetry_equiv_pos_as_xyz
  1  'x, y, z'
loop_
 _atom_site_type_symbol
 _atom_site_label
 _atom_site_symmetry_multiplicity
 _atom_site_fract_x
 _atom_site_fract_y
 _atom_site_fract_z
 _atom_site_occupancy
  Rb  Rb0  1  0.12219734  0.67271073  0.52152216  1
  Rb  Rb1  1  0.32729132  0.87779784  0.97847809  1
  Rb  Rb2  1  0.87779915  0.32728904  0.47848069  1
  Rb  Rb3  1  0.67270385  0.12220863  0.02152344  1
  B  B4  1  0.61354007  0.15476564  0.34903583  1
  B  B5  1  0.84522961  0.38647578  0.15096421  1
  B  B6  1  0.38646288  0.84523451  0.65095895  1
  B  B7  1  0.15478318  0.61352219  0.84903833  1
  Se  Se8  1  0.16388160  0.57230706  0.01887359  1
  Se  Se9  1  0.42765868  0.83616370  0.48112890  1
  Se  Se10  1  0.83613509  0.42766760  0.98114506  1
  Se  Se11  1  0.57231137  0.16386260  0.51886841  1
  Se  Se12  1  0.15161253  0.39506657  0.83559902  1
  Se  Se13  1  0.60493863  0.84836811  0.66439979  1
  Se  Se14  1  0.84837503  0.60496476  0.16439719  1
  Se  Se15  1  0.39504840  0.15163392  0.33560013  1
  Se  Se16  1  0.93590303  0.90214036  0.76973346  1
  Se  Se17  1  0.09784854  0.06409000  0.73026557  1
  Se  Se18  1  0.06411734  0.09783816  0.23025413  1
  Se  Se19  1  0.90216562  0.93589352  0.26974208  1
  Se  Se20  1  0.45020711  0.54979901  0.74996893  1
  Se  Se21  1  0.54978962  0.45020126  0.25002105  1
