# generated using pymatgen
data_Sr(AlS2)2
_symmetry_space_group_name_H-M   'P 1'
_cell_length_a   11.91468655
_cell_length_b   11.91468765
_cell_length_c   12.14715498
_cell_angle_alpha   104.74687909
_cell_angle_beta   104.74687675
_cell_angle_gamma   118.74866336
_symmetry_Int_Tables_number   1
_chemical_formula_structural   Sr(AlS2)2
_chemical_formula_sum   'Sr8 Al16 S32'
_cell_volume   1309.58471328
_cell_formula_units_Z   8
loop_
 _symmetry_equiv_pos_site_id
 _symmetry_equiv_pos_as_xyz
  1  'x, y, z'
loop_
 _atom_site_type_symbol
 _atom_site_label
 _atom_site_symmetry_multiplicity
 _atom_site_fract_x
 _atom_site_fract_y
 _atom_site_fract_z
 _atom_site_occupancy
  Sr  Sr0  1  0.87366959  0.62366959  0.24733719  1
  Sr  Sr1  1  0.37633041  0.12633041  0.25266281  1
  Sr  Sr2  1  0.12633041  0.37633041  0.75266281  1
  Sr  Sr3  1  0.62366959  0.87366959  0.74733719  1
  Sr  Sr4  1  0.62500000  0.37500000  0.75000000  1
  Sr  Sr5  1  0.37500000  0.62500000  0.25000000  1
  Sr  Sr6  1  0.12500000  0.87500000  0.75000000  1
  Sr  Sr7  1  0.87500000  0.12500000  0.25000000  1
  Al  Al8  1  0.89063475  0.86474948  0.99920368  1
  Al  Al9  1  0.86554480  0.39143006  0.50079632  1
  Al  Al10  1  0.13525052  0.10936525  0.50079632  1
  Al  Al11  1  0.60856994  0.13445520  0.99920368  1
  Al  Al12  1  0.10936525  0.13525052  0.00079632  1
  Al  Al13  1  0.13445520  0.60856994  0.49920368  1
  Al  Al14  1  0.86474948  0.89063475  0.49920368  1
  Al  Al15  1  0.39143006  0.86554480  0.00079632  1
  Al  Al16  1  0.03135576  0.63720565  0.00022425  1
  Al  Al17  1  0.63698140  0.53113051  0.49977575  1
  Al  Al18  1  0.36279435  0.96864424  0.49977575  1
  Al  Al19  1  0.46886949  0.36301860  0.00022425  1
  Al  Al20  1  0.96864424  0.36279435  0.99977575  1
  Al  Al21  1  0.36301860  0.46886949  0.50022425  1
  Al  Al22  1  0.63720565  0.03135576  0.50022425  1
  Al  Al23  1  0.53113051  0.63698140  0.99977575  1
  S  S24  1  0.31100582  0.16207139  0.00140389  1
  S  S25  1  0.16066750  0.80960193  0.49859611  1
  S  S26  1  0.83792861  0.68899418  0.49859611  1
  S  S27  1  0.19039807  0.83933250  0.00140389  1
  S  S28  1  0.68899418  0.83792861  0.99859611  1
  S  S29  1  0.83933250  0.19039807  0.50140389  1
  S  S30  1  0.16207139  0.31100582  0.50140389  1
  S  S31  1  0.80960193  0.16066750  0.99859611  1
  S  S32  1  0.91835368  0.41899139  0.33903141  1
  S  S33  1  0.07995998  0.07932228  0.16096859  1
  S  S34  1  0.58100861  0.08164632  0.16096859  1
  S  S35  1  0.92067772  0.92004002  0.33903141  1
  S  S36  1  0.08164632  0.58100861  0.66096859  1
  S  S37  1  0.92004002  0.92067772  0.83903141  1
  S  S38  1  0.41899139  0.91835368  0.83903141  1
  S  S39  1  0.07932228  0.07995998  0.66096859  1
  S  S40  1  0.41848850  0.41850227  0.33833351  1
  S  S41  1  0.08016976  0.58015499  0.16166649  1
  S  S42  1  0.58149773  0.58151150  0.16166649  1
  S  S43  1  0.41984501  0.91983024  0.33833351  1
  S  S44  1  0.58151150  0.58149773  0.66166649  1
  S  S45  1  0.91983024  0.41984501  0.83833351  1
  S  S46  1  0.41850227  0.41848850  0.83833351  1
  S  S47  1  0.58015499  0.08016976  0.66166649  1
  S  S48  1  0.64354473  0.33560101  0.99858084  1
  S  S49  1  0.33702117  0.14496390  0.50141916  1
  S  S50  1  0.66439899  0.35645527  0.50141916  1
  S  S51  1  0.85503610  0.66297883  0.99858084  1
  S  S52  1  0.35645527  0.66439899  0.00141916  1
  S  S53  1  0.66297883  0.85503610  0.49858084  1
  S  S54  1  0.33560101  0.64354473  0.49858084  1
  S  S55  1  0.14496390  0.33702117  0.00141916  1
