# generated using pymatgen
data_Rb4Mg(Se2O7)2
_symmetry_space_group_name_H-M   'P 1'
_cell_length_a   8.25309445
_cell_length_b   7.70335581
_cell_length_c   8.18220438
_cell_angle_alpha   89.54606826
_cell_angle_beta   86.40429909
_cell_angle_gamma   58.99733570
_symmetry_Int_Tables_number   1
_chemical_formula_structural   Rb4Mg(Se2O7)2
_chemical_formula_sum   'Rb4 Mg1 Se4 O14'
_cell_volume   444.82411473
_cell_formula_units_Z   1
loop_
 _symmetry_equiv_pos_site_id
 _symmetry_equiv_pos_as_xyz
  1  'x, y, z'
loop_
 _atom_site_type_symbol
 _atom_site_label
 _atom_site_symmetry_multiplicity
 _atom_site_fract_x
 _atom_site_fract_y
 _atom_site_fract_z
 _atom_site_occupancy
  Rb  Rb0  1  0.12098800  0.60267300  0.27333500  1
  Rb  Rb1  1  0.49922500  0.79240700  0.15651400  1
  Rb  Rb2  1  0.77166800  0.51099600  0.62953200  1
  Rb  Rb3  1  0.61810900  0.16869100  0.98796000  1
  Mg  Mg4  1  0.34547700  0.22386200  0.60332600  1
  Se  Se5  1  0.68907900  0.10847100  0.45029000  1
  Se  Se6  1  0.96549000  0.28336300  0.10752000  1
  Se  Se7  1  0.26169200  0.91044500  0.61690700  1
  Se  Se8  1  0.11571200  0.66050700  0.83092400  1
  O  O9  1  0.59147200  0.19749700  0.65125800  1
  O  O10  1  0.79825700  0.39086100  0.97000600  1
  O  O11  1  0.35804100  0.71801900  0.48514300  1
  O  O12  1  0.30577600  0.58382900  0.93169900  1
  O  O13  1  0.46649300  0.18769300  0.37109400  1
  O  O14  1  0.87432800  0.43722800  0.27561600  1
  O  O15  1  0.41580900  0.92287800  0.73123000  1
  O  O16  1  0.14395700  0.51024600  0.67255100  1
  O  O17  1  0.78650000  0.85571000  0.45439000  1
  O  O18  1  0.16798100  0.27039200  0.03774700  1
  O  O19  1  0.14408700  0.14144400  0.54101200  1
  O  O20  1  0.91087800  0.74803100  0.93192400  1
  O  O21  1  0.00681700  0.05016700  0.14557600  1
  O  O22  1  0.07549400  0.89958900  0.73611300  1
