# generated using pymatgen
data_Gd2CrSbO7
_symmetry_space_group_name_H-M   'P 1'
_cell_length_a   7.25860497
_cell_length_b   7.25860497
_cell_length_c   7.25860497
_cell_angle_alpha   120.01281883
_cell_angle_beta   119.60597483
_cell_angle_gamma   90.33081167
_symmetry_Int_Tables_number   1
_chemical_formula_structural   Gd2CrSbO7
_chemical_formula_sum   'Gd4 Cr2 Sb2 O14'
_cell_volume   271.19347821
_cell_formula_units_Z   2
loop_
 _symmetry_equiv_pos_site_id
 _symmetry_equiv_pos_as_xyz
  1  'x, y, z'
loop_
 _atom_site_type_symbol
 _atom_site_label
 _atom_site_symmetry_multiplicity
 _atom_site_fract_x
 _atom_site_fract_y
 _atom_site_fract_z
 _atom_site_occupancy
  Gd  Gd0  1  0.50000000  0.00000000  0.00000000  1
  Gd  Gd1  1  0.50000000  0.50000000  0.50000000  1
  Gd  Gd2  1  0.50000000  0.00000000  0.50000000  1
  Gd  Gd3  1  -0.00000000  0.00000000  0.00000000  1
  Cr  Cr4  1  -0.00000000  0.50000000  0.00000000  1
  Cr  Cr5  1  -0.00000000  0.00000000  0.50000000  1
  Sb  Sb6  1  -0.00000000  0.50000000  0.50000000  1
  Sb  Sb7  1  0.50000000  0.50000000  0.00000000  1
  O  O8  1  0.91386002  0.16386002  0.75000000  1
  O  O9  1  0.32895209  0.57895209  0.75000000  1
  O  O10  1  0.91507422  0.57623144  0.74274570  1
  O  O11  1  0.33348574  0.17232852  0.75725430  1
  O  O12  1  0.91507422  0.17232852  0.33884278  1
  O  O13  1  0.33348574  0.57623144  0.16115722  1
  O  O14  1  0.08613998  0.83613998  0.25000000  1
  O  O15  1  0.67104791  0.42104791  0.25000000  1
  O  O16  1  0.08492578  0.42376856  0.25725430  1
  O  O17  1  0.66651426  0.82767148  0.24274570  1
  O  O18  1  0.08492578  0.82767148  0.66115722  1
  O  O19  1  0.66651426  0.42376856  0.83884278  1
  O  O20  1  0.62246297  0.87246297  0.75000000  1
  O  O21  1  0.37753703  0.12753703  0.25000000  1
