# generated using pymatgen
data_Sr(AuF6)2
_symmetry_space_group_name_H-M   'P 1'
_cell_length_a   10.20207658
_cell_length_b   10.20207658
_cell_length_c   10.20207658
_cell_angle_alpha   90.00000000
_cell_angle_beta   90.00000000
_cell_angle_gamma   90.00000000
_symmetry_Int_Tables_number   1
_chemical_formula_structural   Sr(AuF6)2
_chemical_formula_sum   'Sr4 Au8 F48'
_cell_volume   1061.85627411
_cell_formula_units_Z   4
loop_
 _symmetry_equiv_pos_site_id
 _symmetry_equiv_pos_as_xyz
  1  'x, y, z'
loop_
 _atom_site_type_symbol
 _atom_site_label
 _atom_site_symmetry_multiplicity
 _atom_site_fract_x
 _atom_site_fract_y
 _atom_site_fract_z
 _atom_site_occupancy
  Sr  Sr0  1  0.50000000  0.00000000  0.00000000  1
  Sr  Sr1  1  -0.00000000  0.50000000  0.00000000  1
  Sr  Sr2  1  -0.00000000  0.00000000  0.50000000  1
  Sr  Sr3  1  -0.00000000  0.00000000  0.00000000  1
  Au  Au4  1  0.25136425  0.25136425  0.25136425  1
  Au  Au5  1  0.74863575  0.74863575  0.25136425  1
  Au  Au6  1  0.74863575  0.25136425  0.74863575  1
  Au  Au7  1  0.25136425  0.74863575  0.74863575  1
  Au  Au8  1  0.74863575  0.74863575  0.74863575  1
  Au  Au9  1  0.25136425  0.25136425  0.74863575  1
  Au  Au10  1  0.25136425  0.74863575  0.25136425  1
  Au  Au11  1  0.74863575  0.25136425  0.25136425  1
  F  F12  1  0.12364939  0.12364939  0.31386119  1
  F  F13  1  0.87635061  0.87635061  0.31386119  1
  F  F14  1  0.87635061  0.12364939  0.68613881  1
  F  F15  1  0.31386119  0.12364939  0.12364939  1
  F  F16  1  0.12364939  0.87635061  0.68613881  1
  F  F17  1  0.31386119  0.87635061  0.87635061  1
  F  F18  1  0.68613881  0.87635061  0.12364939  1
  F  F19  1  0.68613881  0.12364939  0.87635061  1
  F  F20  1  0.12364939  0.31386119  0.12364939  1
  F  F21  1  0.12364939  0.68613881  0.87635061  1
  F  F22  1  0.87635061  0.68613881  0.12364939  1
  F  F23  1  0.87635061  0.31386119  0.87635061  1
  F  F24  1  0.37325862  0.37325862  0.81524615  1
  F  F25  1  0.62674138  0.62674138  0.81524615  1
  F  F26  1  0.62674138  0.37325862  0.18475385  1
  F  F27  1  0.81524615  0.37325862  0.37325862  1
  F  F28  1  0.37325862  0.62674138  0.18475385  1
  F  F29  1  0.81524615  0.62674138  0.62674138  1
  F  F30  1  0.18475385  0.62674138  0.37325862  1
  F  F31  1  0.18475385  0.37325862  0.62674138  1
  F  F32  1  0.37325862  0.81524615  0.37325862  1
  F  F33  1  0.37325862  0.18475385  0.62674138  1
  F  F34  1  0.62674138  0.18475385  0.37325862  1
  F  F35  1  0.62674138  0.81524615  0.62674138  1
  F  F36  1  0.12364939  0.12364939  0.68613881  1
  F  F37  1  0.87635061  0.87635061  0.68613881  1
  F  F38  1  0.87635061  0.12364939  0.31386119  1
  F  F39  1  0.68613881  0.12364939  0.12364939  1
  F  F40  1  0.12364939  0.87635061  0.31386119  1
  F  F41  1  0.68613881  0.87635061  0.87635061  1
  F  F42  1  0.31386119  0.87635061  0.12364939  1
  F  F43  1  0.31386119  0.12364939  0.87635061  1
  F  F44  1  0.12364939  0.68613881  0.12364939  1
  F  F45  1  0.12364939  0.31386119  0.87635061  1
  F  F46  1  0.87635061  0.31386119  0.12364939  1
  F  F47  1  0.87635061  0.68613881  0.87635061  1
  F  F48  1  0.37325862  0.37325862  0.18475385  1
  F  F49  1  0.62674138  0.62674138  0.18475385  1
  F  F50  1  0.62674138  0.37325862  0.81524615  1
  F  F51  1  0.18475385  0.37325862  0.37325862  1
  F  F52  1  0.37325862  0.62674138  0.81524615  1
  F  F53  1  0.18475385  0.62674138  0.62674138  1
  F  F54  1  0.81524615  0.62674138  0.37325862  1
  F  F55  1  0.81524615  0.37325862  0.62674138  1
  F  F56  1  0.37325862  0.18475385  0.37325862  1
  F  F57  1  0.37325862  0.81524615  0.62674138  1
  F  F58  1  0.62674138  0.81524615  0.37325862  1
  F  F59  1  0.62674138  0.18475385  0.62674138  1
