# generated using pymatgen
data_MgP8(WO12)2
_symmetry_space_group_name_H-M   'P 1'
_cell_length_a   7.46612547
_cell_length_b   7.46546126
_cell_length_c   10.05686478
_cell_angle_alpha   81.50062587
_cell_angle_beta   70.76687287
_cell_angle_gamma   110.93443823
_symmetry_Int_Tables_number   1
_chemical_formula_structural   MgP8(WO12)2
_chemical_formula_sum   'Mg1 P8 W2 O24'
_cell_volume   471.39193123
_cell_formula_units_Z   1
loop_
 _symmetry_equiv_pos_site_id
 _symmetry_equiv_pos_as_xyz
  1  'x, y, z'
loop_
 _atom_site_type_symbol
 _atom_site_label
 _atom_site_symmetry_multiplicity
 _atom_site_fract_x
 _atom_site_fract_y
 _atom_site_fract_z
 _atom_site_occupancy
  Mg  Mg0  1  0.79417043  0.04403039  0.25001275  1
  P  P1  1  0.29150613  0.24866539  0.98199759  1
  P  P2  1  0.73094759  0.27355849  0.51805992  1
  P  P3  1  0.00014652  0.68669208  0.30116647  1
  P  P4  1  0.27082122  0.73302371  0.47089393  1
  P  P5  1  0.70410600  0.74158525  0.02899918  1
  P  P6  1  0.48768994  0.30097764  0.19879572  1
  P  P7  1  0.51540081  0.69257710  0.81537054  1
  P  P8  1  0.00803716  0.33055904  0.68467885  1
  W  W9  1  0.00207903  0.99968688  0.50598899  1
  W  W10  1  0.00583584  0.50792982  0.99402059  1
  O  O11  1  0.47843590  0.46401375  0.86731519  1
  O  O12  1  0.95787778  0.35931712  0.83384149  1
  O  O13  1  0.05006673  0.67153615  0.14849398  1
  O  O14  1  0.10814342  0.28977633  0.08080859  1
  O  O15  1  0.12442152  0.80076331  0.56960240  1
  O  O16  1  0.18997156  0.68506010  0.34068309  1
  O  O17  1  0.02832205  0.14029704  0.67194602  1
  O  O18  1  0.22532981  0.51430255  0.56137048  1
  O  O19  1  0.41070386  0.20694692  0.08467269  1
  O  O20  1  0.50202681  0.85558597  0.39758818  1
  O  O21  1  0.52545806  0.53029308  0.15891352  1
  O  O22  1  0.32008579  0.19850609  0.35157716  1
  O  O23  1  0.31236400  0.70008843  0.82821042  1
  O  O24  1  0.75317512  0.89914096  0.10262424  1
  O  O25  1  0.24585942  0.09183437  0.91105176  1
  O  O26  1  0.87097894  0.18910409  0.41925492  1
  O  O27  1  0.69311821  0.79127808  0.66608597  1
  O  O28  1  0.87064465  0.69392399  0.93036164  1
  O  O29  1  0.50316235  0.15703055  0.58869689  1
  O  O30  1  0.57634577  0.78709598  0.93831762  1
  O  O31  1  0.79222533  0.49565612  0.41556047  1
  O  O32  1  0.96182484  0.87066628  0.32640504  1
  O  O33  1  0.83099082  0.34520160  0.63315154  1
  O  O34  1  0.69701158  0.28811135  0.17347615  1
