# generated using pymatgen
data_ZnN6
_symmetry_space_group_name_H-M   'P 1'
_cell_length_a   3.46225614
_cell_length_b   16.34917739
_cell_length_c   7.37629299
_cell_angle_alpha   90.00000000
_cell_angle_beta   111.71667020
_cell_angle_gamma   90.00000000
_symmetry_Int_Tables_number   1
_chemical_formula_structural   ZnN6
_chemical_formula_sum   'Zn4 N24'
_cell_volume   387.90076711
_cell_formula_units_Z   4
loop_
 _symmetry_equiv_pos_site_id
 _symmetry_equiv_pos_as_xyz
  1  'x, y, z'
loop_
 _atom_site_type_symbol
 _atom_site_label
 _atom_site_symmetry_multiplicity
 _atom_site_fract_x
 _atom_site_fract_y
 _atom_site_fract_z
 _atom_site_occupancy
  Zn  Zn0  1  0.93478773  0.91642375  0.39795019  1
  Zn  Zn1  1  0.93478773  0.58357625  0.89795019  1
  Zn  Zn2  1  0.06521227  0.08357625  0.60204981  1
  Zn  Zn3  1  0.06521227  0.41642375  0.10204981  1
  N  N4  1  0.38565267  0.86326947  0.33559134  1
  N  N5  1  0.38565267  0.63673053  0.83559134  1
  N  N6  1  0.61434733  0.13673053  0.66440866  1
  N  N7  1  0.61434733  0.36326947  0.16440866  1
  N  N8  1  0.29275648  0.80095071  0.23754390  1
  N  N9  1  0.29275648  0.69904929  0.73754390  1
  N  N10  1  0.70724352  0.19904929  0.76245610  1
  N  N11  1  0.70724352  0.30095071  0.26245610  1
  N  N12  1  0.19973637  0.74284698  0.14551594  1
  N  N13  1  0.19973637  0.75715302  0.64551594  1
  N  N14  1  0.80026363  0.25715302  0.85448406  1
  N  N15  1  0.80026363  0.24284698  0.35448406  1
  N  N16  1  0.15761932  0.96273083  0.67273753  1
  N  N17  1  0.15761932  0.53726917  0.17273753  1
  N  N18  1  0.84238068  0.03726917  0.32726247  1
  N  N19  1  0.84238068  0.46273083  0.82726247  1
  N  N20  1  0.39534381  0.93273985  0.82249976  1
  N  N21  1  0.39534381  0.56726015  0.32249976  1
  N  N22  1  0.60465619  0.06726015  0.17750024  1
  N  N23  1  0.60465619  0.43273985  0.67750024  1
  N  N24  1  0.61873789  0.90439403  0.96481075  1
  N  N25  1  0.61873789  0.59560597  0.46481075  1
  N  N26  1  0.38126211  0.09560597  0.03518925  1
  N  N27  1  0.38126211  0.40439403  0.53518925  1
