# generated using pymatgen
data_CdS2O7
_symmetry_space_group_name_H-M   'P 1'
_cell_length_a   13.00147062
_cell_length_b   5.18407184
_cell_length_c   9.63244034
_cell_angle_alpha   59.00438182
_cell_angle_beta   90.00000000
_cell_angle_gamma   90.00000000
_symmetry_Int_Tables_number   1
_chemical_formula_structural   CdS2O7
_chemical_formula_sum   'Cd4 S8 O28'
_cell_volume   556.52588467
_cell_formula_units_Z   4
loop_
 _symmetry_equiv_pos_site_id
 _symmetry_equiv_pos_as_xyz
  1  'x, y, z'
loop_
 _atom_site_type_symbol
 _atom_site_label
 _atom_site_symmetry_multiplicity
 _atom_site_fract_x
 _atom_site_fract_y
 _atom_site_fract_z
 _atom_site_occupancy
  Cd  Cd0  1  0.34576854  0.13508152  0.66943405  1
  Cd  Cd1  1  0.84576854  0.86491848  0.83056595  1
  Cd  Cd2  1  0.65423146  0.86491848  0.33056595  1
  Cd  Cd3  1  0.15423146  0.13508152  0.16943405  1
  S  S4  1  0.52226623  0.63548694  0.69200080  1
  S  S5  1  0.02226623  0.36451306  0.80799920  1
  S  S6  1  0.47773377  0.36451306  0.30799920  1
  S  S7  1  0.97773377  0.63548694  0.19200080  1
  S  S8  1  0.18206809  0.72338369  0.58762959  1
  S  S9  1  0.68206809  0.27661631  0.91237041  1
  S  S10  1  0.81793191  0.27661631  0.41237041  1
  S  S11  1  0.31793191  0.72338369  0.08762959  1
  O  O12  1  0.44180683  0.52970438  0.63090910  1
  O  O13  1  0.94180683  0.47029562  0.86909090  1
  O  O14  1  0.55819317  0.47029562  0.36909090  1
  O  O15  1  0.05819317  0.52970438  0.13090910  1
  O  O16  1  0.60907847  0.76608625  0.58402610  1
  O  O17  1  0.10907847  0.23391375  0.91597390  1
  O  O18  1  0.39092153  0.23391375  0.41597390  1
  O  O19  1  0.89092153  0.76608625  0.08402610  1
  O  O20  1  0.82750136  0.00358034  0.56720069  1
  O  O21  1  0.32750136  0.99641966  0.93279931  1
  O  O22  1  0.17249864  0.99641966  0.43279931  1
  O  O23  1  0.67249864  0.00358034  0.06720069  1
  O  O24  1  0.43655050  0.67471934  0.15165230  1
  O  O25  1  0.93655050  0.32528066  0.34834770  1
  O  O26  1  0.56344950  0.32528066  0.84834770  1
  O  O27  1  0.06344950  0.67471934  0.65165230  1
  O  O28  1  0.51366265  0.18448469  0.24301433  1
  O  O29  1  0.01366265  0.81551531  0.25698567  1
  O  O30  1  0.48633735  0.81551531  0.75698567  1
  O  O31  1  0.98633735  0.18448469  0.74301433  1
  O  O32  1  0.29172853  0.45799230  0.08224619  1
  O  O33  1  0.79172853  0.54200770  0.41775381  1
  O  O34  1  0.70827147  0.54200770  0.91775381  1
  O  O35  1  0.20827147  0.45799230  0.58224619  1
  O  O36  1  0.25931980  0.75952008  0.20402881  1
  O  O37  1  0.75931980  0.24047992  0.29597119  1
  O  O38  1  0.74068020  0.24047992  0.79597119  1
  O  O39  1  0.24068020  0.75952008  0.70402881  1
