# generated using pymatgen
data_MgCrF6
_symmetry_space_group_name_H-M   'P 1'
_cell_length_a   5.67080942
_cell_length_b   5.67080961
_cell_length_c   5.67081051
_cell_angle_alpha   55.06378026
_cell_angle_beta   55.06376592
_cell_angle_gamma   55.06378048
_symmetry_Int_Tables_number   1
_chemical_formula_structural   MgCrF6
_chemical_formula_sum   'Mg1 Cr1 F6'
_cell_volume   114.14354350
_cell_formula_units_Z   1
loop_
 _symmetry_equiv_pos_site_id
 _symmetry_equiv_pos_as_xyz
  1  'x, y, z'
loop_
 _atom_site_type_symbol
 _atom_site_label
 _atom_site_symmetry_multiplicity
 _atom_site_fract_x
 _atom_site_fract_y
 _atom_site_fract_z
 _atom_site_occupancy
  Mg  Mg0  1  0.67073100  0.67073100  0.67073100  1
  Cr  Cr1  1  0.00677900  0.00677900  0.00677900  1
  F  F2  1  0.38803300  0.05085000  0.79217600  1
  F  F3  1  0.05085000  0.79217600  0.38803300  1
  F  F4  1  0.24316500  0.64883800  0.91371500  1
  F  F5  1  0.91371500  0.24316500  0.64883800  1
  F  F6  1  0.64883800  0.91371500  0.24316500  1
  F  F7  1  0.79217600  0.38803300  0.05085000  1
