# generated using pymatgen
data_K6ZnSe4
_symmetry_space_group_name_H-M   'P 1'
_cell_length_a   10.19343568
_cell_length_b   10.19343300
_cell_length_c   7.90388692
_cell_angle_alpha   90.00001327
_cell_angle_beta   89.99998723
_cell_angle_gamma   120.00080966
_symmetry_Int_Tables_number   1
_chemical_formula_structural   K6ZnSe4
_chemical_formula_sum   'K12 Zn2 Se8'
_cell_volume   711.22803305
_cell_formula_units_Z   2
loop_
 _symmetry_equiv_pos_site_id
 _symmetry_equiv_pos_as_xyz
  1  'x, y, z'
loop_
 _atom_site_type_symbol
 _atom_site_label
 _atom_site_symmetry_multiplicity
 _atom_site_fract_x
 _atom_site_fract_y
 _atom_site_fract_z
 _atom_site_occupancy
  K  K0  1  0.85268315  0.70536786  0.54645328  1
  K  K1  1  0.29463216  0.14731664  0.54645316  1
  K  K2  1  0.85268418  0.14731543  0.54645309  1
  K  K3  1  0.14731612  0.29463134  0.04645305  1
  K  K4  1  0.70536864  0.85268405  0.04645333  1
  K  K5  1  0.14731621  0.85268408  0.04645302  1
  K  K6  1  0.47322622  0.94645255  0.36554394  1
  K  K7  1  0.05354756  0.52677381  0.36554381  1
  K  K8  1  0.47322610  0.52677392  0.36554354  1
  K  K9  1  0.52677432  0.05354605  0.86554381  1
  K  K10  1  0.94645381  0.47322565  0.86554395  1
  K  K11  1  0.52677351  0.47322536  0.86554395  1
  Zn  Zn12  1  0.66666685  0.33333257  0.25023274  1
  Zn  Zn13  1  0.33333367  0.66666721  0.75023184  1
  Se  Se14  1  0.66666737  0.33333264  0.57099032  1
  Se  Se15  1  0.33333316  0.66666681  0.07098966  1
  Se  Se16  1  0.80327950  0.60654537  0.15082917  1
  Se  Se17  1  0.39345452  0.19672041  0.15082918  1
  Se  Se18  1  0.80327280  0.19672712  0.15082051  1
  Se  Se19  1  0.19670956  0.39344785  0.65082929  1
  Se  Se20  1  0.60655224  0.80329051  0.65082927  1
  Se  Se21  1  0.19672736  0.80327277  0.65082009  1
