# generated using pymatgen
data_Re6Se7Br4
_symmetry_space_group_name_H-M   'P 1'
_cell_length_a   12.11783525
_cell_length_b   12.11783525
_cell_length_c   12.11783621
_cell_angle_alpha   50.33130898
_cell_angle_beta   50.33130898
_cell_angle_gamma   50.33130157
_symmetry_Int_Tables_number   1
_chemical_formula_structural   Re6Se7Br4
_chemical_formula_sum   'Re12 Se14 Br8'
_cell_volume   971.00003327
_cell_formula_units_Z   2
loop_
 _symmetry_equiv_pos_site_id
 _symmetry_equiv_pos_as_xyz
  1  'x, y, z'
loop_
 _atom_site_type_symbol
 _atom_site_label
 _atom_site_symmetry_multiplicity
 _atom_site_fract_x
 _atom_site_fract_y
 _atom_site_fract_z
 _atom_site_occupancy
  Re  Re0  1  0.52864369  0.39095550  0.68358428  1
  Re  Re1  1  0.39095550  0.68358428  0.52864369  1
  Re  Re2  1  0.68358428  0.52864369  0.39095550  1
  Re  Re3  1  0.18358428  0.89095550  0.02864369  1
  Re  Re4  1  0.89095550  0.02864369  0.18358428  1
  Re  Re5  1  0.02864369  0.18358428  0.89095550  1
  Re  Re6  1  0.47274344  0.61080516  0.31643616  1
  Re  Re7  1  0.61080516  0.31643616  0.47274344  1
  Re  Re8  1  0.31643616  0.47274344  0.61080516  1
  Re  Re9  1  0.81643616  0.11080516  0.97274344  1
  Re  Re10  1  0.11080516  0.97274344  0.81643616  1
  Re  Re11  1  0.97274344  0.81643616  0.11080516  1
  Se  Se12  1  0.80856943  0.24293729  0.54297256  1
  Se  Se13  1  0.24293729  0.54297256  0.80856943  1
  Se  Se14  1  0.54297256  0.80856943  0.24293729  1
  Se  Se15  1  0.04297256  0.74293729  0.30856943  1
  Se  Se16  1  0.74293729  0.30856943  0.04297256  1
  Se  Se17  1  0.30856943  0.04297256  0.74293729  1
  Se  Se18  1  0.19169551  0.75816829  0.45634767  1
  Se  Se19  1  0.75816829  0.45634767  0.19169551  1
  Se  Se20  1  0.45634767  0.19169551  0.75816829  1
  Se  Se21  1  0.95634767  0.25816829  0.69169551  1
  Se  Se22  1  0.25816829  0.69169551  0.95634767  1
  Se  Se23  1  0.69169551  0.95634767  0.25816829  1
  Se  Se24  1  0.59840945  0.59840945  0.59840945  1
  Se  Se25  1  0.09840945  0.09840945  0.09840945  1
  Br  Br26  1  0.95361845  0.54935132  0.24666674  1
  Br  Br27  1  0.54935132  0.24666674  0.95361845  1
  Br  Br28  1  0.24666674  0.95361845  0.54935132  1
  Br  Br29  1  0.74666674  0.04935132  0.45361845  1
  Br  Br30  1  0.04935132  0.45361845  0.74666674  1
  Br  Br31  1  0.45361845  0.74666674  0.04935132  1
  Br  Br32  1  0.39805607  0.39805607  0.39805607  1
  Br  Br33  1  0.89805607  0.89805607  0.89805607  1
