# generated using pymatgen
data_Li7Co(O2F)2
_symmetry_space_group_name_H-M   'P 1'
_cell_length_a   5.34668400
_cell_length_b   5.71678971
_cell_length_c   10.24509343
_cell_angle_alpha   105.47730580
_cell_angle_beta   86.06915246
_cell_angle_gamma   114.78460657
_symmetry_Int_Tables_number   1
_chemical_formula_structural   Li7Co(O2F)2
_chemical_formula_sum   'Li14 Co2 O8 F4'
_cell_volume   273.65998229
_cell_formula_units_Z   2
loop_
 _symmetry_equiv_pos_site_id
 _symmetry_equiv_pos_as_xyz
  1  'x, y, z'
loop_
 _atom_site_type_symbol
 _atom_site_label
 _atom_site_symmetry_multiplicity
 _atom_site_fract_x
 _atom_site_fract_y
 _atom_site_fract_z
 _atom_site_occupancy
  Li  Li0  1  0.05337500  0.96684500  0.76825600  1
  Li  Li1  1  0.47053000  0.36733200  0.25821500  1
  Li  Li2  1  0.53562100  0.05649600  0.61193700  1
  Li  Li3  1  0.96761200  0.41816300  0.87809000  1
  Li  Li4  1  0.04284800  0.77680500  0.55678400  1
  Li  Li5  1  0.51665100  0.28818700  0.04260100  1
  Li  Li6  1  0.94862400  0.64259600  0.32205600  1
  Li  Li7  1  0.48629100  0.76406300  0.93713500  1
  Li  Li8  1  0.97212900  0.21884100  0.46912400  1
  Li  Li9  1  0.98295100  0.50345600  0.10323300  1
  Li  Li10  1  0.49023200  0.96586800  0.38624000  1
  Li  Li11  1  0.48616500  0.56314800  0.72197800  1
  Li  Li12  1  0.99084900  0.09369000  0.25433400  1
  Li  Li13  1  0.52071300  0.84899500  0.17213700  1
  Co  Co14  1  0.00523600  0.94992500  0.05162600  1
  Co  Co15  1  0.50555000  0.50375100  0.49221700  1
  O  O16  1  0.25610400  0.18187000  0.59584100  1
  O  O17  1  0.28249100  0.02463100  0.20476800  1
  O  O18  1  0.16421500  0.81970900  0.96363300  1
  O  O19  1  0.66468200  0.31572200  0.43464600  1
  O  O20  1  0.69025100  0.62387700  0.11809100  1
  O  O21  1  0.34547400  0.69408300  0.54058200  1
  O  O22  1  0.82742700  0.17098900  0.05580300  1
  O  O23  1  0.77444300  0.83269800  0.39310900  1
  F  F24  1  0.86382900  0.60827300  0.72128200  1
  F  F25  1  0.32065900  0.41560900  0.88825400  1
  F  F26  1  0.14652000  0.43646400  0.27720800  1
  F  F27  1  0.68853000  0.94791400  0.78082200  1
