# generated using pymatgen
data_NaV2O5
_symmetry_space_group_name_H-M   'P 1'
_cell_length_a   3.59690907
_cell_length_b   4.76538925
_cell_length_c   11.28834457
_cell_angle_alpha   90.00340092
_cell_angle_beta   90.00008413
_cell_angle_gamma   90.00005100
_symmetry_Int_Tables_number   1
_chemical_formula_structural   NaV2O5
_chemical_formula_sum   'Na2 V4 O10'
_cell_volume   193.48980914
_cell_formula_units_Z   2
loop_
 _symmetry_equiv_pos_site_id
 _symmetry_equiv_pos_as_xyz
  1  'x, y, z'
loop_
 _atom_site_type_symbol
 _atom_site_label
 _atom_site_symmetry_multiplicity
 _atom_site_fract_x
 _atom_site_fract_y
 _atom_site_fract_z
 _atom_site_occupancy
  Na  Na0  1  0.99999298  0.86202036  0.99997048  1
  Na  Na1  1  0.50001766  0.14007673  0.50007741  1
  V  V2  1  0.49999787  0.39106467  0.15121280  1
  V  V3  1  0.00000301  0.61097717  0.34878599  1
  V  V4  1  0.49999514  0.39114601  0.84876839  1
  V  V5  1  -0.00000464  0.61108254  0.65123460  1
  O  O6  1  0.49999799  0.51877540  -0.00001790  1
  O  O7  1  0.00000038  0.48347969  0.50000858  1
  O  O8  1  -0.00000374  0.51295497  0.82150733  1
  O  O9  1  -0.00000100  0.51281299  0.17851890  1
  O  O10  1  0.49999569  0.48927091  0.67852534  1
  O  O11  1  0.50000124  0.48920182  0.32149623  1
  O  O12  1  0.49999641  0.05190085  0.86553973  1
  O  O13  1  0.50000258  0.05177576  0.13438797  1
  O  O14  1  0.00000248  0.95032239  0.63442395  1
  O  O15  1  0.00000497  0.95023876  0.36556020  1
