# generated using pymatgen
data_Rb2MoO4
_symmetry_space_group_name_H-M   'P 1'
_cell_length_a   6.33492425
_cell_length_b   8.10927661
_cell_length_c   11.08858189
_cell_angle_alpha   90.00000000
_cell_angle_beta   90.00000000
_cell_angle_gamma   90.00000000
_symmetry_Int_Tables_number   1
_chemical_formula_structural   Rb2MoO4
_chemical_formula_sum   'Rb8 Mo4 O16'
_cell_volume   569.63878163
_cell_formula_units_Z   4
loop_
 _symmetry_equiv_pos_site_id
 _symmetry_equiv_pos_as_xyz
  1  'x, y, z'
loop_
 _atom_site_type_symbol
 _atom_site_label
 _atom_site_symmetry_multiplicity
 _atom_site_fract_x
 _atom_site_fract_y
 _atom_site_fract_z
 _atom_site_occupancy
  Rb  Rb0  1  0.25000000  0.16414762  0.92333989  1
  Rb  Rb1  1  0.25000000  0.66414762  0.57666011  1
  Rb  Rb2  1  0.75000000  0.83585238  0.07666011  1
  Rb  Rb3  1  0.75000000  0.33585238  0.42333989  1
  Rb  Rb4  1  0.25000000  0.49910636  0.20801106  1
  Rb  Rb5  1  0.25000000  0.99910636  0.29198894  1
  Rb  Rb6  1  0.75000000  0.50089364  0.79198894  1
  Rb  Rb7  1  0.75000000  0.00089364  0.70801106  1
  Mo  Mo8  1  0.25000000  0.71849448  0.91981086  1
  Mo  Mo9  1  0.25000000  0.21849448  0.58018914  1
  Mo  Mo10  1  0.75000000  0.28150552  0.08018914  1
  Mo  Mo11  1  0.75000000  0.78150552  0.41981086  1
  O  O12  1  0.25000000  0.50192756  0.93252659  1
  O  O13  1  0.25000000  0.00192756  0.56747341  1
  O  O14  1  0.75000000  0.49807244  0.06747341  1
  O  O15  1  0.75000000  0.99807244  0.43252659  1
  O  O16  1  0.25000000  0.81123556  0.06495694  1
  O  O17  1  0.25000000  0.31123556  0.43504306  1
  O  O18  1  0.75000000  0.18876444  0.93504306  1
  O  O19  1  0.75000000  0.68876444  0.56495694  1
  O  O20  1  0.02218699  0.78495878  0.84151477  1
  O  O21  1  0.47781301  0.28495878  0.65848523  1
  O  O22  1  0.52218699  0.21504122  0.15848523  1
  O  O23  1  0.97781301  0.71504122  0.34151477  1
  O  O24  1  0.97781301  0.21504122  0.15848523  1
  O  O25  1  0.52218699  0.71504122  0.34151477  1
  O  O26  1  0.47781301  0.78495878  0.84151477  1
  O  O27  1  0.02218699  0.28495878  0.65848523  1
