# generated using pymatgen
data_Rb2ZrO3
_symmetry_space_group_name_H-M   'P 1'
_cell_length_a   5.90051502
_cell_length_b   7.36606275
_cell_length_c   10.79378477
_cell_angle_alpha   90.00000000
_cell_angle_beta   90.00000000
_cell_angle_gamma   90.00000000
_symmetry_Int_Tables_number   1
_chemical_formula_structural   Rb2ZrO3
_chemical_formula_sum   'Rb8 Zr4 O12'
_cell_volume   469.13635402
_cell_formula_units_Z   4
loop_
 _symmetry_equiv_pos_site_id
 _symmetry_equiv_pos_as_xyz
  1  'x, y, z'
loop_
 _atom_site_type_symbol
 _atom_site_label
 _atom_site_symmetry_multiplicity
 _atom_site_fract_x
 _atom_site_fract_y
 _atom_site_fract_z
 _atom_site_occupancy
  Rb  Rb0  1  0.24242561  0.60829834  0.08701575  1
  Rb  Rb1  1  0.24242561  0.60829834  0.41298425  1
  Rb  Rb2  1  0.25757439  0.10829834  0.58701575  1
  Rb  Rb3  1  0.25757439  0.10829834  0.91298425  1
  Rb  Rb4  1  0.74242561  0.89170166  0.08701575  1
  Rb  Rb5  1  0.74242561  0.89170166  0.41298425  1
  Rb  Rb6  1  0.75757439  0.39170166  0.58701575  1
  Rb  Rb7  1  0.75757439  0.39170166  0.91298425  1
  Zr  Zr8  1  0.23459207  0.66220577  0.75000000  1
  Zr  Zr9  1  0.26540793  0.16220577  0.25000000  1
  Zr  Zr10  1  0.73459207  0.83779423  0.75000000  1
  Zr  Zr11  1  0.76540793  0.33779423  0.25000000  1
  O  O12  1  0.00916230  0.24071480  0.12578869  1
  O  O13  1  0.00916230  0.24071480  0.37421131  1
  O  O14  1  0.20337803  0.40356697  0.75000000  1
  O  O15  1  0.29662197  0.90356697  0.25000000  1
  O  O16  1  0.49083770  0.74071480  0.87421131  1
  O  O17  1  0.49083770  0.74071480  0.62578869  1
  O  O18  1  0.50916230  0.25928520  0.12578869  1
  O  O19  1  0.50916230  0.25928520  0.37421131  1
  O  O20  1  0.70337803  0.09643303  0.75000000  1
  O  O21  1  0.79662197  0.59643303  0.25000000  1
  O  O22  1  0.99083770  0.75928520  0.62578869  1
  O  O23  1  0.99083770  0.75928520  0.87421131  1
