# generated using pymatgen
data_HNO3
_symmetry_space_group_name_H-M   'P 1'
_cell_length_a   8.40384207
_cell_length_b   6.18600564
_cell_length_c   16.23030271
_cell_angle_alpha   90.02950809
_cell_angle_beta   90.00000000
_cell_angle_gamma   90.00000000
_symmetry_Int_Tables_number   1
_chemical_formula_structural   HNO3
_chemical_formula_sum   'H16 N16 O48'
_cell_volume   843.75188564
_cell_formula_units_Z   16
loop_
 _symmetry_equiv_pos_site_id
 _symmetry_equiv_pos_as_xyz
  1  'x, y, z'
loop_
 _atom_site_type_symbol
 _atom_site_label
 _atom_site_symmetry_multiplicity
 _atom_site_fract_x
 _atom_site_fract_y
 _atom_site_fract_z
 _atom_site_occupancy
  H  H0  1  0.79957317  0.98669948  0.61542213  1
  H  H1  1  0.29957317  0.01330052  0.38457787  1
  H  H2  1  0.19983161  0.01380126  0.88490566  1
  H  H3  1  0.69983161  0.98619874  0.11509434  1
  H  H4  1  0.86018855  0.50946320  0.98784061  1
  H  H5  1  0.36018855  0.49053680  0.01215939  1
  H  H6  1  0.13965952  0.49151980  0.51273486  1
  H  H7  1  0.63965952  0.50848020  0.48726514  1
  H  H8  1  0.70218491  0.98244535  0.86427564  1
  H  H9  1  0.20218491  0.01755465  0.13572436  1
  H  H10  1  0.29783521  0.01779673  0.63561203  1
  H  H11  1  0.79783521  0.98220327  0.36438797  1
  H  H12  1  0.96836236  0.51400944  0.73881395  1
  H  H13  1  0.46836236  0.48599056  0.26118605  1
  H  H14  1  0.46645906  0.48417772  0.75954118  1
  H  H15  1  0.96645906  0.51582228  0.24045882  1
  N  N16  1  0.92805192  0.98662294  0.86603499  1
  N  N17  1  0.42805192  0.01337706  0.13396501  1
  N  N18  1  0.07191756  0.01458618  0.63376203  1
  N  N19  1  0.57191756  0.98541382  0.36623797  1
  N  N20  1  0.57548382  0.98689174  0.62035570  1
  N  N21  1  0.07548382  0.01310826  0.37964430  1
  N  N22  1  0.42390653  0.01245440  0.88024728  1
  N  N23  1  0.92390653  0.98754560  0.11975272  1
  N  N24  1  0.74406695  0.51202354  0.74321955  1
  N  N25  1  0.24406695  0.48797646  0.25678045  1
  N  N26  1  0.24058406  0.48891755  0.75774434  1
  N  N27  1  0.74058406  0.51108245  0.24225566  1
  N  N28  1  0.08507400  0.51633035  0.99446550  1
  N  N29  1  0.58507400  0.48366965  0.00553450  1
  N  N30  1  0.91477597  0.48354763  0.50515774  1
  N  N31  1  0.41477597  0.51645237  0.49484226  1
  O  O32  1  0.05013491  0.91691276  0.83317944  1
  O  O33  1  0.55013491  0.08308724  0.16682056  1
  O  O34  1  0.94990200  0.08509267  0.66645398  1
  O  O35  1  0.44990200  0.91490733  0.33354602  1
  O  O36  1  0.87803249  0.57876914  0.70562144  1
  O  O37  1  0.37803249  0.42123086  0.29437856  1
  O  O38  1  0.11845112  0.42242165  0.79146191  1
  O  O39  1  0.61845112  0.57757835  0.20853809  1
  O  O40  1  0.75403599  0.39014548  0.80169404  1
  O  O41  1  0.25403599  0.60985452  0.19830596  1
  O  O42  1  0.24788996  0.60983424  0.69881962  1
  O  O43  1  0.74788996  0.39016576  0.30118038  1
  O  O44  1  0.45187323  0.91231621  0.59059152  1
  O  O45  1  0.95187323  0.08768379  0.40940848  1
  O  O46  1  0.54766377  0.08668519  0.90999812  1
  O  O47  1  0.04766377  0.91331481  0.09000188  1
  O  O48  1  0.92094873  0.11254250  0.92342216  1
  O  O49  1  0.42094873  0.88745750  0.07657784  1
  O  O50  1  0.07880217  0.88765965  0.57668720  1
  O  O51  1  0.57880217  0.11234035  0.42331280  1
  O  O52  1  0.07644727  0.38957920  0.05153827  1
  O  O53  1  0.57644727  0.61042080  0.94846173  1
  O  O54  1  0.92395034  0.61110206  0.44840521  1
  O  O55  1  0.42395034  0.38889794  0.55159479  1
  O  O56  1  0.58548900  0.11173174  0.67799210  1
  O  O57  1  0.08548900  0.88826826  0.32200790  1
  O  O58  1  0.41372194  0.88825018  0.82241425  1
  O  O59  1  0.91372194  0.11174982  0.17758575  1
  O  O60  1  0.20788519  0.59417622  0.96505937  1
  O  O61  1  0.70788519  0.40582378  0.03494063  1
  O  O62  1  0.79185727  0.40440422  0.53389177  1
  O  O63  1  0.29185727  0.59559578  0.46610823  1
  O  O64  1  0.95051144  0.58332186  0.95755457  1
  O  O65  1  0.45051144  0.41667814  0.04244543  1
  O  O66  1  0.04903725  0.41699888  0.54259014  1
  O  O67  1  0.54903725  0.58300112  0.45740986  1
  O  O68  1  0.62050838  0.58524033  0.71292012  1
  O  O69  1  0.12050838  0.41475967  0.28707988  1
  O  O70  1  0.37638157  0.41444812  0.79143898  1
  O  O71  1  0.87638157  0.58555188  0.20856102  1
  O  O72  1  0.70942529  0.91860056  0.58313573  1
  O  O73  1  0.20942529  0.08139944  0.41686427  1
  O  O74  1  0.29006483  0.08082446  0.91750130  1
  O  O75  1  0.79006483  0.91917554  0.08249870  1
  O  O76  1  0.79205125  0.90998349  0.83316317  1
  O  O77  1  0.29205125  0.09001651  0.16683683  1
  O  O78  1  0.20798042  0.09130900  0.66645919  1
  O  O79  1  0.70798042  0.90869100  0.33354081  1
