# generated using pymatgen
data_Sn3(HO2)2
_symmetry_space_group_name_H-M   'P 1'
_cell_length_a   7.92374245
_cell_length_b   7.92374245
_cell_length_c   9.08523420
_cell_angle_alpha   89.93844351
_cell_angle_beta   89.93844351
_cell_angle_gamma   90.01045198
_symmetry_Int_Tables_number   1
_chemical_formula_structural   Sn3(HO2)2
_chemical_formula_sum   'Sn12 H8 O16'
_cell_volume   570.42206935
_cell_formula_units_Z   4
loop_
 _symmetry_equiv_pos_site_id
 _symmetry_equiv_pos_as_xyz
  1  'x, y, z'
loop_
 _atom_site_type_symbol
 _atom_site_label
 _atom_site_symmetry_multiplicity
 _atom_site_fract_x
 _atom_site_fract_y
 _atom_site_fract_z
 _atom_site_occupancy
  Sn  Sn0  1  0.19568269  0.11040249  0.50479967  1
  Sn  Sn1  1  0.69572044  0.37128379  0.00168833  1
  Sn  Sn2  1  0.78585734  0.87169348  0.50866799  1
  Sn  Sn3  1  0.28600435  0.61010343  0.99725368  1
  Sn  Sn4  1  0.37128379  0.69572044  0.50168833  1
  Sn  Sn5  1  0.11040249  0.19568269  0.00479967  1
  Sn  Sn6  1  0.61010343  0.28600435  0.49725368  1
  Sn  Sn7  1  0.87169348  0.78585734  0.00866799  1
  Sn  Sn8  1  0.48914533  0.99357382  0.78012767  1
  Sn  Sn9  1  0.98794839  0.49213032  0.72609323  1
  Sn  Sn10  1  0.49213032  0.98794839  0.22609323  1
  Sn  Sn11  1  0.99357382  0.48914533  0.28012767  1
  H  H12  1  0.32737188  0.31644228  0.73710324  1
  H  H13  1  0.82674239  0.16877839  0.76574792  1
  H  H14  1  0.65110800  0.66968315  0.74386716  1
  H  H15  1  0.15058918  0.81560670  0.76574344  1
  H  H16  1  0.16877839  0.82674239  0.26574792  1
  H  H17  1  0.31644228  0.32737188  0.23710324  1
  H  H18  1  0.81560670  0.15058918  0.26574344  1
  H  H19  1  0.66968315  0.65110800  0.24386716  1
  O  O20  1  0.37959405  0.23735359  0.66777034  1
  O  O21  1  0.87879103  0.24685167  0.83601058  1
  O  O22  1  0.60011958  0.74775137  0.67295940  1
  O  O23  1  0.09943338  0.73654508  0.83575196  1
  O  O24  1  0.24685167  0.87879103  0.33601058  1
  O  O25  1  0.23735359  0.37959405  0.16777034  1
  O  O26  1  0.73654508  0.09943338  0.33575196  1
  O  O27  1  0.74775137  0.60011958  0.17295940  1
  O  O28  1  0.30624017  0.91127966  0.62518136  1
  O  O29  1  0.80587304  0.57237702  0.88312330  1
  O  O30  1  0.67387812  0.07307097  0.62501254  1
  O  O31  1  0.17352005  0.41052835  0.87910519  1
  O  O32  1  0.57237702  0.80587304  0.38312330  1
  O  O33  1  0.91127966  0.30624017  0.12518136  1
  O  O34  1  0.41052835  0.17352005  0.37910519  1
  O  O35  1  0.07307097  0.67387812  0.12501254  1
