# generated using pymatgen
data_Sm9Ga5Se21
_symmetry_space_group_name_H-M   'P 1'
_cell_length_a   12.18956293
_cell_length_b   12.18974397
_cell_length_c   12.18955129
_cell_angle_alpha   95.10227174
_cell_angle_beta   84.90150884
_cell_angle_gamma   84.90019652
_symmetry_Int_Tables_number   1
_chemical_formula_structural   Sm9Ga5Se21
_chemical_formula_sum   'Sm18 Ga10 Se42'
_cell_volume   1788.32926479
_cell_formula_units_Z   2
loop_
 _symmetry_equiv_pos_site_id
 _symmetry_equiv_pos_as_xyz
  1  'x, y, z'
loop_
 _atom_site_type_symbol
 _atom_site_label
 _atom_site_symmetry_multiplicity
 _atom_site_fract_x
 _atom_site_fract_y
 _atom_site_fract_z
 _atom_site_occupancy
  Sm  Sm0  1  0.25863738  0.11247801  0.88024598  1
  Sm  Sm1  1  0.91866848  0.45623525  0.22632255  1
  Sm  Sm2  1  0.60220450  0.77420880  0.55088640  1
  Sm  Sm3  1  0.44911517  0.39779583  0.77421360  1
  Sm  Sm4  1  0.11975006  0.74135753  0.11248175  1
  Sm  Sm5  1  0.77367757  0.08132816  0.45623564  1
  Sm  Sm6  1  0.54375932  0.22632173  0.08132542  1
  Sm  Sm7  1  0.22579601  0.55088751  0.39779678  1
  Sm  Sm8  1  0.88752030  0.88024718  0.74136360  1
  Sm  Sm9  1  0.41790171  0.21066040  0.43744118  1
  Sm  Sm10  1  0.07119377  0.55357916  0.78288768  1
  Sm  Sm11  1  0.75091421  0.87309010  0.10372314  1
  Sm  Sm12  1  0.21711131  0.92880807  0.55358144  1
  Sm  Sm13  1  0.89626571  0.24909475  0.87309045  1
  Sm  Sm14  1  0.56255836  0.58210016  0.21065805  1
  Sm  Sm15  1  0.12690462  0.10373028  0.24909225  1
  Sm  Sm16  1  0.78934386  0.43743924  0.58209867  1
  Sm  Sm17  1  0.44641231  0.78289754  0.92881554  1
  Ga  Ga18  1  0.94979803  0.72114781  0.38801315  1
  Ga  Ga19  1  0.61200318  0.05020874  0.72115209  1
  Ga  Ga20  1  0.27885288  0.38799752  0.05020614  1
  Ga  Ga21  1  0.44854630  0.88432763  0.22365305  1
  Ga  Ga22  1  0.11567199  0.22365898  0.55145782  1
  Ga  Ga23  1  0.77633914  0.55146050  0.88432018  1
  Ga  Ga24  1  0.14799410  0.85200440  0.85200827  1
  Ga  Ga25  1  0.85360824  0.14639207  0.14637436  1
  Ga  Ga26  1  0.35418005  0.64582176  0.64582537  1
  Ga  Ga27  1  0.64776683  0.35223334  0.35223647  1
  Se  Se28  1  0.69365045  0.55842291  0.40576708  1
  Se  Se29  1  0.34076296  0.89621798  0.75554133  1
  Se  Se30  1  0.01297417  0.23857761  0.08961959  1
  Se  Se31  1  0.91036925  0.98702619  0.23857254  1
  Se  Se32  1  0.59423723  0.30636303  0.55842571  1
  Se  Se33  1  0.24445732  0.65923434  0.89622094  1
  Se  Se34  1  0.10378852  0.75553893  0.65924213  1
  Se  Se35  1  0.76141136  0.08962129  0.98700670  1
  Se  Se36  1  0.44158192  0.40576985  0.30634845  1
  Se  Se37  1  0.61998555  0.14411231  0.28524884  1
  Se  Se38  1  0.27514897  0.47254147  0.61784083  1
  Se  Se39  1  0.95980917  0.78819043  0.94334946  1
  Se  Se40  1  0.38216481  0.72484178  0.47254042  1
  Se  Se41  1  0.05664343  0.04019334  0.78818493  1
  Se  Se42  1  0.71474538  0.38001211  0.14410525  1
  Se  Se43  1  0.21181459  0.94335247  0.04019654  1
  Se  Se44  1  0.85589039  0.28525666  0.38002001  1
  Se  Se45  1  0.52745586  0.61784857  0.72485769  1
  Se  Se46  1  0.98704854  0.53867033  0.44860623  1
  Se  Se47  1  0.64485227  0.86825686  0.78254649  1
  Se  Se48  1  0.30696781  0.20165513  0.10674230  1
  Se  Se49  1  0.89325460  0.69303044  0.20165502  1
  Se  Se50  1  0.55139748  0.01294772  0.53866594  1
  Se  Se51  1  0.21745626  0.35514950  0.86824938  1
  Se  Se52  1  0.13174998  0.78254420  0.35515488  1
  Se  Se53  1  0.79834803  0.10674207  0.69303501  1
  Se  Se54  1  0.46133121  0.44859902  0.01295032  1
  Se  Se55  1  0.52343834  0.96694396  0.06345412  1
  Se  Se56  1  0.18823993  0.29936234  0.38579988  1
  Se  Se57  1  0.84418854  0.63155278  0.71864606  1
  Se  Se58  1  0.61419986  0.81175846  0.29936953  1
  Se  Se59  1  0.28135823  0.15579880  0.63155378  1
  Se  Se60  1  0.93654896  0.47657027  0.96694380  1
  Se  Se61  1  0.36844587  0.71864902  0.15580276  1
  Se  Se62  1  0.03305249  0.06345065  0.47656608  1
  Se  Se63  1  0.70063138  0.38579899  0.81175954  1
  Se  Se64  1  0.82297886  0.84776655  0.51171196  1
  Se  Se65  1  0.48829116  0.17701258  0.84776463  1
  Se  Se66  1  0.15223588  0.51170803  0.17702358  1
  Se  Se67  1  0.65242852  0.67830986  0.01085587  1
  Se  Se68  1  0.32168995  0.01085374  0.34757026  1
  Se  Se69  1  0.98914512  0.34756899  0.67831114  1
