# generated using pymatgen
data_Tl3V5O14
_symmetry_space_group_name_H-M   'P 1'
_cell_length_a   8.70872925
_cell_length_b   8.70873252
_cell_length_c   5.13019047
_cell_angle_alpha   90.00000998
_cell_angle_beta   89.99999812
_cell_angle_gamma   120.00013482
_symmetry_Int_Tables_number   1
_chemical_formula_structural   Tl3V5O14
_chemical_formula_sum   'Tl3 V5 O14'
_cell_volume   336.95606050
_cell_formula_units_Z   1
loop_
 _symmetry_equiv_pos_site_id
 _symmetry_equiv_pos_as_xyz
  1  'x, y, z'
loop_
 _atom_site_type_symbol
 _atom_site_label
 _atom_site_symmetry_multiplicity
 _atom_site_fract_x
 _atom_site_fract_y
 _atom_site_fract_z
 _atom_site_occupancy
  Tl  Tl0  1  0.38918674  0.38918659  0.77086278  1
  Tl  Tl1  1  -0.00000003  0.61081377  0.77086285  1
  Tl  Tl2  1  0.61081379  0.00000007  0.77086299  1
  V  V3  1  0.66666634  0.33333345  0.29599725  1
  V  V4  1  0.33333467  0.66666802  0.29599735  1
  V  V5  1  0.22826411  0.00000005  0.28856800  1
  V  V6  1  0.77173509  0.77173531  0.28856846  1
  V  V7  1  -0.00000029  0.22826374  0.28856649  1
  O  O8  1  0.33333278  0.66666608  0.97535756  1
  O  O9  1  0.66666617  0.33333307  0.97535751  1
  O  O10  1  0.75351963  0.75351956  0.97500456  1
  O  O11  1  0.00000036  0.24648027  0.97500296  1
  O  O12  1  0.24648018  0.00000024  0.97500415  1
  O  O13  1  0.16766244  0.16766345  0.35916360  1
  O  O14  1  0.00000061  0.83233883  0.35916543  1
  O  O15  1  0.83233884  0.00000134  0.35916357  1
  O  O16  1  0.53866739  0.70717277  0.41265333  1
  O  O17  1  0.16850397  0.46133218  0.41265335  1
  O  O18  1  0.29282614  0.83149517  0.41265234  1
  O  O19  1  0.83149613  0.29282623  0.41265114  1
  O  O20  1  0.46133302  0.16850490  0.41265415  1
  O  O21  1  0.70717194  0.53866692  0.41265418  1
