# generated using pymatgen
data_CsP7
_symmetry_space_group_name_H-M   'P 1'
_cell_length_a   9.25930042
_cell_length_b   9.63129834
_cell_length_c   9.72399439
_cell_angle_alpha   90.00000000
_cell_angle_beta   90.00000000
_cell_angle_gamma   90.00000000
_symmetry_Int_Tables_number   1
_chemical_formula_structural   CsP7
_chemical_formula_sum   'Cs4 P28'
_cell_volume   867.17691996
_cell_formula_units_Z   4
loop_
 _symmetry_equiv_pos_site_id
 _symmetry_equiv_pos_as_xyz
  1  'x, y, z'
loop_
 _atom_site_type_symbol
 _atom_site_label
 _atom_site_symmetry_multiplicity
 _atom_site_fract_x
 _atom_site_fract_y
 _atom_site_fract_z
 _atom_site_occupancy
  Cs  Cs0  1  0.28535883  0.74724638  0.74629452  1
  Cs  Cs1  1  0.71464117  0.25275362  0.24629452  1
  Cs  Cs2  1  0.71464117  0.24724638  0.74629452  1
  Cs  Cs3  1  0.28535883  0.75275362  0.24629452  1
  P  P4  1  0.66399514  0.86877112  0.61404733  1
  P  P5  1  0.33600486  0.13122888  0.11404733  1
  P  P6  1  0.33600486  0.36877112  0.61404733  1
  P  P7  1  0.66399514  0.63122888  0.11404733  1
  P  P8  1  0.89110672  0.68109950  0.84076810  1
  P  P9  1  0.10889328  0.31890050  0.34076810  1
  P  P10  1  0.10889328  0.18109950  0.84076810  1
  P  P11  1  0.89110672  0.81890050  0.34076810  1
  P  P12  1  0.93563761  0.83887351  0.99946229  1
  P  P13  1  0.06436239  0.16112649  0.49946229  1
  P  P14  1  0.06436239  0.33887351  0.99946229  1
  P  P15  1  0.93563761  0.66112649  0.49946229  1
  P  P16  1  0.58534393  0.81750996  -0.00085181  1
  P  P17  1  0.41465607  0.18249004  0.49914819  1
  P  P18  1  0.41465607  0.31750996  -0.00085181  1
  P  P19  1  0.58534393  0.68249004  0.49914819  1
  P  P20  1  0.75051042  0.97129457  0.99932314  1
  P  P21  1  0.24948958  0.02870543  0.49932314  1
  P  P22  1  0.24948958  0.47129457  0.99932314  1
  P  P23  1  0.75051042  0.52870543  0.49932314  1
  P  P24  1  0.89093801  0.81844642  0.65851761  1
  P  P25  1  0.10906199  0.18155358  0.15851761  1
  P  P26  1  0.10906199  0.31844642  0.65851761  1
  P  P27  1  0.89093801  0.68155358  0.15851761  1
  P  P28  1  0.66416847  0.63059528  0.88523983  1
  P  P29  1  0.33583153  0.36940472  0.38523983  1
  P  P30  1  0.33583153  0.13059528  0.88523983  1
  P  P31  1  0.66416847  0.86940472  0.38523983  1
