# generated using pymatgen
data_Ta2Pd3Se8
_symmetry_space_group_name_H-M   'P 1'
_cell_length_a   3.58290865
_cell_length_b   11.12606605
_cell_length_c   15.47467255
_cell_angle_alpha   90.00000000
_cell_angle_beta   90.00000000
_cell_angle_gamma   90.00000000
_symmetry_Int_Tables_number   1
_chemical_formula_structural   Ta2Pd3Se8
_chemical_formula_sum   'Ta4 Pd6 Se16'
_cell_volume   616.87736819
_cell_formula_units_Z   2
loop_
 _symmetry_equiv_pos_site_id
 _symmetry_equiv_pos_as_xyz
  1  'x, y, z'
loop_
 _atom_site_type_symbol
 _atom_site_label
 _atom_site_symmetry_multiplicity
 _atom_site_fract_x
 _atom_site_fract_y
 _atom_site_fract_z
 _atom_site_occupancy
  Ta  Ta0  1  0.50000000  0.69585290  0.37495654  1
  Ta  Ta1  1  0.50000000  0.30414710  0.62504346  1
  Ta  Ta2  1  0.50000000  0.19585290  0.12504346  1
  Ta  Ta3  1  0.50000000  0.80414710  0.87495654  1
  Pd  Pd4  1  0.00000000  0.85226204  0.27509665  1
  Pd  Pd5  1  -0.00000000  0.14773796  0.72490335  1
  Pd  Pd6  1  0.00000000  0.35226204  0.22490335  1
  Pd  Pd7  1  -0.00000000  0.64773796  0.77509665  1
  Pd  Pd8  1  -0.00000000  0.50000000  0.50000000  1
  Pd  Pd9  1  -0.00000000  -0.00000000  0.00000000  1
  Se  Se10  1  0.50000000  0.92568359  0.37240696  1
  Se  Se11  1  0.50000000  0.07431641  0.62759304  1
  Se  Se12  1  0.50000000  0.42568359  0.12759304  1
  Se  Se13  1  0.50000000  0.57431641  0.87240696  1
  Se  Se14  1  0.50000000  0.72607345  0.21134497  1
  Se  Se15  1  0.50000000  0.27392655  0.78865503  1
  Se  Se16  1  0.50000000  0.22607345  0.28865503  1
  Se  Se17  1  0.50000000  0.77392655  0.71134497  1
  Se  Se18  1  -0.00000000  0.52756430  0.34331518  1
  Se  Se19  1  -0.00000000  0.47243570  0.65668482  1
  Se  Se20  1  0.00000000  0.77926828  0.99745411  1
  Se  Se21  1  0.00000000  0.22073172  0.00254589  1
  Se  Se22  1  -0.00000000  0.27926828  0.50254589  1
  Se  Se23  1  0.00000000  0.72073172  0.49745411  1
  Se  Se24  1  0.00000000  0.97243570  0.84331518  1
  Se  Se25  1  0.00000000  0.02756430  0.15668482  1
