# generated using pymatgen
data_SiC
_symmetry_space_group_name_H-M   'P 1'
_cell_length_a   3.09791783
_cell_length_b   3.09791783
_cell_length_c   70.75363000
_cell_angle_alpha   88.74556440
_cell_angle_beta   88.74556440
_cell_angle_gamma   59.99999983
_symmetry_Int_Tables_number   1
_chemical_formula_structural   SiC
_chemical_formula_sum   'Si28 C28'
_cell_volume   587.86869939
_cell_formula_units_Z   28
loop_
 _symmetry_equiv_pos_site_id
 _symmetry_equiv_pos_as_xyz
  1  'x, y, z'
loop_
 _atom_site_type_symbol
 _atom_site_label
 _atom_site_symmetry_multiplicity
 _atom_site_fract_x
 _atom_site_fract_y
 _atom_site_fract_z
 _atom_site_occupancy
  Si  Si0  1  0.00011910  0.00011910  0.99964271  1
  Si  Si1  1  0.96439231  0.96439231  0.10682308  1
  Si  Si2  1  0.92857719  0.92857719  0.21426842  1
  Si  Si3  1  0.89278563  0.89278563  0.32164311  1
  Si  Si4  1  0.85715598  0.85715598  0.42853205  1
  Si  Si5  1  0.82138740  0.82138740  0.53583780  1
  Si  Si6  1  0.78565911  0.78565911  0.64302267  1
  Si  Si7  1  0.74989104  0.74989104  0.75032688  1
  Si  Si8  1  0.70237669  0.70237669  0.89286993  1
  Si  Si9  1  0.67862194  0.67862194  0.96413418  1
  Si  Si10  1  0.65491830  0.65491830  0.03524509  1
  Si  Si11  1  0.60719508  0.60719508  0.17841475  1
  Si  Si12  1  0.58330224  0.58330224  0.25009327  1
  Si  Si13  1  0.53570596  0.53570596  0.39288213  1
  Si  Si14  1  0.51192010  0.51192010  0.46423970  1
  Si  Si15  1  0.46422549  0.46422549  0.60732354  1
  Si  Si16  1  0.44042178  0.44042178  0.67873466  1
  Si  Si17  1  0.39278593  0.39278593  0.82164220  1
  Si  Si18  1  0.35715024  0.35715024  0.92854928  1
  Si  Si19  1  0.30967544  0.30967544  0.07097368  1
  Si  Si20  1  0.28578006  0.28578006  0.14265981  1
  Si  Si21  1  0.23804147  0.23804147  0.28587558  1
  Si  Si22  1  0.21423598  0.21423598  0.35729206  1
  Si  Si23  1  0.16667101  0.16667101  0.49998697  1
  Si  Si24  1  0.14277829  0.14277829  0.57166513  1
  Si  Si25  1  0.09516392  0.09516392  0.71450823  1
  Si  Si26  1  0.07133540  0.07133540  0.78599381  1
  Si  Si27  1  0.04757357  0.04757357  0.85727930  1
  C  C28  1  0.99117038  0.99117038  0.02648885  1
  C  C29  1  0.95539864  0.95539864  0.13380407  1
  C  C30  1  0.91959254  0.91959254  0.24122238  1
  C  C31  1  0.88381821  0.88381821  0.34854537  1
  C  C32  1  0.84819281  0.84819281  0.45542157  1
  C  C33  1  0.81240712  0.81240712  0.56277864  1
  C  C34  1  0.77670667  0.77670667  0.66987999  1
  C  C35  1  0.74093161  0.74093161  0.77720518  1
  C  C36  1  0.69343247  0.69343247  0.91970258  1
  C  C37  1  0.66970721  0.66970721  0.99087838  1
  C  C38  1  0.64596124  0.64596124  0.06211627  1
  C  C39  1  0.59823443  0.59823443  0.20529671  1
  C  C40  1  0.57433919  0.57433919  0.27698243  1
  C  C41  1  0.52677365  0.52677365  0.41967905  1
  C  C42  1  0.50297100  0.50297100  0.49108699  1
  C  C43  1  0.45529398  0.45529398  0.63411805  1
  C  C44  1  0.43147220  0.43147220  0.70558341  1
  C  C45  1  0.38383536  0.38383536  0.84849393  1
  C  C46  1  0.34818987  0.34818987  0.95543039  1
  C  C47  1  0.30070318  0.30070318  0.09789045  1
  C  C48  1  0.27681927  0.27681927  0.16954220  1
  C  C49  1  0.22908817  0.22908817  0.31273550  1
  C  C50  1  0.20530259  0.20530259  0.38409223  1
  C  C51  1  0.15770988  0.15770988  0.52687035  1
  C  C52  1  0.13383600  0.13383600  0.59849200  1
  C  C53  1  0.08621333  0.08621333  0.74136001  1
  C  C54  1  0.06242001  0.06242001  0.81273998  1
  C  C55  1  0.03863234  0.03863234  0.88410299  1
