# generated using pymatgen
data_Ba3TaAs3O
_symmetry_space_group_name_H-M   'P 1'
_cell_length_a   6.80762685
_cell_length_b   11.19987392
_cell_length_c   13.62373031
_cell_angle_alpha   90.00000000
_cell_angle_beta   90.00000000
_cell_angle_gamma   90.00000000
_symmetry_Int_Tables_number   1
_chemical_formula_structural   Ba3TaAs3O
_chemical_formula_sum   'Ba12 Ta4 As12 O4'
_cell_volume   1038.73535594
_cell_formula_units_Z   4
loop_
 _symmetry_equiv_pos_site_id
 _symmetry_equiv_pos_as_xyz
  1  'x, y, z'
loop_
 _atom_site_type_symbol
 _atom_site_label
 _atom_site_symmetry_multiplicity
 _atom_site_fract_x
 _atom_site_fract_y
 _atom_site_fract_z
 _atom_site_occupancy
  Ba  Ba0  1  0.24357610  0.04523499  0.13114778  1
  Ba  Ba1  1  0.72659850  0.75000000  0.12831590  1
  Ba  Ba2  1  0.77340150  0.25000000  0.62831590  1
  Ba  Ba3  1  0.27340150  0.25000000  0.87168410  1
  Ba  Ba4  1  0.75642390  0.95476501  0.86885222  1
  Ba  Ba5  1  0.25642390  0.54523499  0.63114778  1
  Ba  Ba6  1  0.24357610  0.45476501  0.13114778  1
  Ba  Ba7  1  0.74357610  0.04523499  0.36885222  1
  Ba  Ba8  1  0.25642390  0.95476501  0.63114778  1
  Ba  Ba9  1  0.74357610  0.45476501  0.36885222  1
  Ba  Ba10  1  0.75642390  0.54523499  0.86885222  1
  Ba  Ba11  1  0.22659850  0.75000000  0.37168410  1
  Ta  Ta12  1  0.66206409  0.75000000  0.54541282  1
  Ta  Ta13  1  0.16206409  0.75000000  0.95458718  1
  Ta  Ta14  1  0.33793591  0.25000000  0.45458718  1
  Ta  Ta15  1  0.83793591  0.25000000  0.04541282  1
  As  As16  1  0.27224997  0.25000000  0.63262766  1
  As  As17  1  0.77224997  0.25000000  0.86737234  1
  As  As18  1  0.72775003  0.75000000  0.36737234  1
  As  As19  1  0.22775003  0.75000000  0.13262766  1
  As  As20  1  0.73667622  0.44324963  0.11725364  1
  As  As21  1  0.23667622  0.05675037  0.38274636  1
  As  As22  1  0.26332378  0.94324963  0.88274636  1
  As  As23  1  0.76332378  0.55675037  0.61725364  1
  As  As24  1  0.26332378  0.55675037  0.88274636  1
  As  As25  1  0.23667622  0.44324963  0.38274636  1
  As  As26  1  0.73667622  0.05675037  0.11725364  1
  As  As27  1  0.76332378  0.94324963  0.61725364  1
  O  O28  1  0.11187236  0.25000000  0.05295650  1
  O  O29  1  0.61187236  0.25000000  0.44704350  1
  O  O30  1  0.88812764  0.75000000  0.94704350  1
  O  O31  1  0.38812764  0.75000000  0.55295650  1
