# generated using pymatgen
data_CoSb(PO4)2
_symmetry_space_group_name_H-M   'P 1'
_cell_length_a   4.94531065
_cell_length_b   10.03834858
_cell_length_c   13.01585435
_cell_angle_alpha   89.17519303
_cell_angle_beta   89.61839475
_cell_angle_gamma   84.00586298
_symmetry_Int_Tables_number   1
_chemical_formula_structural   CoSb(PO4)2
_chemical_formula_sum   'Co4 Sb4 P8 O32'
_cell_volume   642.53487755
_cell_formula_units_Z   4
loop_
 _symmetry_equiv_pos_site_id
 _symmetry_equiv_pos_as_xyz
  1  'x, y, z'
loop_
 _atom_site_type_symbol
 _atom_site_label
 _atom_site_symmetry_multiplicity
 _atom_site_fract_x
 _atom_site_fract_y
 _atom_site_fract_z
 _atom_site_occupancy
  Co  Co0  1  0.41561400  0.22121100  0.89899200  1
  Co  Co1  1  0.58903700  0.77875600  0.65534300  1
  Co  Co2  1  0.41070600  0.22164600  0.34437900  1
  Co  Co3  1  0.58447500  0.77785300  0.10098200  1
  Sb  Sb4  1  0.90973700  0.29936000  0.12167600  1
  Sb  Sb5  1  0.96971700  0.29054800  0.62521500  1
  Sb  Sb6  1  0.03108800  0.70979200  0.37480400  1
  Sb  Sb7  1  0.08910000  0.70028700  0.87825100  1
  P  P8  1  0.38150000  0.09614100  0.12648500  1
  P  P9  1  0.42484400  0.10692300  0.62362500  1
  P  P10  1  0.57613300  0.89353900  0.37641900  1
  P  P11  1  0.61706400  0.90341400  0.87348400  1
  P  P12  1  0.87289800  0.40521900  0.39213300  1
  P  P13  1  0.86345700  0.40786200  0.85658700  1
  P  P14  1  0.13628200  0.59197100  0.14359900  1
  P  P15  1  0.12775900  0.59496300  0.60776400  1
  O  O16  1  0.58276400  0.04259900  0.37892700  1
  O  O17  1  0.64097500  0.05228300  0.87111700  1
  O  O18  1  0.35827000  0.94723100  0.12874400  1
  O  O19  1  0.41798400  0.95790500  0.62115900  1
  O  O20  1  0.67931000  0.12608200  0.12842200  1
  O  O21  1  0.72533500  0.14069100  0.62241500  1
  O  O22  1  0.27574700  0.85956700  0.37762300  1
  O  O23  1  0.31910300  0.87383700  0.87130300  1
  O  O24  1  0.17924000  0.37957200  0.38508600  1
  O  O25  1  0.17319500  0.38425300  0.86362500  1
  O  O26  1  0.82650000  0.61572700  0.13668600  1
  O  O27  1  0.82163700  0.62070500  0.61472000  1
  O  O28  1  0.23388600  0.44177200  0.13566400  1
  O  O29  1  0.21070900  0.43984200  0.62279500  1
  O  O30  1  0.79026300  0.56034800  0.37718300  1
  O  O31  1  0.76505500  0.55799600  0.86476100  1
  O  O32  1  0.21903000  0.17320500  0.03347100  1
  O  O33  1  0.24847800  0.18093600  0.53339300  1
  O  O34  1  0.20912600  0.17130900  0.21665900  1
  O  O35  1  0.25192400  0.17744900  0.71583400  1
  O  O36  1  0.74909900  0.82305700  0.28424400  1
  O  O37  1  0.78982300  0.82808400  0.78344700  1
  O  O38  1  0.75245800  0.81948500  0.46667900  1
  O  O39  1  0.77911500  0.82651900  0.96654900  1
  O  O40  1  0.76154900  0.36398600  0.50212600  1
  O  O41  1  0.72660000  0.32348900  0.93912900  1
  O  O42  1  0.72434600  0.32854300  0.31211800  1
  O  O43  1  0.76040400  0.35652400  0.74774600  1
  O  O44  1  0.27269400  0.67616100  0.06079200  1
  O  O45  1  0.23946700  0.63618700  0.49780600  1
  O  O46  1  0.24003000  0.64364000  0.25221700  1
  O  O47  1  0.27647500  0.67153000  0.68782200  1
