# generated using pymatgen
data_Mg14ZnNiO16
_symmetry_space_group_name_H-M   'P 1'
_cell_length_a   8.51833903
_cell_length_b   8.52392296
_cell_length_c   4.26124172
_cell_angle_alpha   90.00000000
_cell_angle_beta   90.00000000
_cell_angle_gamma   90.00000000
_symmetry_Int_Tables_number   1
_chemical_formula_structural   Mg14ZnNiO16
_chemical_formula_sum   'Mg14 Zn1 Ni1 O16'
_cell_volume   309.40733650
_cell_formula_units_Z   1
loop_
 _symmetry_equiv_pos_site_id
 _symmetry_equiv_pos_as_xyz
  1  'x, y, z'
loop_
 _atom_site_type_symbol
 _atom_site_label
 _atom_site_symmetry_multiplicity
 _atom_site_fract_x
 _atom_site_fract_y
 _atom_site_fract_z
 _atom_site_occupancy
  Mg  Mg0  1  0.50000000  0.00000000  0.00000000  1
  Mg  Mg1  1  0.50000000  0.50000000  0.00000000  1
  Mg  Mg2  1  0.00000000  0.25101165  0.50000000  1
  Mg  Mg3  1  0.00000000  0.74898835  0.50000000  1
  Mg  Mg4  1  0.50000000  0.25010738  0.50000000  1
  Mg  Mg5  1  0.50000000  0.74989262  0.50000000  1
  Mg  Mg6  1  0.24964392  0.00000000  0.50000000  1
  Mg  Mg7  1  0.24874517  0.50000000  0.50000000  1
  Mg  Mg8  1  0.75035608  0.00000000  0.50000000  1
  Mg  Mg9  1  0.75125483  0.50000000  0.50000000  1
  Mg  Mg10  1  0.24917239  0.25050625  0.00000000  1
  Mg  Mg11  1  0.24917239  0.74949375  0.00000000  1
  Mg  Mg12  1  0.75082761  0.25050625  0.00000000  1
  Mg  Mg13  1  0.75082761  0.74949375  0.00000000  1
  Zn  Zn14  1  0.00000000  0.00000000  0.00000000  1
  Ni  Ni15  1  0.00000000  0.50000000  0.00000000  1
  O  O16  1  0.25310897  0.00000000  0.00000000  1
  O  O17  1  0.25087723  0.50000000  0.00000000  1
  O  O18  1  0.74689103  0.00000000  0.00000000  1
  O  O19  1  0.74912277  0.50000000  0.00000000  1
  O  O20  1  0.24923785  0.25001011  0.50000000  1
  O  O21  1  0.24923785  0.74998989  0.50000000  1
  O  O22  1  0.75076215  0.25001011  0.50000000  1
  O  O23  1  0.75076215  0.74998989  0.50000000  1
  O  O24  1  0.00000000  0.00000000  0.50000000  1
  O  O25  1  0.00000000  0.50000000  0.50000000  1
  O  O26  1  0.50000000  0.00000000  0.50000000  1
  O  O27  1  0.50000000  0.50000000  0.50000000  1
  O  O28  1  0.00000000  0.25265161  0.00000000  1
  O  O29  1  0.00000000  0.74734839  0.00000000  1
  O  O30  1  0.50000000  0.25033493  0.00000000  1
  O  O31  1  0.50000000  0.74966507  0.00000000  1
