# generated using pymatgen
data_Cs2PaF7
_symmetry_space_group_name_H-M   'P 1'
_cell_length_a   8.09224619
_cell_length_b   8.09224619
_cell_length_c   8.26545163
_cell_angle_alpha   61.16379019
_cell_angle_beta   61.16379019
_cell_angle_gamma   53.57926411
_symmetry_Int_Tables_number   1
_chemical_formula_structural   Cs2PaF7
_chemical_formula_sum   'Cs4 Pa2 F14'
_cell_volume   366.49464059
_cell_formula_units_Z   2
loop_
 _symmetry_equiv_pos_site_id
 _symmetry_equiv_pos_as_xyz
  1  'x, y, z'
loop_
 _atom_site_type_symbol
 _atom_site_label
 _atom_site_symmetry_multiplicity
 _atom_site_fract_x
 _atom_site_fract_y
 _atom_site_fract_z
 _atom_site_occupancy
  Cs  Cs0  1  0.84229957  0.81726037  0.61929846  1
  Cs  Cs1  1  0.18273963  0.15770043  0.88070154  1
  Cs  Cs2  1  0.15770043  0.18273963  0.38070154  1
  Cs  Cs3  1  0.81726037  0.84229957  0.11929846  1
  Pa  Pa4  1  0.47052522  0.52947478  0.75000000  1
  Pa  Pa5  1  0.52947478  0.47052522  0.25000000  1
  F  F6  1  0.55278285  0.30912441  0.07429212  1
  F  F7  1  0.69087559  0.44721715  0.42570788  1
  F  F8  1  0.44721715  0.69087559  0.92570788  1
  F  F9  1  0.30912441  0.55278285  0.57429212  1
  F  F10  1  0.59585450  0.19311986  0.78826462  1
  F  F11  1  0.80688014  0.40414550  0.71173538  1
  F  F12  1  0.40414550  0.80688014  0.21173538  1
  F  F13  1  0.19311986  0.59585450  0.28826462  1
  F  F14  1  0.54335119  0.78274740  0.52728396  1
  F  F15  1  0.21725260  0.45664881  0.97271604  1
  F  F16  1  0.45664881  0.21725260  0.47271604  1
  F  F17  1  0.78274740  0.54335119  0.02728396  1
  F  F18  1  0.16591478  0.83408522  0.75000000  1
  F  F19  1  0.83408522  0.16591478  0.25000000  1
