# generated using pymatgen
data_SbRhS
_symmetry_space_group_name_H-M   'P 1'
_cell_length_a   6.07087734
_cell_length_b   6.07087734
_cell_length_c   6.07087734
_cell_angle_alpha   90.00000000
_cell_angle_beta   90.00000000
_cell_angle_gamma   90.00000000
_symmetry_Int_Tables_number   1
_chemical_formula_structural   SbRhS
_chemical_formula_sum   'Sb4 Rh4 S4'
_cell_volume   223.74553353
_cell_formula_units_Z   4
loop_
 _symmetry_equiv_pos_site_id
 _symmetry_equiv_pos_as_xyz
  1  'x, y, z'
loop_
 _atom_site_type_symbol
 _atom_site_label
 _atom_site_symmetry_multiplicity
 _atom_site_fract_x
 _atom_site_fract_y
 _atom_site_fract_z
 _atom_site_occupancy
  Sb  Sb0  1  0.87928328  0.37928328  0.12071672  1
  Sb  Sb1  1  0.37928328  0.12071672  0.87928328  1
  Sb  Sb2  1  0.12071672  0.87928328  0.37928328  1
  Sb  Sb3  1  0.62071672  0.62071672  0.62071672  1
  Rh  Rh4  1  0.51092123  0.01092123  0.48907877  1
  Rh  Rh5  1  0.01092123  0.48907877  0.51092123  1
  Rh  Rh6  1  0.48907877  0.51092123  0.01092123  1
  Rh  Rh7  1  0.98907877  0.98907877  0.98907877  1
  S  S8  1  0.11750169  0.61750169  0.88249831  1
  S  S9  1  0.61750169  0.88249831  0.11750169  1
  S  S10  1  0.88249831  0.11750169  0.61750169  1
  S  S11  1  0.38249831  0.38249831  0.38249831  1
