# generated using pymatgen
data_Ho2MgSe4
_symmetry_space_group_name_H-M   'P 1'
_cell_length_a   8.18700408
_cell_length_b   8.18700352
_cell_length_c   8.18700654
_cell_angle_alpha   59.99894294
_cell_angle_beta   59.99892682
_cell_angle_gamma   59.99897522
_symmetry_Int_Tables_number   1
_chemical_formula_structural   Ho2MgSe4
_chemical_formula_sum   'Ho4 Mg2 Se8'
_cell_volume   388.01611971
_cell_formula_units_Z   2
loop_
 _symmetry_equiv_pos_site_id
 _symmetry_equiv_pos_as_xyz
  1  'x, y, z'
loop_
 _atom_site_type_symbol
 _atom_site_label
 _atom_site_symmetry_multiplicity
 _atom_site_fract_x
 _atom_site_fract_y
 _atom_site_fract_z
 _atom_site_occupancy
  Ho  Ho0  1  0.12500508  0.62499838  0.62499824  1
  Ho  Ho1  1  0.62499872  0.12500487  0.62499877  1
  Ho  Ho2  1  0.62499774  0.62499895  0.12500494  1
  Ho  Ho3  1  0.62499792  0.62499830  0.62499878  1
  Mg  Mg4  1  0.24999685  0.24999661  0.24999657  1
  Mg  Mg5  1  0.00000350  0.00000308  0.00000324  1
  Se  Se6  1  0.86076064  0.37974693  0.37974685  1
  Se  Se7  1  0.37974679  0.86076056  0.37974683  1
  Se  Se8  1  0.37974691  0.37974694  0.86076055  1
  Se  Se9  1  0.37974961  0.37974952  0.37974935  1
  Se  Se10  1  0.38940137  0.87019908  0.87019902  1
  Se  Se11  1  0.87019920  0.38940129  0.87019904  1
  Se  Se12  1  0.87019914  0.87019912  0.38940130  1
  Se  Se13  1  0.87019652  0.87019638  0.87019652  1
