# generated using pymatgen
data_Sr3AlAs3
_symmetry_space_group_name_H-M   'P 1'
_cell_length_a   10.16103245
_cell_length_b   10.16103245
_cell_length_c   12.74786368
_cell_angle_alpha   90.00000000
_cell_angle_beta   90.00000000
_cell_angle_gamma   142.10374855
_symmetry_Int_Tables_number   1
_chemical_formula_structural   Sr3AlAs3
_chemical_formula_sum   'Sr12 Al4 As12'
_cell_volume   808.43785009
_cell_formula_units_Z   4
loop_
 _symmetry_equiv_pos_site_id
 _symmetry_equiv_pos_as_xyz
  1  'x, y, z'
loop_
 _atom_site_type_symbol
 _atom_site_label
 _atom_site_symmetry_multiplicity
 _atom_site_fract_x
 _atom_site_fract_y
 _atom_site_fract_z
 _atom_site_occupancy
  Sr  Sr0  1  0.82529117  0.82529117  0.34910272  1
  Sr  Sr1  1  0.17470883  0.17470883  0.65089728  1
  Sr  Sr2  1  0.67470883  0.67470883  0.84910272  1
  Sr  Sr3  1  0.32529117  0.32529117  0.15089728  1
  Sr  Sr4  1  0.86488618  0.51088481  0.13109486  1
  Sr  Sr5  1  0.48911519  0.13511382  0.86890514  1
  Sr  Sr6  1  0.98911519  0.63511382  0.63109486  1
  Sr  Sr7  1  0.36488618  0.01088481  0.36890514  1
  Sr  Sr8  1  0.13511382  0.48911519  0.86890514  1
  Sr  Sr9  1  0.51088481  0.86488618  0.13109486  1
  Sr  Sr10  1  0.01088481  0.36488618  0.36890514  1
  Sr  Sr11  1  0.63511382  0.98911519  0.63109486  1
  Al  Al12  1  0.08478421  0.91521579  -0.00000000  1
  Al  Al13  1  0.58478421  0.41521579  0.50000000  1
  Al  Al14  1  0.91521579  0.08478421  -0.00000000  1
  Al  Al15  1  0.41521579  0.58478421  0.50000000  1
  As  As16  1  0.79147660  0.79147660  0.10204210  1
  As  As17  1  0.20852340  0.20852340  0.89795790  1
  As  As18  1  0.70852340  0.70852340  0.60204210  1
  As  As19  1  0.29147660  0.29147660  0.39795790  1
  As  As20  1  0.04533678  0.36227451  0.11990997  1
  As  As21  1  0.63772549  0.95466322  0.88009003  1
  As  As22  1  0.13772549  0.45466322  0.61990997  1
  As  As23  1  0.54533678  0.86227451  0.38009003  1
  As  As24  1  0.95466322  0.63772549  0.88009003  1
  As  As25  1  0.36227451  0.04533678  0.11990997  1
  As  As26  1  0.86227451  0.54533678  0.38009003  1
  As  As27  1  0.45466322  0.13772549  0.61990997  1
