# generated using pymatgen
data_TmAgS2
_symmetry_space_group_name_H-M   'P 1'
_cell_length_a   7.04039867
_cell_length_b   7.04039867
_cell_length_c   7.04039867
_cell_angle_alpha   135.36103717
_cell_angle_beta   135.36103717
_cell_angle_gamma   64.96974406
_symmetry_Int_Tables_number   1
_chemical_formula_structural   TmAgS2
_chemical_formula_sum   'Tm2 Ag2 S4'
_cell_volume   169.82316548
_cell_formula_units_Z   2
loop_
 _symmetry_equiv_pos_site_id
 _symmetry_equiv_pos_as_xyz
  1  'x, y, z'
loop_
 _atom_site_type_symbol
 _atom_site_label
 _atom_site_symmetry_multiplicity
 _atom_site_fract_x
 _atom_site_fract_y
 _atom_site_fract_z
 _atom_site_occupancy
  Tm  Tm0  1  0.75449149  0.25449149  0.50000000  1
  Tm  Tm1  1  0.00449149  0.00449149  -0.00000000  1
  Ag  Ag2  1  0.21647354  0.71647354  0.50000000  1
  Ag  Ag3  1  0.46647354  0.46647354  0.00000000  1
  S  S4  1  0.98401200  0.48401200  0.50000000  1
  S  S5  1  0.23401200  0.23401200  -0.00000000  1
  S  S6  1  0.52953297  0.02953297  0.50000000  1
  S  S7  1  0.77953297  0.77953297  0.00000000  1
