# generated using pymatgen
data_Mg6ZnCdO8
_symmetry_space_group_name_H-M   'P 1'
_cell_length_a   8.67630487
_cell_length_b   4.36812055
_cell_length_c   4.36812055
_cell_angle_alpha   90.00000000
_cell_angle_beta   90.00000000
_cell_angle_gamma   90.00000000
_symmetry_Int_Tables_number   1
_chemical_formula_structural   Mg6ZnCdO8
_chemical_formula_sum   'Mg6 Zn1 Cd1 O8'
_cell_volume   165.54803673
_cell_formula_units_Z   1
loop_
 _symmetry_equiv_pos_site_id
 _symmetry_equiv_pos_as_xyz
  1  'x, y, z'
loop_
 _atom_site_type_symbol
 _atom_site_label
 _atom_site_symmetry_multiplicity
 _atom_site_fract_x
 _atom_site_fract_y
 _atom_site_fract_z
 _atom_site_occupancy
  Mg  Mg0  1  0.50000000  0.00000000  0.00000000  1
  Mg  Mg1  1  0.50000000  0.50000000  0.50000000  1
  Mg  Mg2  1  0.25521817  -0.00000000  0.50000000  1
  Mg  Mg3  1  0.74478183  0.00000000  0.50000000  1
  Mg  Mg4  1  0.25521817  0.50000000  -0.00000000  1
  Mg  Mg5  1  0.74478183  0.50000000  0.00000000  1
  Zn  Zn6  1  0.00000000  0.00000000  0.00000000  1
  Cd  Cd7  1  -0.00000000  0.50000000  0.50000000  1
  O  O8  1  0.25237576  -0.00000000  -0.00000000  1
  O  O9  1  0.74762424  0.00000000  0.00000000  1
  O  O10  1  0.26657705  0.50000000  0.50000000  1
  O  O11  1  0.73342295  0.50000000  0.50000000  1
  O  O12  1  -0.00000000  0.00000000  0.50000000  1
  O  O13  1  0.50000000  0.00000000  0.50000000  1
  O  O14  1  -0.00000000  0.50000000  0.00000000  1
  O  O15  1  0.50000000  0.50000000  0.00000000  1
