# generated using pymatgen
data_TiTl5F9
_symmetry_space_group_name_H-M   'P 1'
_cell_length_a   6.68507796
_cell_length_b   7.77698288
_cell_length_c   10.94410860
_cell_angle_alpha   90.00109790
_cell_angle_beta   90.00345967
_cell_angle_gamma   89.99931407
_symmetry_Int_Tables_number   1
_chemical_formula_structural   TiTl5F9
_chemical_formula_sum   'Ti2 Tl10 F18'
_cell_volume   568.98132437
_cell_formula_units_Z   2
loop_
 _symmetry_equiv_pos_site_id
 _symmetry_equiv_pos_as_xyz
  1  'x, y, z'
loop_
 _atom_site_type_symbol
 _atom_site_label
 _atom_site_symmetry_multiplicity
 _atom_site_fract_x
 _atom_site_fract_y
 _atom_site_fract_z
 _atom_site_occupancy
  Ti  Ti0  1  0.49918290  0.00000122  0.00289030  1
  Ti  Ti1  1  0.99934691  0.00000211  0.49689661  1
  Tl  Tl2  1  0.03801117  0.73621728  0.83122140  1
  Tl  Tl3  1  0.03800404  0.26377345  0.83122821  1
  Tl  Tl4  1  0.46844499  0.49999534  0.99825455  1
  Tl  Tl5  1  0.45264508  0.26604920  0.33188720  1
  Tl  Tl6  1  0.45264204  0.73395094  0.33188721  1
  Tl  Tl7  1  0.53814447  0.26381372  0.66887074  1
  Tl  Tl8  1  0.53811374  0.73618846  0.66886655  1
  Tl  Tl9  1  0.96915647  0.50000545  0.50202735  1
  Tl  Tl10  1  0.95249262  0.26596650  0.16826381  1
  Tl  Tl11  1  0.95244307  0.73403796  0.16825000  1
  F  F12  1  0.11845425  0.00001360  0.34177019  1
  F  F13  1  0.17672709  0.17443220  0.54787760  1
  F  F14  1  0.17672539  0.82555486  0.54786932  1
  F  F15  1  0.17022999  0.50000424  0.28069285  1
  F  F16  1  0.30461650  0.49999169  0.76041048  1
  F  F17  1  0.31945047  0.82707933  0.05475054  1
  F  F18  1  0.31945040  0.17291273  0.05477061  1
  F  F19  1  0.37885515  0.00002602  0.84828332  1
  F  F20  1  0.54558729  0.50000166  0.49820252  1
  F  F21  1  0.61814791  0.99998410  0.15802504  1
  F  F22  1  0.67657902  0.82552817  0.95196064  1
  F  F23  1  0.67658923  0.17446976  0.95198450  1
  F  F24  1  0.67054558  0.49999434  0.21972824  1
  F  F25  1  0.80445309  0.50000346  0.73990452  1
  F  F26  1  0.81978563  0.17301736  0.44494986  1
  F  F27  1  0.81978843  0.82701153  0.44491572  1
  F  F28  1  0.87879410  0.99997682  0.65146972  1
  F  F29  1  0.04559197  0.49999752  0.00189140  1
