# generated using pymatgen
data_VAsO5
_symmetry_space_group_name_H-M   'P 1'
_cell_length_a   8.38334860
_cell_length_b   6.34078630
_cell_length_c   8.96675290
_cell_angle_alpha   45.20926248
_cell_angle_beta   90.00000000
_cell_angle_gamma   90.00000000
_symmetry_Int_Tables_number   1
_chemical_formula_structural   VAsO5
_chemical_formula_sum   'V4 As4 O20'
_cell_volume   338.26825972
_cell_formula_units_Z   4
loop_
 _symmetry_equiv_pos_site_id
 _symmetry_equiv_pos_as_xyz
  1  'x, y, z'
loop_
 _atom_site_type_symbol
 _atom_site_label
 _atom_site_symmetry_multiplicity
 _atom_site_fract_x
 _atom_site_fract_y
 _atom_site_fract_z
 _atom_site_occupancy
  V  V0  1  0.67451670  0.12367292  0.34169476  1
  V  V1  1  0.82548330  0.12367292  0.84169476  1
  V  V2  1  0.32548330  0.87632708  0.65830524  1
  V  V3  1  0.17451670  0.87632708  0.15830524  1
  As  As4  1  0.74782763  0.62250360  0.84233137  1
  As  As5  1  0.75217237  0.62250360  0.34233137  1
  As  As6  1  0.25217237  0.37749640  0.15766863  1
  As  As7  1  0.24782763  0.37749640  0.65766863  1
  O  O8  1  0.38145129  0.12611959  0.36046139  1
  O  O9  1  0.11854871  0.12611959  0.86046139  1
  O  O10  1  0.61854871  0.87388041  0.63953861  1
  O  O11  1  0.88145129  0.87388041  0.13953861  1
  O  O12  1  0.86249293  0.10922366  0.35987634  1
  O  O13  1  0.63750707  0.10922366  0.85987634  1
  O  O14  1  0.13750707  0.89077634  0.64012366  1
  O  O15  1  0.36249293  0.89077634  0.14012366  1
  O  O16  1  0.86592837  0.46639098  0.78837707  1
  O  O17  1  0.63407163  0.46639098  0.28837707  1
  O  O18  1  0.13407163  0.53360902  0.21162293  1
  O  O19  1  0.36592837  0.53360902  0.71162293  1
  O  O20  1  0.63250944  0.78228239  0.39160119  1
  O  O21  1  0.86749056  0.78228239  0.89160119  1
  O  O22  1  0.36749056  0.21771761  0.60839881  1
  O  O23  1  0.13250944  0.21771761  0.10839881  1
  O  O24  1  0.63767874  0.34870593  0.05800974  1
  O  O25  1  0.86232126  0.34870593  0.55800974  1
  O  O26  1  0.36232126  0.65129407  0.94199026  1
  O  O27  1  0.13767874  0.65129407  0.44199026  1
