# generated using pymatgen
data_WO3
_symmetry_space_group_name_H-M   'P 1'
_cell_length_a   3.94449455
_cell_length_b   5.32499735
_cell_length_c   5.32499735
_cell_angle_alpha   90.00000000
_cell_angle_beta   90.00000000
_cell_angle_gamma   90.00000000
_symmetry_Int_Tables_number   1
_chemical_formula_structural   WO3
_chemical_formula_sum   'W2 O6'
_cell_volume   111.84849695
_cell_formula_units_Z   2
loop_
 _symmetry_equiv_pos_site_id
 _symmetry_equiv_pos_as_xyz
  1  'x, y, z'
loop_
 _atom_site_type_symbol
 _atom_site_label
 _atom_site_symmetry_multiplicity
 _atom_site_fract_x
 _atom_site_fract_y
 _atom_site_fract_z
 _atom_site_occupancy
  W  W0  1  0.93481815  0.25000000  0.25000000  1
  W  W1  1  0.06518685  0.75000000  0.75000000  1
  O  O2  1  0.48917671  0.25000000  0.25000000  1
  O  O3  1  0.51082329  0.75000000  0.75000000  1
  O  O4  1  0.99999900  0.00000200  0.49999800  1
  O  O5  1  0.99999900  0.00000200  0.00000200  1
  O  O6  1  0.99999900  0.49999800  0.00000200  1
  O  O7  1  0.99999900  0.49999800  0.49999800  1
