# generated using pymatgen
data_K2ZrO3
_symmetry_space_group_name_H-M   'P 1'
_cell_length_a   5.88428414
_cell_length_b   6.96122699
_cell_length_c   10.45314175
_cell_angle_alpha   90.00000000
_cell_angle_beta   90.00000000
_cell_angle_gamma   90.00000000
_symmetry_Int_Tables_number   1
_chemical_formula_structural   K2ZrO3
_chemical_formula_sum   'K8 Zr4 O12'
_cell_volume   428.17989448
_cell_formula_units_Z   4
loop_
 _symmetry_equiv_pos_site_id
 _symmetry_equiv_pos_as_xyz
  1  'x, y, z'
loop_
 _atom_site_type_symbol
 _atom_site_label
 _atom_site_symmetry_multiplicity
 _atom_site_fract_x
 _atom_site_fract_y
 _atom_site_fract_z
 _atom_site_occupancy
  K  K0  1  0.23429875  0.61377497  0.91428190  1
  K  K1  1  0.23429875  0.61377497  0.58571810  1
  K  K2  1  0.76570125  0.38622503  0.08571810  1
  K  K3  1  0.26570125  0.11377497  0.41428190  1
  K  K4  1  0.26570125  0.11377497  0.08571810  1
  K  K5  1  0.76570125  0.38622503  0.41428190  1
  K  K6  1  0.73429875  0.88622503  0.58571810  1
  K  K7  1  0.73429875  0.88622503  0.91428190  1
  Zr  Zr8  1  0.27860487  0.15849894  0.75000000  1
  Zr  Zr9  1  0.77860487  0.34150106  0.75000000  1
  Zr  Zr10  1  0.22139513  0.65849894  0.25000000  1
  Zr  Zr11  1  0.72139513  0.84150106  0.25000000  1
  O  O12  1  0.98375150  0.77030081  0.37867850  1
  O  O13  1  0.48375150  0.72969919  0.12132150  1
  O  O14  1  0.51624850  0.27030081  0.62132150  1
  O  O15  1  0.01624850  0.22969919  0.87867850  1
  O  O16  1  0.01624850  0.22969919  0.62132150  1
  O  O17  1  0.51624850  0.27030081  0.87867850  1
  O  O18  1  0.48375150  0.72969919  0.37867850  1
  O  O19  1  0.98375150  0.77030081  0.12132150  1
  O  O20  1  0.15707976  0.38969568  0.25000000  1
  O  O21  1  0.84292024  0.61030432  0.75000000  1
  O  O22  1  0.34292024  0.88969568  0.75000000  1
  O  O23  1  0.65707976  0.11030432  0.25000000  1
