# generated using pymatgen
data_SrLiTi4CrO11
_symmetry_space_group_name_H-M   'P 1'
_cell_length_a   5.83419759
_cell_length_b   9.99170099
_cell_length_c   13.96127969
_cell_angle_alpha   90.00000000
_cell_angle_beta   90.00000000
_cell_angle_gamma   90.00000000
_symmetry_Int_Tables_number   1
_chemical_formula_structural   SrLiTi4CrO11
_chemical_formula_sum   'Sr4 Li4 Ti16 Cr4 O44'
_cell_volume   813.85266507
_cell_formula_units_Z   4
loop_
 _symmetry_equiv_pos_site_id
 _symmetry_equiv_pos_as_xyz
  1  'x, y, z'
loop_
 _atom_site_type_symbol
 _atom_site_label
 _atom_site_symmetry_multiplicity
 _atom_site_fract_x
 _atom_site_fract_y
 _atom_site_fract_z
 _atom_site_occupancy
  Sr  Sr0  1  0.24872990  0.39618137  0.59533176  1
  Sr  Sr1  1  0.24872990  0.10381863  0.09533176  1
  Sr  Sr2  1  0.74872990  0.60381863  0.40466824  1
  Sr  Sr3  1  0.74872990  0.89618137  0.90466824  1
  Li  Li4  1  0.25028655  0.07887992  0.54012669  1
  Li  Li5  1  0.25028655  0.42112008  0.04012669  1
  Li  Li6  1  0.75028655  0.92112008  0.45987331  1
  Li  Li7  1  0.75028655  0.57887992  0.95987331  1
  Ti  Ti8  1  0.24514972  0.72600668  0.50274796  1
  Ti  Ti9  1  0.24514972  0.77399332  0.00274796  1
  Ti  Ti10  1  0.74514972  0.27399332  0.49725204  1
  Ti  Ti11  1  0.74514972  0.22600668  0.99725204  1
  Ti  Ti12  1  0.24228895  0.06929659  0.83192845  1
  Ti  Ti13  1  0.24228895  0.43070341  0.33192845  1
  Ti  Ti14  1  0.74228895  0.93070341  0.16807155  1
  Ti  Ti15  1  0.74228895  0.56929659  0.66807155  1
  Ti  Ti16  1  0.25542852  0.61185969  0.83408872  1
  Ti  Ti17  1  0.25542852  0.88814031  0.33408872  1
  Ti  Ti18  1  0.75542852  0.38814031  0.16591128  1
  Ti  Ti19  1  0.75542852  0.11185969  0.66591128  1
  Ti  Ti20  1  0.49858583  0.65980476  0.17210382  1
  Ti  Ti21  1  0.99858583  0.34019524  0.82789618  1
  Ti  Ti22  1  0.99858583  0.15980476  0.32789618  1
  Ti  Ti23  1  0.49858583  0.84019524  0.67210382  1
  Cr  Cr24  1  0.00112312  0.83509512  0.67114616  1
  Cr  Cr25  1  0.50112312  0.16490488  0.32885384  1
  Cr  Cr26  1  0.50112312  0.33509512  0.82885384  1
  Cr  Cr27  1  0.00112312  0.66490488  0.17114616  1
  O  O28  1  0.24405577  0.24443997  0.76116745  1
  O  O29  1  0.24405577  0.25556003  0.26116745  1
  O  O30  1  0.74405577  0.75556003  0.23883255  1
  O  O31  1  0.74405577  0.74443997  0.73883255  1
  O  O32  1  0.25025151  0.94015895  0.93456570  1
  O  O33  1  0.25025151  0.55984105  0.43456570  1
  O  O34  1  0.75025151  0.05984105  0.06543430  1
  O  O35  1  0.75025151  0.44015895  0.56543430  1
  O  O36  1  0.24636044  0.43065185  0.89705129  1
  O  O37  1  0.24636044  0.06934815  0.39705129  1
  O  O38  1  0.74636044  0.56934815  0.10294871  1
  O  O39  1  0.74636044  0.93065185  0.60294871  1
  O  O40  1  0.02981981  0.68442684  0.91387060  1
  O  O41  1  0.47381086  0.81597209  0.41425928  1
  O  O42  1  0.52981981  0.31557316  0.08612940  1
  O  O43  1  0.97381086  0.18402791  0.58574072  1
  O  O44  1  0.97381086  0.31597209  0.08574072  1
  O  O45  1  0.52981981  0.18442684  0.58612940  1
  O  O46  1  0.47381086  0.68402791  0.91425928  1
  O  O47  1  0.02981981  0.81557316  0.41387060  1
  O  O48  1  0.25518277  0.75380225  0.74490151  1
  O  O49  1  0.25518277  0.74619775  0.24490151  1
  O  O50  1  0.75518277  0.24619775  0.25509849  1
  O  O51  1  0.75518277  0.25380225  0.75509849  1
  O  O52  1  0.00748165  0.17415096  0.91467049  1
  O  O53  1  0.49790003  0.32780729  0.41537366  1
  O  O54  1  0.50748165  0.82584904  0.08532951  1
  O  O55  1  0.99790003  0.67219271  0.58462634  1
  O  O56  1  0.99790003  0.82780729  0.08462634  1
  O  O57  1  0.50748165  0.67415096  0.58532951  1
  O  O58  1  0.49790003  0.17219271  0.91537366  1
  O  O59  1  0.00748165  0.32584904  0.41467049  1
  O  O60  1  0.25642163  0.89515702  0.58649743  1
  O  O61  1  0.25642163  0.60484298  0.08649743  1
  O  O62  1  0.75642163  0.10484298  0.41350257  1
  O  O63  1  0.75642163  0.39515702  0.91350257  1
  O  O64  1  0.99793154  0.49742827  0.74316582  1
  O  O65  1  0.49919141  0.00028844  0.24238134  1
  O  O66  1  0.49793154  0.50257173  0.25683418  1
  O  O67  1  0.99919141  -0.00028844  0.75761866  1
  O  O68  1  0.99919141  0.50028844  0.25761866  1
  O  O69  1  0.49793154  0.99742827  0.75683418  1
  O  O70  1  0.49919141  0.49971156  0.74238134  1
  O  O71  1  0.99793154  0.00257173  0.24316582  1
