# generated using pymatgen
data_CsHoCdTe3
_symmetry_space_group_name_H-M   'P 1'
_cell_length_a   8.85369251
_cell_length_b   8.85369251
_cell_length_c   11.84231138
_cell_angle_alpha   90.00000000
_cell_angle_beta   90.00000000
_cell_angle_gamma   150.42970651
_symmetry_Int_Tables_number   1
_chemical_formula_structural   CsHoCdTe3
_chemical_formula_sum   'Cs2 Ho2 Cd2 Te6'
_cell_volume   458.10451441
_cell_formula_units_Z   2
loop_
 _symmetry_equiv_pos_site_id
 _symmetry_equiv_pos_as_xyz
  1  'x, y, z'
loop_
 _atom_site_type_symbol
 _atom_site_label
 _atom_site_symmetry_multiplicity
 _atom_site_fract_x
 _atom_site_fract_y
 _atom_site_fract_z
 _atom_site_occupancy
  Cs  Cs0  1  0.74945734  0.25054266  0.75000000  1
  Cs  Cs1  1  0.25054266  0.74945734  0.25000000  1
  Ho  Ho2  1  0.50000000  0.50000000  0.50000000  1
  Ho  Ho3  1  0.50000000  0.50000000  -0.00000000  1
  Cd  Cd4  1  0.96188181  0.03811819  0.25000000  1
  Cd  Cd5  1  0.03811819  0.96188181  0.75000000  1
  Te  Te6  1  0.87934127  0.12065873  0.04614713  1
  Te  Te7  1  0.12065873  0.87934127  0.95385287  1
  Te  Te8  1  0.43551297  0.56448703  0.75000000  1
  Te  Te9  1  0.56448703  0.43551297  0.25000000  1
  Te  Te10  1  0.87934127  0.12065873  0.45385287  1
  Te  Te11  1  0.12065873  0.87934127  0.54614713  1
