# generated using pymatgen
data_Rb2ReF6
_symmetry_space_group_name_H-M   'P 1'
_cell_length_a   6.02278263
_cell_length_b   6.02300027
_cell_length_c   4.70936199
_cell_angle_alpha   90.00070059
_cell_angle_beta   89.99962109
_cell_angle_gamma   120.00037858
_symmetry_Int_Tables_number   1
_chemical_formula_structural   Rb2ReF6
_chemical_formula_sum   'Rb2 Re1 F6'
_cell_volume   147.94528246
_cell_formula_units_Z   1
loop_
 _symmetry_equiv_pos_site_id
 _symmetry_equiv_pos_as_xyz
  1  'x, y, z'
loop_
 _atom_site_type_symbol
 _atom_site_label
 _atom_site_symmetry_multiplicity
 _atom_site_fract_x
 _atom_site_fract_y
 _atom_site_fract_z
 _atom_site_occupancy
  Rb  Rb0  1  0.33331828  0.66666654  0.29408994  1
  Rb  Rb1  1  0.66664924  0.33333177  0.70590151  1
  Re  Re2  1  -0.00002145  0.00001250  -0.00002111  1
  F  F3  1  0.84038696  0.15962540  0.22540728  1
  F  F4  1  0.15962917  0.84033785  0.77465919  1
  F  F5  1  0.84038719  0.68075153  0.22535148  1
  F  F6  1  0.15964370  0.31926541  0.77463007  1
  F  F7  1  0.31928277  0.15964111  0.22537291  1
  F  F8  1  0.68072413  0.84036689  0.77460772  1
