# generated using pymatgen
data_Sr2Ta2O7
_symmetry_space_group_name_H-M   'P 1'
_cell_length_a   13.82912483
_cell_length_b   13.82912483
_cell_length_c   5.71142510
_cell_angle_alpha   90.00000000
_cell_angle_beta   90.00000000
_cell_angle_gamma   163.53329154
_symmetry_Int_Tables_number   1
_chemical_formula_structural   Sr2Ta2O7
_chemical_formula_sum   'Sr4 Ta4 O14'
_cell_volume   309.61562535
_cell_formula_units_Z   2
loop_
 _symmetry_equiv_pos_site_id
 _symmetry_equiv_pos_as_xyz
  1  'x, y, z'
loop_
 _atom_site_type_symbol
 _atom_site_label
 _atom_site_symmetry_multiplicity
 _atom_site_fract_x
 _atom_site_fract_y
 _atom_site_fract_z
 _atom_site_occupancy
  Sr  Sr0  1  0.28630084  0.71369916  0.75000000  1
  Sr  Sr1  1  0.71369916  0.28630084  0.25000000  1
  Sr  Sr2  1  0.44684556  0.55315444  0.25000000  1
  Sr  Sr3  1  0.55315444  0.44684556  0.75000000  1
  Ta  Ta4  1  0.84052799  0.15947201  0.25000000  1
  Ta  Ta5  1  0.15947201  0.84052799  0.75000000  1
  Ta  Ta6  1  0.94508996  0.05491004  0.75000000  1
  Ta  Ta7  1  0.05491004  0.94508996  0.25000000  1
  O  O8  1  -0.00000000  0.00000000  -0.00000000  1
  O  O9  1  -0.00000000  0.00000000  0.50000000  1
  O  O10  1  0.54672489  0.45327511  0.25000000  1
  O  O11  1  0.45327511  0.54672489  0.75000000  1
  O  O12  1  0.90089705  0.09910295  0.00810920  1
  O  O13  1  0.09910295  0.90089705  0.99189080  1
  O  O14  1  0.09910295  0.90089705  0.50810920  1
  O  O15  1  0.90089705  0.09910295  0.49189080  1
  O  O16  1  0.79384552  0.20615448  0.48829209  1
  O  O17  1  0.20615448  0.79384552  0.51170791  1
  O  O18  1  0.20615448  0.79384552  0.98829209  1
  O  O19  1  0.79384552  0.20615448  0.01170791  1
  O  O20  1  0.35098329  0.64901671  0.25000000  1
  O  O21  1  0.64901671  0.35098329  0.75000000  1
