# generated using pymatgen
data_Ca5(SiN3)2
_symmetry_space_group_name_H-M   'P 1'
_cell_length_a   5.89287876
_cell_length_b   5.89287876
_cell_length_c   12.00733694
_cell_angle_alpha   85.09118680
_cell_angle_beta   85.09118680
_cell_angle_gamma   115.95974201
_symmetry_Int_Tables_number   1
_chemical_formula_structural   Ca5(SiN3)2
_chemical_formula_sum   'Ca10 Si4 N12'
_cell_volume   369.98138040
_cell_formula_units_Z   2
loop_
 _symmetry_equiv_pos_site_id
 _symmetry_equiv_pos_as_xyz
  1  'x, y, z'
loop_
 _atom_site_type_symbol
 _atom_site_label
 _atom_site_symmetry_multiplicity
 _atom_site_fract_x
 _atom_site_fract_y
 _atom_site_fract_z
 _atom_site_occupancy
  Ca  Ca0  1  0.72998333  0.38012911  0.73850706  1
  Ca  Ca1  1  0.38012911  0.72998333  0.73850706  1
  Ca  Ca2  1  0.27001667  0.61987089  0.26149294  1
  Ca  Ca3  1  0.61987089  0.27001667  0.26149294  1
  Ca  Ca4  1  0.08968008  0.08968008  0.79293357  1
  Ca  Ca5  1  0.91031992  0.91031992  0.20706643  1
  Ca  Ca6  1  0.81282144  0.18717856  0.50000000  1
  Ca  Ca7  1  0.18717856  0.81282144  0.50000000  1
  Ca  Ca8  1  0.75853366  0.24146634  -0.00000000  1
  Ca  Ca9  1  0.24146634  0.75853366  -0.00000000  1
  Si  Si10  1  0.35074917  0.35074917  0.57489320  1
  Si  Si11  1  0.64925083  0.64925083  0.42510680  1
  Si  Si12  1  0.67539069  0.67539069  0.93146243  1
  Si  Si13  1  0.32460931  0.32460931  0.06853757  1
  N  N14  1  0.09602457  0.38909633  0.63779302  1
  N  N15  1  0.38909633  0.09602457  0.63779302  1
  N  N16  1  0.90397543  0.61090367  0.36220698  1
  N  N17  1  0.61090367  0.90397543  0.36220698  1
  N  N18  1  0.94541213  0.65714965  0.87320332  1
  N  N19  1  0.65714965  0.94541213  0.87320332  1
  N  N20  1  0.05458787  0.34285035  0.12679668  1
  N  N21  1  0.34285035  0.05458787  0.12679668  1
  N  N22  1  0.39115384  0.39115384  0.91538753  1
  N  N23  1  0.60884616  0.60884616  0.08461247  1
  N  N24  1  0.35664762  0.35664762  0.42613739  1
  N  N25  1  0.64335238  0.64335238  0.57386261  1
