# generated using pymatgen
data_Na4Cd7(N5O6)6
_symmetry_space_group_name_H-M   'P 1'
_cell_length_a   12.14450537
_cell_length_b   12.14450537
_cell_length_c   12.14450537
_cell_angle_alpha   70.21058171
_cell_angle_beta   70.21058171
_cell_angle_gamma   109.78941829
_symmetry_Int_Tables_number   1
_chemical_formula_structural   Na4Cd7(N5O6)6
_chemical_formula_sum   'Na4 Cd7 N30 O36'
_cell_volume   1362.36562312
_cell_formula_units_Z   1
loop_
 _symmetry_equiv_pos_site_id
 _symmetry_equiv_pos_as_xyz
  1  'x, y, z'
loop_
 _atom_site_type_symbol
 _atom_site_label
 _atom_site_symmetry_multiplicity
 _atom_site_fract_x
 _atom_site_fract_y
 _atom_site_fract_z
 _atom_site_occupancy
  Na  Na0  1  0.50617623  0.00161742  -0.00161742  1
  Na  Na1  1  0.00161742  0.00161742  0.49382377  1
  Na  Na2  1  0.00161742  0.50617623  -0.00161742  1
  Na  Na3  1  0.52203288  0.52203288  0.47796712  1
  Cd  Cd4  1  0.75365037  0.96984472  0.03015528  1
  Cd  Cd5  1  0.96984472  0.96984472  0.24634963  1
  Cd  Cd6  1  0.96984472  0.75365037  0.03015528  1
  Cd  Cd7  1  0.23482267  0.23482267  0.76517733  1
  Cd  Cd8  1  0.23633215  0.99789777  0.00210223  1
  Cd  Cd9  1  0.99789777  0.23633215  0.00210223  1
  Cd  Cd10  1  0.99789777  0.99789777  0.76366785  1
  N  N11  1  0.99906317  0.26237501  0.73762499  1
  N  N12  1  0.26237501  0.26237501  0.00093683  1
  N  N13  1  0.26237501  0.99906317  0.73762499  1
  N  N14  1  0.73394601  0.73394601  0.99607981  1
  N  N15  1  0.73394601  0.00392019  0.26605399  1
  N  N16  1  0.00392019  0.73394601  0.26605399  1
  N  N17  1  0.26488359  0.00148352  0.26161553  1
  N  N18  1  0.00148352  0.73838447  0.73511641  1
  N  N19  1  0.73838447  0.26488359  0.99851648  1
  N  N20  1  0.26488359  0.73838447  0.99851648  1
  N  N21  1  0.00148352  0.26488359  0.26161553  1
  N  N22  1  0.73838447  0.00148352  0.73511641  1
  N  N23  1  0.73373867  0.46639839  0.26626133  1
  N  N24  1  0.26600556  0.26600556  0.46890259  1
  N  N25  1  0.73373867  0.73373867  0.53360161  1
  N  N26  1  0.26600556  0.53109741  0.73399444  1
  N  N27  1  0.53109741  0.26600556  0.73399444  1
  N  N28  1  0.46639839  0.73373867  0.26626133  1
  N  N29  1  0.99682604  0.34335826  0.65664174  1
  N  N30  1  0.34335826  0.34335826  0.00317396  1
  N  N31  1  0.34335826  0.99682604  0.65664174  1
  N  N32  1  0.64630040  0.64630040  0.00825585  1
  N  N33  1  0.64630040  0.99174415  0.35369960  1
  N  N34  1  0.99174415  0.64630040  0.35369960  1
  N  N35  1  0.00123158  0.17387850  0.82612150  1
  N  N36  1  0.17387850  0.17387850  0.99876842  1
  N  N37  1  0.17387850  0.00123158  0.82612150  1
  N  N38  1  0.82867823  0.82867823  0.98522256  1
  N  N39  1  0.82867823  0.01477744  0.17132177  1
  N  N40  1  0.01477744  0.82867823  0.17132177  1
  O  O41  1  0.15207352  0.00173061  0.30136257  1
  O  O42  1  0.00173061  0.69863743  0.84792648  1
  O  O43  1  0.69863743  0.15207352  0.99826939  1
  O  O44  1  0.15207352  0.69863743  0.99826939  1
  O  O45  1  0.00173061  0.15207352  0.30136257  1
  O  O46  1  0.69863743  0.00173061  0.84792648  1
  O  O47  1  0.84989612  0.52783457  0.15010388  1
  O  O48  1  0.31131758  0.31131758  0.53625042  1
  O  O49  1  0.84989612  0.84989612  0.47216543  1
  O  O50  1  0.31131758  0.46374958  0.68868242  1
  O  O51  1  0.46374958  0.31131758  0.68868242  1
  O  O52  1  0.52783457  0.84989612  0.15010388  1
  O  O53  1  0.32207152  0.00026003  0.32737451  1
  O  O54  1  0.00026003  0.67262549  0.67792848  1
  O  O55  1  0.67262549  0.32207152  0.99973997  1
  O  O56  1  0.32207152  0.67262549  0.99973997  1
  O  O57  1  0.00026003  0.32207152  0.32737451  1
  O  O58  1  0.67262549  0.00026003  0.67792848  1
  O  O59  1  0.66794131  0.34151044  0.33205869  1
  O  O60  1  0.32885346  0.32885346  0.34475298  1
  O  O61  1  0.66794131  0.66794131  0.65848956  1
  O  O62  1  0.32885346  0.65524702  0.67114654  1
  O  O63  1  0.65524702  0.32885346  0.67114654  1
  O  O64  1  0.34151044  0.66794131  0.33205869  1
  O  O65  1  0.31752506  0.00330730  0.14787006  1
  O  O66  1  0.00330730  0.85212994  0.68247494  1
  O  O67  1  0.85212994  0.31752506  0.99669270  1
  O  O68  1  0.31752506  0.85212994  0.99669270  1
  O  O69  1  0.00330730  0.31752506  0.14787006  1
  O  O70  1  0.85212994  0.00330730  0.68247494  1
  O  O71  1  0.70032215  0.54277057  0.29967785  1
  O  O72  1  0.15153530  0.15153530  0.53682275  1
  O  O73  1  0.70032215  0.70032215  0.45722943  1
  O  O74  1  0.15153530  0.46317725  0.84846470  1
  O  O75  1  0.46317725  0.15153530  0.84846470  1
  O  O76  1  0.54277057  0.70032215  0.29967785  1
