# generated using pymatgen
data_Rb3GaO3
_symmetry_space_group_name_H-M   'P 1'
_cell_length_a   6.80544866
_cell_length_b   6.82591110
_cell_length_c   6.82591111
_cell_angle_alpha   114.21781992
_cell_angle_beta   97.36356916
_cell_angle_gamma   97.36357621
_symmetry_Int_Tables_number   1
_chemical_formula_structural   Rb3GaO3
_chemical_formula_sum   'Rb6 Ga2 O6'
_cell_volume   281.01136966
_cell_formula_units_Z   2
loop_
 _symmetry_equiv_pos_site_id
 _symmetry_equiv_pos_as_xyz
  1  'x, y, z'
loop_
 _atom_site_type_symbol
 _atom_site_label
 _atom_site_symmetry_multiplicity
 _atom_site_fract_x
 _atom_site_fract_y
 _atom_site_fract_z
 _atom_site_occupancy
  Rb  Rb0  1  0.65370451  0.37124987  0.37124987  1
  Rb  Rb1  1  0.34629549  0.62875013  0.62875013  1
  Rb  Rb2  1  0.50000000  0.19392709  0.80607291  1
  Rb  Rb3  1  0.50000000  0.80607291  0.19392709  1
  Rb  Rb4  1  0.00000000  0.26198669  0.73801331  1
  Rb  Rb5  1  -0.00000000  0.73801331  0.26198669  1
  Ga  Ga6  1  0.85139054  0.83513793  0.83513793  1
  Ga  Ga7  1  0.14860946  0.16486207  0.16486207  1
  O  O8  1  0.14403803  0.90303190  0.90303190  1
  O  O9  1  0.85596197  0.09696810  0.09696810  1
  O  O10  1  0.73385375  0.84792727  0.58322635  1
  O  O11  1  0.26614625  0.41677365  0.15207273  1
  O  O12  1  0.26614625  0.15207273  0.41677365  1
  O  O13  1  0.73385375  0.58322635  0.84792727  1
