# generated using pymatgen
data_MgH20Br4(NO)4
_symmetry_space_group_name_H-M   'P 1'
_cell_length_a   7.58578238
_cell_length_b   7.54069043
_cell_length_c   8.87394377
_cell_angle_alpha   87.13301629
_cell_angle_beta   116.11196345
_cell_angle_gamma   97.04774096
_symmetry_Int_Tables_number   1
_chemical_formula_structural   MgH20Br4(NO)4
_chemical_formula_sum   'Mg1 H20 Br4 N4 O4'
_cell_volume   452.35061435
_cell_formula_units_Z   1
loop_
 _symmetry_equiv_pos_site_id
 _symmetry_equiv_pos_as_xyz
  1  'x, y, z'
loop_
 _atom_site_type_symbol
 _atom_site_label
 _atom_site_symmetry_multiplicity
 _atom_site_fract_x
 _atom_site_fract_y
 _atom_site_fract_z
 _atom_site_occupancy
  Mg  Mg0  1  0.90528890  0.15119398  0.93507903  1
  H  H1  1  0.25900708  0.09125247  0.58578520  1
  H  H2  1  0.73391220  0.35464293  0.06942368  1
  H  H3  1  0.70431458  0.90895878  0.35191193  1
  H  H4  1  0.31807687  0.59542635  0.91698801  1
  H  H5  1  0.21177097  0.89334865  0.49090059  1
  H  H6  1  0.66321251  0.62448899  0.99684614  1
  H  H7  1  0.75639188  0.11049031  0.44504188  1
  H  H8  1  0.33698987  0.37559700  0.97637906  1
  H  H9  1  0.18905582  0.90765536  0.66655075  1
  H  H10  1  0.61224646  0.55924949  0.15767565  1
  H  H11  1  0.96085403  0.00328885  0.45665949  1
  H  H12  1  0.38516646  0.44591217  0.81124849  1
  H  H13  1  0.24120438  0.87138158  0.97160188  1
  H  H14  1  0.67319384  0.58530404  0.44283109  1
  H  H15  1  0.77911506  0.09390614  0.26749133  1
  H  H16  1  0.30402380  0.43480533  0.53858131  1
  H  H17  1  0.05345021  0.74490235  0.86715851  1
  H  H18  1  0.45812418  0.63257505  0.33102308  1
  H  H19  1  0.96012692  0.34374682  0.18058041  1
  H  H20  1  0.51487620  0.37074247  0.64416079  1
  Br  Br21  1  0.14728635  0.59133167  0.31091536  1
  Br  Br22  1  0.72110788  0.85645721  0.81982081  1
  Br  Br23  1  0.84734585  0.35595544  0.68601022  1
  Br  Br24  1  0.26958423  0.13104975  0.11521135  1
  N  N25  1  0.39688046  0.48435814  0.92971893  1
  N  N26  1  0.79424672  0.02915516  0.37690684  1
  N  N27  1  0.60443605  0.51765795  0.04452332  1
  N  N28  1  0.16844749  0.97247769  0.55638531  1
  O  O29  1  0.19197745  0.77403493  0.88741400  1
  O  O30  1  0.59553872  0.65049447  0.34132321  1
  O  O31  1  0.84038335  0.26580195  0.10158393  1
  O  O32  1  0.38236323  0.36494950  0.64033041  1
