# generated using pymatgen
data_Sr2As2O7
_symmetry_space_group_name_H-M   'P 1'
_cell_length_a   7.13279148
_cell_length_b   7.13279148
_cell_length_c   25.73571470
_cell_angle_alpha   90.00000000
_cell_angle_beta   90.00000000
_cell_angle_gamma   90.00000000
_symmetry_Int_Tables_number   1
_chemical_formula_structural   Sr2As2O7
_chemical_formula_sum   'Sr16 As16 O56'
_cell_volume   1309.34860403
_cell_formula_units_Z   8
loop_
 _symmetry_equiv_pos_site_id
 _symmetry_equiv_pos_as_xyz
  1  'x, y, z'
loop_
 _atom_site_type_symbol
 _atom_site_label
 _atom_site_symmetry_multiplicity
 _atom_site_fract_x
 _atom_site_fract_y
 _atom_site_fract_z
 _atom_site_occupancy
  Sr  Sr0  1  0.22762336  0.73511499  0.67607003  1
  Sr  Sr1  1  0.77237664  0.26488501  0.17607003  1
  Sr  Sr2  1  0.73511499  0.77237664  0.92607003  1
  Sr  Sr3  1  0.26488501  0.22762336  0.42607003  1
  Sr  Sr4  1  0.34808841  0.97275135  0.82343372  1
  Sr  Sr5  1  0.65191159  0.02724865  0.32343372  1
  Sr  Sr6  1  0.97275135  0.65191159  0.07343372  1
  Sr  Sr7  1  0.02724865  0.34808841  0.57343372  1
  Sr  Sr8  1  0.39848026  0.84476121  0.17842605  1
  Sr  Sr9  1  0.60151974  0.15523879  0.67842605  1
  Sr  Sr10  1  0.84476121  0.60151974  0.42842605  1
  Sr  Sr11  1  0.15523879  0.39848026  0.92842605  1
  Sr  Sr12  1  0.25716535  0.62748186  0.31507703  1
  Sr  Sr13  1  0.74283465  0.37251814  0.81507703  1
  Sr  Sr14  1  0.62748186  0.74283465  0.56507703  1
  Sr  Sr15  1  0.37251814  0.25716535  0.06507703  1
  As  As16  1  0.23449135  0.85515188  0.94679425  1
  As  As17  1  0.76550865  0.14484812  0.44679425  1
  As  As18  1  0.85515188  0.76550865  0.19679425  1
  As  As19  1  0.14484812  0.23449135  0.69679425  1
  As  As20  1  0.48446726  0.77945230  0.04873809  1
  As  As21  1  0.51553274  0.22054770  0.54873809  1
  As  As22  1  0.77945230  0.51553274  0.29873809  1
  As  As23  1  0.22054770  0.48446726  0.79873809  1
  As  As24  1  0.10543993  0.81275225  0.54135143  1
  As  As25  1  0.89456007  0.18724775  0.04135143  1
  As  As26  1  0.81275225  0.89456007  0.79135143  1
  As  As27  1  0.18724775  0.10543993  0.29135143  1
  As  As28  1  0.35510699  0.75200132  0.44010107  1
  As  As29  1  0.64489301  0.24799868  0.94010107  1
  As  As30  1  0.75200132  0.64489301  0.69010107  1
  As  As31  1  0.24799868  0.35510699  0.19010107  1
  O  O32  1  0.32885793  0.54127767  0.22217592  1
  O  O33  1  0.67114207  0.45872233  0.72217592  1
  O  O34  1  0.54127767  0.67114207  0.47217592  1
  O  O35  1  0.45872233  0.32885793  0.97217592  1
  O  O36  1  0.39061403  0.90808143  0.39211955  1
  O  O37  1  0.60938597  0.09191857  0.89211955  1
  O  O38  1  0.90808143  0.60938597  0.64211955  1
  O  O39  1  0.09191857  0.39061403  0.14211955  1
  O  O40  1  0.21501337  0.58095904  0.41688918  1
  O  O41  1  0.78498663  0.41904096  0.91688918  1
  O  O42  1  0.58095904  0.78498663  0.66688918  1
  O  O43  1  0.41904096  0.21501337  0.16688918  1
  O  O44  1  0.22315196  0.89394766  0.48392232  1
  O  O45  1  0.77684804  0.10605234  0.98392232  1
  O  O46  1  0.89394766  0.77684804  0.73392232  1
  O  O47  1  0.10605234  0.22315196  0.23392232  1
  O  O48  1  0.26495246  0.69831944  0.57763335  1
  O  O49  1  0.73504754  0.30168056  0.07763335  1
  O  O50  1  0.69831944  0.73504754  0.82763335  1
  O  O51  1  0.30168056  0.26495246  0.32763335  1
  O  O52  1  0.36952333  0.92530028  0.00143364  1
  O  O53  1  0.63047667  0.07469972  0.50143364  1
  O  O54  1  0.92530028  0.63047667  0.25143364  1
  O  O55  1  0.07469972  0.36952333  0.75143364  1
  O  O56  1  0.37714428  0.72347267  0.90913541  1
  O  O57  1  0.62285572  0.27652733  0.40913541  1
  O  O58  1  0.72347267  0.62285572  0.15913541  1
  O  O59  1  0.27652733  0.37714428  0.65913541  1
  O  O60  1  0.34491786  0.94399805  0.27089293  1
  O  O61  1  0.65508214  0.05600195  0.77089293  1
  O  O62  1  0.94399805  0.65508214  0.52089293  1
  O  O63  1  0.05600195  0.34491786  0.02089293  1
  O  O64  1  0.30571056  0.67540550  0.76977018  1
  O  O65  1  0.69428944  0.32459450  0.26977018  1
  O  O66  1  0.67540550  0.69428944  0.01977018  1
  O  O67  1  0.32459450  0.30571056  0.51977018  1
  O  O68  1  0.05242501  0.52326485  0.84292674  1
  O  O69  1  0.94757499  0.47673515  0.34292674  1
  O  O70  1  0.52326485  0.94757499  0.09292674  1
  O  O71  1  0.47673515  0.05242501  0.59292674  1
  O  O72  1  0.99857142  -0.00279100  0.56696929  1
  O  O73  1  0.00142858  0.00279100  0.06696929  1
  O  O74  1  -0.00279100  0.00142858  0.81696929  1
  O  O75  1  0.00279100  0.99857142  0.31696929  1
  O  O76  1  0.33404993  0.61879859  0.07212371  1
  O  O77  1  0.66595007  0.38120141  0.57212371  1
  O  O78  1  0.61879859  0.66595007  0.32212371  1
  O  O79  1  0.38120141  0.33404993  0.82212371  1
  O  O80  1  0.05635028  0.72054099  0.96841963  1
  O  O81  1  0.94364972  0.27945901  0.46841963  1
  O  O82  1  0.72054099  0.94364972  0.21841963  1
  O  O83  1  0.27945901  0.05635028  0.71841963  1
  O  O84  1  0.05210983  0.82974697  0.16696846  1
  O  O85  1  0.94789017  0.17025303  0.66696846  1
  O  O86  1  0.82974697  0.94789017  0.41696846  1
  O  O87  1  0.17025303  0.05210983  0.91696846  1
