# generated using pymatgen
data_MnPS3
_symmetry_space_group_name_H-M   'P 1'
_cell_length_a   6.08366836
_cell_length_b   8.07864731
_cell_length_c   10.05708059
_cell_angle_alpha   69.59153544
_cell_angle_beta   78.43518469
_cell_angle_gamma   75.56881484
_symmetry_Int_Tables_number   1
_chemical_formula_structural   MnPS3
_chemical_formula_sum   'Mn4 P4 S12'
_cell_volume   445.11476705
_cell_formula_units_Z   4
loop_
 _symmetry_equiv_pos_site_id
 _symmetry_equiv_pos_as_xyz
  1  'x, y, z'
loop_
 _atom_site_type_symbol
 _atom_site_label
 _atom_site_symmetry_multiplicity
 _atom_site_fract_x
 _atom_site_fract_y
 _atom_site_fract_z
 _atom_site_occupancy
  Mn  Mn0  1  0.49900700  0.84063800  0.15937300  1
  Mn  Mn1  1  0.00101900  0.65933800  0.34065500  1
  Mn  Mn2  1  0.99921300  0.34066100  0.65922700  1
  Mn  Mn3  1  0.50069200  0.15940600  0.84073800  1
  P  P4  1  0.05444600  0.89499700  0.94692500  1
  P  P5  1  0.55447900  0.39498000  0.44694000  1
  P  P6  1  0.94553400  0.10501100  0.05306000  1
  P  P7  1  0.44556400  0.60499400  0.55307600  1
  S  S8  1  0.73976800  0.51187200  0.25922200  1
  S  S9  1  0.23972900  0.01188900  0.75922600  1
  S  S10  1  0.26026600  0.48811200  0.74077400  1
  S  S11  1  0.76024800  0.98812100  0.24077800  1
  S  S12  1  0.75476000  0.84422500  0.92123600  1
  S  S13  1  0.25481300  0.34424900  0.42116800  1
  S  S14  1  0.23993900  0.68386100  0.08659700  1
  S  S15  1  0.73989600  0.18385300  0.58663100  1
  S  S16  1  0.76012000  0.31613800  0.91336600  1
  S  S17  1  0.26007100  0.81613400  0.41340900  1
  S  S18  1  0.24519800  0.15574000  0.07883500  1
  S  S19  1  0.74524000  0.65578200  0.57876400  1
