# generated using pymatgen
data_Mg3V2O8
_symmetry_space_group_name_H-M   'P 1'
_cell_length_a   6.47659315
_cell_length_b   6.47659315
_cell_length_c   8.29334275
_cell_angle_alpha   90.00000000
_cell_angle_beta   90.00000000
_cell_angle_gamma   124.45156962
_symmetry_Int_Tables_number   1
_chemical_formula_structural   Mg3V2O8
_chemical_formula_sum   'Mg6 V4 O16'
_cell_volume   286.85909976
_cell_formula_units_Z   2
loop_
 _symmetry_equiv_pos_site_id
 _symmetry_equiv_pos_as_xyz
  1  'x, y, z'
loop_
 _atom_site_type_symbol
 _atom_site_label
 _atom_site_symmetry_multiplicity
 _atom_site_fract_x
 _atom_site_fract_y
 _atom_site_fract_z
 _atom_site_occupancy
  Mg  Mg0  1  0.50000000  0.50000000  -0.00000000  1
  Mg  Mg1  1  0.00000000  0.00000000  0.50000000  1
  Mg  Mg2  1  0.11384361  0.38615639  0.75000000  1
  Mg  Mg3  1  0.38615639  0.11384361  0.25000000  1
  Mg  Mg4  1  0.61384361  0.88615639  0.75000000  1
  Mg  Mg5  1  0.88615639  0.61384361  0.25000000  1
  V  V6  1  0.12027091  0.87972909  0.88022022  1
  V  V7  1  0.87972909  0.12027091  0.11977978  1
  V  V8  1  0.37972909  0.62027091  0.38022022  1
  V  V9  1  0.62027091  0.37972909  0.61977978  1
  O  O10  1  0.84769141  0.61228354  0.50046957  1
  O  O11  1  0.61228354  0.84769141  0.49953043  1
  O  O12  1  0.65230859  0.88771646  0.00046957  1
  O  O13  1  0.88771646  0.65230859  0.99953043  1
  O  O14  1  0.15230859  0.38771646  0.49953043  1
  O  O15  1  0.38771646  0.15230859  0.50046957  1
  O  O16  1  0.34769141  0.11228354  0.99953043  1
  O  O17  1  0.11228354  0.34769141  0.00046957  1
  O  O18  1  0.99737016  0.00262984  0.74595645  1
  O  O19  1  0.00262984  0.99737016  0.25404355  1
  O  O20  1  0.24841934  0.75158066  0.77291155  1
  O  O21  1  0.75158066  0.24841934  0.22708845  1
  O  O22  1  0.25158066  0.74841934  0.27291155  1
  O  O23  1  0.74841934  0.25158066  0.72708845  1
  O  O24  1  0.49737016  0.50262984  0.75404355  1
  O  O25  1  0.50262984  0.49737016  0.24595645  1
