# generated using pymatgen
data_RbIn3O5
_symmetry_space_group_name_H-M   'P 1'
_cell_length_a   3.31996821
_cell_length_b   9.85814417
_cell_length_c   16.75099955
_cell_angle_alpha   90.00000000
_cell_angle_beta   90.00000000
_cell_angle_gamma   90.00000000
_symmetry_Int_Tables_number   1
_chemical_formula_structural   RbIn3O5
_chemical_formula_sum   'Rb4 In12 O20'
_cell_volume   548.23886200
_cell_formula_units_Z   4
loop_
 _symmetry_equiv_pos_site_id
 _symmetry_equiv_pos_as_xyz
  1  'x, y, z'
loop_
 _atom_site_type_symbol
 _atom_site_label
 _atom_site_symmetry_multiplicity
 _atom_site_fract_x
 _atom_site_fract_y
 _atom_site_fract_z
 _atom_site_occupancy
  Rb  Rb0  1  0.75000000  0.46975979  0.37194568  1
  Rb  Rb1  1  0.25000000  0.53024021  0.62805432  1
  Rb  Rb2  1  0.25000000  0.03024021  0.87194568  1
  Rb  Rb3  1  0.75000000  -0.03024021  0.12805432  1
  In  In4  1  0.75000000  0.81781500  0.31596377  1
  In  In5  1  0.25000000  0.18218500  0.68403623  1
  In  In6  1  0.25000000  0.68218500  0.81596377  1
  In  In7  1  0.75000000  0.31781500  0.18403623  1
  In  In8  1  0.75000000  0.65189934  0.98603706  1
  In  In9  1  0.25000000  0.34810066  0.01396294  1
  In  In10  1  0.25000000  0.84810066  0.48603706  1
  In  In11  1  0.75000000  0.15189934  0.51396294  1
  In  In12  1  0.75000000  0.88648825  0.65828896  1
  In  In13  1  0.25000000  0.11351175  0.34171104  1
  In  In14  1  0.25000000  0.61351175  0.15828896  1
  In  In15  1  0.75000000  0.38648825  0.84171104  1
  O  O16  1  0.75000000  0.97933966  0.42418230  1
  O  O17  1  0.25000000  0.02066034  0.57581770  1
  O  O18  1  0.25000000  0.52066034  0.92418230  1
  O  O19  1  0.75000000  0.47933966  0.07581770  1
  O  O20  1  0.75000000  0.76728433  0.55155210  1
  O  O21  1  0.25000000  0.23271567  0.44844790  1
  O  O22  1  0.25000000  0.73271567  0.05155210  1
  O  O23  1  0.75000000  0.26728433  0.94844790  1
  O  O24  1  0.75000000  0.70559179  0.20966938  1
  O  O25  1  0.25000000  0.29440821  0.79033062  1
  O  O26  1  0.25000000  0.79440821  0.70966938  1
  O  O27  1  0.75000000  0.20559179  0.29033062  1
  O  O28  1  0.75000000  0.77634083  0.88315542  1
  O  O29  1  0.25000000  0.22365917  0.11684458  1
  O  O30  1  0.25000000  0.72365917  0.38315542  1
  O  O31  1  0.75000000  0.27634083  0.61684458  1
  O  O32  1  0.75000000  0.56120033  0.77201316  1
  O  O33  1  0.25000000  0.43879967  0.22798684  1
  O  O34  1  0.25000000  0.93879967  0.27201316  1
  O  O35  1  0.75000000  0.06120033  0.72798684  1
