# generated using pymatgen
data_Mg14GaBO16
_symmetry_space_group_name_H-M   'P 1'
_cell_length_a   8.45631272
_cell_length_b   8.46279832
_cell_length_c   4.20625339
_cell_angle_alpha   90.00000000
_cell_angle_beta   90.00000000
_cell_angle_gamma   90.00000000
_symmetry_Int_Tables_number   1
_chemical_formula_structural   Mg14GaBO16
_chemical_formula_sum   'Mg14 Ga1 B1 O16'
_cell_volume   301.01660817
_cell_formula_units_Z   1
loop_
 _symmetry_equiv_pos_site_id
 _symmetry_equiv_pos_as_xyz
  1  'x, y, z'
loop_
 _atom_site_type_symbol
 _atom_site_label
 _atom_site_symmetry_multiplicity
 _atom_site_fract_x
 _atom_site_fract_y
 _atom_site_fract_z
 _atom_site_occupancy
  Mg  Mg0  1  0.50000000  0.00000000  -0.00000000  1
  Mg  Mg1  1  0.50000000  0.50000000  -0.00000000  1
  Mg  Mg2  1  -0.00000000  0.24303818  0.50000000  1
  Mg  Mg3  1  -0.00000000  0.75696182  0.50000000  1
  Mg  Mg4  1  0.50000000  0.24687792  0.50000000  1
  Mg  Mg5  1  0.50000000  0.75312208  0.50000000  1
  Mg  Mg6  1  0.24651161  0.00000000  0.50000000  1
  Mg  Mg7  1  0.25257723  0.50000000  0.50000000  1
  Mg  Mg8  1  0.75348839  0.00000000  0.50000000  1
  Mg  Mg9  1  0.74742277  0.50000000  0.50000000  1
  Mg  Mg10  1  0.24931031  0.24473791  0.00000000  1
  Mg  Mg11  1  0.24931031  0.75526209  0.00000000  1
  Mg  Mg12  1  0.75068969  0.24473791  -0.00000000  1
  Mg  Mg13  1  0.75068969  0.75526209  -0.00000000  1
  Ga  Ga14  1  -0.00000000  0.50000000  -0.00000000  1
  B  B15  1  -0.00000000  0.00000000  -0.00000000  1
  O  O16  1  0.26483708  0.00000000  0.00000000  1
  O  O17  1  0.24534623  0.50000000  -0.00000000  1
  O  O18  1  0.73516292  0.00000000  -0.00000000  1
  O  O19  1  0.75465377  0.50000000  0.00000000  1
  O  O20  1  0.24797323  0.25073105  0.50000000  1
  O  O21  1  0.24797323  0.74926895  0.50000000  1
  O  O22  1  0.75202677  0.25073105  0.50000000  1
  O  O23  1  0.75202677  0.74926895  0.50000000  1
  O  O24  1  -0.00000000  0.00000000  0.50000000  1
  O  O25  1  -0.00000000  0.50000000  0.50000000  1
  O  O26  1  0.50000000  0.00000000  0.50000000  1
  O  O27  1  0.50000000  0.50000000  0.50000000  1
  O  O28  1  -0.00000000  0.27591196  0.00000000  1
  O  O29  1  -0.00000000  0.72408804  -0.00000000  1
  O  O30  1  0.50000000  0.25486324  -0.00000000  1
  O  O31  1  0.50000000  0.74513676  0.00000000  1
