# generated using pymatgen
data_K2GdCl5
_symmetry_space_group_name_H-M   'P 1'
_cell_length_a   7.95393560
_cell_length_b   8.61420369
_cell_length_c   12.69467006
_cell_angle_alpha   90.00000000
_cell_angle_beta   90.00000000
_cell_angle_gamma   90.00000000
_symmetry_Int_Tables_number   1
_chemical_formula_structural   K2GdCl5
_chemical_formula_sum   'K8 Gd4 Cl20'
_cell_volume   869.79844118
_cell_formula_units_Z   4
loop_
 _symmetry_equiv_pos_site_id
 _symmetry_equiv_pos_as_xyz
  1  'x, y, z'
loop_
 _atom_site_type_symbol
 _atom_site_label
 _atom_site_symmetry_multiplicity
 _atom_site_fract_x
 _atom_site_fract_y
 _atom_site_fract_z
 _atom_site_occupancy
  K  K0  1  0.94744296  0.00411752  0.82807960  1
  K  K1  1  0.05255704  0.99588248  0.17192040  1
  K  K2  1  0.44744296  0.99588248  0.67192040  1
  K  K3  1  0.05255704  0.50411752  0.17192040  1
  K  K4  1  0.55255704  0.00411752  0.32807960  1
  K  K5  1  0.94744296  0.49588248  0.82807960  1
  K  K6  1  0.55255704  0.49588248  0.32807960  1
  K  K7  1  0.44744296  0.50411752  0.67192040  1
  Gd  Gd8  1  0.92480185  0.75000000  0.50504882  1
  Gd  Gd9  1  0.07519815  0.25000000  0.49495118  1
  Gd  Gd10  1  0.42480185  0.25000000  0.99495118  1
  Gd  Gd11  1  0.57519815  0.75000000  0.00504882  1
  Cl  Cl12  1  0.12464100  0.75000000  0.67760734  1
  Cl  Cl13  1  0.87535900  0.25000000  0.32239266  1
  Cl  Cl14  1  0.62464100  0.25000000  0.82239266  1
  Cl  Cl15  1  0.37535900  0.75000000  0.17760734  1
  Cl  Cl16  1  0.83620194  0.04314786  0.57582894  1
  Cl  Cl17  1  0.16379806  0.95685214  0.42417106  1
  Cl  Cl18  1  0.33620194  0.95685214  0.92417106  1
  Cl  Cl19  1  0.16379806  0.54314786  0.42417106  1
  Cl  Cl20  1  0.66379806  0.04314786  0.07582894  1
  Cl  Cl21  1  0.83620194  0.45685214  0.57582894  1
  Cl  Cl22  1  0.66379806  0.45685214  0.07582894  1
  Cl  Cl23  1  0.33620194  0.54314786  0.92417106  1
  Cl  Cl24  1  0.58067426  0.75000000  0.50961597  1
  Cl  Cl25  1  0.41932574  0.25000000  0.49038403  1
  Cl  Cl26  1  0.08067426  0.25000000  0.99038403  1
  Cl  Cl27  1  0.91932574  0.75000000  0.00961597  1
  Cl  Cl28  1  0.66136921  0.75000000  0.79782940  1
  Cl  Cl29  1  0.33863079  0.25000000  0.20217060  1
  Cl  Cl30  1  0.16136921  0.25000000  0.70217060  1
  Cl  Cl31  1  0.83863079  0.75000000  0.29782940  1
