# generated using pymatgen
data_Sr2SnO4
_symmetry_space_group_name_H-M   'P 1'
_cell_length_a   5.73507297
_cell_length_b   5.80299040
_cell_length_c   12.55271303
_cell_angle_alpha   90.00000000
_cell_angle_beta   90.00000000
_cell_angle_gamma   90.00000000
_symmetry_Int_Tables_number   1
_chemical_formula_structural   Sr2SnO4
_chemical_formula_sum   'Sr8 Sn4 O16'
_cell_volume   417.76148722
_cell_formula_units_Z   4
loop_
 _symmetry_equiv_pos_site_id
 _symmetry_equiv_pos_as_xyz
  1  'x, y, z'
loop_
 _atom_site_type_symbol
 _atom_site_label
 _atom_site_symmetry_multiplicity
 _atom_site_fract_x
 _atom_site_fract_y
 _atom_site_fract_z
 _atom_site_occupancy
  Sr  Sr0  1  0.00661684  0.01249484  0.35320471  1
  Sr  Sr1  1  0.49338316  0.48750516  0.35320471  1
  Sr  Sr2  1  0.99338316  0.51249484  0.14679529  1
  Sr  Sr3  1  0.50661684  0.98750516  0.14679529  1
  Sr  Sr4  1  0.99338316  0.98750516  0.64679529  1
  Sr  Sr5  1  0.50661684  0.51249484  0.64679529  1
  Sr  Sr6  1  0.00661684  0.48750516  0.85320471  1
  Sr  Sr7  1  0.49338316  0.01249484  0.85320471  1
  Sn  Sn8  1  0.00000000  -0.00000000  -0.00000000  1
  Sn  Sn9  1  0.50000000  0.50000000  -0.00000000  1
  Sn  Sn10  1  0.00000000  0.50000000  0.50000000  1
  Sn  Sn11  1  0.50000000  -0.00000000  0.50000000  1
  O  O12  1  0.98243660  0.95631410  0.16292178  1
  O  O13  1  0.51756340  0.54368590  0.16292178  1
  O  O14  1  0.01756340  0.45631410  0.33707822  1
  O  O15  1  0.48243660  0.04368590  0.33707822  1
  O  O16  1  0.01756340  0.04368590  0.83707822  1
  O  O17  1  0.48243660  0.45631410  0.83707822  1
  O  O18  1  0.98243660  0.54368590  0.66292178  1
  O  O19  1  0.51756340  0.95631410  0.66292178  1
  O  O20  1  0.25000000  0.25000000  0.02097709  1
  O  O21  1  0.75000000  0.75000000  0.47902291  1
  O  O22  1  0.75000000  0.75000000  0.97902291  1
  O  O23  1  0.25000000  0.25000000  0.52097709  1
  O  O24  1  0.75000000  0.25000000  0.00975340  1
  O  O25  1  0.25000000  0.75000000  0.49024660  1
  O  O26  1  0.25000000  0.75000000  0.99024660  1
  O  O27  1  0.75000000  0.25000000  0.50975340  1
