# generated using pymatgen
data_SmAsO4
_symmetry_space_group_name_H-M   'P 1'
_cell_length_a   6.02186955
_cell_length_b   6.02186987
_cell_length_c   6.02186990
_cell_angle_alpha   106.43134616
_cell_angle_beta   106.43134011
_cell_angle_gamma   115.73869679
_symmetry_Int_Tables_number   1
_chemical_formula_structural   SmAsO4
_chemical_formula_sum   'Sm2 As2 O8'
_cell_volume   166.57691335
_cell_formula_units_Z   2
loop_
 _symmetry_equiv_pos_site_id
 _symmetry_equiv_pos_as_xyz
  1  'x, y, z'
loop_
 _atom_site_type_symbol
 _atom_site_label
 _atom_site_symmetry_multiplicity
 _atom_site_fract_x
 _atom_site_fract_y
 _atom_site_fract_z
 _atom_site_occupancy
  Sm  Sm0  1  0.12500000  0.87500000  0.25000000  1
  Sm  Sm1  1  0.87500000  0.12500000  0.75000000  1
  As  As2  1  0.37500000  0.62500000  0.75000000  1
  As  As3  1  0.62500000  0.37500000  0.25000000  1
  O  O4  1  0.79601276  0.72559023  0.42957747  1
  O  O5  1  0.36643529  0.79601276  0.57042253  1
  O  O6  1  0.72559023  0.79601276  0.92957747  1
  O  O7  1  0.79601276  0.36643529  0.07042253  1
  O  O8  1  0.63356471  0.20398724  0.42957747  1
  O  O9  1  0.20398724  0.27440977  0.57042253  1
  O  O10  1  0.20398724  0.63356471  0.92957747  1
  O  O11  1  0.27440977  0.20398724  0.07042253  1
