# generated using pymatgen
data_Ba3(SnAs2)2
_symmetry_space_group_name_H-M   'P 1'
_cell_length_a   20.07041823
_cell_length_b   8.01926705
_cell_length_c   8.16191354
_cell_angle_alpha   67.68053898
_cell_angle_beta   90.00000000
_cell_angle_gamma   90.00000000
_symmetry_Int_Tables_number   1
_chemical_formula_structural   Ba3(SnAs2)2
_chemical_formula_sum   'Ba12 Sn8 As16'
_cell_volume   1215.24193158
_cell_formula_units_Z   4
loop_
 _symmetry_equiv_pos_site_id
 _symmetry_equiv_pos_as_xyz
  1  'x, y, z'
loop_
 _atom_site_type_symbol
 _atom_site_label
 _atom_site_symmetry_multiplicity
 _atom_site_fract_x
 _atom_site_fract_y
 _atom_site_fract_z
 _atom_site_occupancy
  Ba  Ba0  1  0.31697682  0.00877037  0.78749586  1
  Ba  Ba1  1  0.81697682  0.49122963  0.21250414  1
  Ba  Ba2  1  0.68302318  0.99122963  0.21250414  1
  Ba  Ba3  1  0.18302318  0.50877037  0.78749586  1
  Ba  Ba4  1  0.43984772  0.99381639  0.26182810  1
  Ba  Ba5  1  0.93984772  0.50618361  0.73817190  1
  Ba  Ba6  1  0.56015228  0.00618361  0.73817190  1
  Ba  Ba7  1  0.06015228  0.49381639  0.26182810  1
  Ba  Ba8  1  0.43604380  0.51162542  0.74186332  1
  Ba  Ba9  1  0.93604380  0.98837458  0.25813668  1
  Ba  Ba10  1  0.56395620  0.48837458  0.25813668  1
  Ba  Ba11  1  0.06395620  0.01162542  0.74186332  1
  Sn  Sn12  1  0.62371740  0.52487089  0.78945640  1
  Sn  Sn13  1  0.12371740  0.97512911  0.21054360  1
  Sn  Sn14  1  0.37628260  0.47512911  0.21054360  1
  Sn  Sn15  1  0.87628260  0.02487089  0.78945640  1
  Sn  Sn16  1  0.74177834  0.40054254  0.68475840  1
  Sn  Sn17  1  0.75822166  0.90054254  0.68475840  1
  Sn  Sn18  1  0.25822166  0.59945746  0.31524160  1
  Sn  Sn19  1  0.24177834  0.09945746  0.31524160  1
  As  As20  1  0.43503704  0.25534766  0.49627888  1
  As  As21  1  0.93503704  0.24465234  0.50372112  1
  As  As22  1  0.56496296  0.74465234  0.50372112  1
  As  As23  1  0.06496296  0.75534766  0.49627888  1
  As  As24  1  0.44463100  0.74893397  0.00217955  1
  As  As25  1  0.94463100  0.75106603  -0.00217955  1
  As  As26  1  0.55536900  0.25106603  -0.00217955  1
  As  As27  1  0.05536900  0.24893397  0.00217955  1
  As  As28  1  0.18280262  0.78424379  0.03824067  1
  As  As29  1  0.68280262  0.71575621  0.96175933  1
  As  As30  1  0.81719738  0.21575621  0.96175933  1
  As  As31  1  0.31719738  0.28424379  0.03824067  1
  As  As32  1  0.79997884  0.71452389  0.49129377  1
  As  As33  1  0.70002116  0.21452389  0.49129377  1
  As  As34  1  0.20002116  0.28547611  0.50870623  1
  As  As35  1  0.29997884  0.78547611  0.50870623  1
