# generated using pymatgen
data_TbTl(MoO4)2
_symmetry_space_group_name_H-M   'P 1'
_cell_length_a   5.08110398
_cell_length_b   8.01427239
_cell_length_c   18.72335816
_cell_angle_alpha   90.00000000
_cell_angle_beta   90.00000000
_cell_angle_gamma   90.00000000
_symmetry_Int_Tables_number   1
_chemical_formula_structural   TbTl(MoO4)2
_chemical_formula_sum   'Tb4 Tl4 Mo8 O32'
_cell_volume   762.44044585
_cell_formula_units_Z   4
loop_
 _symmetry_equiv_pos_site_id
 _symmetry_equiv_pos_as_xyz
  1  'x, y, z'
loop_
 _atom_site_type_symbol
 _atom_site_label
 _atom_site_symmetry_multiplicity
 _atom_site_fract_x
 _atom_site_fract_y
 _atom_site_fract_z
 _atom_site_occupancy
  Tb  Tb0  1  0.00000000  0.75000000  0.00632594  1
  Tb  Tb1  1  0.00000000  0.25000000  0.99367406  1
  Tb  Tb2  1  0.50000000  0.25000000  0.49367406  1
  Tb  Tb3  1  0.50000000  0.75000000  0.50632594  1
  Tl  Tl4  1  0.00000000  0.75000000  0.77066318  1
  Tl  Tl5  1  0.00000000  0.25000000  0.22933682  1
  Tl  Tl6  1  0.50000000  0.25000000  0.72933682  1
  Tl  Tl7  1  0.50000000  0.75000000  0.27066318  1
  Mo  Mo8  1  0.02031512  0.51682628  0.40054209  1
  Mo  Mo9  1  0.97968488  0.48317372  0.59945791  1
  Mo  Mo10  1  0.47968488  0.01682628  0.09945791  1
  Mo  Mo11  1  0.97968488  0.98317372  0.40054209  1
  Mo  Mo12  1  0.52031512  0.98317372  0.90054209  1
  Mo  Mo13  1  0.02031512  0.01682628  0.59945791  1
  Mo  Mo14  1  0.52031512  0.48317372  0.09945791  1
  Mo  Mo15  1  0.47968488  0.51682628  0.90054209  1
  O  O16  1  0.10451866  0.97610705  0.31492629  1
  O  O17  1  0.89548134  0.02389295  0.68507371  1
  O  O18  1  0.39548134  0.47610705  0.18507371  1
  O  O19  1  0.89548134  0.52389295  0.31492629  1
  O  O20  1  0.60451866  0.52389295  0.81492629  1
  O  O21  1  0.10451866  0.47610705  0.68507371  1
  O  O22  1  0.60451866  0.02389295  0.18507371  1
  O  O23  1  0.39548134  0.97610705  0.81492629  1
  O  O24  1  0.27145887  0.84096576  0.09747591  1
  O  O25  1  0.72854113  0.15903424  0.90252409  1
  O  O26  1  0.22854113  0.34096576  0.40252409  1
  O  O27  1  0.72854113  0.65903424  0.09747591  1
  O  O28  1  0.77145887  0.65903424  0.59747591  1
  O  O29  1  0.27145887  0.34096576  0.90252409  1
  O  O30  1  0.77145887  0.15903424  0.40252409  1
  O  O31  1  0.22854113  0.84096576  0.59747591  1
  O  O32  1  0.24961811  0.50498306  0.03493139  1
  O  O33  1  0.75038189  0.49501694  0.96506861  1
  O  O34  1  0.25038189  0.00498306  0.46506861  1
  O  O35  1  0.75038189  0.99501694  0.03493139  1
  O  O36  1  0.74961811  0.99501694  0.53493139  1
  O  O37  1  0.24961811  0.00498306  0.96506861  1
  O  O38  1  0.74961811  0.49501694  0.46506861  1
  O  O39  1  0.25038189  0.50498306  0.53493139  1
  O  O40  1  0.23979357  0.69039315  0.40968373  1
  O  O41  1  0.76020643  0.30960685  0.59031627  1
  O  O42  1  0.26020643  0.19039315  0.09031627  1
  O  O43  1  0.76020643  0.80960685  0.40968373  1
  O  O44  1  0.73979357  0.80960685  0.90968373  1
  O  O45  1  0.23979357  0.19039315  0.59031627  1
  O  O46  1  0.73979357  0.30960685  0.09031627  1
  O  O47  1  0.26020643  0.69039315  0.90968373  1
