# generated using pymatgen
data_Cs3SbS4
_symmetry_space_group_name_H-M   'P 1'
_cell_length_a   10.02165982
_cell_length_b   10.12475186
_cell_length_c   11.76368245
_cell_angle_alpha   90.00000000
_cell_angle_beta   90.00000000
_cell_angle_gamma   90.00000000
_symmetry_Int_Tables_number   1
_chemical_formula_structural   Cs3SbS4
_chemical_formula_sum   'Cs12 Sb4 S16'
_cell_volume   1193.62343678
_cell_formula_units_Z   4
loop_
 _symmetry_equiv_pos_site_id
 _symmetry_equiv_pos_as_xyz
  1  'x, y, z'
loop_
 _atom_site_type_symbol
 _atom_site_label
 _atom_site_symmetry_multiplicity
 _atom_site_fract_x
 _atom_site_fract_y
 _atom_site_fract_z
 _atom_site_occupancy
  Cs  Cs0  1  0.85053570  0.91365362  0.75000000  1
  Cs  Cs1  1  0.35053570  0.58634638  0.75000000  1
  Cs  Cs2  1  0.14946430  0.08634638  0.25000000  1
  Cs  Cs3  1  0.64946430  0.41365362  0.25000000  1
  Cs  Cs4  1  0.04664811  0.29528564  0.54177243  1
  Cs  Cs5  1  0.54664811  0.20471436  0.95822757  1
  Cs  Cs6  1  0.95335189  0.70471436  0.04177243  1
  Cs  Cs7  1  0.45335189  0.79528564  0.45822757  1
  Cs  Cs8  1  0.95335189  0.70471436  0.45822757  1
  Cs  Cs9  1  0.45335189  0.79528564  0.04177243  1
  Cs  Cs10  1  0.04664811  0.29528564  0.95822757  1
  Cs  Cs11  1  0.54664811  0.20471436  0.54177243  1
  Sb  Sb12  1  0.77482816  0.48105756  0.75000000  1
  Sb  Sb13  1  0.27482816  0.01894244  0.75000000  1
  Sb  Sb14  1  0.22517184  0.51894244  0.25000000  1
  Sb  Sb15  1  0.72517184  0.98105756  0.25000000  1
  S  S16  1  0.79690066  0.25033109  0.75000000  1
  S  S17  1  0.29690066  0.24966891  0.75000000  1
  S  S18  1  0.20309934  0.74966891  0.25000000  1
  S  S19  1  0.70309934  0.75033109  0.25000000  1
  S  S20  1  0.98897982  0.57632762  0.75000000  1
  S  S21  1  0.48897982  0.92367238  0.75000000  1
  S  S22  1  0.01102018  0.42367238  0.25000000  1
  S  S23  1  0.51102018  0.07632762  0.25000000  1
  S  S24  1  0.83813341  0.04397915  0.41535170  1
  S  S25  1  0.33813341  0.45602085  0.08464830  1
  S  S26  1  0.16186659  0.95602085  0.91535170  1
  S  S27  1  0.66186659  0.54397915  0.58464830  1
  S  S28  1  0.16186659  0.95602085  0.58464830  1
  S  S29  1  0.66186659  0.54397915  0.91535170  1
  S  S30  1  0.83813341  0.04397915  0.08464830  1
  S  S31  1  0.33813341  0.45602085  0.41535170  1
