# generated using pymatgen
data_RbInBr4
_symmetry_space_group_name_H-M   'P 1'
_cell_length_a   8.17974257
_cell_length_b   10.67990843
_cell_length_c   10.70841133
_cell_angle_alpha   89.99854552
_cell_angle_beta   90.00635532
_cell_angle_gamma   90.00096898
_symmetry_Int_Tables_number   1
_chemical_formula_structural   RbInBr4
_chemical_formula_sum   'Rb4 In4 Br16'
_cell_volume   935.47504599
_cell_formula_units_Z   4
loop_
 _symmetry_equiv_pos_site_id
 _symmetry_equiv_pos_as_xyz
  1  'x, y, z'
loop_
 _atom_site_type_symbol
 _atom_site_label
 _atom_site_symmetry_multiplicity
 _atom_site_fract_x
 _atom_site_fract_y
 _atom_site_fract_z
 _atom_site_occupancy
  Rb  Rb0  1  0.68014135  0.74999252  0.75000608  1
  Rb  Rb1  1  0.31986139  0.25000683  0.24999738  1
  Rb  Rb2  1  0.81986660  0.74998912  0.24999187  1
  Rb  Rb3  1  0.18013363  0.25001021  0.75000978  1
  In  In4  1  0.75000358  0.31843246  -0.00001337  1
  In  In5  1  0.25003622  0.68159407  -0.00000357  1
  In  In6  1  0.74998002  0.18156359  0.50001668  1
  In  In7  1  0.25000101  0.81841444  0.50000460  1
  Br  Br8  1  0.84054051  0.44903844  0.81570513  1
  Br  Br9  1  0.15942930  0.55102041  0.18427788  1
  Br  Br10  1  0.65941261  0.44900166  0.18426813  1
  Br  Br11  1  0.65945158  0.05096785  0.31572039  1
  Br  Br12  1  0.34055698  0.55100173  0.81570113  1
  Br  Br13  1  0.34056197  0.94901550  0.68428351  1
  Br  Br14  1  0.84055297  0.05097893  0.68430767  1
  Br  Br15  1  0.15943794  0.94895705  0.31567762  1
  Br  Br16  1  0.00627879  0.81994533  0.95423640  1
  Br  Br17  1  0.99372818  0.18004857  0.04576875  1
  Br  Br18  1  0.49376905  0.81996781  0.04574712  1
  Br  Br19  1  0.49382805  0.68010718  0.45432789  1
  Br  Br20  1  0.50626634  0.18004947  0.95424628  1
  Br  Br21  1  0.50618727  0.31989997  0.54570249  1
  Br  Br22  1  0.00619504  0.68008248  0.54567570  1
  Br  Br23  1  0.99378061  0.31991540  0.45434547  1
