# generated using pymatgen
data_Na3Ho(PO4)2
_symmetry_space_group_name_H-M   'P 1'
_cell_length_a   5.30527746
_cell_length_b   13.90276017
_cell_length_c   18.54216873
_cell_angle_alpha   90.00000000
_cell_angle_beta   90.00000000
_cell_angle_gamma   90.00000000
_symmetry_Int_Tables_number   1
_chemical_formula_structural   Na3Ho(PO4)2
_chemical_formula_sum   'Na24 Ho8 P16 O64'
_cell_volume   1367.63328419
_cell_formula_units_Z   8
loop_
 _symmetry_equiv_pos_site_id
 _symmetry_equiv_pos_as_xyz
  1  'x, y, z'
loop_
 _atom_site_type_symbol
 _atom_site_label
 _atom_site_symmetry_multiplicity
 _atom_site_fract_x
 _atom_site_fract_y
 _atom_site_fract_z
 _atom_site_occupancy
  Na  Na0  1  0.99014150  0.21697924  0.99243456  1
  Na  Na1  1  0.00985850  0.78302076  0.49243456  1
  Na  Na2  1  0.00985850  0.71697924  0.99243456  1
  Na  Na3  1  0.99014150  0.28302076  0.49243456  1
  Na  Na4  1  0.99250846  0.95159707  0.64935480  1
  Na  Na5  1  0.00749154  0.04840293  0.14935480  1
  Na  Na6  1  0.00749154  0.45159707  0.64935480  1
  Na  Na7  1  0.99250846  0.54840293  0.14935480  1
  Na  Na8  1  0.99618366  0.86119494  0.82803393  1
  Na  Na9  1  0.00381634  0.13880506  0.32803393  1
  Na  Na10  1  0.00381634  0.36119494  0.82803393  1
  Na  Na11  1  0.99618366  0.63880506  0.32803393  1
  Na  Na12  1  0.48033348  0.79813014  0.72942724  1
  Na  Na13  1  0.51966652  0.20186986  0.22942724  1
  Na  Na14  1  0.51966652  0.29813014  0.72942724  1
  Na  Na15  1  0.48033348  0.70186986  0.22942724  1
  Na  Na16  1  0.53964854  0.96829689  0.88817608  1
  Na  Na17  1  0.46035146  0.03170311  0.38817608  1
  Na  Na18  1  0.46035146  0.46829689  0.88817608  1
  Na  Na19  1  0.53964854  0.53170311  0.38817608  1
  Na  Na20  1  0.50000178  0.88690635  0.54988162  1
  Na  Na21  1  0.49999822  0.11309365  0.04988162  1
  Na  Na22  1  0.49999822  0.38690635  0.54988162  1
  Na  Na23  1  0.50000178  0.61309365  0.04988162  1
  Ho  Ho24  1  0.92801394  0.61100548  0.80446558  1
  Ho  Ho25  1  0.07198606  0.38899452  0.30446558  1
  Ho  Ho26  1  0.07198606  0.11100548  0.80446558  1
  Ho  Ho27  1  0.92801394  0.88899452  0.30446558  1
  Ho  Ho28  1  0.55777845  0.63823306  0.57305804  1
  Ho  Ho29  1  0.44222155  0.36176694  0.07305804  1
  Ho  Ho30  1  0.44222155  0.13823306  0.57305804  1
  Ho  Ho31  1  0.55777845  0.86176694  0.07305804  1
  P  P32  1  0.96887292  0.47529114  0.98108864  1
  P  P33  1  0.03112708  0.52470886  0.48108864  1
  P  P34  1  0.03112708  0.97529114  0.98108864  1
  P  P35  1  0.96887292  0.02470886  0.48108864  1
  P  P36  1  0.99118040  0.22329242  0.65264614  1
  P  P37  1  0.00881960  0.77670758  0.15264614  1
  P  P38  1  0.00881960  0.72329242  0.65264614  1
  P  P39  1  0.99118040  0.27670758  0.15264614  1
  P  P40  1  0.47910385  0.52612717  0.72451959  1
  P  P41  1  0.52089615  0.47387283  0.22451959  1
  P  P42  1  0.52089615  0.02612717  0.72451959  1
  P  P43  1  0.47910385  0.97387283  0.22451959  1
  P  P44  1  0.46114065  0.72650570  0.89621164  1
  P  P45  1  0.53885935  0.27349430  0.39621164  1
  P  P46  1  0.53885935  0.22650570  0.89621164  1
  P  P47  1  0.46114065  0.77349430  0.39621164  1
  O  O48  1  0.57556465  0.80782338  0.85056302  1
  O  O49  1  0.42443535  0.19217662  0.35056302  1
  O  O50  1  0.42443535  0.30782338  0.85056302  1
  O  O51  1  0.57556465  0.69217662  0.35056302  1
  O  O52  1  0.69828393  0.47243974  0.76364833  1
  O  O53  1  0.30171607  0.52756026  0.26364833  1
  O  O54  1  0.30171607  0.97243974  0.76364833  1
  O  O55  1  0.69828393  0.02756026  0.26364833  1
  O  O56  1  0.88076398  0.88044914  0.99487104  1
  O  O57  1  0.11923602  0.11955086  0.49487104  1
  O  O58  1  0.11923602  0.38044914  0.99487104  1
  O  O59  1  0.88076398  0.61955086  0.49487104  1
  O  O60  1  0.79374501  0.77720571  0.61129946  1
  O  O61  1  0.20625499  0.22279429  0.11129946  1
  O  O62  1  0.20625499  0.27720571  0.61129946  1
  O  O63  1  0.79374501  0.72279429  0.11129946  1
  O  O64  1  0.68367236  0.45949006  0.00013988  1
  O  O65  1  0.31632764  0.54050994  0.50013988  1
  O  O66  1  0.31632764  0.95949006  0.00013988  1
  O  O67  1  0.68367236  0.04050994  0.50013988  1
  O  O68  1  0.91840093  0.44295745  0.52730481  1
  O  O69  1  0.08159907  0.55704255  0.02730481  1
  O  O70  1  0.08159907  0.94295745  0.52730481  1
  O  O71  1  0.91840093  0.05704255  0.02730481  1
  O  O72  1  0.77467712  0.99925817  0.76124178  1
  O  O73  1  0.22532288  0.00074183  0.26124178  1
  O  O74  1  0.22532288  0.49925817  0.76124178  1
  O  O75  1  0.77467712  0.50074183  0.26124178  1
  O  O76  1  0.61240182  0.63160782  0.88444448  1
  O  O77  1  0.38759818  0.36839218  0.38444448  1
  O  O78  1  0.38759818  0.13160782  0.88444448  1
  O  O79  1  0.61240182  0.86839218  0.38444448  1
  O  O80  1  0.53336506  0.63473704  0.72981931  1
  O  O81  1  0.46663494  0.36526296  0.22981931  1
  O  O82  1  0.46663494  0.13473704  0.72981931  1
  O  O83  1  0.53336506  0.86526296  0.22981931  1
  O  O84  1  0.95250885  0.61481659  0.64724415  1
  O  O85  1  0.04749115  0.38518341  0.14724415  1
  O  O86  1  0.04749115  0.11481659  0.64724415  1
  O  O87  1  0.95250885  0.88518341  0.14724415  1
  O  O88  1  0.82200440  0.20944004  0.87470110  1
  O  O89  1  0.17799560  0.79055996  0.37470110  1
  O  O90  1  0.17799560  0.70944004  0.87470110  1
  O  O91  1  0.82200440  0.29055996  0.37470110  1
  O  O92  1  0.99111080  0.25369472  0.73334998  1
  O  O93  1  0.00888920  0.74630528  0.23334998  1
  O  O94  1  0.00888920  0.75369472  0.73334998  1
  O  O95  1  0.99111080  0.24630528  0.23334998  1
  O  O96  1  0.52717644  0.99628497  0.64330305  1
  O  O97  1  0.47282356  0.00371503  0.14330305  1
  O  O98  1  0.47282356  0.49628497  0.64330305  1
  O  O99  1  0.52717644  0.50371503  0.14330305  1
  O  O100  1  0.00383163  0.99818657  0.89910619  1
  O  O101  1  0.99616837  0.00181343  0.39910619  1
  O  O102  1  0.99616837  0.49818657  0.89910619  1
  O  O103  1  0.00383163  0.50181343  0.39910619  1
  O  O104  1  0.26604412  0.74988074  0.61767087  1
  O  O105  1  0.73395588  0.25011926  0.11767087  1
  O  O106  1  0.73395588  0.24988074  0.61767087  1
  O  O107  1  0.26604412  0.75011926  0.11767087  1
  O  O108  1  0.46914429  0.75024807  0.97859467  1
  O  O109  1  0.53085571  0.24975193  0.47859467  1
  O  O110  1  0.53085571  0.25024807  0.97859467  1
  O  O111  1  0.46914429  0.74975193  0.47859467  1
