# generated using pymatgen
data_Y2Mo(SeO4)3
_symmetry_space_group_name_H-M   'P 1'
_cell_length_a   6.50566198
_cell_length_b   7.07996434
_cell_length_c   10.75906925
_cell_angle_alpha   84.82080824
_cell_angle_beta   73.12259467
_cell_angle_gamma   86.57883317
_symmetry_Int_Tables_number   1
_chemical_formula_structural   Y2Mo(SeO4)3
_chemical_formula_sum   'Y4 Mo2 Se6 O24'
_cell_volume   471.98902362
_cell_formula_units_Z   2
loop_
 _symmetry_equiv_pos_site_id
 _symmetry_equiv_pos_as_xyz
  1  'x, y, z'
loop_
 _atom_site_type_symbol
 _atom_site_label
 _atom_site_symmetry_multiplicity
 _atom_site_fract_x
 _atom_site_fract_y
 _atom_site_fract_z
 _atom_site_occupancy
  Y  Y0  1  0.73239591  0.63820125  0.50939448  1
  Y  Y1  1  0.26760409  0.36179875  0.49060552  1
  Y  Y2  1  0.20355273  0.18282728  0.16838332  1
  Y  Y3  1  0.79644727  0.81717272  0.83161668  1
  Mo  Mo4  1  0.72189729  0.89259572  0.20576117  1
  Mo  Mo5  1  0.27810271  0.10740428  0.79423883  1
  Se  Se6  1  0.20450969  0.66113486  0.21559574  1
  Se  Se7  1  0.79549031  0.33886514  0.78440426  1
  Se  Se8  1  0.66025138  0.36477160  0.14103570  1
  Se  Se9  1  0.33974862  0.63522840  0.85896430  1
  Se  Se10  1  0.78714691  0.13933406  0.49439401  1
  Se  Se11  1  0.21285309  0.86066594  0.50560599  1
  O  O12  1  0.69339777  0.67365442  0.29833103  1
  O  O13  1  0.30660223  0.32634558  0.70166897  1
  O  O14  1  0.71808938  0.96046946  0.41691761  1
  O  O15  1  0.28191062  0.03953054  0.58308239  1
  O  O16  1  0.45333559  0.97581799  0.23313959  1
  O  O17  1  0.54666441  0.02418201  0.76686041  1
  O  O18  1  0.82365794  0.17239104  0.17918986  1
  O  O19  1  0.17634206  0.82760896  0.82081014  1
  O  O20  1  0.78556990  0.83417971  0.04541219  1
  O  O21  1  0.21443010  0.16582029  0.95458781  1
  O  O22  1  0.05994508  0.87312991  0.19507959  1
  O  O23  1  0.94005492  0.12687009  0.80492041  1
  O  O24  1  0.10033305  0.49975045  0.14776640  1
  O  O25  1  0.89966695  0.50024955  0.85223360  1
  O  O26  1  0.08213099  0.60077632  0.38147506  1
  O  O27  1  0.91786901  0.39922368  0.61852494  1
  O  O28  1  0.55178399  0.27143878  0.03707995  1
  O  O29  1  0.44821601  0.72856122  0.96292005  1
  O  O30  1  0.42710023  0.34775302  0.26969179  1
  O  O31  1  0.57289977  0.65224698  0.73030821  1
  O  O32  1  0.04103091  0.19100304  0.39318387  1
  O  O33  1  0.95896909  0.80899696  0.60681613  1
  O  O34  1  0.64130520  0.33769112  0.45935203  1
  O  O35  1  0.35869480  0.66230888  0.54064797  1
