# generated using pymatgen
data_Sr4TiAs4
_symmetry_space_group_name_H-M   'P 1'
_cell_length_a   12.92761208
_cell_length_b   12.92761208
_cell_length_c   12.92761208
_cell_angle_alpha   90.00000000
_cell_angle_beta   90.00000000
_cell_angle_gamma   90.00000000
_symmetry_Int_Tables_number   1
_chemical_formula_structural   Sr4TiAs4
_chemical_formula_sum   'Sr32 Ti8 As32'
_cell_volume   2160.50330567
_cell_formula_units_Z   8
loop_
 _symmetry_equiv_pos_site_id
 _symmetry_equiv_pos_as_xyz
  1  'x, y, z'
loop_
 _atom_site_type_symbol
 _atom_site_label
 _atom_site_symmetry_multiplicity
 _atom_site_fract_x
 _atom_site_fract_y
 _atom_site_fract_z
 _atom_site_occupancy
  Sr  Sr0  1  0.14736234  0.14736234  0.14736234  1
  Sr  Sr1  1  0.35263766  0.64736234  0.35263766  1
  Sr  Sr2  1  0.64736234  0.35263766  0.35263766  1
  Sr  Sr3  1  0.35263766  0.35263766  0.64736234  1
  Sr  Sr4  1  0.14736234  0.85263766  0.85263766  1
  Sr  Sr5  1  0.85263766  0.85263766  0.14736234  1
  Sr  Sr6  1  0.85263766  0.14736234  0.85263766  1
  Sr  Sr7  1  0.64736234  0.64736234  0.64736234  1
  Sr  Sr8  1  0.90473558  0.86266001  0.64718236  1
  Sr  Sr9  1  0.90473558  0.13733999  0.35281764  1
  Sr  Sr10  1  0.86266001  0.64718236  0.90473558  1
  Sr  Sr11  1  0.13733999  0.64718236  0.09526442  1
  Sr  Sr12  1  0.64718236  0.90473558  0.86266001  1
  Sr  Sr13  1  0.35281764  0.09526442  0.86266001  1
  Sr  Sr14  1  0.59526442  0.85281764  0.36266001  1
  Sr  Sr15  1  0.59526442  0.14718236  0.63733999  1
  Sr  Sr16  1  0.40473558  0.85281764  0.63733999  1
  Sr  Sr17  1  0.14718236  0.63733999  0.59526442  1
  Sr  Sr18  1  0.63733999  0.40473558  0.85281764  1
  Sr  Sr19  1  0.63733999  0.59526442  0.14718236  1
  Sr  Sr20  1  0.85281764  0.36266001  0.59526442  1
  Sr  Sr21  1  0.36266001  0.59526442  0.85281764  1
  Sr  Sr22  1  0.85281764  0.63733999  0.40473558  1
  Sr  Sr23  1  0.14718236  0.36266001  0.40473558  1
  Sr  Sr24  1  0.36266001  0.40473558  0.14718236  1
  Sr  Sr25  1  0.35281764  0.90473558  0.13733999  1
  Sr  Sr26  1  0.64718236  0.09526442  0.13733999  1
  Sr  Sr27  1  0.86266001  0.35281764  0.09526442  1
  Sr  Sr28  1  0.13733999  0.35281764  0.90473558  1
  Sr  Sr29  1  0.09526442  0.13733999  0.64718236  1
  Sr  Sr30  1  0.09526442  0.86266001  0.35281764  1
  Sr  Sr31  1  0.40473558  0.14718236  0.36266001  1
  Ti  Ti32  1  -0.00000000  -0.00000000  -0.00000000  1
  Ti  Ti33  1  0.75000000  -0.00000000  0.50000000  1
  Ti  Ti34  1  0.50000000  0.75000000  -0.00000000  1
  Ti  Ti35  1  0.50000000  0.25000000  -0.00000000  1
  Ti  Ti36  1  -0.00000000  0.50000000  0.25000000  1
  Ti  Ti37  1  -0.00000000  0.50000000  0.75000000  1
  Ti  Ti38  1  0.25000000  -0.00000000  0.50000000  1
  Ti  Ti39  1  0.50000000  0.50000000  0.50000000  1
  As  As40  1  0.60836396  0.85544914  0.11535178  1
  As  As41  1  0.64455086  0.10836396  0.38464822  1
  As  As42  1  0.89163604  0.61535178  0.64455086  1
  As  As43  1  0.10836396  0.61535178  0.35544914  1
  As  As44  1  0.61535178  0.64455086  0.89163604  1
  As  As45  1  0.38464822  0.35544914  0.89163604  1
  As  As46  1  0.85544914  0.88464822  0.39163604  1
  As  As47  1  0.85544914  0.11535178  0.60836396  1
  As  As48  1  0.14455086  0.88464822  0.60836396  1
  As  As49  1  0.39043759  0.39043759  0.39043759  1
  As  As50  1  0.60836396  0.14455086  0.88464822  1
  As  As51  1  0.64455086  0.89163604  0.61535178  1
  As  As52  1  0.88464822  0.39163604  0.85544914  1
  As  As53  1  0.39163604  0.85544914  0.88464822  1
  As  As54  1  0.88464822  0.60836396  0.14455086  1
  As  As55  1  0.11535178  0.39163604  0.14455086  1
  As  As56  1  0.39163604  0.14455086  0.11535178  1
  As  As57  1  0.38464822  0.64455086  0.10836396  1
  As  As58  1  0.61535178  0.35544914  0.10836396  1
  As  As59  1  0.89163604  0.38464822  0.35544914  1
  As  As60  1  0.10836396  0.38464822  0.64455086  1
  As  As61  1  0.35544914  0.10836396  0.61535178  1
  As  As62  1  0.35544914  0.89163604  0.38464822  1
  As  As63  1  0.14455086  0.11535178  0.39163604  1
  As  As64  1  0.10956241  0.89043759  0.10956241  1
  As  As65  1  0.10956241  0.10956241  0.89043759  1
  As  As66  1  0.89043759  0.10956241  0.10956241  1
  As  As67  1  0.60956241  0.60956241  0.39043759  1
  As  As68  1  0.39043759  0.60956241  0.60956241  1
  As  As69  1  0.60956241  0.39043759  0.60956241  1
  As  As70  1  0.89043759  0.89043759  0.89043759  1
  As  As71  1  0.11535178  0.60836396  0.85544914  1
