# generated using pymatgen
data_C
_symmetry_space_group_name_H-M   'P 1'
_cell_length_a   5.71172932
_cell_length_b   5.71172932
_cell_length_c   5.71172932
_cell_angle_alpha   108.31461537
_cell_angle_beta   110.05260042
_cell_angle_gamma   110.05260042
_symmetry_Int_Tables_number   1
_chemical_formula_structural   C
_chemical_formula_sum   C12
_cell_volume   143.39979769
_cell_formula_units_Z   12
loop_
 _symmetry_equiv_pos_site_id
 _symmetry_equiv_pos_as_xyz
  1  'x, y, z'
loop_
 _atom_site_type_symbol
 _atom_site_label
 _atom_site_symmetry_multiplicity
 _atom_site_fract_x
 _atom_site_fract_y
 _atom_site_fract_z
 _atom_site_occupancy
  C  C0  1  -0.00000000  0.12436594  0.87563406  1
  C  C1  1  0.00000000  0.87563406  0.12436594  1
  C  C2  1  0.75126812  0.87563406  0.87563406  1
  C  C3  1  0.24873188  0.12436594  0.12436594  1
  C  C4  1  -0.00000000  0.03630791  0.61077299  1
  C  C5  1  -0.00000000  0.61077299  0.03630791  1
  C  C6  1  0.57446409  0.61077299  0.61077299  1
  C  C7  1  0.42553591  0.03630791  0.03630791  1
  C  C8  1  -0.00000000  0.96369209  0.38922701  1
  C  C9  1  0.00000000  0.38922701  0.96369209  1
  C  C10  1  0.42553591  0.38922701  0.38922701  1
  C  C11  1  0.57446409  0.96369209  0.96369209  1
