# generated using pymatgen
data_Rb3Er7S12
_symmetry_space_group_name_H-M   'P 1'
_cell_length_a   3.95246196
_cell_length_b   12.02467672
_cell_length_c   24.86417368
_cell_angle_alpha   90.00000000
_cell_angle_beta   90.00000000
_cell_angle_gamma   90.00000000
_symmetry_Int_Tables_number   1
_chemical_formula_structural   Rb3Er7S12
_chemical_formula_sum   'Rb6 Er14 S24'
_cell_volume   1181.72150492
_cell_formula_units_Z   2
loop_
 _symmetry_equiv_pos_site_id
 _symmetry_equiv_pos_as_xyz
  1  'x, y, z'
loop_
 _atom_site_type_symbol
 _atom_site_label
 _atom_site_symmetry_multiplicity
 _atom_site_fract_x
 _atom_site_fract_y
 _atom_site_fract_z
 _atom_site_occupancy
  Rb  Rb0  1  0.50000000  0.53557809  0.12878033  1
  Rb  Rb1  1  0.50000000  0.95844614  0.86281882  1
  Rb  Rb2  1  0.00000000  0.04155386  0.36281882  1
  Rb  Rb3  1  -0.00000000  0.46442191  0.62878033  1
  Rb  Rb4  1  0.50000000  0.80214075  0.47493674  1
  Rb  Rb5  1  -0.00000000  0.19785925  0.97493674  1
  Er  Er6  1  0.50000000  0.65686851  0.78912489  1
  Er  Er7  1  0.50000000  0.84205701  0.21069383  1
  Er  Er8  1  0.00000000  0.15794299  0.71069383  1
  Er  Er9  1  -0.00000000  0.34313149  0.28912489  1
  Er  Er10  1  0.50000000  0.32742631  0.81724857  1
  Er  Er11  1  0.50000000  0.17782608  0.18186709  1
  Er  Er12  1  0.00000000  0.82217392  0.68186709  1
  Er  Er13  1  0.00000000  0.67257369  0.31724857  1
  Er  Er14  1  0.50000000  0.46770267  0.41899055  1
  Er  Er15  1  0.50000000  0.02718030  0.58385606  1
  Er  Er16  1  -0.00000000  0.97281970  0.08385606  1
  Er  Er17  1  -0.00000000  0.53229733  0.91899055  1
  Er  Er18  1  0.00000000  0.24351207  0.49909197  1
  Er  Er19  1  0.50000000  0.75648793  0.99909197  1
  S  S20  1  0.50000000  0.38017975  0.92218132  1
  S  S21  1  0.50000000  0.12505544  0.07761904  1
  S  S22  1  0.00000000  0.87494456  0.57761904  1
  S  S23  1  0.00000000  0.61982025  0.42218132  1
  S  S24  1  0.50000000  0.50559391  0.30603845  1
  S  S25  1  0.50000000  0.99331210  0.69535006  1
  S  S26  1  -0.00000000  0.00668790  0.19535006  1
  S  S27  1  -0.00000000  0.49440609  0.80603845  1
  S  S28  1  0.50000000  0.39273443  0.51851979  1
  S  S29  1  0.50000000  0.08919452  0.48058971  1
  S  S30  1  0.00000000  0.91080548  0.98058971  1
  S  S31  1  -0.00000000  0.60726557  0.01851979  1
  S  S32  1  0.50000000  0.30405821  0.71126446  1
  S  S33  1  0.50000000  0.19719672  0.28808991  1
  S  S34  1  0.00000000  0.80280328  0.78808991  1
  S  S35  1  -0.00000000  0.69594179  0.21126446  1
  S  S36  1  0.50000000  0.67392147  0.68091907  1
  S  S37  1  0.50000000  0.82329700  0.32103194  1
  S  S38  1  0.00000000  0.17670300  0.82103194  1
  S  S39  1  0.00000000  0.32607853  0.18091907  1
  S  S40  1  0.50000000  0.68056232  0.89736130  1
  S  S41  1  0.50000000  0.82354635  0.10252611  1
  S  S42  1  0.00000000  0.17645365  0.60252611  1
  S  S43  1  -0.00000000  0.31943768  0.39736130  1
