# generated using pymatgen
data_Sm2HfS5
_symmetry_space_group_name_H-M   'P 1'
_cell_length_a   7.32812340
_cell_length_b   7.88624287
_cell_length_c   11.56125605
_cell_angle_alpha   90.00000000
_cell_angle_beta   90.00000000
_cell_angle_gamma   90.00000000
_symmetry_Int_Tables_number   1
_chemical_formula_structural   Sm2HfS5
_chemical_formula_sum   'Sm8 Hf4 S20'
_cell_volume   668.14072100
_cell_formula_units_Z   4
loop_
 _symmetry_equiv_pos_site_id
 _symmetry_equiv_pos_as_xyz
  1  'x, y, z'
loop_
 _atom_site_type_symbol
 _atom_site_label
 _atom_site_symmetry_multiplicity
 _atom_site_fract_x
 _atom_site_fract_y
 _atom_site_fract_z
 _atom_site_occupancy
  Sm  Sm0  1  0.53126212  0.00160121  0.32306970  1
  Sm  Sm1  1  0.96873788  0.49839879  0.82306970  1
  Sm  Sm2  1  0.46873788  0.50160121  0.67693030  1
  Sm  Sm3  1  0.03126212  0.99839879  0.17693030  1
  Sm  Sm4  1  0.46873788  0.99839879  0.67693030  1
  Sm  Sm5  1  0.03126212  0.50160121  0.17693030  1
  Sm  Sm6  1  0.53126212  0.49839879  0.32306970  1
  Sm  Sm7  1  0.96873788  0.00160121  0.82306970  1
  Hf  Hf8  1  0.07385158  0.75000000  0.49341041  1
  Hf  Hf9  1  0.42614842  0.75000000  0.99341041  1
  Hf  Hf10  1  0.92614842  0.25000000  0.50658959  1
  Hf  Hf11  1  0.57385158  0.25000000  0.00658959  1
  S  S12  1  0.83618503  0.53530784  0.58696422  1
  S  S13  1  0.66381497  0.96469216  0.08696422  1
  S  S14  1  0.16381497  0.03530784  0.41303578  1
  S  S15  1  0.33618503  0.46469216  0.91303578  1
  S  S16  1  0.16381497  0.46469216  0.41303578  1
  S  S17  1  0.33618503  0.03530784  0.91303578  1
  S  S18  1  0.83618503  0.96469216  0.58696422  1
  S  S19  1  0.66381497  0.53530784  0.08696422  1
  S  S20  1  0.84168907  0.75000000  0.31711706  1
  S  S21  1  0.65831093  0.75000000  0.81711706  1
  S  S22  1  0.15831093  0.25000000  0.68288294  1
  S  S23  1  0.34168907  0.25000000  0.18288294  1
  S  S24  1  0.44381041  0.75000000  0.49542056  1
  S  S25  1  0.05618959  0.75000000  0.99542056  1
  S  S26  1  0.55618959  0.25000000  0.50457944  1
  S  S27  1  0.94381041  0.25000000  0.00457944  1
  S  S28  1  0.18067094  0.75000000  0.70584494  1
  S  S29  1  0.31932906  0.75000000  0.20584494  1
  S  S30  1  0.81932906  0.25000000  0.29415506  1
  S  S31  1  0.68067094  0.25000000  0.79415506  1
