# generated using pymatgen
data_CaSm4Tm4O12
_symmetry_space_group_name_H-M   'P 1'
_cell_length_a   6.01045834
_cell_length_b   9.22716479
_cell_length_c   5.90517022
_cell_angle_alpha   80.51627562
_cell_angle_beta   82.93299319
_cell_angle_gamma   84.75133018
_symmetry_Int_Tables_number   1
_chemical_formula_structural   CaSm4Tm4O12
_chemical_formula_sum   'Ca1 Sm4 Tm4 O12'
_cell_volume   319.71826455
_cell_formula_units_Z   1
loop_
 _symmetry_equiv_pos_site_id
 _symmetry_equiv_pos_as_xyz
  1  'x, y, z'
loop_
 _atom_site_type_symbol
 _atom_site_label
 _atom_site_symmetry_multiplicity
 _atom_site_fract_x
 _atom_site_fract_y
 _atom_site_fract_z
 _atom_site_occupancy
  Ca  Ca0  1  0.30584200  0.88360500  0.87314500  1
  Sm  Sm1  1  0.08080900  0.23430000  0.95833100  1
  Sm  Sm2  1  0.42855000  0.73153500  0.40292900  1
  Sm  Sm3  1  0.54497700  0.30742600  0.50982400  1
  Sm  Sm4  1  0.85255400  0.74498200  0.00524400  1
  Tm  Tm5  1  0.96026400  0.97760800  0.48163600  1
  Tm  Tm6  1  0.94318200  0.55512200  0.54542400  1
  Tm  Tm7  1  0.58482800  0.07711200  0.09557600  1
  Tm  Tm8  1  0.45063600  0.50658000  0.98572600  1
  O  O9  1  0.09472600  0.75590600  0.65374500  1
  O  O10  1  0.16625300  0.62262000  0.19916500  1
  O  O11  1  0.26222000  0.97237300  0.24585100  1
  O  O12  1  0.24769100  0.44436500  0.71498700  1
  O  O13  1  0.40208200  0.11675800  0.77333300  1
  O  O14  1  0.37102000  0.28690400  0.17483400  1
  O  O15  1  0.64373500  0.66668000  0.73117400  1
  O  O16  1  0.73331500  0.87890000  0.31847600  1
  O  O17  1  0.67972500  0.53467300  0.28081200  1
  O  O18  1  0.91179000  0.01074300  0.85659800  1
  O  O19  1  0.77738700  0.36463300  0.77120400  1
  O  O20  1  0.81883000  0.17873700  0.28656800  1
