# generated using pymatgen
data_SmScS3
_symmetry_space_group_name_H-M   'P 1'
_cell_length_a   6.45689741
_cell_length_b   7.10807002
_cell_length_c   9.55313825
_cell_angle_alpha   90.00000000
_cell_angle_beta   90.00000000
_cell_angle_gamma   90.00000000
_symmetry_Int_Tables_number   1
_chemical_formula_structural   SmScS3
_chemical_formula_sum   'Sm4 Sc4 S12'
_cell_volume   438.45158689
_cell_formula_units_Z   4
loop_
 _symmetry_equiv_pos_site_id
 _symmetry_equiv_pos_as_xyz
  1  'x, y, z'
loop_
 _atom_site_type_symbol
 _atom_site_label
 _atom_site_symmetry_multiplicity
 _atom_site_fract_x
 _atom_site_fract_y
 _atom_site_fract_z
 _atom_site_occupancy
  Sm  Sm0  1  0.53757125  0.40129345  0.75000000  1
  Sm  Sm1  1  0.46242875  0.59870655  0.25000000  1
  Sm  Sm2  1  0.03757125  0.09870655  0.25000000  1
  Sm  Sm3  1  0.96242875  0.90129345  0.75000000  1
  Sc  Sc4  1  -0.00000000  0.50000000  0.00000000  1
  Sc  Sc5  1  -0.00000000  0.50000000  0.50000000  1
  Sc  Sc6  1  0.50000000  -0.00000000  0.50000000  1
  Sc  Sc7  1  0.50000000  -0.00000000  0.00000000  1
  S  S8  1  0.82280917  0.18617070  0.56578449  1
  S  S9  1  0.17719083  0.81382930  0.06578449  1
  S  S10  1  0.32280917  0.31382930  0.06578449  1
  S  S11  1  0.67719083  0.68617070  0.56578449  1
  S  S12  1  0.82280917  0.18617070  0.93421551  1
  S  S13  1  0.17719083  0.81382930  0.43421551  1
  S  S14  1  0.32280917  0.31382930  0.43421551  1
  S  S15  1  0.67719083  0.68617070  0.93421551  1
  S  S16  1  0.86501840  0.45884272  0.25000000  1
  S  S17  1  0.13498160  0.54115728  0.75000000  1
  S  S18  1  0.36501840  0.04115728  0.75000000  1
  S  S19  1  0.63498160  0.95884272  0.25000000  1
