# generated using pymatgen
data_Tb2ZrS5
_symmetry_space_group_name_H-M   'P 1'
_cell_length_a   7.26873767
_cell_length_b   7.77272166
_cell_length_c   11.57731268
_cell_angle_alpha   90.00000000
_cell_angle_beta   90.00000000
_cell_angle_gamma   90.00000000
_symmetry_Int_Tables_number   1
_chemical_formula_structural   Tb2ZrS5
_chemical_formula_sum   'Tb8 Zr4 S20'
_cell_volume   654.09356149
_cell_formula_units_Z   4
loop_
 _symmetry_equiv_pos_site_id
 _symmetry_equiv_pos_as_xyz
  1  'x, y, z'
loop_
 _atom_site_type_symbol
 _atom_site_label
 _atom_site_symmetry_multiplicity
 _atom_site_fract_x
 _atom_site_fract_y
 _atom_site_fract_z
 _atom_site_occupancy
  Tb  Tb0  1  0.52284782  0.49765692  0.32129801  1
  Tb  Tb1  1  0.97715218  0.00234308  0.82129801  1
  Tb  Tb2  1  0.47715218  0.99765692  0.67870199  1
  Tb  Tb3  1  0.02284782  0.50234308  0.17870199  1
  Tb  Tb4  1  0.47715218  0.50234308  0.67870199  1
  Tb  Tb5  1  0.02284782  0.99765692  0.17870199  1
  Tb  Tb6  1  0.52284782  0.00234308  0.32129801  1
  Tb  Tb7  1  0.97715218  0.49765692  0.82129801  1
  Zr  Zr8  1  0.07740018  0.75000000  0.49357730  1
  Zr  Zr9  1  0.42259982  0.75000000  0.99357730  1
  Zr  Zr10  1  0.92259982  0.25000000  0.50642270  1
  Zr  Zr11  1  0.57740018  0.25000000  0.00642270  1
  S  S12  1  0.83883161  0.96327881  0.59370857  1
  S  S13  1  0.66116839  0.53672119  0.09370857  1
  S  S14  1  0.16116839  0.46327881  0.40629143  1
  S  S15  1  0.33883161  0.03672119  0.90629143  1
  S  S16  1  0.16116839  0.03672119  0.40629143  1
  S  S17  1  0.33883161  0.46327881  0.90629143  1
  S  S18  1  0.83883161  0.53672119  0.59370857  1
  S  S19  1  0.66116839  0.96327881  0.09370857  1
  S  S20  1  0.83279543  0.75000000  0.31772876  1
  S  S21  1  0.66720457  0.75000000  0.81772876  1
  S  S22  1  0.16720457  0.25000000  0.68227124  1
  S  S23  1  0.33279543  0.25000000  0.18227124  1
  S  S24  1  0.44895515  0.75000000  0.49712786  1
  S  S25  1  0.05104485  0.75000000  0.99712786  1
  S  S26  1  0.55104485  0.25000000  0.50287214  1
  S  S27  1  0.94895515  0.25000000  0.00287214  1
  S  S28  1  0.18945199  0.75000000  0.70816437  1
  S  S29  1  0.31054801  0.75000000  0.20816437  1
  S  S30  1  0.81054801  0.25000000  0.29183563  1
  S  S31  1  0.68945199  0.25000000  0.79183563  1
