# generated using pymatgen
data_K2Gd2Mg(MoO4)4
_symmetry_space_group_name_H-M   'P 1'
_cell_length_a   7.80183082
_cell_length_b   7.67586230
_cell_length_c   7.93012625
_cell_angle_alpha   117.71448831
_cell_angle_beta   122.99462822
_cell_angle_gamma   88.07086289
_symmetry_Int_Tables_number   1
_chemical_formula_structural   K2Gd2Mg(MoO4)4
_chemical_formula_sum   'K2 Gd2 Mg1 Mo4 O16'
_cell_volume   336.84077705
_cell_formula_units_Z   1
loop_
 _symmetry_equiv_pos_site_id
 _symmetry_equiv_pos_as_xyz
  1  'x, y, z'
loop_
 _atom_site_type_symbol
 _atom_site_label
 _atom_site_symmetry_multiplicity
 _atom_site_fract_x
 _atom_site_fract_y
 _atom_site_fract_z
 _atom_site_occupancy
  K  K0  1  0.47538100  0.22549100  0.25321600  1
  K  K1  1  0.47418100  0.74233200  0.74249200  1
  Gd  Gd2  1  0.01011000  0.77241300  0.24151400  1
  Gd  Gd3  1  0.01274600  0.25125100  0.75172800  1
  Mg  Mg4  1  0.77071500  0.99770700  0.79470700  1
  Mo  Mo5  1  0.99665000  0.30360000  0.28388800  1
  Mo  Mo6  1  0.99766300  0.69740900  0.71106600  1
  Mo  Mo7  1  0.51035000  0.72240800  0.21573000  1
  Mo  Mo8  1  0.48606500  0.28837300  0.78032800  1
  O  O9  1  0.66532200  0.19310100  0.99710000  1
  O  O10  1  0.33032400  0.76704600  0.97116200  1
  O  O11  1  0.69034400  0.69030300  0.51590300  1
  O  O12  1  0.31098900  0.35621200  0.54389600  1
  O  O13  1  0.74973200  0.93135900  0.37135700  1
  O  O14  1  0.24015200  0.07975500  0.62501200  1
  O  O15  1  0.05288900  0.37318000  0.12034400  1
  O  O16  1  0.95950500  0.60571800  0.87411000  1
  O  O17  1  0.04815300  0.64179300  0.47772200  1
  O  O18  1  0.92257400  0.35620300  0.49596300  1
  O  O19  1  0.65692700  0.57192400  0.01615200  1
  O  O20  1  0.37344000  0.42433700  0.00426800  1
  O  O21  1  0.93867200  0.00665600  0.12394100  1
  O  O22  1  0.04870600  0.98897400  0.83192500  1
  O  O23  1  0.35686100  0.79591800  0.33236000  1
  O  O24  1  0.65071500  0.19570500  0.67133800  1
