# generated using pymatgen
data_Nd2Ti2O7
_symmetry_space_group_name_H-M   'P 1'
_cell_length_a   5.48381544
_cell_length_b   7.67899035
_cell_length_c   13.10133776
_cell_angle_alpha   81.50506386
_cell_angle_beta   90.00000000
_cell_angle_gamma   90.00000000
_symmetry_Int_Tables_number   1
_chemical_formula_structural   Nd2Ti2O7
_chemical_formula_sum   'Nd8 Ti8 O28'
_cell_volume   545.64676794
_cell_formula_units_Z   4
loop_
 _symmetry_equiv_pos_site_id
 _symmetry_equiv_pos_as_xyz
  1  'x, y, z'
loop_
 _atom_site_type_symbol
 _atom_site_label
 _atom_site_symmetry_multiplicity
 _atom_site_fract_x
 _atom_site_fract_y
 _atom_site_fract_z
 _atom_site_occupancy
  Nd  Nd0  1  0.75368668  0.72909357  0.09015815  1
  Nd  Nd1  1  0.25368668  0.27090643  0.90984185  1
  Nd  Nd2  1  0.74191228  0.21852563  0.12110615  1
  Nd  Nd3  1  0.24191228  0.78147437  0.87889385  1
  Nd  Nd4  1  0.34862354  0.64516533  0.42814429  1
  Nd  Nd5  1  0.84862354  0.35483467  0.57185571  1
  Nd  Nd6  1  0.28060613  0.14885035  0.38315137  1
  Nd  Nd7  1  0.78060613  0.85114965  0.61684863  1
  Ti  Ti8  1  0.25525695  0.97203674  0.12131742  1
  Ti  Ti9  1  0.75525695  0.02796326  0.87868258  1
  Ti  Ti10  1  0.25670605  0.46883504  0.11886756  1
  Ti  Ti11  1  0.75670605  0.53116496  0.88113244  1
  Ti  Ti12  1  0.78821928  0.91421891  0.32531890  1
  Ti  Ti13  1  0.28821928  0.08578109  0.67468110  1
  Ti  Ti14  1  0.78063645  0.42612885  0.32015863  1
  Ti  Ti15  1  0.28063645  0.57387115  0.67984137  1
  O  O16  1  0.01824742  0.54317754  0.98109002  1
  O  O17  1  0.51824742  0.45682246  0.01890998  1
  O  O18  1  0.01753306  0.96687881  0.97923166  1
  O  O19  1  0.51753306  0.03312119  0.02076834  1
  O  O20  1  0.31017985  0.72297870  0.10864236  1
  O  O21  1  0.81017985  0.27702130  0.89135764  1
  O  O22  1  0.16740322  0.22729364  0.09158912  1
  O  O23  1  0.66740322  0.77270636  0.90841088  1
  O  O24  1  0.93620202  0.93271824  0.18121635  1
  O  O25  1  0.43620202  0.06728176  0.81878365  1
  O  O26  1  0.94057244  0.47784074  0.18301099  1
  O  O27  1  0.44057244  0.52215926  0.81698901  1
  O  O28  1  0.44982153  0.00282662  0.23045905  1
  O  O29  1  0.94982153  0.99717338  0.76954095  1
  O  O30  1  0.45391358  0.38365570  0.22747536  1
  O  O31  1  0.95391358  0.61634430  0.77252464  1
  O  O32  1  0.68868357  0.67413025  0.30454170  1
  O  O33  1  0.18868357  0.32586975  0.69545830  1
  O  O34  1  0.84735736  0.17300557  0.30594955  1
  O  O35  1  0.34735736  0.82699443  0.69405045  1
  O  O36  1  0.07332070  0.87371819  0.38827192  1
  O  O37  1  0.06386189  0.63034360  0.57086824  1
  O  O38  1  0.57332070  0.12628181  0.61172808  1
  O  O39  1  0.54925566  0.57868927  0.59378814  1
  O  O40  1  0.58099634  0.90923449  0.44170431  1
  O  O41  1  0.08099634  0.09076551  0.55829569  1
  O  O42  1  0.56386189  0.36965640  0.42913176  1
  O  O43  1  0.04925566  0.42131073  0.40621186  1
