# generated using pymatgen
data_Sr6Nb2O11
_symmetry_space_group_name_H-M   'P 1'
_cell_length_a   5.99701600
_cell_length_b   6.01942961
_cell_length_c   19.83650935
_cell_angle_alpha   97.34834954
_cell_angle_beta   90.39770414
_cell_angle_gamma   119.66265572
_symmetry_Int_Tables_number   1
_chemical_formula_structural   Sr6Nb2O11
_chemical_formula_sum   'Sr12 Nb4 O22'
_cell_volume   615.06906617
_cell_formula_units_Z   2
loop_
 _symmetry_equiv_pos_site_id
 _symmetry_equiv_pos_as_xyz
  1  'x, y, z'
loop_
 _atom_site_type_symbol
 _atom_site_label
 _atom_site_symmetry_multiplicity
 _atom_site_fract_x
 _atom_site_fract_y
 _atom_site_fract_z
 _atom_site_occupancy
  Sr  Sr0  1  0.29858200  0.59814100  0.93025900  1
  Sr  Sr1  1  0.69496400  0.30895200  0.88324300  1
  Sr  Sr2  1  0.82059500  0.44040900  0.70329300  1
  Sr  Sr3  1  0.15859500  0.12287000  0.62289400  1
  Sr  Sr4  1  0.03910700  0.99716400  0.80177900  1
  Sr  Sr5  1  0.36300200  0.20401300  0.42518100  1
  Sr  Sr6  1  0.71723800  0.87067500  0.38359400  1
  Sr  Sr7  1  0.82619700  0.92445400  0.20066700  1
  Sr  Sr8  1  0.50257900  0.79743500  0.57528800  1
  Sr  Sr9  1  0.20972600  0.61668600  0.11666900  1
  Sr  Sr10  1  0.05318800  0.53852100  0.29630200  1
  Sr  Sr11  1  0.54337900  0.30308700  0.07736700  1
  Nb  Nb12  1  0.98031800  0.94827900  0.00306500  1
  Nb  Nb13  1  0.43118100  0.71905400  0.75177400  1
  Nb  Nb14  1  0.92930600  0.49694300  0.49974400  1
  Nb  Nb15  1  0.44506800  0.21582400  0.25130400  1
  O  O16  1  0.58038700  0.56907100  0.81540100  1
  O  O17  1  0.65130600  0.05933300  0.78710100  1
  O  O18  1  0.82483000  0.59645500  0.97241100  1
  O  O19  1  0.95968100  0.11235600  0.92127000  1
  O  O20  1  0.13205500  0.63907000  0.82852400  1
  O  O21  1  0.22840900  0.37716600  0.71697200  1
  O  O22  1  0.02220900  0.43289400  0.58593800  1
  O  O23  1  0.72272600  0.79548100  0.67122200  1
  O  O24  1  0.27723600  0.86847300  0.69226700  1
  O  O25  1  0.55243900  0.23614100  0.54029300  1
  O  O26  1  0.83930000  0.31951600  0.41838000  1
  O  O27  1  0.59635300  0.51814400  0.30720300  1
  O  O28  1  0.30264600  0.61526600  0.46180500  1
  O  O29  1  0.30423500  0.93791100  0.00406000  1
  O  O30  1  0.92012400  0.81254500  0.49579300  1
  O  O31  1  0.15176900  0.00248700  0.33032800  1
  O  O32  1  0.64374900  0.07202700  0.29306200  1
  O  O33  1  0.24938800  0.91222100  0.19682100  1
  O  O34  1  0.16594400  0.29799200  0.03675300  1
  O  O35  1  0.75784400  0.36472800  0.17462300  1
  O  O36  1  0.27074300  0.37479200  0.20443200  1
  O  O37  1  0.70955300  0.81170400  0.08269600  1
