# generated using pymatgen
data_Sr8MgMn6O20
_symmetry_space_group_name_H-M   'P 1'
_cell_length_a   5.59527274
_cell_length_b   6.82257467
_cell_length_c   14.11038438
_cell_angle_alpha   90.56320181
_cell_angle_beta   86.47986724
_cell_angle_gamma   114.39670038
_symmetry_Int_Tables_number   1
_chemical_formula_structural   Sr8MgMn6O20
_chemical_formula_sum   'Sr8 Mg1 Mn6 O20'
_cell_volume   489.55751609
_cell_formula_units_Z   1
loop_
 _symmetry_equiv_pos_site_id
 _symmetry_equiv_pos_as_xyz
  1  'x, y, z'
loop_
 _atom_site_type_symbol
 _atom_site_label
 _atom_site_symmetry_multiplicity
 _atom_site_fract_x
 _atom_site_fract_y
 _atom_site_fract_z
 _atom_site_occupancy
  Sr  Sr0  1  0.21025400  0.48325300  0.03286100  1
  Sr  Sr1  1  0.74927100  0.50917300  0.85266700  1
  Sr  Sr2  1  0.79682600  0.49034200  0.44556800  1
  Sr  Sr3  1  0.28480600  0.52072300  0.62548700  1
  Sr  Sr4  1  0.99421700  0.94438100  0.64045900  1
  Sr  Sr5  1  0.09228600  0.08548000  0.39036200  1
  Sr  Sr6  1  0.51776300  0.07542200  0.12935100  1
  Sr  Sr7  1  0.46681100  0.94174200  0.84978600  1
  Mg  Mg8  1  0.09899100  0.54724800  0.23687800  1
  Mn  Mn9  1  0.64593800  0.25275100  0.65647400  1
  Mn  Mn10  1  0.43329600  0.76145400  0.35863900  1
  Mn  Mn11  1  0.83810600  0.75779100  0.15107200  1
  Mn  Mn12  1  0.11688900  0.23766000  0.84199600  1
  Mn  Mn13  1  0.53874600  0.00036600  0.50989500  1
  Mn  Mn14  1  0.98610000  0.98585300  0.99241900  1
  O  O15  1  0.37076800  0.23704900  0.74823200  1
  O  O16  1  0.03986800  0.81091400  0.26082900  1
  O  O17  1  0.50780300  0.73680800  0.21811200  1
  O  O18  1  0.87631300  0.22317800  0.75237900  1
  O  O19  1  0.21351600  0.79171600  0.47395200  1
  O  O20  1  0.39603300  0.21460500  0.53599500  1
  O  O21  1  0.33138500  0.20781400  0.95102500  1
  O  O22  1  0.13200300  0.80932600  0.04756600  1
  O  O23  1  0.87467100  0.22110900  0.54681800  1
  O  O24  1  0.67735600  0.79102800  0.47998600  1
  O  O25  1  0.66050200  0.75693300  0.03023800  1
  O  O26  1  0.85050400  0.19058600  0.94854400  1
  O  O27  1  0.80525200  0.55502900  0.65706600  1
  O  O28  1  0.19569900  0.46382900  0.35436800  1
  O  O29  1  0.98143400  0.08122300  0.12215200  1
  O  O30  1  0.97228400  0.90910100  0.85611500  1
  O  O31  1  0.47418000  0.92550300  0.64590700  1
  O  O32  1  0.80419300  0.46313800  0.15480400  1
  O  O33  1  0.25758200  0.54357500  0.85262800  1
  O  O34  1  0.60597300  0.07574800  0.37332800  1
