# generated using pymatgen
data_LaInO3
_symmetry_space_group_name_H-M   'P 1'
_cell_length_a   5.73615203
_cell_length_b   5.95376221
_cell_length_c   8.25417615
_cell_angle_alpha   90.00000000
_cell_angle_beta   90.00000000
_cell_angle_gamma   90.00000000
_symmetry_Int_Tables_number   1
_chemical_formula_structural   LaInO3
_chemical_formula_sum   'La4 In4 O12'
_cell_volume   281.89402535
_cell_formula_units_Z   4
loop_
 _symmetry_equiv_pos_site_id
 _symmetry_equiv_pos_as_xyz
  1  'x, y, z'
loop_
 _atom_site_type_symbol
 _atom_site_label
 _atom_site_symmetry_multiplicity
 _atom_site_fract_x
 _atom_site_fract_y
 _atom_site_fract_z
 _atom_site_occupancy
  La  La0  1  0.01594269  0.94612898  0.25000000  1
  La  La1  1  0.51594269  0.55387102  0.75000000  1
  La  La2  1  0.48405731  0.44612898  0.25000000  1
  La  La3  1  0.98405731  0.05387102  0.75000000  1
  In  In4  1  0.50000000  -0.00000000  0.00000000  1
  In  In5  1  0.00000000  0.50000000  0.00000000  1
  In  In6  1  0.00000000  0.50000000  0.50000000  1
  In  In7  1  0.50000000  -0.00000000  0.50000000  1
  O  O8  1  0.61469064  0.04589567  0.25000000  1
  O  O9  1  0.11469064  0.45410433  0.75000000  1
  O  O10  1  0.88530936  0.54589567  0.25000000  1
  O  O11  1  0.38530936  0.95410433  0.75000000  1
  O  O12  1  0.19603499  0.19846147  0.06070934  1
  O  O13  1  0.69603499  0.30153853  0.93929066  1
  O  O14  1  0.30396501  0.69846147  0.43929066  1
  O  O15  1  0.80396501  0.80153853  0.56070934  1
  O  O16  1  0.80396501  0.80153853  0.93929066  1
  O  O17  1  0.30396501  0.69846147  0.06070934  1
  O  O18  1  0.69603499  0.30153853  0.56070934  1
  O  O19  1  0.19603499  0.19846147  0.43929066  1
