# generated using pymatgen
data_Dy2MgSe4
_symmetry_space_group_name_H-M   'P 1'
_cell_length_a   14.06648071
_cell_length_b   8.18276716
_cell_length_c   6.79853760
_cell_angle_alpha   90.00000000
_cell_angle_beta   90.00000000
_cell_angle_gamma   90.00000000
_symmetry_Int_Tables_number   1
_chemical_formula_structural   Dy2MgSe4
_chemical_formula_sum   'Dy8 Mg4 Se16'
_cell_volume   782.53028135
_cell_formula_units_Z   4
loop_
 _symmetry_equiv_pos_site_id
 _symmetry_equiv_pos_as_xyz
  1  'x, y, z'
loop_
 _atom_site_type_symbol
 _atom_site_label
 _atom_site_symmetry_multiplicity
 _atom_site_fract_x
 _atom_site_fract_y
 _atom_site_fract_z
 _atom_site_occupancy
  Dy  Dy0  1  0.00000000  -0.00000000  0.50000000  1
  Dy  Dy1  1  0.50000000  -0.00000000  -0.00000000  1
  Dy  Dy2  1  0.50000000  0.50000000  -0.00000000  1
  Dy  Dy3  1  0.00000000  0.50000000  0.50000000  1
  Dy  Dy4  1  0.23439696  0.75000000  -0.00292967  1
  Dy  Dy5  1  0.76560304  0.25000000  0.00292967  1
  Dy  Dy6  1  0.26560304  0.25000000  0.49707033  1
  Dy  Dy7  1  0.73439696  0.75000000  0.50292967  1
  Mg  Mg8  1  0.09406998  0.25000000  0.91581661  1
  Mg  Mg9  1  0.90593002  0.75000000  0.08418339  1
  Mg  Mg10  1  0.40593002  0.75000000  0.41581661  1
  Mg  Mg11  1  0.59406998  0.25000000  0.58418339  1
  Se  Se12  1  0.17009070  0.00552142  0.73648077  1
  Se  Se13  1  0.82990930  0.99447858  0.26351923  1
  Se  Se14  1  0.32990930  0.99447858  0.23648077  1
  Se  Se15  1  0.67009070  0.00552142  0.76351923  1
  Se  Se16  1  0.67009070  0.49447858  0.76351923  1
  Se  Se17  1  0.32990930  0.50552142  0.23648077  1
  Se  Se18  1  0.82990930  0.50552142  0.26351923  1
  Se  Se19  1  0.17009070  0.49447858  0.73648077  1
  Se  Se20  1  0.07261676  0.75000000  0.24647772  1
  Se  Se21  1  0.92738324  0.25000000  0.75352228  1
  Se  Se22  1  0.42738324  0.25000000  0.74647772  1
  Se  Se23  1  0.57261676  0.75000000  0.25352228  1
  Se  Se24  1  0.09024995  0.25000000  0.28497222  1
  Se  Se25  1  0.90975005  0.75000000  0.71502778  1
  Se  Se26  1  0.40975005  0.75000000  0.78497222  1
  Se  Se27  1  0.59024995  0.25000000  0.21502778  1
