# generated using pymatgen
data_La2SiSeO4
_symmetry_space_group_name_H-M   'P 1'
_cell_length_a   6.29910805
_cell_length_b   7.33314001
_cell_length_c   11.21226438
_cell_angle_alpha   90.00000000
_cell_angle_beta   90.00000000
_cell_angle_gamma   90.00000000
_symmetry_Int_Tables_number   1
_chemical_formula_structural   La2SiSeO4
_chemical_formula_sum   'La8 Si4 Se4 O16'
_cell_volume   517.91962141
_cell_formula_units_Z   4
loop_
 _symmetry_equiv_pos_site_id
 _symmetry_equiv_pos_as_xyz
  1  'x, y, z'
loop_
 _atom_site_type_symbol
 _atom_site_label
 _atom_site_symmetry_multiplicity
 _atom_site_fract_x
 _atom_site_fract_y
 _atom_site_fract_z
 _atom_site_occupancy
  La  La0  1  0.39304467  0.75000000  0.50000000  1
  La  La1  1  0.39304467  0.75000000  -0.00000000  1
  La  La2  1  0.60695533  0.25000000  0.50000000  1
  La  La3  1  0.60695533  0.25000000  -0.00000000  1
  La  La4  1  0.87544219  0.96259088  0.75000000  1
  La  La5  1  0.87544219  0.53740912  0.25000000  1
  La  La6  1  0.12455781  0.46259088  0.75000000  1
  La  La7  1  0.12455781  0.03740912  0.25000000  1
  Si  Si8  1  0.11154808  0.25000000  -0.00000000  1
  Si  Si9  1  0.88845192  0.75000000  -0.00000000  1
  Si  Si10  1  0.88845192  0.75000000  0.50000000  1
  Si  Si11  1  0.11154808  0.25000000  0.50000000  1
  Se  Se12  1  0.58016156  0.60250452  0.75000000  1
  Se  Se13  1  0.58016156  0.89749548  0.25000000  1
  Se  Se14  1  0.41983844  0.10250452  0.75000000  1
  Se  Se15  1  0.41983844  0.39749548  0.25000000  1
  O  O16  1  0.26617977  0.07825909  0.46755906  1
  O  O17  1  0.26617977  0.42174091  0.53244094  1
  O  O18  1  0.73382023  0.57825909  0.03244094  1
  O  O19  1  0.73382023  0.92174091  0.96755906  1
  O  O20  1  0.73382023  0.92174091  0.53244094  1
  O  O21  1  0.73382023  0.57825909  0.46755906  1
  O  O22  1  0.26617977  0.42174091  0.96755906  1
  O  O23  1  0.26617977  0.07825909  0.03244094  1
  O  O24  1  0.04713870  0.76831868  0.38437307  1
  O  O25  1  0.04713870  0.76831868  0.11562693  1
  O  O26  1  0.95286130  0.26831868  0.11562693  1
  O  O27  1  0.95286130  0.23168132  0.88437307  1
  O  O28  1  0.95286130  0.23168132  0.61562693  1
  O  O29  1  0.95286130  0.26831868  0.38437307  1
  O  O30  1  0.04713870  0.73168132  0.88437307  1
  O  O31  1  0.04713870  0.73168132  0.61562693  1
