# generated using pymatgen
data_KAsO3
_symmetry_space_group_name_H-M   'P 1'
_cell_length_a   7.55984235
_cell_length_b   7.56337224
_cell_length_c   10.31952457
_cell_angle_alpha   85.72938349
_cell_angle_beta   111.24988391
_cell_angle_gamma   106.86135239
_symmetry_Int_Tables_number   1
_chemical_formula_structural   KAsO3
_chemical_formula_sum   'K6 As6 O18'
_cell_volume   525.97769009
_cell_formula_units_Z   6
loop_
 _symmetry_equiv_pos_site_id
 _symmetry_equiv_pos_as_xyz
  1  'x, y, z'
loop_
 _atom_site_type_symbol
 _atom_site_label
 _atom_site_symmetry_multiplicity
 _atom_site_fract_x
 _atom_site_fract_y
 _atom_site_fract_z
 _atom_site_occupancy
  K  K0  1  0.09017061  0.10496119  0.83799765  1
  K  K1  1  0.90982939  0.89503881  0.16200235  1
  K  K2  1  0.24603846  0.23791106  0.50306459  1
  K  K3  1  0.75396154  0.76208894  0.49693541  1
  K  K4  1  0.72584288  0.45985083  0.83506998  1
  K  K5  1  0.27415712  0.54014917  0.16493002  1
  As  As6  1  0.52860085  0.98099472  0.80084621  1
  As  As7  1  0.47139915  0.01900528  0.19915379  1
  As  As8  1  0.27122148  0.73614788  0.52458495  1
  As  As9  1  0.72877852  0.26385212  0.47541505  1
  As  As10  1  0.16873972  0.64098900  0.79479944  1
  As  As11  1  0.83126028  0.35901100  0.20520056  1
  O  O12  1  0.40759841  0.13908580  0.76465979  1
  O  O13  1  0.59240159  0.86091420  0.23534021  1
  O  O14  1  0.76453212  0.03926746  0.89824638  1
  O  O15  1  0.23546788  0.96073254  0.10175362  1
  O  O16  1  0.50173326  0.87279631  0.64380643  1
  O  O17  1  0.49826674  0.12720369  0.35619357  1
  O  O18  1  0.41121740  0.78792143  0.87977873  1
  O  O19  1  0.58878260  0.21207857  0.12022127  1
  O  O20  1  0.11479613  0.85993318  0.45676497  1
  O  O21  1  0.88520387  0.14006682  0.54323503  1
  O  O22  1  0.33372150  0.61792068  0.42906867  1
  O  O23  1  0.66627850  0.38207932  0.57093133  1
  O  O24  1  0.19389514  0.57235631  0.64223808  1
  O  O25  1  0.80610486  0.42764369  0.35776192  1
  O  O26  1  -0.00010589  0.75329628  0.75516377  1
  O  O27  1  0.00010589  0.24670372  0.24483623  1
  O  O28  1  0.14304211  0.45914425  0.89177149  1
  O  O29  1  0.85695789  0.54085575  0.10822851  1
