# generated using pymatgen
data_Rb2SbN2(O2F)3
_symmetry_space_group_name_H-M   'P 1'
_cell_length_a   7.36929393
_cell_length_b   11.25450183
_cell_length_c   11.49078200
_cell_angle_alpha   105.06829463
_cell_angle_beta   90.00000000
_cell_angle_gamma   90.00000000
_symmetry_Int_Tables_number   1
_chemical_formula_structural   Rb2SbN2(O2F)3
_chemical_formula_sum   'Rb8 Sb4 N8 O24 F12'
_cell_volume   920.25138601
_cell_formula_units_Z   4
loop_
 _symmetry_equiv_pos_site_id
 _symmetry_equiv_pos_as_xyz
  1  'x, y, z'
loop_
 _atom_site_type_symbol
 _atom_site_label
 _atom_site_symmetry_multiplicity
 _atom_site_fract_x
 _atom_site_fract_y
 _atom_site_fract_z
 _atom_site_occupancy
  Rb  Rb0  1  0.23792449  0.44187375  0.34463408  1
  Rb  Rb1  1  0.24841423  0.44918066  0.86636194  1
  Rb  Rb2  1  0.46270444  0.12710707  0.06455811  1
  Rb  Rb3  1  0.48888668  0.15008922  0.49419568  1
  Rb  Rb4  1  0.73792449  0.55812625  0.65536592  1
  Rb  Rb5  1  0.74841423  0.55081934  0.13363806  1
  Rb  Rb6  1  0.96270444  0.87289293  0.93544189  1
  Rb  Rb7  1  0.98888668  0.84991078  0.50580432  1
  Sb  Sb8  1  0.04008288  0.11225829  0.30112234  1
  Sb  Sb9  1  0.25319932  0.71655485  0.17615900  1
  Sb  Sb10  1  0.54008288  0.88774171  0.69887766  1
  Sb  Sb11  1  0.75319932  0.28344515  0.82384100  1
  N  N12  1  0.19291494  0.61406121  0.65963930  1
  N  N13  1  0.22779889  0.08707639  0.77107666  1
  N  N14  1  0.46985514  0.76005736  0.95455286  1
  N  N15  1  0.49030314  0.72911934  0.42815345  1
  N  N16  1  0.69291494  0.38593879  0.34036070  1
  N  N17  1  0.72779889  0.91292361  0.22892334  1
  N  N18  1  0.96985514  0.23994264  0.04544714  1
  N  N19  1  0.99030314  0.27088066  0.57184655  1
  O  O20  1  0.09651234  0.24150706  0.11848633  1
  O  O21  1  0.11009512  0.62610426  0.56704382  1
  O  O22  1  0.12169378  0.27890635  0.50367525  1
  O  O23  1  0.11791501  0.64801492  0.76182099  1
  O  O24  1  0.16080340  0.19158871  0.78883565  1
  O  O25  1  0.21451107  0.02456617  0.84637253  1
  O  O26  1  0.31421738  0.04162218  0.67238216  1
  O  O27  1  0.34887888  0.56712416  0.64986163  1
  O  O28  1  0.36604182  0.84969938  0.98755029  1
  O  O29  1  0.38304315  0.81814248  0.45662268  1
  O  O30  1  0.44720906  0.66579503  0.99640445  1
  O  O31  1  0.46802170  0.64592817  0.33129676  1
  O  O32  1  0.59651234  0.75849294  0.88151367  1
  O  O33  1  0.61009512  0.37389574  0.43295618  1
  O  O34  1  0.62169378  0.72109365  0.49632475  1
  O  O35  1  0.61791501  0.35198508  0.23817901  1
  O  O36  1  0.66080340  0.80841129  0.21116435  1
  O  O37  1  0.71451107  0.97543383  0.15362747  1
  O  O38  1  0.81421738  0.95837782  0.32761784  1
  O  O39  1  0.84887888  0.43287584  0.35013837  1
  O  O40  1  0.86604182  0.15030062  0.01244971  1
  O  O41  1  0.88304315  0.18185752  0.54337732  1
  O  O42  1  0.94720906  0.33420497  0.00359555  1
  O  O43  1  0.96802170  0.35407183  0.66870324  1
  F  F44  1  0.05987892  0.68432748  0.05389965  1
  F  F45  1  0.06280460  0.67427830  0.28159426  1
  F  F46  1  0.10754964  0.97338053  0.16607972  1
  F  F47  1  0.15611098  0.01905898  0.40118910  1
  F  F48  1  0.29277445  0.17089511  0.28910183  1
  F  F49  1  0.29695556  0.53935078  0.12837778  1
  F  F50  1  0.55987892  0.31567252  0.94610035  1
  F  F51  1  0.56280460  0.32572170  0.71840574  1
  F  F52  1  0.60754964  0.02661947  0.83392028  1
  F  F53  1  0.65611098  0.98094102  0.59881090  1
  F  F54  1  0.79277445  0.82910489  0.71089817  1
  F  F55  1  0.79695556  0.46064922  0.87162222  1
