# generated using pymatgen
data_Cs3SbO4
_symmetry_space_group_name_H-M   'P 1'
_cell_length_a   6.85509030
_cell_length_b   9.23770517
_cell_length_c   12.92820591
_cell_angle_alpha   90.00000000
_cell_angle_beta   90.00000000
_cell_angle_gamma   90.00000000
_symmetry_Int_Tables_number   1
_chemical_formula_structural   Cs3SbO4
_chemical_formula_sum   'Cs12 Sb4 O16'
_cell_volume   818.68255786
_cell_formula_units_Z   4
loop_
 _symmetry_equiv_pos_site_id
 _symmetry_equiv_pos_as_xyz
  1  'x, y, z'
loop_
 _atom_site_type_symbol
 _atom_site_label
 _atom_site_symmetry_multiplicity
 _atom_site_fract_x
 _atom_site_fract_y
 _atom_site_fract_z
 _atom_site_occupancy
  Cs  Cs0  1  0.70207427  0.00651545  0.14645310  1
  Cs  Cs1  1  0.79792573  0.49348455  0.64645310  1
  Cs  Cs2  1  0.29792573  0.50651545  0.85354690  1
  Cs  Cs3  1  0.20207427  0.99348455  0.35354690  1
  Cs  Cs4  1  0.29792573  0.99348455  0.85354690  1
  Cs  Cs5  1  0.20207427  0.50651545  0.35354690  1
  Cs  Cs6  1  0.70207427  0.49348455  0.14645310  1
  Cs  Cs7  1  0.79792573  0.00651545  0.64645310  1
  Cs  Cs8  1  0.14989185  0.25000000  0.07605297  1
  Cs  Cs9  1  0.35010815  0.25000000  0.57605297  1
  Cs  Cs10  1  0.85010815  0.75000000  0.92394703  1
  Cs  Cs11  1  0.64989185  0.75000000  0.42394703  1
  Sb  Sb12  1  0.27495343  0.75000000  0.11273249  1
  Sb  Sb13  1  0.22504657  0.75000000  0.61273249  1
  Sb  Sb14  1  0.72504657  0.25000000  0.88726751  1
  Sb  Sb15  1  0.77495343  0.25000000  0.38726751  1
  O  O16  1  0.43218371  0.75000000  0.23350966  1
  O  O17  1  0.06781629  0.75000000  0.73350966  1
  O  O18  1  0.56781629  0.25000000  0.76649034  1
  O  O19  1  0.93218371  0.25000000  0.26649034  1
  O  O20  1  0.44361876  0.75000000  0.99623868  1
  O  O21  1  0.05638124  0.75000000  0.49623868  1
  O  O22  1  0.55638124  0.25000000  0.00376132  1
  O  O23  1  0.94361876  0.25000000  0.50376132  1
  O  O24  1  0.11925183  0.58087552  0.11150794  1
  O  O25  1  0.38074817  0.91912448  0.61150794  1
  O  O26  1  0.88074817  0.08087552  0.88849206  1
  O  O27  1  0.61925183  0.41912448  0.38849206  1
  O  O28  1  0.88074817  0.41912448  0.88849206  1
  O  O29  1  0.61925183  0.08087552  0.38849206  1
  O  O30  1  0.11925183  0.91912448  0.11150794  1
  O  O31  1  0.38074817  0.58087552  0.61150794  1
