# generated using pymatgen
data_K3LiGe4
_symmetry_space_group_name_H-M   'P 1'
_cell_length_a   7.71996382
_cell_length_b   9.83993302
_cell_length_c   12.39537032
_cell_angle_alpha   90.00000000
_cell_angle_beta   90.00000000
_cell_angle_gamma   90.00000000
_symmetry_Int_Tables_number   1
_chemical_formula_structural   K3LiGe4
_chemical_formula_sum   'K12 Li4 Ge16'
_cell_volume   941.60100496
_cell_formula_units_Z   4
loop_
 _symmetry_equiv_pos_site_id
 _symmetry_equiv_pos_as_xyz
  1  'x, y, z'
loop_
 _atom_site_type_symbol
 _atom_site_label
 _atom_site_symmetry_multiplicity
 _atom_site_fract_x
 _atom_site_fract_y
 _atom_site_fract_z
 _atom_site_occupancy
  K  K0  1  0.15529821  0.25000000  0.60031153  1
  K  K1  1  0.84470179  0.75000000  0.39968847  1
  K  K2  1  0.34470179  0.75000000  0.10031153  1
  K  K3  1  0.65529821  0.25000000  0.89968847  1
  K  K4  1  0.15567498  0.05522125  0.30584084  1
  K  K5  1  0.84432502  0.94477875  0.69415916  1
  K  K6  1  0.34432502  0.94477875  0.80584084  1
  K  K7  1  0.84432502  0.55522125  0.69415916  1
  K  K8  1  0.65567498  0.05522125  0.19415916  1
  K  K9  1  0.15567498  0.44477875  0.30584084  1
  K  K10  1  0.65567498  0.44477875  0.19415916  1
  K  K11  1  0.34432502  0.55522125  0.80584084  1
  Li  Li12  1  -0.00000000  -0.00000000  -0.00000000  1
  Li  Li13  1  0.50000000  -0.00000000  0.50000000  1
  Li  Li14  1  -0.00000000  0.50000000  -0.00000000  1
  Li  Li15  1  0.50000000  0.50000000  0.50000000  1
  Ge  Ge16  1  0.63599304  0.25000000  0.60588794  1
  Ge  Ge17  1  0.36400696  0.75000000  0.39411206  1
  Ge  Ge18  1  0.86400696  0.75000000  0.10588794  1
  Ge  Ge19  1  0.13599304  0.25000000  0.89411206  1
  Ge  Ge20  1  0.29094559  0.12296428  0.04883233  1
  Ge  Ge21  1  0.70905441  0.87703572  0.95116767  1
  Ge  Ge22  1  0.20905441  0.87703572  0.54883233  1
  Ge  Ge23  1  0.70905441  0.62296428  0.95116767  1
  Ge  Ge24  1  0.79094559  0.12296428  0.45116767  1
  Ge  Ge25  1  0.29094559  0.37703572  0.04883233  1
  Ge  Ge26  1  0.79094559  0.37703572  0.45116767  1
  Ge  Ge27  1  0.20905441  0.62296428  0.54883233  1
  Ge  Ge28  1  0.00513409  0.25000000  0.08670629  1
  Ge  Ge29  1  0.99486591  0.75000000  0.91329371  1
  Ge  Ge30  1  0.49486591  0.75000000  0.58670629  1
  Ge  Ge31  1  0.50513409  0.25000000  0.41329371  1
