# generated using pymatgen
data_CdGeN2
_symmetry_space_group_name_H-M   'P 1'
_cell_length_a   5.56389021
_cell_length_b   4.92181187
_cell_length_c   8.68211186
_cell_angle_alpha   89.99999495
_cell_angle_beta   141.28068434
_cell_angle_gamma   116.25068010
_symmetry_Int_Tables_number   1
_chemical_formula_structural   CdGeN2
_chemical_formula_sum   'Cd2 Ge2 N4'
_cell_volume   105.15872068
_cell_formula_units_Z   2
loop_
 _symmetry_equiv_pos_site_id
 _symmetry_equiv_pos_as_xyz
  1  'x, y, z'
loop_
 _atom_site_type_symbol
 _atom_site_label
 _atom_site_symmetry_multiplicity
 _atom_site_fract_x
 _atom_site_fract_y
 _atom_site_fract_z
 _atom_site_occupancy
  Cd  Cd0  1  -0.00000000  0.50000000  0.75000000  1
  Cd  Cd1  1  -0.00000000  -0.00000000  0.50000000  1
  Ge  Ge2  1  -0.00000000  0.50000000  0.25000000  1
  Ge  Ge3  1  -0.00000000  -0.00000000  -0.00000000  1
  N  N4  1  0.50000000  0.06927307  0.12500000  1
  N  N5  1  0.50000000  0.93072693  0.62500000  1
  N  N6  1  0.36145286  0.43072693  0.30572693  1
  N  N7  1  0.63854714  0.56927307  0.94427307  1
