# generated using pymatgen
data_K2Cd3S4
_symmetry_space_group_name_H-M   'P 1'
_cell_length_a   6.69169436
_cell_length_b   10.25889640
_cell_length_c   13.90818541
_cell_angle_alpha   90.00000000
_cell_angle_beta   90.00000000
_cell_angle_gamma   90.00000000
_symmetry_Int_Tables_number   1
_chemical_formula_structural   K2Cd3S4
_chemical_formula_sum   'K8 Cd12 S16'
_cell_volume   954.78857208
_cell_formula_units_Z   4
loop_
 _symmetry_equiv_pos_site_id
 _symmetry_equiv_pos_as_xyz
  1  'x, y, z'
loop_
 _atom_site_type_symbol
 _atom_site_label
 _atom_site_symmetry_multiplicity
 _atom_site_fract_x
 _atom_site_fract_y
 _atom_site_fract_z
 _atom_site_occupancy
  K  K0  1  0.01657635  0.25000000  0.53088427  1
  K  K1  1  0.51657635  0.75000000  0.96911573  1
  K  K2  1  0.98342365  0.75000000  0.46911573  1
  K  K3  1  0.48342365  0.25000000  0.03088427  1
  K  K4  1  0.00000000  0.00000000  -0.00000000  1
  K  K5  1  0.50000000  0.50000000  0.50000000  1
  K  K6  1  0.00000000  0.50000000  -0.00000000  1
  K  K7  1  0.50000000  0.00000000  0.50000000  1
  Cd  Cd8  1  0.34531690  0.09205994  0.74841290  1
  Cd  Cd9  1  0.84531690  0.90794006  0.75158710  1
  Cd  Cd10  1  0.65468310  0.59205994  0.25158710  1
  Cd  Cd11  1  0.15468310  0.40794006  0.24841290  1
  Cd  Cd12  1  0.65468310  0.90794006  0.25158710  1
  Cd  Cd13  1  0.15468310  0.09205994  0.24841290  1
  Cd  Cd14  1  0.34531690  0.40794006  0.74841290  1
  Cd  Cd15  1  0.84531690  0.59205994  0.75158710  1
  Cd  Cd16  1  0.71467238  0.25000000  0.29600371  1
  Cd  Cd17  1  0.21467238  0.75000000  0.20399629  1
  Cd  Cd18  1  0.28532762  0.75000000  0.70399629  1
  Cd  Cd19  1  0.78532762  0.25000000  0.79600371  1
  S  S20  1  0.62485855  0.03229657  0.86517399  1
  S  S21  1  0.12485855  0.96770343  0.63482601  1
  S  S22  1  0.37514145  0.53229657  0.13482601  1
  S  S23  1  0.87514145  0.46770343  0.36517399  1
  S  S24  1  0.37514145  0.96770343  0.13482601  1
  S  S25  1  0.87514145  0.03229657  0.36517399  1
  S  S26  1  0.62485855  0.46770343  0.86517399  1
  S  S27  1  0.12485855  0.53229657  0.63482601  1
  S  S28  1  0.92464056  0.25000000  0.14199110  1
  S  S29  1  0.42464056  0.75000000  0.35800890  1
  S  S30  1  0.07535944  0.75000000  0.85800890  1
  S  S31  1  0.57535944  0.25000000  0.64199110  1
  S  S32  1  0.86196444  0.75000000  0.14522416  1
  S  S33  1  0.63803556  0.75000000  0.64522416  1
  S  S34  1  0.13803556  0.25000000  0.85477584  1
  S  S35  1  0.36196444  0.25000000  0.35477584  1
