# generated using pymatgen
data_ErVO4
_symmetry_space_group_name_H-M   'P 1'
_cell_length_a   5.89355492
_cell_length_b   5.89355653
_cell_length_c   5.89355539
_cell_angle_alpha   106.34501572
_cell_angle_beta   106.34501355
_cell_angle_gamma   115.92273232
_symmetry_Int_Tables_number   1
_chemical_formula_structural   ErVO4
_chemical_formula_sum   'Er2 V2 O8'
_cell_volume   156.06835595
_cell_formula_units_Z   2
loop_
 _symmetry_equiv_pos_site_id
 _symmetry_equiv_pos_as_xyz
  1  'x, y, z'
loop_
 _atom_site_type_symbol
 _atom_site_label
 _atom_site_symmetry_multiplicity
 _atom_site_fract_x
 _atom_site_fract_y
 _atom_site_fract_z
 _atom_site_occupancy
  Er  Er0  1  0.12500000  0.87500000  0.25000000  1
  Er  Er1  1  0.87500000  0.12500000  0.75000000  1
  V  V2  1  0.37500000  0.62500000  0.75000000  1
  V  V3  1  0.62500000  0.37500000  0.25000000  1
  O  O4  1  0.80093844  0.36468026  0.06374182  1
  O  O5  1  0.73719662  0.80093844  0.93625818  1
  O  O6  1  0.36468026  0.80093844  0.56374182  1
  O  O7  1  0.80093844  0.73719662  0.43625818  1
  O  O8  1  0.26280338  0.19906156  0.06374182  1
  O  O9  1  0.19906156  0.63531974  0.93625818  1
  O  O10  1  0.19906156  0.26280338  0.56374182  1
  O  O11  1  0.63531974  0.19906156  0.43625818  1
