# generated using pymatgen
data_RbSnAsO5
_symmetry_space_group_name_H-M   'P 1'
_cell_length_a   6.81924829
_cell_length_b   10.99982614
_cell_length_c   13.65100553
_cell_angle_alpha   90.00000000
_cell_angle_beta   90.00000000
_cell_angle_gamma   90.00000000
_symmetry_Int_Tables_number   1
_chemical_formula_structural   RbSnAsO5
_chemical_formula_sum   'Rb8 Sn8 As8 O40'
_cell_volume   1023.96937273
_cell_formula_units_Z   8
loop_
 _symmetry_equiv_pos_site_id
 _symmetry_equiv_pos_as_xyz
  1  'x, y, z'
loop_
 _atom_site_type_symbol
 _atom_site_label
 _atom_site_symmetry_multiplicity
 _atom_site_fract_x
 _atom_site_fract_y
 _atom_site_fract_z
 _atom_site_occupancy
  Rb  Rb0  1  0.77887359  0.79441447  0.37833632  1
  Rb  Rb1  1  0.27887359  0.29441447  0.12166368  1
  Rb  Rb2  1  0.72112641  0.79441447  0.87833632  1
  Rb  Rb3  1  0.31219711  0.04941306  0.88801484  1
  Rb  Rb4  1  0.81219711  0.54941306  0.61198516  1
  Rb  Rb5  1  0.68780289  0.54941306  0.11198516  1
  Rb  Rb6  1  0.18780289  0.04941306  0.38801484  1
  Rb  Rb7  1  0.22112641  0.29441447  0.62166368  1
  Sn  Sn8  1  0.74632524  0.23700729  0.75011978  1
  Sn  Sn9  1  0.25367476  0.73700729  0.24988022  1
  Sn  Sn10  1  0.75367476  0.23700729  0.25011978  1
  Sn  Sn11  1  0.50111962  0.98568245  0.62533817  1
  Sn  Sn12  1  0.49888038  0.48568245  0.37466183  1
  Sn  Sn13  1  0.99888038  0.98568245  0.12533817  1
  Sn  Sn14  1  0.00111962  0.48568245  0.87466183  1
  Sn  Sn15  1  0.24632524  0.73700729  0.74988022  1
  As  As16  1  0.99805080  0.98803527  0.67618654  1
  As  As17  1  0.00194920  0.48803527  0.32381346  1
  As  As18  1  0.50194920  0.98803527  0.17618654  1
  As  As19  1  0.49805080  0.48803527  0.82381346  1
  As  As20  1  0.16765974  0.73404965  0.00246918  1
  As  As21  1  0.83234026  0.23404965  0.99753082  1
  As  As22  1  0.33234026  0.73404965  0.50246918  1
  As  As23  1  0.66765974  0.23404965  0.49753082  1
  O  O24  1  0.46652787  0.87240527  0.25631468  1
  O  O25  1  0.53347213  0.37240527  0.74368532  1
  O  O26  1  0.03347213  0.87240527  0.75631468  1
  O  O27  1  0.96652787  0.37240527  0.24368532  1
  O  O28  1  0.97076749  0.10993787  0.75155764  1
  O  O29  1  0.02923251  0.60993787  0.24844236  1
  O  O30  1  0.52923251  0.10993787  0.25155764  1
  O  O31  1  0.47076749  0.60993787  0.74844236  1
  O  O32  1  0.04703395  0.86294357  0.22965634  1
  O  O33  1  0.95296605  0.36294357  0.77034366  1
  O  O34  1  0.45296605  0.86294357  0.72965634  1
  O  O35  1  0.54703395  0.36294357  0.27034366  1
  O  O36  1  0.53108370  0.12098115  0.72108679  1
  O  O37  1  0.46891630  0.62098115  0.27891321  1
  O  O38  1  0.96891630  0.12098115  0.22108679  1
  O  O39  1  0.81781761  0.21177743  0.40035032  1
  O  O40  1  0.03108370  0.62098115  0.77891321  1
  O  O41  1  0.30401236  0.45907010  0.89758216  1
  O  O42  1  0.80401236  0.95907010  0.60241784  1
  O  O43  1  0.19598764  0.45907010  0.39758216  1
  O  O44  1  0.19336296  0.01598659  0.60245913  1
  O  O45  1  0.80663704  0.51598659  0.39754087  1
  O  O46  1  0.30663704  0.01598659  0.10245913  1
  O  O47  1  0.69336296  0.51598659  0.89754087  1
  O  O48  1  0.51201050  0.11438890  0.51033300  1
  O  O49  1  0.48798950  0.61438890  0.48966700  1
  O  O50  1  0.98798950  0.11438890  0.01033300  1
  O  O51  1  0.01201050  0.61438890  0.98966700  1
  O  O52  1  0.02238263  0.85933503  0.01299608  1
  O  O53  1  0.97761737  0.35933503  0.98700392  1
  O  O54  1  0.47761737  0.85933503  0.51299608  1
  O  O55  1  0.52238263  0.35933503  0.48700392  1
  O  O56  1  0.81114840  0.25827190  0.59704200  1
  O  O57  1  0.18885160  0.75827190  0.40295800  1
  O  O58  1  0.68885160  0.25827190  0.09704200  1
  O  O59  1  0.31114840  0.75827190  0.90295800  1
  O  O60  1  0.31781761  0.71177743  0.09964968  1
  O  O61  1  0.68218239  0.21177743  0.90035032  1
  O  O62  1  0.18218239  0.71177743  0.59964968  1
  O  O63  1  0.69598764  0.95907010  0.10241784  1
