# generated using pymatgen
data_Ba2PIO4
_symmetry_space_group_name_H-M   'P 1'
_cell_length_a   9.30990756
_cell_length_b   8.92118466
_cell_length_c   9.48566964
_cell_angle_alpha   68.26820004
_cell_angle_beta   90.00000000
_cell_angle_gamma   90.00000000
_symmetry_Int_Tables_number   1
_chemical_formula_structural   Ba2PIO4
_chemical_formula_sum   'Ba8 P4 I4 O16'
_cell_volume   731.84242062
_cell_formula_units_Z   4
loop_
 _symmetry_equiv_pos_site_id
 _symmetry_equiv_pos_as_xyz
  1  'x, y, z'
loop_
 _atom_site_type_symbol
 _atom_site_label
 _atom_site_symmetry_multiplicity
 _atom_site_fract_x
 _atom_site_fract_y
 _atom_site_fract_z
 _atom_site_occupancy
  Ba  Ba0  1  0.30789949  0.45906912  0.15939788  1
  Ba  Ba1  1  0.80789949  0.04093088  0.84060212  1
  Ba  Ba2  1  0.69210051  0.54093088  0.84060212  1
  Ba  Ba3  1  0.19210051  0.95906912  0.15939788  1
  Ba  Ba4  1  0.32890413  0.95219780  0.75006002  1
  Ba  Ba5  1  0.82890413  0.54780220  0.24993998  1
  Ba  Ba6  1  0.67109587  0.04780220  0.24993998  1
  Ba  Ba7  1  0.17109587  0.45219780  0.75006002  1
  P  P8  1  0.05670347  0.73822488  0.96166225  1
  P  P9  1  0.55670347  0.76177512  0.03833775  1
  P  P10  1  0.94329653  0.26177512  0.03833775  1
  P  P11  1  0.44329653  0.23822488  0.96166225  1
  I  I12  1  0.92059477  0.75615399  0.50277495  1
  I  I13  1  0.42059477  0.74384601  0.49722505  1
  I  I14  1  0.07940523  0.24384601  0.49722505  1
  I  I15  1  0.57940523  0.25615399  0.50277495  1
  O  O16  1  0.08508331  0.66713047  0.13543244  1
  O  O17  1  0.58508331  0.83286953  0.86456756  1
  O  O18  1  0.91491669  0.33286953  0.86456756  1
  O  O19  1  0.41491669  0.16713047  0.13543244  1
  O  O20  1  0.10038942  0.29348473  0.06670481  1
  O  O21  1  0.60038942  0.20651527  0.93329519  1
  O  O22  1  0.89961058  0.70651527  0.93329519  1
  O  O23  1  0.39961058  0.79348473  0.06670481  1
  O  O24  1  0.66641122  0.83360761  0.11738558  1
  O  O25  1  0.16641122  0.66639239  0.88261442  1
  O  O26  1  0.33358878  0.16639239  0.88261442  1
  O  O27  1  0.83358878  0.33360761  0.11738558  1
  O  O28  1  0.41726902  0.42256226  0.90422327  1
  O  O29  1  0.91726902  0.07743774  0.09577673  1
  O  O30  1  0.58273098  0.57743774  0.09577673  1
  O  O31  1  0.08273098  0.92256226  0.90422327  1
