# generated using pymatgen
data_Rb4Mg(Se2O7)2
_symmetry_space_group_name_H-M   'P 1'
_cell_length_a   8.64404999
_cell_length_b   8.64404999
_cell_length_c   7.43691724
_cell_angle_alpha   99.20977802
_cell_angle_beta   99.20977802
_cell_angle_gamma   56.43495425
_symmetry_Int_Tables_number   1
_chemical_formula_structural   Rb4Mg(Se2O7)2
_chemical_formula_sum   'Rb4 Mg1 Se4 O14'
_cell_volume   455.32606393
_cell_formula_units_Z   1
loop_
 _symmetry_equiv_pos_site_id
 _symmetry_equiv_pos_as_xyz
  1  'x, y, z'
loop_
 _atom_site_type_symbol
 _atom_site_label
 _atom_site_symmetry_multiplicity
 _atom_site_fract_x
 _atom_site_fract_y
 _atom_site_fract_z
 _atom_site_occupancy
  Rb  Rb0  1  0.03301000  0.62537000  0.33261000  1
  Rb  Rb1  1  0.37463000  0.96699000  0.16739000  1
  Rb  Rb2  1  0.88086200  0.40696900  0.69986000  1
  Rb  Rb3  1  0.59303200  0.11913800  0.80014000  1
  Mg  Mg4  1  0.52634400  0.47365600  0.25000000  1
  Se  Se5  1  0.70058600  0.10739500  0.35234100  1
  Se  Se6  1  0.89260500  0.29941400  0.14765900  1
  Se  Se7  1  0.33341900  0.83191200  0.63094700  1
  Se  Se8  1  0.16808800  0.66658100  0.86905300  1
  O  O9  1  0.64661200  0.28410000  0.51840300  1
  O  O10  1  0.71589900  0.35338800  0.98159700  1
  O  O11  1  0.35255600  0.69330500  0.44059600  1
  O  O12  1  0.30669400  0.64744400  0.05940400  1
  O  O13  1  0.51735800  0.23718300  0.19083800  1
  O  O14  1  0.76281700  0.48264200  0.30916200  1
  O  O15  1  0.51861700  0.75615200  0.77802400  1
  O  O16  1  0.24384800  0.48138300  0.72197600  1
  O  O17  1  0.65872600  0.95315000  0.41921000  1
  O  O18  1  0.04685000  0.34127400  0.08079000  1
  O  O19  1  0.23509500  0.04927500  0.58906700  1
  O  O20  1  0.95072500  0.76490500  0.91093300  1
  O  O21  1  0.90120800  0.09879200  0.25000000  1
  O  O22  1  0.14875100  0.85124900  0.75000000  1
