# generated using pymatgen
data_Sr2YTaO6
_symmetry_space_group_name_H-M   'P 1'
_cell_length_a   5.78939243
_cell_length_b   5.78938827
_cell_length_c   5.86402926
_cell_angle_alpha   119.57984265
_cell_angle_beta   119.57989775
_cell_angle_gamma   89.99998595
_symmetry_Int_Tables_number   1
_chemical_formula_structural   Sr2YTaO6
_chemical_formula_sum   'Sr2 Y1 Ta1 O6'
_cell_volume   140.72483799
_cell_formula_units_Z   1
loop_
 _symmetry_equiv_pos_site_id
 _symmetry_equiv_pos_as_xyz
  1  'x, y, z'
loop_
 _atom_site_type_symbol
 _atom_site_label
 _atom_site_symmetry_multiplicity
 _atom_site_fract_x
 _atom_site_fract_y
 _atom_site_fract_z
 _atom_site_occupancy
  Sr  Sr0  1  0.74999993  0.24999885  0.49999961  1
  Sr  Sr1  1  0.25000037  0.74999962  0.50000034  1
  Y  Y2  1  0.99999828  0.99999767  1.00000006  1
  Ta  Ta3  1  0.49999943  0.49999542  0.00000004  1
  O  O4  1  0.26322791  0.26322822  0.52645375  1
  O  O5  1  0.73677327  0.73677418  0.47354618  1
  O  O6  1  0.32659506  0.20380117  -0.00000010  1
  O  O7  1  0.67340681  0.79620395  1.00000004  1
  O  O8  1  0.79620088  0.32659473  0.00000048  1
  O  O9  1  0.20379805  0.67340619  0.99999961  1
