# generated using pymatgen
data_ZnP2
_symmetry_space_group_name_H-M   'P 1'
_cell_length_a   7.25615365
_cell_length_b   7.52721806
_cell_length_c   8.80757936
_cell_angle_alpha   102.36090398
_cell_angle_beta   90.00000000
_cell_angle_gamma   90.00000000
_symmetry_Int_Tables_number   1
_chemical_formula_structural   ZnP2
_chemical_formula_sum   'Zn8 P16'
_cell_volume   469.90649005
_cell_formula_units_Z   8
loop_
 _symmetry_equiv_pos_site_id
 _symmetry_equiv_pos_as_xyz
  1  'x, y, z'
loop_
 _atom_site_type_symbol
 _atom_site_label
 _atom_site_symmetry_multiplicity
 _atom_site_fract_x
 _atom_site_fract_y
 _atom_site_fract_z
 _atom_site_occupancy
  Zn  Zn0  1  0.40519993  0.72463888  0.39212146  1
  Zn  Zn1  1  0.90519993  0.77536112  0.60787854  1
  Zn  Zn2  1  0.59480007  0.27536112  0.60787854  1
  Zn  Zn3  1  0.09480007  0.22463888  0.39212146  1
  Zn  Zn4  1  0.75316362  0.89445332  0.08189009  1
  Zn  Zn5  1  0.25316362  0.60554668  0.91810991  1
  Zn  Zn6  1  0.24683638  0.10554668  0.91810991  1
  Zn  Zn7  1  0.74683638  0.39445332  0.08189009  1
  P  P8  1  0.24382843  0.89500844  0.07706701  1
  P  P9  1  0.74382843  0.60499156  0.92293299  1
  P  P10  1  0.75617157  0.10499156  0.92293299  1
  P  P11  1  0.25617157  0.39500844  0.07706701  1
  P  P12  1  0.01591842  0.92782535  0.24199337  1
  P  P13  1  0.51591842  0.57217465  0.75800663  1
  P  P14  1  0.98408158  0.07217465  0.75800663  1
  P  P15  1  0.48408158  0.42782535  0.24199337  1
  P  P16  1  0.42647687  0.21671984  0.37517674  1
  P  P17  1  0.92647687  0.28328016  0.62482326  1
  P  P18  1  0.57352313  0.78328016  0.62482326  1
  P  P19  1  0.07352313  0.71671984  0.37517674  1
  P  P20  1  0.01940526  0.44101390  0.23494263  1
  P  P21  1  0.51940526  0.05898610  0.76505737  1
  P  P22  1  0.98059474  0.55898610  0.76505737  1
  P  P23  1  0.48059474  0.94101390  0.23494263  1
