# generated using pymatgen
data_K2MgFe4P6(O4F3)4
_symmetry_space_group_name_H-M   'P 1'
_cell_length_a   7.37121558
_cell_length_b   7.63011005
_cell_length_c   11.28548503
_cell_angle_alpha   102.19228112
_cell_angle_beta   107.83731023
_cell_angle_gamma   91.41135171
_symmetry_Int_Tables_number   1
_chemical_formula_structural   K2MgFe4P6(O4F3)4
_chemical_formula_sum   'K2 Mg1 Fe4 P6 O16 F12'
_cell_volume   587.86397411
_cell_formula_units_Z   1
loop_
 _symmetry_equiv_pos_site_id
 _symmetry_equiv_pos_as_xyz
  1  'x, y, z'
loop_
 _atom_site_type_symbol
 _atom_site_label
 _atom_site_symmetry_multiplicity
 _atom_site_fract_x
 _atom_site_fract_y
 _atom_site_fract_z
 _atom_site_occupancy
  K  K0  1  0.76323374  0.07670056  0.80793494  1
  K  K1  1  0.26614309  0.95189852  0.13704909  1
  Mg  Mg2  1  0.15194128  0.81298433  0.38366061  1
  Fe  Fe3  1  0.65188475  0.32873685  0.32326392  1
  Fe  Fe4  1  0.33939667  0.65555814  0.67467159  1
  Fe  Fe5  1  0.50234151  0.49532695  0.99790884  1
  Fe  Fe6  1  0.97802343  0.07308800  0.53566010  1
  P  P7  1  0.63170890  0.74117496  0.50321543  1
  P  P8  1  0.35161809  0.24839619  0.48819586  1
  P  P9  1  0.30464912  0.08435906  0.81771952  1
  P  P10  1  0.72798161  0.90263700  0.18488404  1
  P  P11  1  0.05469967  0.58158577  0.83898647  1
  P  P12  1  0.94820688  0.41998412  0.16415131  1
  O  O13  1  0.68315497  0.58207073  0.42069519  1
  O  O14  1  0.28048534  0.41569918  0.54984840  1
  O  O15  1  0.76701242  0.91014200  0.54506554  1
  O  O16  1  0.20406289  0.08252846  0.45528790  1
  O  O17  1  0.63777903  0.07078060  0.22975972  1
  O  O18  1  0.39399747  0.91536118  0.77314838  1
  O  O19  1  0.45904049  0.23593263  0.89260066  1
  O  O20  1  0.57258831  0.75216646  0.10967828  1
  O  O21  1  0.89594982  0.85697326  0.28759635  1
  O  O22  1  0.13076761  0.13291812  0.72150206  1
  O  O23  1  0.89801505  0.38004085  0.27423256  1
  O  O24  1  0.10362009  0.61679826  0.72648823  1
  O  O25  1  0.81308384  0.46159048  0.04866624  1
  O  O26  1  0.20136710  0.55446671  0.95654282  1
  O  O27  1  0.41935375  0.25612989  0.37471132  1
  O  O28  1  0.55618309  0.70879850  0.60757750  1
  F  F29  1  0.82763781  0.26660312  0.47389511  1
  F  F30  1  0.15423580  0.74878133  0.53366789  1
  F  F31  1  0.49854313  0.38713756  0.16795661  1
  F  F32  1  0.49497837  0.57754771  0.81941260  1
  F  F33  1  0.82624280  0.95357616  0.08521671  1
  F  F34  1  0.21094539  0.03440973  0.92103031  1
  F  F35  1  0.88788071  0.42582787  0.78819513  1
  F  F36  1  0.12148800  0.58343591  0.22818608  1
  F  F37  1  0.53033090  0.20606877  0.59672160  1
  F  F38  1  0.43380951  0.79798553  0.39617752  1
  F  F39  1  0.07556454  0.27268417  0.12107936  1
  F  F40  1  0.93755303  0.74111441  0.88150820  1
