# generated using pymatgen
data_MoSe2
_symmetry_space_group_name_H-M   'P 1'
_cell_length_a   3.32106355
_cell_length_b   3.32106235
_cell_length_c   22.89380692
_cell_angle_alpha   90.00000000
_cell_angle_beta   90.00000000
_cell_angle_gamma   120.00001208
_symmetry_Int_Tables_number   1
_chemical_formula_structural   MoSe2
_chemical_formula_sum   'Mo2 Se4'
_cell_volume   218.67685008
_cell_formula_units_Z   2
loop_
 _symmetry_equiv_pos_site_id
 _symmetry_equiv_pos_as_xyz
  1  'x, y, z'
loop_
 _atom_site_type_symbol
 _atom_site_label
 _atom_site_symmetry_multiplicity
 _atom_site_fract_x
 _atom_site_fract_y
 _atom_site_fract_z
 _atom_site_occupancy
  Mo  Mo0  1  0.66666700  0.33333300  0.45158405  1
  Mo  Mo1  1  0.33333300  0.66666700  0.15551095  1
  Se  Se2  1  0.33333300  0.66666700  0.52378544  1
  Se  Se3  1  0.66666700  0.33333300  0.22778667  1
  Se  Se4  1  0.33333300  0.66666700  0.37930833  1
  Se  Se5  1  0.66666700  0.33333300  0.08330956  1
