# generated using pymatgen
data_CaMn6(OF2)4
_symmetry_space_group_name_H-M   'P 1'
_cell_length_a   5.63149896
_cell_length_b   7.95919476
_cell_length_c   6.05547046
_cell_angle_alpha   95.86527312
_cell_angle_beta   86.05459155
_cell_angle_gamma   91.72602536
_symmetry_Int_Tables_number   1
_chemical_formula_structural   CaMn6(OF2)4
_chemical_formula_sum   'Ca1 Mn6 O4 F8'
_cell_volume   269.28580117
_cell_formula_units_Z   1
loop_
 _symmetry_equiv_pos_site_id
 _symmetry_equiv_pos_as_xyz
  1  'x, y, z'
loop_
 _atom_site_type_symbol
 _atom_site_label
 _atom_site_symmetry_multiplicity
 _atom_site_fract_x
 _atom_site_fract_y
 _atom_site_fract_z
 _atom_site_occupancy
  Ca  Ca0  1  0.46902200  0.81294900  0.85742600  1
  Mn  Mn1  1  0.52178300  0.01722000  0.44636300  1
  Mn  Mn2  1  0.73183100  0.64046400  0.23113700  1
  Mn  Mn3  1  0.48276200  0.34099800  0.82877100  1
  Mn  Mn4  1  0.95366400  0.67234300  0.67962300  1
  Mn  Mn5  1  0.10249100  0.31673200  0.39693400  1
  Mn  Mn6  1  0.97677900  0.02820400  0.99475800  1
  O  O7  1  0.82233300  0.77930500  0.99857000  1
  O  O8  1  0.67223900  0.78444500  0.50331800  1
  O  O9  1  0.60391300  0.44929000  0.09115700  1
  O  O10  1  0.35599800  0.23205400  0.56746300  1
  F  F11  1  0.79236300  0.42061400  0.64900300  1
  F  F12  1  0.84489000  0.12479500  0.31402700  1
  F  F13  1  0.65713200  0.09249400  0.83846300  1
  F  F14  1  0.27829300  0.56297500  0.78018000  1
  F  F15  1  0.30609500  0.94093300  0.17473300  1
  F  F16  1  0.06267200  0.56979000  0.34376100  1
  F  F17  1  0.19064000  0.25430700  0.03437100  1
  F  F18  1  0.16120900  0.91008400  0.69702600  1
