# generated using pymatgen
data_CaCO3
_symmetry_space_group_name_H-M   'P 1'
_cell_length_a   3.83337883
_cell_length_b   5.02981400
_cell_length_c   6.52339007
_cell_angle_alpha   95.89062447
_cell_angle_beta   106.06120312
_cell_angle_gamma   90.33384171
_symmetry_Int_Tables_number   1
_chemical_formula_structural   CaCO3
_chemical_formula_sum   'Ca2 C2 O6'
_cell_volume   120.15381547
_cell_formula_units_Z   2
loop_
 _symmetry_equiv_pos_site_id
 _symmetry_equiv_pos_as_xyz
  1  'x, y, z'
loop_
 _atom_site_type_symbol
 _atom_site_label
 _atom_site_symmetry_multiplicity
 _atom_site_fract_x
 _atom_site_fract_y
 _atom_site_fract_z
 _atom_site_occupancy
  Ca  Ca0  1  0.60492484  0.31508247  0.25629547  1
  Ca  Ca1  1  0.39507516  0.68491753  0.74370453  1
  C  C2  1  0.99115624  0.19800056  0.74869596  1
  C  C3  1  0.00884376  0.80199944  0.25130404  1
  O  O4  1  0.81672234  0.38310221  0.64121319  1
  O  O5  1  0.18327766  0.61689779  0.35878681  1
  O  O6  1  0.87708722  0.95340956  0.70872117  1
  O  O7  1  0.12291278  0.04659044  0.29127883  1
  O  O8  1  0.29411483  0.26650521  0.89094542  1
  O  O9  1  0.70588517  0.73349479  0.10905458  1
