# generated using pymatgen
data_Hf3GeO8
_symmetry_space_group_name_H-M   'P 1'
_cell_length_a   6.26956891
_cell_length_b   6.26956891
_cell_length_c   6.26956891
_cell_angle_alpha   133.33979867
_cell_angle_beta   133.33979867
_cell_angle_gamma   68.12101637
_symmetry_Int_Tables_number   1
_chemical_formula_structural   Hf3GeO8
_chemical_formula_sum   'Hf3 Ge1 O8'
_cell_volume   128.08233281
_cell_formula_units_Z   1
loop_
 _symmetry_equiv_pos_site_id
 _symmetry_equiv_pos_as_xyz
  1  'x, y, z'
loop_
 _atom_site_type_symbol
 _atom_site_label
 _atom_site_symmetry_multiplicity
 _atom_site_fract_x
 _atom_site_fract_y
 _atom_site_fract_z
 _atom_site_occupancy
  Hf  Hf0  1  0.25000000  0.75000000  0.50000000  1
  Hf  Hf1  1  0.75000000  0.25000000  0.50000000  1
  Hf  Hf2  1  0.50000000  0.50000000  0.00000000  1
  Ge  Ge3  1  -0.00000000  0.00000000  0.00000000  1
  O  O4  1  0.53754949  0.14314692  0.00000000  1
  O  O5  1  0.14314692  0.53754949  0.00000000  1
  O  O6  1  0.85685308  0.85685308  0.39440257  1
  O  O7  1  0.46245051  0.46245051  0.60559743  1
  O  O8  1  0.30527203  0.87347819  -0.00000000  1
  O  O9  1  0.87347819  0.30527203  -0.00000000  1
  O  O10  1  0.12652181  0.12652181  0.43179384  1
  O  O11  1  0.69472797  0.69472797  0.56820616  1
