# generated using pymatgen
data_Cs6MgNp2(H8O9)2
_symmetry_space_group_name_H-M   'P 1'
_cell_length_a   8.09689557
_cell_length_b   8.91404109
_cell_length_c   8.91404109
_cell_angle_alpha   85.82101182
_cell_angle_beta   87.17684386
_cell_angle_gamma   87.17684386
_symmetry_Int_Tables_number   1
_chemical_formula_structural   Cs6MgNp2(H8O9)2
_chemical_formula_sum   'Cs6 Mg1 Np2 H16 O18'
_cell_volume   640.21724645
_cell_formula_units_Z   1
loop_
 _symmetry_equiv_pos_site_id
 _symmetry_equiv_pos_as_xyz
  1  'x, y, z'
loop_
 _atom_site_type_symbol
 _atom_site_label
 _atom_site_symmetry_multiplicity
 _atom_site_fract_x
 _atom_site_fract_y
 _atom_site_fract_z
 _atom_site_occupancy
  Cs  Cs0  1  0.50371060  0.60174289  0.80408318  1
  Cs  Cs1  1  0.99628940  0.19591682  0.39825711  1
  Cs  Cs2  1  0.46238726  0.37726883  0.20345937  1
  Cs  Cs3  1  0.03761274  0.79654063  0.62273117  1
  Cs  Cs4  1  0.25000000  0.96774898  0.03225102  1
  Cs  Cs5  1  0.75000000  0.07307488  0.92692512  1
  Mg  Mg6  1  0.75000000  0.73015273  0.26984727  1
  Np  Np7  1  0.99710667  0.48883461  0.00488120  1
  Np  Np8  1  0.50289333  0.99511880  0.51116539  1
  H  H9  1  0.93431789  0.43717976  0.69981351  1
  H  H10  1  0.56568211  0.30018649  0.56282024  1
  H  H11  1  0.02009215  0.56525493  0.31461638  1
  H  H12  1  0.47990785  0.68538362  0.43474507  1
  H  H13  1  0.20398495  0.08331641  0.71406456  1
  H  H14  1  0.29601505  0.28593544  0.91668359  1
  H  H15  1  0.74649643  0.02093723  0.28784260  1
  H  H16  1  0.75350357  0.71215740  0.97906277  1
  H  H17  1  0.09014554  0.23529914  0.74506942  1
  H  H18  1  0.40985446  0.25493058  0.76470086  1
  H  H19  1  0.01822853  0.84842719  0.24988969  1
  H  H20  1  0.48177147  0.75011031  0.15157281  1
  H  H21  1  0.16969252  0.47358903  0.59961605  1
  H  H22  1  0.33030848  0.40038395  0.52641097  1
  H  H23  1  0.81903459  0.47657791  0.43856826  1
  H  H24  1  0.68096541  0.56143174  0.52342209  1
  O  O25  1  0.87007096  0.71039435  0.93975333  1
  O  O26  1  0.62992904  0.06024667  0.28960565  1
  O  O27  1  0.12370350  0.29919050  0.06602890  1
  O  O28  1  0.37629650  0.93397110  0.70080950  1
  O  O29  1  0.19161095  0.59811345  0.00515278  1
  O  O30  1  0.30838905  0.99484722  0.40188655  1
  O  O31  1  0.79270424  0.39716318  0.00580018  1
  O  O32  1  0.70729576  0.99419982  0.60283682  1
  O  O33  1  0.04141016  0.43512420  0.74704767  1
  O  O34  1  0.45858984  0.25295233  0.56487580  1
  O  O35  1  0.91520082  0.54598939  0.27159460  1
  O  O36  1  0.58479918  0.72840540  0.45401061  1
  O  O37  1  0.08975972  0.12348999  0.73818521  1
  O  O38  1  0.41024028  0.26181479  0.87650901  1
  O  O39  1  0.91101188  0.88391224  0.28948883  1
  O  O40  1  0.58898812  0.71051117  0.11608676  1
  O  O41  1  0.25000000  0.49034059  0.50965941  1
  O  O42  1  0.75000000  0.46495730  0.53504270  1
