# generated using pymatgen
data_Rb3MgNb5O15
_symmetry_space_group_name_H-M   'P 1'
_cell_length_a   6.63927734
_cell_length_b   19.65807564
_cell_length_c   11.71573786
_cell_angle_alpha   90.00000000
_cell_angle_beta   90.00000000
_cell_angle_gamma   90.00000000
_symmetry_Int_Tables_number   1
_chemical_formula_structural   Rb3MgNb5O15
_chemical_formula_sum   'Rb12 Mg4 Nb20 O60'
_cell_volume   1529.08440224
_cell_formula_units_Z   4
loop_
 _symmetry_equiv_pos_site_id
 _symmetry_equiv_pos_as_xyz
  1  'x, y, z'
loop_
 _atom_site_type_symbol
 _atom_site_label
 _atom_site_symmetry_multiplicity
 _atom_site_fract_x
 _atom_site_fract_y
 _atom_site_fract_z
 _atom_site_occupancy
  Rb  Rb0  1  0.70372328  0.30240595  0.24804073  1
  Rb  Rb1  1  0.70868955  0.30842489  0.59290067  1
  Rb  Rb2  1  0.70920713  0.30654680  0.90958739  1
  Rb  Rb3  1  0.20868955  0.19157511  0.24043233  1
  Rb  Rb4  1  0.20372328  0.19759405  0.58529227  1
  Rb  Rb5  1  0.20920713  0.19345320  0.92374661  1
  Rb  Rb6  1  0.29131045  0.69157511  0.09290067  1
  Rb  Rb7  1  0.29079287  0.69345320  0.40958739  1
  Rb  Rb8  1  0.29627672  0.69759405  0.74804073  1
  Rb  Rb9  1  0.79627672  0.80240595  0.08529227  1
  Rb  Rb10  1  0.79079287  0.80654680  0.42374661  1
  Rb  Rb11  1  0.79131045  0.80842489  0.74043233  1
  Mg  Mg12  1  0.19543676  0.53526706  0.25017416  1
  Mg  Mg13  1  0.69543676  0.96473294  0.58315884  1
  Mg  Mg14  1  0.80456324  0.46473294  0.75017416  1
  Mg  Mg15  1  0.30456324  0.03526706  0.08315884  1
  Nb  Nb16  1  0.73014459  0.61496011  0.25009123  1
  Nb  Nb17  1  0.73786653  0.60665144  0.58537987  1
  Nb  Nb18  1  0.73776662  0.60705333  0.91465742  1
  Nb  Nb19  1  0.23786653  0.89334856  0.24795313  1
  Nb  Nb20  1  0.23014459  0.88503989  0.58324177  1
  Nb  Nb21  1  0.23776662  0.89294667  0.91867658  1
  Nb  Nb22  1  0.26213347  0.39334856  0.08537987  1
  Nb  Nb23  1  0.26223338  0.39294667  0.41465742  1
  Nb  Nb24  1  0.26985541  0.38503989  0.75009123  1
  Nb  Nb25  1  0.76985541  0.11496011  0.08324177  1
  Nb  Nb26  1  0.76223338  0.10705333  0.41867658  1
  Nb  Nb27  1  0.76213347  0.10665144  0.74795313  1
  Nb  Nb28  1  0.18861281  0.52923937  0.58302998  1
  Nb  Nb29  1  0.18837167  0.52945589  0.91684522  1
  Nb  Nb30  1  0.68861281  0.97076063  0.25030302  1
  Nb  Nb31  1  0.68837167  0.97054411  0.91648878  1
  Nb  Nb32  1  0.81138719  0.47076063  0.08302998  1
  Nb  Nb33  1  0.81162833  0.47054411  0.41684522  1
  Nb  Nb34  1  0.31162833  0.02945589  0.41648878  1
  Nb  Nb35  1  0.31138719  0.02923937  0.75030302  1
  O  O36  1  0.65910708  0.70489312  0.24903568  1
  O  O37  1  0.66763328  0.69527074  0.58313813  1
  O  O38  1  0.66781931  0.69600260  0.91755046  1
  O  O39  1  0.16763328  0.80472926  0.25019487  1
  O  O40  1  0.15910708  0.79510688  0.58429732  1
  O  O41  1  0.16781931  0.80399740  0.91578354  1
  O  O42  1  0.33236672  0.30472926  0.08313813  1
  O  O43  1  0.33218069  0.30399740  0.41755046  1
  O  O44  1  0.34089292  0.29510688  0.74903568  1
  O  O45  1  0.84089292  0.20489312  0.08429732  1
  O  O46  1  0.83218069  0.19600260  0.41578354  1
  O  O47  1  0.83236672  0.19527074  0.75019487  1
  O  O48  1  0.02192085  0.61920971  0.24957462  1
  O  O49  1  0.04057132  0.61513239  0.58600243  1
  O  O50  1  0.04062403  0.61569896  0.91412072  1
  O  O51  1  0.54057132  0.88486761  0.24733057  1
  O  O52  1  0.52192085  0.88079029  0.58375838  1
  O  O53  1  0.54062403  0.88430104  0.91921328  1
  O  O54  1  0.95942868  0.38486761  0.08600243  1
  O  O55  1  0.95937597  0.38430104  0.41412072  1
  O  O56  1  0.97807915  0.38079029  0.74957462  1
  O  O57  1  0.47807915  0.11920971  0.08375838  1
  O  O58  1  0.45937597  0.11569896  0.41921328  1
  O  O59  1  0.45942868  0.11513239  0.74733057  1
  O  O60  1  0.85114088  0.48928058  0.25000766  1
  O  O61  1  0.85628324  0.49177709  0.57922277  1
  O  O62  1  0.85646848  0.49215875  0.92070003  1
  O  O63  1  0.35628324  0.00822291  0.25411023  1
  O  O64  1  0.35114088  0.01071942  0.58332534  1
  O  O65  1  0.35646848  0.00784125  0.91263397  1
  O  O66  1  0.14371676  0.50822291  0.07922277  1
  O  O67  1  0.14353152  0.50784125  0.42070003  1
  O  O68  1  0.14885912  0.51071942  0.75000766  1
  O  O69  1  0.64885912  0.98928058  0.08332534  1
  O  O70  1  0.64353152  0.99215875  0.41263397  1
  O  O71  1  0.64371676  0.99177709  0.75411023  1
  O  O72  1  0.26299221  0.41842919  0.25021344  1
  O  O73  1  0.25316729  0.42148874  0.57915398  1
  O  O74  1  0.25304848  0.42174230  0.92067350  1
  O  O75  1  0.75316729  0.07851126  0.25417902  1
  O  O76  1  0.76299221  0.08157081  0.58311956  1
  O  O77  1  0.75304848  0.07825770  0.91266050  1
  O  O78  1  0.74683271  0.57851126  0.07915398  1
  O  O79  1  0.74695152  0.57825770  0.42067350  1
  O  O80  1  0.73700779  0.58157081  0.75021344  1
  O  O81  1  0.23700779  0.91842919  0.08311956  1
  O  O82  1  0.24695152  0.92174230  0.41266050  1
  O  O83  1  0.24683271  0.92148874  0.75417902  1
  O  O84  1  0.46793766  0.57414271  0.24967808  1
  O  O85  1  0.44129753  0.56977227  0.58283284  1
  O  O86  1  0.44116837  0.57004317  0.91728356  1
  O  O87  1  0.94129753  0.93022773  0.25050016  1
  O  O88  1  0.96793766  0.92585729  0.58365492  1
  O  O89  1  0.94116837  0.92995683  0.91605044  1
  O  O90  1  0.55870247  0.43022773  0.08283284  1
  O  O91  1  0.55883163  0.42995683  0.41728356  1
  O  O92  1  0.53206234  0.42585729  0.74967808  1
  O  O93  1  0.03206234  0.07414271  0.08365492  1
  O  O94  1  0.05883163  0.07004317  0.41605044  1
  O  O95  1  0.05870247  0.06977227  0.75050016  1
