# generated using pymatgen
data_Li2InFe(P2O7)2
_symmetry_space_group_name_H-M   'P 1'
_cell_length_a   7.01143689
_cell_length_b   9.58186557
_cell_length_c   9.61031879
_cell_angle_alpha   60.95912799
_cell_angle_beta   99.53052884
_cell_angle_gamma   79.91241618
_symmetry_Int_Tables_number   1
_chemical_formula_structural   Li2InFe(P2O7)2
_chemical_formula_sum   'Li4 In2 Fe2 P8 O28'
_cell_volume   531.67166091
_cell_formula_units_Z   2
loop_
 _symmetry_equiv_pos_site_id
 _symmetry_equiv_pos_as_xyz
  1  'x, y, z'
loop_
 _atom_site_type_symbol
 _atom_site_label
 _atom_site_symmetry_multiplicity
 _atom_site_fract_x
 _atom_site_fract_y
 _atom_site_fract_z
 _atom_site_occupancy
  Li  Li0  1  0.17192635  0.82777944  0.51283337  1
  Li  Li1  1  0.17192787  0.32777411  0.01283733  1
  Li  Li2  1  0.83918974  0.26289095  0.58515413  1
  Li  Li3  1  0.83916951  0.76288954  0.08517616  1
  In  In4  1  0.76243311  0.10311056  0.38235893  1
  In  In5  1  0.76243870  0.60311084  0.88236240  1
  Fe  Fe6  1  0.23037270  0.63457717  0.35063212  1
  Fe  Fe7  1  0.23037138  0.13457895  0.85063024  1
  P  P8  1  0.57515594  0.77963816  0.48308088  1
  P  P9  1  0.57515289  0.27963786  0.98307703  1
  P  P10  1  0.41773373  0.24110561  0.53868691  1
  P  P11  1  0.41773260  0.74110517  0.03868083  1
  P  P12  1  0.97664033  0.03276014  0.13051868  1
  P  P13  1  0.97663924  0.53275747  0.63052307  1
  P  P14  1  0.03153694  0.88229217  0.78608550  1
  P  P15  1  0.03153845  0.38229472  0.28608310  1
  O  O16  1  0.02012509  0.85752584  0.16217530  1
  O  O17  1  0.02012407  0.35752416  0.66217409  1
  O  O18  1  0.99534227  0.90737223  0.61424130  1
  O  O19  1  0.99534624  0.40737056  0.11424274  1
  O  O20  1  0.56472929  0.77712948  0.64095841  1
  O  O21  1  0.56471697  0.27712914  0.14095645  1
  O  O22  1  0.40430347  0.41007918  0.51783672  1
  O  O23  1  0.40430244  0.91007786  0.01783183  1
  O  O24  1  0.74082556  0.61418264  0.52846973  1
  O  O25  1  0.74082593  0.11418235  0.02846960  1
  O  O26  1  0.26187578  0.26772841  0.37908104  1
  O  O27  1  0.26187308  0.76772325  0.87908062  1
  O  O28  1  0.09180516  0.63868458  0.52317161  1
  O  O29  1  0.09181040  0.13868183  0.02316771  1
  O  O30  1  0.90107980  0.28811755  0.38471850  1
  O  O31  1  0.90108433  0.78811734  0.88472501  1
  O  O32  1  0.63178233  0.92840950  0.36432132  1
  O  O33  1  0.63178470  0.42840690  0.86432853  1
  O  O34  1  0.36602857  0.12440387  0.69151223  1
  O  O35  1  0.36603112  0.62440147  0.19151279  1
  O  O36  1  0.37698733  0.76805583  0.40472377  1
  O  O37  1  0.37698977  0.26805528  0.90471597  1
  O  O38  1  0.62364714  0.16470729  0.53424846  1
  O  O39  1  0.62364434  0.66470405  0.03425098  1
  O  O40  1  0.00044176  0.03266871  0.29086392  1
  O  O41  1  0.00043930  0.53266673  0.79086547  1
  O  O42  1  0.01604889  0.04449717  0.78201825  1
  O  O43  1  0.01604537  0.54449896  0.28201996  1
