# generated using pymatgen
data_CeSe2
_symmetry_space_group_name_H-M   'P 1'
_cell_length_a   12.63548180
_cell_length_b   16.64523652
_cell_length_c   16.64523641
_cell_angle_alpha   88.43653931
_cell_angle_beta   81.14934911
_cell_angle_gamma   81.14934918
_symmetry_Int_Tables_number   1
_chemical_formula_structural   CeSe2
_chemical_formula_sum   'Ce12 Se24'
_cell_volume   3417.93816348
_cell_formula_units_Z   12
loop_
 _symmetry_equiv_pos_site_id
 _symmetry_equiv_pos_as_xyz
  1  'x, y, z'
loop_
 _atom_site_type_symbol
 _atom_site_label
 _atom_site_symmetry_multiplicity
 _atom_site_fract_x
 _atom_site_fract_y
 _atom_site_fract_z
 _atom_site_occupancy
  Ce  Ce0  1  0.95594935  0.78525786  0.00934516  1
  Ce  Ce1  1  0.95594935  0.00934516  0.78525786  1
  Ce  Ce2  1  0.04405065  0.21474214  0.99065484  1
  Ce  Ce3  1  0.04405065  0.99065484  0.21474214  1
  Ce  Ce4  1  0.35003554  0.65449131  0.87846712  1
  Ce  Ce5  1  0.35003554  0.87846712  0.65449131  1
  Ce  Ce6  1  0.64996446  0.34550869  0.12153288  1
  Ce  Ce7  1  0.64996446  0.12153288  0.34550869  1
  Ce  Ce8  1  0.58765474  0.66784389  0.10669052  1
  Ce  Ce9  1  0.58765474  0.10669052  0.66784389  1
  Ce  Ce10  1  0.41234526  0.33215611  0.89330948  1
  Ce  Ce11  1  0.41234526  0.89330948  0.33215611  1
  Se  Se12  1  1.00000000  0.85873927  0.14126073  1
  Se  Se13  1  0.00000000  0.14126073  0.85873927  1
  Se  Se14  1  0.89392078  0.90060375  0.90060375  1
  Se  Se15  1  0.10607922  0.09939625  0.09939625  1
  Se  Se16  1  0.13607220  0.68670338  0.93938841  1
  Se  Se17  1  0.13607220  0.93938841  0.68670338  1
  Se  Se18  1  0.86392780  0.31329662  0.06061159  1
  Se  Se19  1  0.86392780  0.06061159  0.31329662  1
  Se  Se20  1  0.79340616  0.69620941  0.05550061  1
  Se  Se21  1  0.79340616  0.05550061  0.69620941  1
  Se  Se22  1  0.20659384  0.30379059  0.94449939  1
  Se  Se23  1  0.20659384  0.94449939  0.30379059  1
  Se  Se24  1  0.38734483  0.73503757  0.73503757  1
  Se  Se25  1  0.61265517  0.26496243  0.26496243  1
  Se  Se26  1  0.40969920  0.49197332  0.85446451  1
  Se  Se27  1  0.40969920  0.85446451  0.49197332  1
  Se  Se28  1  0.59030080  0.50802668  0.14553549  1
  Se  Se29  1  0.59030080  0.14553549  0.50802668  1
  Se  Se30  1  0.46736067  0.70558516  0.98534959  1
  Se  Se31  1  0.46736067  0.98534959  0.70558516  1
  Se  Se32  1  0.53263933  0.29441484  0.01465041  1
  Se  Se33  1  0.53263933  0.01465041  0.29441484  1
  Se  Se34  1  0.50000000  0.76131138  0.23868862  1
  Se  Se35  1  0.50000000  0.23868862  0.76131138  1
