# generated using pymatgen
data_Ca(ScS2)2
_symmetry_space_group_name_H-M   'P 1'
_cell_length_a   3.74214548
_cell_length_b   11.54536886
_cell_length_c   13.51062576
_cell_angle_alpha   90.00000000
_cell_angle_beta   90.00000000
_cell_angle_gamma   90.00000000
_symmetry_Int_Tables_number   1
_chemical_formula_structural   Ca(ScS2)2
_chemical_formula_sum   'Ca4 Sc8 S16'
_cell_volume   583.71915369
_cell_formula_units_Z   4
loop_
 _symmetry_equiv_pos_site_id
 _symmetry_equiv_pos_as_xyz
  1  'x, y, z'
loop_
 _atom_site_type_symbol
 _atom_site_label
 _atom_site_symmetry_multiplicity
 _atom_site_fract_x
 _atom_site_fract_y
 _atom_site_fract_z
 _atom_site_occupancy
  Ca  Ca0  1  0.75000000  0.26025326  0.83292593  1
  Ca  Ca1  1  0.25000000  0.73974674  0.16707407  1
  Ca  Ca2  1  0.75000000  0.76025326  0.66707407  1
  Ca  Ca3  1  0.25000000  0.23974674  0.33292593  1
  Sc  Sc4  1  0.25000000  0.58534692  0.90325685  1
  Sc  Sc5  1  0.75000000  0.41465308  0.09674315  1
  Sc  Sc6  1  0.25000000  0.08534692  0.59674315  1
  Sc  Sc7  1  0.75000000  0.91465308  0.40325685  1
  Sc  Sc8  1  0.75000000  0.94227360  0.88806913  1
  Sc  Sc9  1  0.25000000  0.05772640  0.11193087  1
  Sc  Sc10  1  0.75000000  0.44227360  0.61193087  1
  Sc  Sc11  1  0.25000000  0.55772640  0.38806913  1
  S  S12  1  0.25000000  0.59139803  0.57498782  1
  S  S13  1  0.75000000  0.40860197  0.42501218  1
  S  S14  1  0.25000000  0.09139803  0.92501218  1
  S  S15  1  0.75000000  0.90860197  0.07498782  1
  S  S16  1  0.25000000  0.46743372  0.21488600  1
  S  S17  1  0.75000000  0.53256628  0.78511400  1
  S  S18  1  0.25000000  0.96743372  0.28511400  1
  S  S19  1  0.75000000  0.03256628  0.71488600  1
  S  S20  1  0.25000000  0.87435470  0.53272014  1
  S  S21  1  0.75000000  0.12564530  0.46727986  1
  S  S22  1  0.25000000  0.37435470  0.96727986  1
  S  S23  1  0.75000000  0.62564530  0.03272014  1
  S  S24  1  0.75000000  0.70226031  0.33080205  1
  S  S25  1  0.25000000  0.29773969  0.66919795  1
  S  S26  1  0.75000000  0.20226031  0.16919795  1
  S  S27  1  0.25000000  0.79773969  0.83080205  1
