# generated using pymatgen
data_K2Hf2O5
_symmetry_space_group_name_H-M   'P 1'
_cell_length_a   5.78848146
_cell_length_b   8.66936902
_cell_length_c   10.66755146
_cell_angle_alpha   90.00000000
_cell_angle_beta   90.00000000
_cell_angle_gamma   90.00000000
_symmetry_Int_Tables_number   1
_chemical_formula_structural   K2Hf2O5
_chemical_formula_sum   'K8 Hf8 O20'
_cell_volume   535.32420744
_cell_formula_units_Z   4
loop_
 _symmetry_equiv_pos_site_id
 _symmetry_equiv_pos_as_xyz
  1  'x, y, z'
loop_
 _atom_site_type_symbol
 _atom_site_label
 _atom_site_symmetry_multiplicity
 _atom_site_fract_x
 _atom_site_fract_y
 _atom_site_fract_z
 _atom_site_occupancy
  K  K0  1  0.43245394  0.07559057  0.66689232  1
  K  K1  1  0.06754606  0.07559057  0.33310768  1
  K  K2  1  0.43245394  0.42440943  0.83310768  1
  K  K3  1  0.06754606  0.42440943  0.16689232  1
  K  K4  1  0.56754606  0.92440943  0.33310768  1
  K  K5  1  0.93245394  0.92440943  0.66689232  1
  K  K6  1  0.56754606  0.57559057  0.16689232  1
  K  K7  1  0.93245394  0.57559057  0.83310768  1
  Hf  Hf8  1  0.96703345  0.15948952  0.92355839  1
  Hf  Hf9  1  0.53296655  0.15948952  0.07644161  1
  Hf  Hf10  1  0.96703345  0.34051048  0.57644161  1
  Hf  Hf11  1  0.53296655  0.34051048  0.42355839  1
  Hf  Hf12  1  0.03296655  0.84051048  0.07644161  1
  Hf  Hf13  1  0.46703345  0.84051048  0.92355839  1
  Hf  Hf14  1  0.03296655  0.65948952  0.42355839  1
  Hf  Hf15  1  0.46703345  0.65948952  0.57644161  1
  O  O16  1  0.12780470  0.55065748  0.60630340  1
  O  O17  1  0.37219530  0.55065748  0.39369660  1
  O  O18  1  0.12780470  0.94934252  0.89369660  1
  O  O19  1  0.37219530  0.94934252  0.10630340  1
  O  O20  1  0.87219530  0.44934252  0.39369660  1
  O  O21  1  0.62780470  0.44934252  0.60630340  1
  O  O22  1  0.87219530  0.05065748  0.10630340  1
  O  O23  1  0.62780470  0.05065748  0.89369660  1
  O  O24  1  0.25000000  0.25296750  -0.00000000  1
  O  O25  1  0.25000000  0.24703250  0.50000000  1
  O  O26  1  0.75000000  0.74703250  -0.00000000  1
  O  O27  1  0.75000000  0.75296750  0.50000000  1
  O  O28  1  0.25000000  0.67605085  -0.00000000  1
  O  O29  1  0.25000000  0.82394915  0.50000000  1
  O  O30  1  0.75000000  0.32394915  -0.00000000  1
  O  O31  1  0.75000000  0.17605085  0.50000000  1
  O  O32  1  0.00617642  0.25000000  0.75000000  1
  O  O33  1  0.49382358  0.25000000  0.25000000  1
  O  O34  1  0.99382358  0.75000000  0.25000000  1
  O  O35  1  0.50617642  0.75000000  0.75000000  1
