# generated using pymatgen
data_SmIn2Cl5
_symmetry_space_group_name_H-M   'P 1'
_cell_length_a   8.13104324
_cell_length_b   8.70329667
_cell_length_c   12.80957912
_cell_angle_alpha   90.00000000
_cell_angle_beta   90.00000000
_cell_angle_gamma   90.00000000
_symmetry_Int_Tables_number   1
_chemical_formula_structural   SmIn2Cl5
_chemical_formula_sum   'Sm4 In8 Cl20'
_cell_volume   906.49396835
_cell_formula_units_Z   4
loop_
 _symmetry_equiv_pos_site_id
 _symmetry_equiv_pos_as_xyz
  1  'x, y, z'
loop_
 _atom_site_type_symbol
 _atom_site_label
 _atom_site_symmetry_multiplicity
 _atom_site_fract_x
 _atom_site_fract_y
 _atom_site_fract_z
 _atom_site_occupancy
  Sm  Sm0  1  0.92444054  0.75000000  0.50470102  1
  Sm  Sm1  1  0.07555946  0.25000000  0.49529898  1
  Sm  Sm2  1  0.42444054  0.25000000  0.99529898  1
  Sm  Sm3  1  0.57555946  0.75000000  0.00470102  1
  In  In4  1  0.95040993  0.00540666  0.82780008  1
  In  In5  1  0.04959007  0.99459334  0.17219992  1
  In  In6  1  0.45040993  0.99459334  0.67219992  1
  In  In7  1  0.04959007  0.50540666  0.17219992  1
  In  In8  1  0.54959007  0.00540666  0.32780008  1
  In  In9  1  0.95040993  0.49459334  0.82780008  1
  In  In10  1  0.54959007  0.49459334  0.32780008  1
  In  In11  1  0.45040993  0.50540666  0.67219992  1
  Cl  Cl12  1  0.10723040  0.75000000  0.68363750  1
  Cl  Cl13  1  0.89276960  0.25000000  0.31636250  1
  Cl  Cl14  1  0.60723040  0.25000000  0.81636250  1
  Cl  Cl15  1  0.39276960  0.75000000  0.18363750  1
  Cl  Cl16  1  0.83472537  0.04512017  0.57209741  1
  Cl  Cl17  1  0.16527463  0.95487983  0.42790259  1
  Cl  Cl18  1  0.33472537  0.95487983  0.92790259  1
  Cl  Cl19  1  0.16527463  0.54512017  0.42790259  1
  Cl  Cl20  1  0.66527463  0.04512017  0.07209741  1
  Cl  Cl21  1  0.83472537  0.45487983  0.57209741  1
  Cl  Cl22  1  0.66527463  0.45487983  0.07209741  1
  Cl  Cl23  1  0.33472537  0.54512017  0.92790259  1
  Cl  Cl24  1  0.58439197  0.75000000  0.50775100  1
  Cl  Cl25  1  0.41560803  0.25000000  0.49224900  1
  Cl  Cl26  1  0.08439197  0.25000000  0.99224900  1
  Cl  Cl27  1  0.91560803  0.75000000  0.00775100  1
  Cl  Cl28  1  0.65755371  0.75000000  0.79661708  1
  Cl  Cl29  1  0.34244629  0.25000000  0.20338292  1
  Cl  Cl30  1  0.15755371  0.25000000  0.70338292  1
  Cl  Cl31  1  0.84244629  0.75000000  0.29661708  1
