# generated using pymatgen
data_Rb2Nd2Mg(WO4)4
_symmetry_space_group_name_H-M   'P 1'
_cell_length_a   7.88367939
_cell_length_b   7.88367976
_cell_length_c   7.53469329
_cell_angle_alpha   63.35665138
_cell_angle_beta   63.35664964
_cell_angle_gamma   93.82916728
_symmetry_Int_Tables_number   1
_chemical_formula_structural   Rb2Nd2Mg(WO4)4
_chemical_formula_sum   'Rb2 Nd2 Mg1 W4 O16'
_cell_volume   352.46874019
_cell_formula_units_Z   1
loop_
 _symmetry_equiv_pos_site_id
 _symmetry_equiv_pos_as_xyz
  1  'x, y, z'
loop_
 _atom_site_type_symbol
 _atom_site_label
 _atom_site_symmetry_multiplicity
 _atom_site_fract_x
 _atom_site_fract_y
 _atom_site_fract_z
 _atom_site_occupancy
  Rb  Rb0  1  0.74045900  0.25954100  0.75000000  1
  Rb  Rb1  1  0.21947200  0.78052800  0.25000000  1
  Nd  Nd2  1  0.25429400  0.74570600  0.75000000  1
  Nd  Nd3  1  0.77764500  0.22235500  0.25000000  1
  Mg  Mg4  1  0.98409000  0.01591000  0.75000000  1
  W  W5  1  0.69279500  0.70464500  0.78686600  1
  W  W6  1  0.72115000  0.69649600  0.27445600  1
  W  W7  1  0.30350400  0.27885000  0.22554400  1
  W  W8  1  0.29535500  0.30720500  0.71313400  1
  O  O9  1  0.57188600  0.36416200  0.47815300  1
  O  O10  1  0.20506300  0.02881600  0.82322600  1
  O  O11  1  0.08202800  0.38838600  0.86674100  1
  O  O12  1  0.37900500  0.06235600  0.37211800  1
  O  O13  1  0.75743900  0.64581900  0.54704600  1
  O  O14  1  0.35418100  0.24256100  0.95295400  1
  O  O15  1  0.61161400  0.91797200  0.63325900  1
  O  O16  1  0.42499900  0.62442300  0.50779900  1
  O  O17  1  0.01828300  0.19498800  0.35986600  1
  O  O18  1  0.80501200  0.98171700  0.14013400  1
  O  O19  1  0.37557700  0.57500100  0.99220100  1
  O  O20  1  0.93764400  0.62099500  0.12788200  1
  O  O21  1  0.19819800  0.32504900  0.50310700  1
  O  O22  1  0.67495100  0.80180200  0.99689300  1
  O  O23  1  0.97118400  0.79493700  0.67677400  1
  O  O24  1  0.63583800  0.42811400  0.02184700  1
