# generated using pymatgen
data_Cs2Hg6S7
_symmetry_space_group_name_H-M   'P 1'
_cell_length_a   14.16469878
_cell_length_b   14.16469878
_cell_length_c   4.22042213
_cell_angle_alpha   90.00000000
_cell_angle_beta   90.00000000
_cell_angle_gamma   90.00000000
_symmetry_Int_Tables_number   1
_chemical_formula_structural   Cs2Hg6S7
_chemical_formula_sum   'Cs4 Hg12 S14'
_cell_volume   846.77997386
_cell_formula_units_Z   2
loop_
 _symmetry_equiv_pos_site_id
 _symmetry_equiv_pos_as_xyz
  1  'x, y, z'
loop_
 _atom_site_type_symbol
 _atom_site_label
 _atom_site_symmetry_multiplicity
 _atom_site_fract_x
 _atom_site_fract_y
 _atom_site_fract_z
 _atom_site_occupancy
  Cs  Cs0  1  0.17041001  0.82958999  0.71626702  1
  Cs  Cs1  1  0.67041001  0.67041001  0.21626702  1
  Cs  Cs2  1  0.32958999  0.32958999  0.21626702  1
  Cs  Cs3  1  0.82958999  0.17041001  0.71626702  1
  Hg  Hg4  1  0.90214982  0.90214982  0.31942924  1
  Hg  Hg5  1  0.40214982  0.59785018  0.81942924  1
  Hg  Hg6  1  0.59785018  0.40214982  0.81942924  1
  Hg  Hg7  1  0.09785018  0.09785018  0.31942924  1
  Hg  Hg8  1  0.15322286  0.57247205  0.22388992  1
  Hg  Hg9  1  0.84677714  0.42752795  0.22388992  1
  Hg  Hg10  1  0.92752795  0.65322286  0.72388992  1
  Hg  Hg11  1  0.07247205  0.34677714  0.72388992  1
  Hg  Hg12  1  0.42752795  0.84677714  0.22388992  1
  Hg  Hg13  1  0.34677714  0.07247205  0.72388992  1
  Hg  Hg14  1  0.65322286  0.92752795  0.72388992  1
  Hg  Hg15  1  0.57247205  0.15322286  0.22388992  1
  S  S16  1  0.81743698  0.81743698  0.71179986  1
  S  S17  1  0.31743698  0.68256302  0.21179986  1
  S  S18  1  0.68256302  0.31743698  0.21179986  1
  S  S19  1  0.18256302  0.18256302  0.71179986  1
  S  S20  1  0.50000000  0.50000000  0.49841943  1
  S  S21  1  -0.00000000  -0.00000000  0.99841943  1
  S  S22  1  0.02274450  0.69160495  0.22304667  1
  S  S23  1  0.97725550  0.30839505  0.22304667  1
  S  S24  1  0.80839505  0.52274450  0.72304667  1
  S  S25  1  0.19160495  0.47725550  0.72304667  1
  S  S26  1  0.30839505  0.97725550  0.22304667  1
  S  S27  1  0.47725550  0.19160495  0.72304667  1
  S  S28  1  0.69160495  0.02274450  0.22304667  1
  S  S29  1  0.52274450  0.80839505  0.72304667  1
