# generated using pymatgen
data_GdSnF7
_symmetry_space_group_name_H-M   'P 1'
_cell_length_a   5.61365311
_cell_length_b   8.98910672
_cell_length_c   12.10278659
_cell_angle_alpha   62.20704726
_cell_angle_beta   90.00000000
_cell_angle_gamma   90.00000000
_symmetry_Int_Tables_number   1
_chemical_formula_structural   GdSnF7
_chemical_formula_sum   'Gd4 Sn4 F28'
_cell_volume   540.27296771
_cell_formula_units_Z   4
loop_
 _symmetry_equiv_pos_site_id
 _symmetry_equiv_pos_as_xyz
  1  'x, y, z'
loop_
 _atom_site_type_symbol
 _atom_site_label
 _atom_site_symmetry_multiplicity
 _atom_site_fract_x
 _atom_site_fract_y
 _atom_site_fract_z
 _atom_site_occupancy
  Gd  Gd0  1  0.75850995  0.81279760  0.26527688  1
  Gd  Gd1  1  0.25850995  0.18720240  0.23472312  1
  Gd  Gd2  1  0.24149005  0.18720240  0.73472312  1
  Gd  Gd3  1  0.74149005  0.81279760  0.76527688  1
  Sn  Sn4  1  0.24437231  0.72741354  0.54309448  1
  Sn  Sn5  1  0.74437231  0.27258646  0.95690552  1
  Sn  Sn6  1  0.75562769  0.27258646  0.45690552  1
  Sn  Sn7  1  0.25562769  0.72741354  0.04309448  1
  F  F8  1  0.94939072  0.71775993  0.45640253  1
  F  F9  1  0.44939072  0.28224007  0.04359747  1
  F  F10  1  0.05060928  0.28224007  0.54359747  1
  F  F11  1  0.55060928  0.71775993  0.95640253  1
  F  F12  1  0.05058952  0.71026436  0.91708571  1
  F  F13  1  0.55058952  0.28973564  0.58291429  1
  F  F14  1  0.94941048  0.28973564  0.08291429  1
  F  F15  1  0.44941048  0.71026436  0.41708571  1
  F  F16  1  0.73132860  0.51944422  0.85960292  1
  F  F17  1  0.23132860  0.48055578  0.64039708  1
  F  F18  1  0.26867140  0.48055578  0.14039708  1
  F  F19  1  0.76867140  0.51944422  0.35960292  1
  F  F20  1  0.73917825  0.02515798  0.05355095  1
  F  F21  1  0.23917825  0.97484202  0.44644905  1
  F  F22  1  0.26082175  0.97484202  0.94644905  1
  F  F23  1  0.76082175  0.02515798  0.55355095  1
  F  F24  1  0.04795983  0.74364885  0.67293831  1
  F  F25  1  0.54795983  0.25635115  0.82706169  1
  F  F26  1  0.95204017  0.25635115  0.32706169  1
  F  F27  1  0.45204017  0.74364885  0.17293831  1
  F  F28  1  0.02734251  0.27098198  0.86057101  1
  F  F29  1  0.52734251  0.72901802  0.63942899  1
  F  F30  1  0.97265749  0.72901802  0.13942899  1
  F  F31  1  0.47265749  0.27098198  0.36057101  1
  F  F32  1  0.09224971  0.96489339  0.23224714  1
  F  F33  1  0.59224971  0.03510661  0.26775286  1
  F  F34  1  0.90775029  0.03510661  0.76775286  1
  F  F35  1  0.40775029  0.96489339  0.73224714  1
