# generated using pymatgen
data_Ge3Sb2O9
_symmetry_space_group_name_H-M   'P 1'
_cell_length_a   7.08812802
_cell_length_b   7.08810697
_cell_length_c   9.68708061
_cell_angle_alpha   90.00004038
_cell_angle_beta   89.99997297
_cell_angle_gamma   119.99965889
_symmetry_Int_Tables_number   1
_chemical_formula_structural   Ge3Sb2O9
_chemical_formula_sum   'Ge6 Sb4 O18'
_cell_volume   421.48959109
_cell_formula_units_Z   2
loop_
 _symmetry_equiv_pos_site_id
 _symmetry_equiv_pos_as_xyz
  1  'x, y, z'
loop_
 _atom_site_type_symbol
 _atom_site_label
 _atom_site_symmetry_multiplicity
 _atom_site_fract_x
 _atom_site_fract_y
 _atom_site_fract_z
 _atom_site_occupancy
  Ge  Ge0  1  0.20928987  0.91967553  0.24999933  1
  Ge  Ge1  1  0.28961109  0.20928610  0.74999948  1
  Ge  Ge2  1  0.91967634  0.71038914  0.75000044  1
  Ge  Ge3  1  0.08032252  0.28960985  0.25000012  1
  Ge  Ge4  1  0.79070905  0.08032283  0.75000058  1
  Ge  Ge5  1  0.71038696  0.79071464  0.25000024  1
  Sb  Sb6  1  0.66667020  0.33333802  0.48582903  1
  Sb  Sb7  1  0.33332910  0.66666103  0.98582910  1
  Sb  Sb8  1  0.33333374  0.66666294  0.51417098  1
  Sb  Sb9  1  0.66666826  0.33333742  0.01417087  1
  O  O10  1  0.66466559  0.09799742  0.89962278  1
  O  O11  1  0.56667397  0.66466784  0.39962376  1
  O  O12  1  0.09799661  0.43333022  0.39962302  1
  O  O13  1  0.90200477  0.56667063  0.89962328  1
  O  O14  1  0.43332760  0.33533365  0.89962440  1
  O  O15  1  0.33533548  0.90200217  0.39962349  1
  O  O16  1  0.33533397  0.90200264  0.10037628  1
  O  O17  1  0.43332766  0.33533221  0.60037588  1
  O  O18  1  0.90200460  0.56666978  0.60037772  1
  O  O19  1  0.09799463  0.43332966  0.10037782  1
  O  O20  1  0.56667022  0.66466593  0.10037652  1
  O  O21  1  0.66466651  0.09799669  0.60037527  1
  O  O22  1  0.73599310  0.80829054  0.75000034  1
  O  O23  1  0.92770762  0.73600070  0.24999926  1
  O  O24  1  0.80828803  0.07229708  0.24999953  1
  O  O25  1  0.19171207  0.92770633  0.75000016  1
  O  O26  1  0.07229321  0.26400048  0.75000048  1
  O  O27  1  0.26400624  0.19170853  0.24999982  1
