# generated using pymatgen
data_K2CuSb
_symmetry_space_group_name_H-M   'P 1'
_cell_length_a   6.22115320
_cell_length_b   6.59851002
_cell_length_c   6.59851079
_cell_angle_alpha   106.43596244
_cell_angle_beta   90.00000000
_cell_angle_gamma   90.00000000
_symmetry_Int_Tables_number   1
_chemical_formula_structural   K2CuSb
_chemical_formula_sum   'K4 Cu2 Sb2'
_cell_volume   259.80239973
_cell_formula_units_Z   2
loop_
 _symmetry_equiv_pos_site_id
 _symmetry_equiv_pos_as_xyz
  1  'x, y, z'
loop_
 _atom_site_type_symbol
 _atom_site_label
 _atom_site_symmetry_multiplicity
 _atom_site_fract_x
 _atom_site_fract_y
 _atom_site_fract_z
 _atom_site_occupancy
  K  K0  1  0.25000000  0.01107995  0.67505300  1
  K  K1  1  0.75000000  0.98892005  0.32494700  1
  K  K2  1  0.75000000  0.32494700  0.98892005  1
  K  K3  1  0.25000000  0.67505300  0.01107995  1
  Cu  Cu4  1  0.50000000  0.50000000  0.50000000  1
  Cu  Cu5  1  -0.00000000  0.50000000  0.50000000  1
  Sb  Sb6  1  0.25000000  0.25233967  0.25233967  1
  Sb  Sb7  1  0.75000000  0.74766033  0.74766033  1
