# generated using pymatgen
data_BaThO3
_symmetry_space_group_name_H-M   'P 1'
_cell_length_a   6.36609550
_cell_length_b   6.41422980
_cell_length_c   9.00638526
_cell_angle_alpha   90.00000000
_cell_angle_beta   90.00000000
_cell_angle_gamma   90.00000000
_symmetry_Int_Tables_number   1
_chemical_formula_structural   BaThO3
_chemical_formula_sum   'Ba4 Th4 O12'
_cell_volume   367.76312834
_cell_formula_units_Z   4
loop_
 _symmetry_equiv_pos_site_id
 _symmetry_equiv_pos_as_xyz
  1  'x, y, z'
loop_
 _atom_site_type_symbol
 _atom_site_label
 _atom_site_symmetry_multiplicity
 _atom_site_fract_x
 _atom_site_fract_y
 _atom_site_fract_z
 _atom_site_occupancy
  Ba  Ba0  1  0.51043024  0.53097320  0.25000000  1
  Ba  Ba1  1  0.98956976  0.03097320  0.25000000  1
  Ba  Ba2  1  0.48956976  0.46902680  0.75000000  1
  Ba  Ba3  1  0.01043024  0.96902680  0.75000000  1
  Th  Th4  1  0.00000000  0.50000000  -0.00000000  1
  Th  Th5  1  0.50000000  -0.00000000  0.50000000  1
  Th  Th6  1  0.00000000  0.50000000  0.50000000  1
  Th  Th7  1  0.50000000  -0.00000000  -0.00000000  1
  O  O8  1  0.40908044  0.97179959  0.25000000  1
  O  O9  1  0.09091956  0.47179959  0.25000000  1
  O  O10  1  0.59091956  0.02820041  0.75000000  1
  O  O11  1  0.90908044  0.52820041  0.75000000  1
  O  O12  1  0.78515072  0.78520012  0.04955375  1
  O  O13  1  0.71484928  0.28520012  0.45044625  1
  O  O14  1  0.21484928  0.21479988  0.54955375  1
  O  O15  1  0.28515072  0.71479988  0.95044625  1
  O  O16  1  0.21484928  0.21479988  0.95044625  1
  O  O17  1  0.28515072  0.71479988  0.54955375  1
  O  O18  1  0.78515072  0.78520012  0.45044625  1
  O  O19  1  0.71484928  0.28520012  0.04955375  1
