# generated using pymatgen
data_GaB2N3
_symmetry_space_group_name_H-M   'P 1'
_cell_length_a   5.00057802
_cell_length_b   8.75588587
_cell_length_c   11.48973706
_cell_angle_alpha   89.99999817
_cell_angle_beta   90.10704791
_cell_angle_gamma   151.10270667
_symmetry_Int_Tables_number   1
_chemical_formula_structural   GaB2N3
_chemical_formula_sum   'Ga4 B8 N12'
_cell_volume   243.10334865
_cell_formula_units_Z   4
loop_
 _symmetry_equiv_pos_site_id
 _symmetry_equiv_pos_as_xyz
  1  'x, y, z'
loop_
 _atom_site_type_symbol
 _atom_site_label
 _atom_site_symmetry_multiplicity
 _atom_site_fract_x
 _atom_site_fract_y
 _atom_site_fract_z
 _atom_site_occupancy
  Ga  Ga0  1  0.24915702  0.08435047  0.61169610  1
  Ga  Ga1  1  0.75084298  0.83519245  0.88830390  1
  Ga  Ga2  1  0.75084298  0.91564953  0.38830390  1
  Ga  Ga3  1  0.24915702  0.16480755  0.11169610  1
  B  B4  1  0.81641488  0.18245708  0.94985558  1
  B  B5  1  0.18358512  0.36604320  0.55014442  1
  B  B6  1  0.18358512  0.81754292  0.05014442  1
  B  B7  1  0.81641488  0.63395680  0.44985558  1
  B  B8  1  0.53043869  0.94405462  0.70853788  1
  B  B9  1  0.46956131  0.41361594  0.79146212  1
  B  B10  1  0.46956131  0.05594538  0.29146212  1
  B  B11  1  0.53043869  0.58638406  0.20853788  1
  N  N12  1  1.00000000  0.67256657  0.75000000  1
  N  N13  1  0.00000000  0.32743343  0.25000000  1
  N  N14  1  0.73534971  0.16230187  0.62550401  1
  N  N15  1  0.26465029  0.42695116  0.87449599  1
  N  N16  1  0.26465029  0.83769813  0.37449599  1
  N  N17  1  0.73534971  0.57304884  0.12550401  1
  N  N18  1  0.37188778  0.06147550  0.99654105  1
  N  N19  1  0.62811222  0.68958671  0.50345895  1
  N  N20  1  0.62811222  0.93852450  0.00345895  1
  N  N21  1  0.37188778  0.31041329  0.49654105  1
  N  N22  1  1.00000000  0.06987630  0.75000000  1
  N  N23  1  0.00000000  0.93012370  0.25000000  1
