# generated using pymatgen
data_Sr3AlSb3
_symmetry_space_group_name_H-M   'P 1'
_cell_length_a   10.85632845
_cell_length_b   10.85632845
_cell_length_c   13.60284658
_cell_angle_alpha   90.00000000
_cell_angle_beta   90.00000000
_cell_angle_gamma   142.68013278
_symmetry_Int_Tables_number   1
_chemical_formula_structural   Sr3AlSb3
_chemical_formula_sum   'Sr12 Al4 Sb12'
_cell_volume   971.98075722
_cell_formula_units_Z   4
loop_
 _symmetry_equiv_pos_site_id
 _symmetry_equiv_pos_as_xyz
  1  'x, y, z'
loop_
 _atom_site_type_symbol
 _atom_site_label
 _atom_site_symmetry_multiplicity
 _atom_site_fract_x
 _atom_site_fract_y
 _atom_site_fract_z
 _atom_site_occupancy
  Sr  Sr0  1  0.81074445  0.81074445  0.35380319  1
  Sr  Sr1  1  0.31074445  0.31074445  0.14619681  1
  Sr  Sr2  1  0.68925555  0.68925555  0.85380319  1
  Sr  Sr3  1  0.18925555  0.18925555  0.64619681  1
  Sr  Sr4  1  0.47870999  0.12689050  0.87063384  1
  Sr  Sr5  1  0.62689050  0.97870999  0.62936616  1
  Sr  Sr6  1  0.02129001  0.37310950  0.37063384  1
  Sr  Sr7  1  0.87310950  0.52129001  0.12936616  1
  Sr  Sr8  1  0.52129001  0.87310950  0.12936616  1
  Sr  Sr9  1  0.37310950  0.02129001  0.37063384  1
  Sr  Sr10  1  0.97870999  0.62689050  0.62936616  1
  Sr  Sr11  1  0.12689050  0.47870999  0.87063384  1
  Al  Al12  1  0.08623017  0.91376983  -0.00000000  1
  Al  Al13  1  0.41376983  0.58623017  0.50000000  1
  Al  Al14  1  0.91376983  0.08623017  -0.00000000  1
  Al  Al15  1  0.58623017  0.41376983  0.50000000  1
  Sb  Sb16  1  0.28896726  0.28896726  0.39304095  1
  Sb  Sb17  1  0.78896726  0.78896726  0.10695905  1
  Sb  Sb18  1  0.21103274  0.21103274  0.89304095  1
  Sb  Sb19  1  0.71103274  0.71103274  0.60695905  1
  Sb  Sb20  1  0.94883590  0.62841777  0.87770491  1
  Sb  Sb21  1  0.12841777  0.44883590  0.62229509  1
  Sb  Sb22  1  0.55116410  0.87158223  0.37770491  1
  Sb  Sb23  1  0.37158223  0.05116410  0.12229509  1
  Sb  Sb24  1  0.05116410  0.37158223  0.12229509  1
  Sb  Sb25  1  0.87158223  0.55116410  0.37770491  1
  Sb  Sb26  1  0.44883590  0.12841777  0.62229509  1
  Sb  Sb27  1  0.62841777  0.94883590  0.87770491  1
