# generated using pymatgen
data_Sc2(SeO4)3
_symmetry_space_group_name_H-M   'P 1'
_cell_length_a   9.23549097
_cell_length_b   8.90844529
_cell_length_c   15.17158657
_cell_angle_alpha   55.23298753
_cell_angle_beta   90.00000000
_cell_angle_gamma   90.00000000
_symmetry_Int_Tables_number   1
_chemical_formula_structural   Sc2(SeO4)3
_chemical_formula_sum   'Sc8 Se12 O48'
_cell_volume   1025.38901398
_cell_formula_units_Z   4
loop_
 _symmetry_equiv_pos_site_id
 _symmetry_equiv_pos_as_xyz
  1  'x, y, z'
loop_
 _atom_site_type_symbol
 _atom_site_label
 _atom_site_symmetry_multiplicity
 _atom_site_fract_x
 _atom_site_fract_y
 _atom_site_fract_z
 _atom_site_occupancy
  Sc  Sc0  1  0.53217099  0.13120709  0.61573541  1
  Sc  Sc1  1  0.03217099  0.86879291  0.88426459  1
  Sc  Sc2  1  0.46782901  0.86879291  0.38426459  1
  Sc  Sc3  1  0.96782901  0.13120709  0.11573541  1
  Sc  Sc4  1  0.03345826  0.63072788  0.61751374  1
  Sc  Sc5  1  0.53345826  0.36927212  0.88248626  1
  Sc  Sc6  1  0.96654174  0.36927212  0.38248626  1
  Sc  Sc7  1  0.46654174  0.63072788  0.11751374  1
  Se  Se8  1  0.25348162  0.04205357  0.99331474  1
  Se  Se9  1  0.75348162  0.95794643  0.50668526  1
  Se  Se10  1  0.74651838  0.95794643  0.00668526  1
  Se  Se11  1  0.24651838  0.04205357  0.49331474  1
  Se  Se12  1  0.88279565  0.53321012  0.85690508  1
  Se  Se13  1  0.38279565  0.46678988  0.64309492  1
  Se  Se14  1  0.11720435  0.46678988  0.14309492  1
  Se  Se15  1  0.61720435  0.53321012  0.35690508  1
  Se  Se16  1  0.37688019  0.75505614  0.84835024  1
  Se  Se17  1  0.87688019  0.24494386  0.65164976  1
  Se  Se18  1  0.62311981  0.24494386  0.15164976  1
  Se  Se19  1  0.12311981  0.75505614  0.34835024  1
  O  O20  1  0.37553421  0.01349115  0.57608683  1
  O  O21  1  0.87553421  0.98650885  0.92391317  1
  O  O22  1  0.62446579  0.98650885  0.42391317  1
  O  O23  1  0.12446579  0.01349115  0.07608683  1
  O  O24  1  0.62901607  0.12251735  0.93542549  1
  O  O25  1  0.12901607  0.87748265  0.56457451  1
  O  O26  1  0.37098393  0.87748265  0.06457451  1
  O  O27  1  0.87098393  0.12251735  0.43542549  1
  O  O28  1  0.33155156  0.24003028  0.94433378  1
  O  O29  1  0.83155156  0.75996972  0.55566622  1
  O  O30  1  0.66844844  0.75996972  0.05566622  1
  O  O31  1  0.16844844  0.24003028  0.44433378  1
  O  O32  1  0.18935314  0.03541992  0.89424234  1
  O  O33  1  0.68935314  0.96458008  0.60575766  1
  O  O34  1  0.81064686  0.96458008  0.10575766  1
  O  O35  1  0.31064686  0.03541992  0.39424234  1
  O  O36  1  0.00068624  0.60729233  0.75986157  1
  O  O37  1  0.42196631  0.67972549  0.54622946  1
  O  O38  1  0.57803369  0.32027451  0.45377054  1
  O  O39  1  0.07803369  0.67972549  0.04622946  1
  O  O40  1  0.08107951  0.61341057  0.31623561  1
  O  O41  1  0.58107951  0.38658943  0.18376439  1
  O  O42  1  0.91892049  0.38658943  0.68376439  1
  O  O43  1  0.41892049  0.61341057  0.81623561  1
  O  O44  1  0.09131819  0.65854182  0.47632068  1
  O  O45  1  0.59131819  0.34145818  0.02367932  1
  O  O46  1  0.90868181  0.34145818  0.52367932  1
  O  O47  1  0.40868181  0.65854182  0.97632068  1
  O  O48  1  0.29702408  0.79850911  0.32464842  1
  O  O49  1  0.79702408  0.20149089  0.17535158  1
  O  O50  1  0.70297592  0.20149089  0.67535158  1
  O  O51  1  0.20297592  0.79850911  0.82464842  1
  O  O52  1  0.52535886  0.05774999  0.22222736  1
  O  O53  1  0.02535886  0.94225001  0.27777264  1
  O  O54  1  0.47464114  0.94225001  0.77777264  1
  O  O55  1  0.97464114  0.05774999  0.72222736  1
  O  O56  1  0.60763103  0.66568588  0.40016477  1
  O  O57  1  0.10763103  0.33431412  0.09983523  1
  O  O58  1  0.39236897  0.33431412  0.59983523  1
  O  O59  1  0.89236897  0.66568588  0.90016477  1
  O  O60  1  0.78094200  0.53739599  0.31368079  1
  O  O61  1  0.28094200  0.46260401  0.18631921  1
  O  O62  1  0.21905800  0.46260401  0.68631921  1
  O  O63  1  0.71905800  0.53739599  0.81368079  1
  O  O64  1  0.49931376  0.60729233  0.25986157  1
  O  O65  1  -0.00068624  0.39270767  0.24013843  1
  O  O66  1  0.50068624  0.39270767  0.74013843  1
  O  O67  1  0.92196631  0.32027451  0.95377054  1
