# generated using pymatgen
data_RbEr2Cl7
_symmetry_space_group_name_H-M   'P 1'
_cell_length_a   6.88602780
_cell_length_b   12.50725732
_cell_length_c   13.05821077
_cell_angle_alpha   90.00000000
_cell_angle_beta   90.00000000
_cell_angle_gamma   90.00000000
_symmetry_Int_Tables_number   1
_chemical_formula_structural   RbEr2Cl7
_chemical_formula_sum   'Rb4 Er8 Cl28'
_cell_volume   1124.64260218
_cell_formula_units_Z   4
loop_
 _symmetry_equiv_pos_site_id
 _symmetry_equiv_pos_as_xyz
  1  'x, y, z'
loop_
 _atom_site_type_symbol
 _atom_site_label
 _atom_site_symmetry_multiplicity
 _atom_site_fract_x
 _atom_site_fract_y
 _atom_site_fract_z
 _atom_site_occupancy
  Rb  Rb0  1  0.25000000  0.80482165  0.04141073  1
  Rb  Rb1  1  0.75000000  0.19517835  0.95858927  1
  Rb  Rb2  1  0.75000000  0.30482165  0.45858927  1
  Rb  Rb3  1  0.25000000  0.69517835  0.54141073  1
  Er  Er4  1  0.25000000  0.45995804  0.23761701  1
  Er  Er5  1  0.75000000  0.54004196  0.76238299  1
  Er  Er6  1  0.75000000  0.95995804  0.26238299  1
  Er  Er7  1  0.25000000  0.04004196  0.73761701  1
  Er  Er8  1  0.25000000  0.15727133  0.24902845  1
  Er  Er9  1  0.75000000  0.84272867  0.75097155  1
  Er  Er10  1  0.75000000  0.65727133  0.25097155  1
  Er  Er11  1  0.25000000  0.34272867  0.74902845  1
  Cl  Cl12  1  0.00777707  0.30695846  0.17508372  1
  Cl  Cl13  1  0.99222293  0.69304154  0.82491628  1
  Cl  Cl14  1  0.99222293  0.80695846  0.32491628  1
  Cl  Cl15  1  0.50777707  0.69304154  0.82491628  1
  Cl  Cl16  1  0.00777707  0.19304154  0.67508372  1
  Cl  Cl17  1  0.49222293  0.30695846  0.17508372  1
  Cl  Cl18  1  0.49222293  0.19304154  0.67508372  1
  Cl  Cl19  1  0.50777707  0.80695846  0.32491628  1
  Cl  Cl20  1  0.00998004  0.57785244  0.12173075  1
  Cl  Cl21  1  0.99001996  0.42214756  0.87826925  1
  Cl  Cl22  1  0.99001996  0.07785244  0.37826925  1
  Cl  Cl23  1  0.50998004  0.42214756  0.87826925  1
  Cl  Cl24  1  0.00998004  0.92214756  0.62173075  1
  Cl  Cl25  1  0.49001996  0.57785244  0.12173075  1
  Cl  Cl26  1  0.49001996  0.92214756  0.62173075  1
  Cl  Cl27  1  0.50998004  0.07785244  0.37826925  1
  Cl  Cl28  1  0.00984837  0.03947484  0.13126321  1
  Cl  Cl29  1  0.99015163  0.96052516  0.86873679  1
  Cl  Cl30  1  0.99015163  0.53947484  0.36873679  1
  Cl  Cl31  1  0.50984837  0.96052516  0.86873679  1
  Cl  Cl32  1  0.00984837  0.46052516  0.63126321  1
  Cl  Cl33  1  0.49015163  0.03947484  0.13126321  1
  Cl  Cl34  1  0.49015163  0.46052516  0.63126321  1
  Cl  Cl35  1  0.50984837  0.53947484  0.36873679  1
  Cl  Cl36  1  0.25000000  0.31126772  0.39378684  1
  Cl  Cl37  1  0.75000000  0.68873228  0.60621316  1
  Cl  Cl38  1  0.75000000  0.81126772  0.10621316  1
  Cl  Cl39  1  0.25000000  0.18873228  0.89378684  1
