# generated using pymatgen
data_Rb3MnF7
_symmetry_space_group_name_H-M   'P 1'
_cell_length_a   7.96304390
_cell_length_b   7.96304390
_cell_length_c   5.86832421
_cell_angle_alpha   90.00000000
_cell_angle_beta   90.00000000
_cell_angle_gamma   90.00000000
_symmetry_Int_Tables_number   1
_chemical_formula_structural   Rb3MnF7
_chemical_formula_sum   'Rb6 Mn2 F14'
_cell_volume   372.11083810
_cell_formula_units_Z   2
loop_
 _symmetry_equiv_pos_site_id
 _symmetry_equiv_pos_as_xyz
  1  'x, y, z'
loop_
 _atom_site_type_symbol
 _atom_site_label
 _atom_site_symmetry_multiplicity
 _atom_site_fract_x
 _atom_site_fract_y
 _atom_site_fract_z
 _atom_site_occupancy
  Rb  Rb0  1  0.18927691  0.68927691  0.50000000  1
  Rb  Rb1  1  0.68927691  0.81072309  0.50000000  1
  Rb  Rb2  1  0.31072309  0.18927691  0.50000000  1
  Rb  Rb3  1  0.81072309  0.31072309  0.50000000  1
  Rb  Rb4  1  0.50000000  0.50000000  -0.00000000  1
  Rb  Rb5  1  0.00000000  0.00000000  -0.00000000  1
  Mn  Mn6  1  0.00000000  0.50000000  -0.00000000  1
  Mn  Mn7  1  0.50000000  -0.00000000  -0.00000000  1
  F  F8  1  0.38765807  0.88765807  0.77866050  1
  F  F9  1  0.61234193  0.11234193  0.77866050  1
  F  F10  1  0.11234193  0.38765807  0.77866050  1
  F  F11  1  0.88765807  0.61234193  0.77866050  1
  F  F12  1  0.38765807  0.88765807  0.22133950  1
  F  F13  1  0.88765807  0.61234193  0.22133950  1
  F  F14  1  0.11234193  0.38765807  0.22133950  1
  F  F15  1  0.61234193  0.11234193  0.22133950  1
  F  F16  1  0.00000000  -0.00000000  0.50000000  1
  F  F17  1  0.50000000  0.50000000  0.50000000  1
  F  F18  1  0.83909490  0.33909490  -0.00000000  1
  F  F19  1  0.33909490  0.16090510  -0.00000000  1
  F  F20  1  0.66090510  0.83909490  -0.00000000  1
  F  F21  1  0.16090510  0.66090510  -0.00000000  1
