# generated using pymatgen
data_Sr2MgZn2Sn2(PO4)4
_symmetry_space_group_name_H-M   'P 1'
_cell_length_a   5.42475610
_cell_length_b   7.59749494
_cell_length_c   10.03890137
_cell_angle_alpha   106.03348182
_cell_angle_beta   86.62198375
_cell_angle_gamma   92.37750945
_symmetry_Int_Tables_number   1
_chemical_formula_structural   Sr2MgZn2Sn2(PO4)4
_chemical_formula_sum   'Sr2 Mg1 Zn2 Sn2 P4 O16'
_cell_volume   396.82626182
_cell_formula_units_Z   1
loop_
 _symmetry_equiv_pos_site_id
 _symmetry_equiv_pos_as_xyz
  1  'x, y, z'
loop_
 _atom_site_type_symbol
 _atom_site_label
 _atom_site_symmetry_multiplicity
 _atom_site_fract_x
 _atom_site_fract_y
 _atom_site_fract_z
 _atom_site_occupancy
  Sr  Sr0  1  0.16891140  0.74990053  0.02585995  1
  Sr  Sr1  1  0.78752570  0.21114128  0.97288617  1
  Mg  Mg2  1  0.21686871  0.82254709  0.39718152  1
  Zn  Zn3  1  0.16448987  0.38326625  0.65488170  1
  Zn  Zn4  1  0.78922552  0.55615396  0.31900703  1
  Sn  Sn5  1  0.73582741  0.89659313  0.61400279  1
  Sn  Sn6  1  0.51898592  0.36139979  0.45815419  1
  P  P7  1  0.30024692  0.40624405  0.20073940  1
  P  P8  1  0.68365799  0.58608543  0.79146172  1
  P  P9  1  0.72136944  0.95648329  0.26505601  1
  P  P10  1  0.26354854  0.02961560  0.74670899  1
  O  O11  1  0.81821283  0.55852613  0.91332636  1
  O  O12  1  0.56309827  0.46889460  0.15540548  1
  O  O13  1  0.71361813  0.79337655  0.78953217  1
  O  O14  1  0.05968637  0.16137079  0.73085205  1
  O  O15  1  0.40047863  0.54408222  0.80319993  1
  O  O16  1  0.28410576  0.87279781  0.60254520  1
  O  O17  1  0.73527147  0.11895409  0.40051012  1
  O  O18  1  0.19570365  0.96540576  0.87438780  1
  O  O19  1  0.32498608  0.23249400  0.24945519  1
  O  O20  1  0.80747744  0.99925681  0.12991383  1
  O  O21  1  0.13018964  0.39398386  0.08214866  1
  O  O22  1  0.18616046  0.55469647  0.33246143  1
  O  O23  1  0.80803223  0.46362483  0.65230800  1
  O  O24  1  0.45851788  0.86794608  0.25945317  1
  O  O25  1  0.90974044  0.81174366  0.28783764  1
  O  O26  1  0.52787328  0.12230394  0.75322350  1
