# generated using pymatgen
data_Sr4Mn3O10
_symmetry_space_group_name_H-M   'P 1'
_cell_length_a   6.80079115
_cell_length_b   6.80079115
_cell_length_c   12.57810987
_cell_angle_alpha   90.00000000
_cell_angle_beta   90.00000000
_cell_angle_gamma   132.54037209
_symmetry_Int_Tables_number   1
_chemical_formula_structural   Sr4Mn3O10
_chemical_formula_sum   'Sr8 Mn6 O20'
_cell_volume   428.63194422
_cell_formula_units_Z   2
loop_
 _symmetry_equiv_pos_site_id
 _symmetry_equiv_pos_as_xyz
  1  'x, y, z'
loop_
 _atom_site_type_symbol
 _atom_site_label
 _atom_site_symmetry_multiplicity
 _atom_site_fract_x
 _atom_site_fract_y
 _atom_site_fract_z
 _atom_site_occupancy
  Sr  Sr0  1  0.76243373  0.23756627  0.88735146  1
  Sr  Sr1  1  0.26243373  0.73756627  0.61264854  1
  Sr  Sr2  1  0.73756627  0.26243373  0.38735146  1
  Sr  Sr3  1  0.02987012  0.97012988  0.35726976  1
  Sr  Sr4  1  0.23756627  0.76243373  0.11264854  1
  Sr  Sr5  1  0.47012988  0.52987012  0.85726976  1
  Sr  Sr6  1  0.97012988  0.02987012  0.64273024  1
  Sr  Sr7  1  0.52987012  0.47012988  0.14273024  1
  Mn  Mn8  1  -0.00000000  -0.00000000  -0.00000000  1
  Mn  Mn9  1  0.13233083  0.86766917  0.84778655  1
  Mn  Mn10  1  0.86766917  0.13233083  0.15221345  1
  Mn  Mn11  1  0.36766917  0.63233083  0.34778655  1
  Mn  Mn12  1  0.50000000  0.50000000  0.50000000  1
  Mn  Mn13  1  0.63233083  0.36766917  0.65221345  1
  O  O14  1  0.77526398  0.22473602  0.65383861  1
  O  O15  1  0.22473602  0.77526398  0.34616139  1
  O  O16  1  0.38068439  0.16265693  0.53657563  1
  O  O17  1  0.33734307  0.11931561  0.96342437  1
  O  O18  1  0.27526398  0.72473602  0.84616139  1
  O  O19  1  0.16265693  0.38068439  0.46342437  1
  O  O20  1  0.66265693  0.88068439  0.03657563  1
  O  O21  1  0.83734307  0.61931561  0.53657563  1
  O  O22  1  0.63274159  0.86725841  0.25000000  1
  O  O23  1  0.03590500  0.96409500  0.14599191  1
  O  O24  1  0.88068439  0.66265693  0.96342437  1
  O  O25  1  0.11931561  0.33734307  0.03657563  1
  O  O26  1  0.72473602  0.27526398  0.15383861  1
  O  O27  1  0.36725841  0.13274159  0.75000000  1
  O  O28  1  0.46409500  0.53590500  0.64599191  1
  O  O29  1  0.96409500  0.03590500  0.85400809  1
  O  O30  1  0.13274159  0.36725841  0.25000000  1
  O  O31  1  0.53590500  0.46409500  0.35400809  1
  O  O32  1  0.61931561  0.83734307  0.46342437  1
  O  O33  1  0.86725841  0.63274159  0.75000000  1
