# generated using pymatgen
data_BaHfS3
_symmetry_space_group_name_H-M   'P 1'
_cell_length_a   7.01916792
_cell_length_b   7.04466639
_cell_length_c   9.97598706
_cell_angle_alpha   90.00000000
_cell_angle_beta   90.00000000
_cell_angle_gamma   90.00000000
_symmetry_Int_Tables_number   1
_chemical_formula_structural   BaHfS3
_chemical_formula_sum   'Ba4 Hf4 S12'
_cell_volume   493.28957875
_cell_formula_units_Z   4
loop_
 _symmetry_equiv_pos_site_id
 _symmetry_equiv_pos_as_xyz
  1  'x, y, z'
loop_
 _atom_site_type_symbol
 _atom_site_label
 _atom_site_symmetry_multiplicity
 _atom_site_fract_x
 _atom_site_fract_y
 _atom_site_fract_z
 _atom_site_occupancy
  Ba  Ba0  1  0.49298446  0.53714955  0.25000000  1
  Ba  Ba1  1  0.00701554  0.03714955  0.25000000  1
  Ba  Ba2  1  0.50701554  0.46285045  0.75000000  1
  Ba  Ba3  1  0.99298446  0.96285045  0.75000000  1
  Hf  Hf4  1  0.00000000  0.50000000  0.00000000  1
  Hf  Hf5  1  0.50000000  0.00000000  0.50000000  1
  Hf  Hf6  1  0.00000000  0.50000000  0.50000000  1
  Hf  Hf7  1  0.50000000  0.00000000  0.00000000  1
  S  S8  1  0.94683129  0.49781956  0.25000000  1
  S  S9  1  0.55316871  0.99781956  0.25000000  1
  S  S10  1  0.05316871  0.50218044  0.75000000  1
  S  S11  1  0.44683129  0.00218044  0.75000000  1
  S  S12  1  0.71625125  0.71581474  0.97242793  1
  S  S13  1  0.78374875  0.21581474  0.52757207  1
  S  S14  1  0.28374875  0.28418526  0.47242793  1
  S  S15  1  0.21625125  0.78418526  0.02757207  1
  S  S16  1  0.28374875  0.28418526  0.02757207  1
  S  S17  1  0.21625125  0.78418526  0.47242793  1
  S  S18  1  0.71625125  0.71581474  0.52757207  1
  S  S19  1  0.78374875  0.21581474  0.97242793  1
