# generated using pymatgen
data_NbBr4
_symmetry_space_group_name_H-M   'P 1'
_cell_length_a   7.22197287
_cell_length_b   7.36447116
_cell_length_c   7.62659325
_cell_angle_alpha   72.61585831
_cell_angle_beta   61.74002242
_cell_angle_gamma   60.63803598
_symmetry_Int_Tables_number   1
_chemical_formula_structural   NbBr4
_chemical_formula_sum   'Nb2 Br8'
_cell_volume   310.20931780
_cell_formula_units_Z   2
loop_
 _symmetry_equiv_pos_site_id
 _symmetry_equiv_pos_as_xyz
  1  'x, y, z'
loop_
 _atom_site_type_symbol
 _atom_site_label
 _atom_site_symmetry_multiplicity
 _atom_site_fract_x
 _atom_site_fract_y
 _atom_site_fract_z
 _atom_site_occupancy
  Nb  Nb0  1  0.21610047  0.00000000  -0.00000000  1
  Nb  Nb1  1  0.78389953  0.00000000  -0.00000000  1
  Br  Br2  1  0.78858802  0.24726098  0.17556199  1
  Br  Br3  1  0.21141198  0.75273902  0.82443801  1
  Br  Br4  1  0.21598971  0.75323096  0.30340749  1
  Br  Br5  1  0.27262916  0.24676904  0.69659251  1
  Br  Br6  1  0.78401029  0.24676904  0.69659251  1
  Br  Br7  1  0.72737084  0.75323096  0.30340749  1
  Br  Br8  1  0.31661613  0.21412041  0.15264733  1
  Br  Br9  1  0.68338387  0.78587959  0.84735267  1
