# generated using pymatgen
data_KSb5O13
_symmetry_space_group_name_H-M   'P 1'
_cell_length_a   16.84668075
_cell_length_b   5.56053994
_cell_length_c   5.57156427
_cell_angle_alpha   72.76124062
_cell_angle_beta   90.00000000
_cell_angle_gamma   90.00000000
_symmetry_Int_Tables_number   1
_chemical_formula_structural   KSb5O13
_chemical_formula_sum   'K2 Sb10 O26'
_cell_volume   498.47954637
_cell_formula_units_Z   2
loop_
 _symmetry_equiv_pos_site_id
 _symmetry_equiv_pos_as_xyz
  1  'x, y, z'
loop_
 _atom_site_type_symbol
 _atom_site_label
 _atom_site_symmetry_multiplicity
 _atom_site_fract_x
 _atom_site_fract_y
 _atom_site_fract_z
 _atom_site_occupancy
  K  K0  1  0.75000000  0.12219865  0.13519561  1
  K  K1  1  0.25000000  0.87780135  0.86480439  1
  Sb  Sb2  1  0.57705842  0.38567309  0.38545226  1
  Sb  Sb3  1  0.42294158  0.61432691  0.61454774  1
  Sb  Sb4  1  0.92294158  0.38567309  0.38545226  1
  Sb  Sb5  1  0.07705842  0.61432691  0.61454774  1
  Sb  Sb6  1  0.50000000  -0.00000000  -0.00000000  1
  Sb  Sb7  1  -0.00000000  -0.00000000  -0.00000000  1
  Sb  Sb8  1  0.36177431  0.23247067  0.23125525  1
  Sb  Sb9  1  0.63822569  0.76752933  0.76874475  1
  Sb  Sb10  1  0.13822569  0.23247067  0.23125525  1
  Sb  Sb11  1  0.86177431  0.76752933  0.76874475  1
  O  O12  1  0.75000000  0.81703561  0.81138240  1
  O  O13  1  0.25000000  0.18296439  0.18861760  1
  O  O14  1  0.35039459  0.44752158  0.44526364  1
  O  O15  1  0.64960541  0.55247842  0.55473636  1
  O  O16  1  0.14960541  0.44752158  0.44526364  1
  O  O17  1  0.85039459  0.55247842  0.55473636  1
  O  O18  1  0.61294486  0.98529271  0.98397232  1
  O  O19  1  0.38705514  0.01470729  0.01602768  1
  O  O20  1  0.88705514  0.98529271  0.98397232  1
  O  O21  1  0.11294486  0.01470729  0.01602768  1
  O  O22  1  0.50024707  0.69030251  0.31100152  1
  O  O23  1  -0.00024707  0.69030251  0.31100152  1
  O  O24  1  0.49975293  0.30969749  0.68899848  1
  O  O25  1  0.00024707  0.30969749  0.68899848  1
  O  O26  1  0.63151945  0.06774646  0.47642091  1
  O  O27  1  0.36680904  0.52331211  0.92935567  1
  O  O28  1  0.86848055  0.06774646  0.47642091  1
  O  O29  1  0.13319096  0.52331211  0.92935567  1
  O  O30  1  0.36848055  0.93225354  0.52357909  1
  O  O31  1  0.63319096  0.47668789  0.07064433  1
  O  O32  1  0.13151945  0.93225354  0.52357909  1
  O  O33  1  0.86680904  0.47668789  0.07064433  1
  O  O34  1  0.51005128  0.77218699  0.77655072  1
  O  O35  1  0.48994872  0.22781301  0.22344928  1
  O  O36  1  0.98994872  0.77218699  0.77655072  1
  O  O37  1  0.01005128  0.22781301  0.22344928  1
