# generated using pymatgen
data_CaNiF6
_symmetry_space_group_name_H-M   'P 1'
_cell_length_a   5.49368658
_cell_length_b   5.49368649
_cell_length_c   5.49368721
_cell_angle_alpha   54.24096319
_cell_angle_beta   54.24095949
_cell_angle_gamma   54.24095433
_symmetry_Int_Tables_number   1
_chemical_formula_structural   CaNiF6
_chemical_formula_sum   'Ca1 Ni1 F6'
_cell_volume   101.48358257
_cell_formula_units_Z   1
loop_
 _symmetry_equiv_pos_site_id
 _symmetry_equiv_pos_as_xyz
  1  'x, y, z'
loop_
 _atom_site_type_symbol
 _atom_site_label
 _atom_site_symmetry_multiplicity
 _atom_site_fract_x
 _atom_site_fract_y
 _atom_site_fract_z
 _atom_site_occupancy
  Ca  Ca0  1  0.50000000  0.50000000  0.50000000  1
  Ni  Ni1  1  -0.00000000  0.00000000  -0.00000000  1
  F  F2  1  0.62602328  0.95043932  0.20195255  1
  F  F3  1  0.95043932  0.20195255  0.62602328  1
  F  F4  1  0.79804745  0.37397672  0.04956068  1
  F  F5  1  0.04956068  0.79804745  0.37397672  1
  F  F6  1  0.37397672  0.04956068  0.79804745  1
  F  F7  1  0.20195255  0.62602328  0.95043932  1
