# generated using pymatgen
data_Li6CoO4
_symmetry_space_group_name_H-M   'P 1'
_cell_length_a   7.94606763
_cell_length_b   7.94612934
_cell_length_c   7.94612067
_cell_angle_alpha   109.12400430
_cell_angle_beta   109.64344709
_cell_angle_gamma   109.64351165
_symmetry_Int_Tables_number   1
_chemical_formula_structural   Li6CoO4
_chemical_formula_sum   'Li24 Co4 O16'
_cell_volume   386.23062221
_cell_formula_units_Z   4
loop_
 _symmetry_equiv_pos_site_id
 _symmetry_equiv_pos_as_xyz
  1  'x, y, z'
loop_
 _atom_site_type_symbol
 _atom_site_label
 _atom_site_symmetry_multiplicity
 _atom_site_fract_x
 _atom_site_fract_y
 _atom_site_fract_z
 _atom_site_occupancy
  Li  Li0  1  0.74999050  0.10077337  0.35075985  1
  Li  Li1  1  0.74999194  0.60076034  0.85077406  1
  Li  Li2  1  0.74999730  0.85077480  0.10078299  1
  Li  Li3  1  0.74999865  0.35078387  0.60077536  1
  Li  Li4  1  0.25000272  0.39921741  0.14921707  1
  Li  Li5  1  0.25001935  0.89922474  0.64922528  1
  Li  Li6  1  0.24998919  0.64923161  0.39923241  1
  Li  Li7  1  0.25001892  0.14924839  0.89924788  1
  Li  Li8  1  0.53206329  0.40706360  0.37499638  1
  Li  Li9  1  0.53205261  0.90705820  0.87498974  1
  Li  Li10  1  0.03204056  0.87500764  0.90703618  1
  Li  Li11  1  0.03204586  0.37500747  0.40704058  1
  Li  Li12  1  0.46794937  0.09294148  0.12501055  1
  Li  Li13  1  0.46795426  0.59294565  0.62501028  1
  Li  Li14  1  0.53211024  0.62504419  0.15705476  1
  Li  Li15  1  0.53210252  0.12503394  0.65705207  1
  Li  Li16  1  0.46790217  0.87496097  0.34294876  1
  Li  Li17  1  0.46789750  0.37496098  0.84294367  1
  Li  Li18  1  0.96799436  0.84295574  0.37504021  1
  Li  Li19  1  0.96800389  0.34295892  0.87504380  1
  Li  Li20  1  0.03199509  0.65704013  0.12495385  1
  Li  Li21  1  0.03199110  0.15703488  0.62495430  1
  Li  Li22  1  0.96794264  0.62498496  0.59295481  1
  Li  Li23  1  0.96794896  0.12498888  0.09295144  1
  Co  Co24  1  0.25000386  0.62500429  0.87500413  1
  Co  Co25  1  0.74999636  0.87497309  0.62497323  1
  Co  Co26  1  0.25000398  0.12500384  0.37500422  1
  Co  Co27  1  0.74999680  0.37497351  0.12497347  1
  O  O28  1  0.74998136  0.35006375  0.36409080  1
  O  O29  1  0.74998311  0.85008816  0.86410753  1
  O  O30  1  0.48598890  0.63591172  0.38589153  1
  O  O31  1  0.48598234  0.13592797  0.88590837  1
  O  O32  1  0.24998410  0.38586576  0.89988725  1
  O  O33  1  0.24996604  0.88585881  0.39987854  1
  O  O34  1  0.01402625  0.39992587  0.14994559  1
  O  O35  1  0.01401715  0.89989911  0.64991991  1
  O  O36  1  0.98598819  0.10012689  0.35009509  1
  O  O37  1  0.98598602  0.60011797  0.85010348  1
  O  O38  1  0.75002013  0.11412620  0.60010671  1
  O  O39  1  0.75002247  0.61411126  0.10008403  1
  O  O40  1  0.25003076  0.14991059  0.13589127  1
  O  O41  1  0.25001271  0.64990142  0.63587992  1
  O  O42  1  0.51400594  0.86410991  0.11412420  1
  O  O43  1  0.51400354  0.36409772  0.61413046  1
