# generated using pymatgen
data_Ca3(GeAs2)2
_symmetry_space_group_name_H-M   'P 1'
_cell_length_a   17.95018276
_cell_length_b   7.27504696
_cell_length_c   7.32143004
_cell_angle_alpha   68.35772352
_cell_angle_beta   90.00000000
_cell_angle_gamma   90.00000000
_symmetry_Int_Tables_number   1
_chemical_formula_structural   Ca3(GeAs2)2
_chemical_formula_sum   'Ca12 Ge8 As16'
_cell_volume   888.69377739
_cell_formula_units_Z   4
loop_
 _symmetry_equiv_pos_site_id
 _symmetry_equiv_pos_as_xyz
  1  'x, y, z'
loop_
 _atom_site_type_symbol
 _atom_site_label
 _atom_site_symmetry_multiplicity
 _atom_site_fract_x
 _atom_site_fract_y
 _atom_site_fract_z
 _atom_site_occupancy
  Ca  Ca0  1  0.05844866  0.01185865  0.74460559  1
  Ca  Ca1  1  0.55844866  0.48814135  0.25539441  1
  Ca  Ca2  1  0.94155134  0.98814135  0.25539441  1
  Ca  Ca3  1  0.44155134  0.51185865  0.74460559  1
  Ca  Ca4  1  0.06178252  0.49781696  0.26324522  1
  Ca  Ca5  1  0.56178252  0.00218304  0.73675478  1
  Ca  Ca6  1  0.93821748  0.50218304  0.73675478  1
  Ca  Ca7  1  0.43821748  0.99781696  0.26324522  1
  Ca  Ca8  1  0.18330713  0.51303503  0.78292107  1
  Ca  Ca9  1  0.68330713  0.98696497  0.21707893  1
  Ca  Ca10  1  0.81669287  0.48696497  0.21707893  1
  Ca  Ca11  1  0.31669287  0.01303503  0.78292107  1
  Ge  Ge12  1  0.25913861  0.57969130  0.31880763  1
  Ge  Ge13  1  0.75913861  0.92030870  0.68119237  1
  Ge  Ge14  1  0.74086139  0.42030870  0.68119237  1
  Ge  Ge15  1  0.24086139  0.07969130  0.31880763  1
  Ge  Ge16  1  0.62711142  0.53094186  0.78997881  1
  Ge  Ge17  1  0.12711142  0.96905814  0.21002119  1
  Ge  Ge18  1  0.37288858  0.46905814  0.21002119  1
  Ge  Ge19  1  0.87288858  0.03094186  0.78997881  1
  As  As20  1  0.19550914  0.26852368  0.51480994  1
  As  As21  1  0.69550914  0.23147632  0.48519006  1
  As  As22  1  0.80449086  0.73147632  0.48519006  1
  As  As23  1  0.30449086  0.76852368  0.51480994  1
  As  As24  1  0.31363152  0.27632338  0.03056955  1
  As  As25  1  0.81363152  0.22367662  0.96943045  1
  As  As26  1  0.68636848  0.72367662  0.96943045  1
  As  As27  1  0.18636848  0.77632338  0.03056955  1
  As  As28  1  0.05938870  0.25506828  0.00338290  1
  As  As29  1  0.55938870  0.24493172  0.99661710  1
  As  As30  1  0.94061130  0.74493172  0.99661710  1
  As  As31  1  0.44061130  0.75506828  0.00338290  1
  As  As32  1  0.06597178  0.75305169  0.50580976  1
  As  As33  1  0.56597178  0.74694831  0.49419024  1
  As  As34  1  0.93402822  0.24694831  0.49419024  1
  As  As35  1  0.43402822  0.25305169  0.50580976  1
