# generated using pymatgen
data_CaMn6O5F7
_symmetry_space_group_name_H-M   'P 1'
_cell_length_a   7.19041177
_cell_length_b   6.01283399
_cell_length_c   6.50052392
_cell_angle_alpha   86.37601704
_cell_angle_beta   73.51408341
_cell_angle_gamma   72.84339498
_symmetry_Int_Tables_number   1
_chemical_formula_structural   CaMn6O5F7
_chemical_formula_sum   'Ca1 Mn6 O5 F7'
_cell_volume   257.43807018
_cell_formula_units_Z   1
loop_
 _symmetry_equiv_pos_site_id
 _symmetry_equiv_pos_as_xyz
  1  'x, y, z'
loop_
 _atom_site_type_symbol
 _atom_site_label
 _atom_site_symmetry_multiplicity
 _atom_site_fract_x
 _atom_site_fract_y
 _atom_site_fract_z
 _atom_site_occupancy
  Ca  Ca0  1  0.70618900  0.29183900  0.79791200  1
  Mn  Mn1  1  0.85482100  0.72402600  0.60296000  1
  Mn  Mn2  1  0.67822900  0.35139600  0.31210100  1
  Mn  Mn3  1  0.32525900  0.78262300  0.60019800  1
  Mn  Mn4  1  0.17062400  0.30765600  0.31783700  1
  Mn  Mn5  1  0.50953600  0.93038000  0.06971000  1
  Mn  Mn6  1  0.00120200  0.94578400  0.04659500  1
  O  O7  1  0.63575200  0.56106300  0.54354100  1
  O  O8  1  0.96413800  0.19811100  0.25817500  1
  O  O9  1  0.71348300  0.09023400  0.11901000  1
  O  O10  1  0.00717600  0.86116700  0.76458200  1
  O  O11  1  0.31917000  0.01493600  0.36382200  1
  F  F12  1  0.60843900  0.01651800  0.68425300  1
  F  F13  1  0.34975200  0.29483600  0.01932100  1
  F  F14  1  0.30082600  0.83653400  0.94420000  1
  F  F15  1  0.37371100  0.45564700  0.39009800  1
  F  F16  1  0.68399400  0.57911500  0.02793600  1
  F  F17  1  0.01400700  0.36695600  0.63171500  1
  F  F18  1  0.02443100  0.65159600  0.27686800  1
