# generated using pymatgen
data_LaScS3
_symmetry_space_group_name_H-M   'P 1'
_cell_length_a   6.58114518
_cell_length_b   7.21722551
_cell_length_c   9.64897414
_cell_angle_alpha   90.00000000
_cell_angle_beta   90.00000000
_cell_angle_gamma   90.00000000
_symmetry_Int_Tables_number   1
_chemical_formula_structural   LaScS3
_chemical_formula_sum   'La4 Sc4 S12'
_cell_volume   458.30319978
_cell_formula_units_Z   4
loop_
 _symmetry_equiv_pos_site_id
 _symmetry_equiv_pos_as_xyz
  1  'x, y, z'
loop_
 _atom_site_type_symbol
 _atom_site_label
 _atom_site_symmetry_multiplicity
 _atom_site_fract_x
 _atom_site_fract_y
 _atom_site_fract_z
 _atom_site_occupancy
  La  La0  1  0.53339167  0.40618895  0.75000000  1
  La  La1  1  0.46660833  0.59381105  0.25000000  1
  La  La2  1  0.03339167  0.09381105  0.25000000  1
  La  La3  1  0.96660833  0.90618895  0.75000000  1
  Sc  Sc4  1  -0.00000000  0.50000000  -0.00000000  1
  Sc  Sc5  1  -0.00000000  0.50000000  0.50000000  1
  Sc  Sc6  1  0.50000000  -0.00000000  0.50000000  1
  Sc  Sc7  1  0.50000000  -0.00000000  -0.00000000  1
  S  S8  1  0.81848606  0.18896459  0.55846472  1
  S  S9  1  0.18151394  0.81103541  0.05846472  1
  S  S10  1  0.31848606  0.31103541  0.05846472  1
  S  S11  1  0.68151394  0.68896459  0.55846472  1
  S  S12  1  0.81848606  0.18896459  0.94153528  1
  S  S13  1  0.18151394  0.81103541  0.44153528  1
  S  S14  1  0.31848606  0.31103541  0.44153528  1
  S  S15  1  0.68151394  0.68896459  0.94153528  1
  S  S16  1  0.88170950  0.46725895  0.25000000  1
  S  S17  1  0.11829050  0.53274105  0.75000000  1
  S  S18  1  0.38170950  0.03274105  0.75000000  1
  S  S19  1  0.61829050  0.96725895  0.25000000  1
