# generated using pymatgen
data_Rb2SiS3
_symmetry_space_group_name_H-M   'P 1'
_cell_length_a   6.89625212
_cell_length_b   7.50374363
_cell_length_c   8.63675340
_cell_angle_alpha   72.68817885
_cell_angle_beta   66.46940377
_cell_angle_gamma   62.64381626
_symmetry_Int_Tables_number   1
_chemical_formula_structural   Rb2SiS3
_chemical_formula_sum   'Rb4 Si2 S6'
_cell_volume   360.35161904
_cell_formula_units_Z   2
loop_
 _symmetry_equiv_pos_site_id
 _symmetry_equiv_pos_as_xyz
  1  'x, y, z'
loop_
 _atom_site_type_symbol
 _atom_site_label
 _atom_site_symmetry_multiplicity
 _atom_site_fract_x
 _atom_site_fract_y
 _atom_site_fract_z
 _atom_site_occupancy
  Rb  Rb0  1  0.80646627  0.57440629  0.81266216  1
  Rb  Rb1  1  0.19353373  0.42559371  0.18733784  1
  Rb  Rb2  1  0.58118353  0.20026820  0.63736173  1
  Rb  Rb3  1  0.41881647  0.79973180  0.36263827  1
  Si  Si4  1  0.11538087  0.94705117  0.82218609  1
  Si  Si5  1  0.88461913  0.05294883  0.17781391  1
  S  S6  1  0.23405269  -0.00000000  0.00000000  1
  S  S7  1  0.76594731  0.00000000  -0.00000000  1
  S  S8  1  0.88741553  0.83407268  0.39109626  1
  S  S9  1  0.11258447  0.16592732  0.60890374  1
  S  S10  1  0.71259214  0.35321057  0.22160415  1
  S  S11  1  0.28740786  0.64678943  0.77839585  1
