# generated using pymatgen
data_YVO4
_symmetry_space_group_name_H-M   'P 1'
_cell_length_a   5.94676846
_cell_length_b   5.94676779
_cell_length_c   5.94676917
_cell_angle_alpha   106.27735774
_cell_angle_beta   106.27736005
_cell_angle_gamma   116.06722379
_symmetry_Int_Tables_number   1
_chemical_formula_structural   YVO4
_chemical_formula_sum   'Y2 V2 O8'
_cell_volume   160.26323538
_cell_formula_units_Z   2
loop_
 _symmetry_equiv_pos_site_id
 _symmetry_equiv_pos_as_xyz
  1  'x, y, z'
loop_
 _atom_site_type_symbol
 _atom_site_label
 _atom_site_symmetry_multiplicity
 _atom_site_fract_x
 _atom_site_fract_y
 _atom_site_fract_z
 _atom_site_occupancy
  Y  Y0  1  0.12500000  0.87500000  0.25000000  1
  Y  Y1  1  0.87500000  0.12500000  0.75000000  1
  V  V2  1  0.62500000  0.37500000  0.25000000  1
  V  V3  1  0.37500000  0.62500000  0.75000000  1
  O  O4  1  0.73415166  0.79954552  0.93460614  1
  O  O5  1  0.79954552  0.73415166  0.43460614  1
  O  O6  1  0.79954552  0.36494039  0.06539386  1
  O  O7  1  0.36494039  0.79954552  0.56539386  1
  O  O8  1  0.20045448  0.63505961  0.93460614  1
  O  O9  1  0.63505961  0.20045448  0.43460614  1
  O  O10  1  0.26584834  0.20045448  0.06539386  1
  O  O11  1  0.20045448  0.26584834  0.56539386  1
