# generated using pymatgen
data_GaAsO4
_symmetry_space_group_name_H-M   'P 1'
_cell_length_a   4.97504727
_cell_length_b   4.97504727
_cell_length_c   7.14176098
_cell_angle_alpha   90.00000000
_cell_angle_beta   90.00000000
_cell_angle_gamma   89.80086981
_symmetry_Int_Tables_number   1
_chemical_formula_structural   GaAsO4
_chemical_formula_sum   'Ga2 As2 O8'
_cell_volume   176.76533935
_cell_formula_units_Z   2
loop_
 _symmetry_equiv_pos_site_id
 _symmetry_equiv_pos_as_xyz
  1  'x, y, z'
loop_
 _atom_site_type_symbol
 _atom_site_label
 _atom_site_symmetry_multiplicity
 _atom_site_fract_x
 _atom_site_fract_y
 _atom_site_fract_z
 _atom_site_occupancy
  Ga  Ga0  1  0.82772205  0.17227795  0.75000000  1
  Ga  Ga1  1  0.17227795  0.82772205  0.25000000  1
  As  As2  1  0.33235358  0.33235358  0.50000000  1
  As  As3  1  0.66764642  0.66764642  -0.00000000  1
  O  O4  1  0.18642476  0.22380092  0.70007725  1
  O  O5  1  0.22380092  0.18642476  0.29992275  1
  O  O6  1  0.81357524  0.77619908  0.20007725  1
  O  O7  1  0.77619908  0.81357524  0.79992275  1
  O  O8  1  0.27601683  0.66501390  0.46955883  1
  O  O9  1  0.66501390  0.27601683  0.53044117  1
  O  O10  1  0.72398317  0.33498610  0.96955883  1
  O  O11  1  0.33498610  0.72398317  0.03044117  1
