# generated using pymatgen
data_CsLu(TaBr3)6
_symmetry_space_group_name_H-M   'P 1'
_cell_length_a   9.78029030
_cell_length_b   9.78029030
_cell_length_c   18.21710084
_cell_angle_alpha   90.00000000
_cell_angle_beta   90.00000000
_cell_angle_gamma   120.00000149
_symmetry_Int_Tables_number   1
_chemical_formula_structural   CsLu(TaBr3)6
_chemical_formula_sum   'Cs2 Lu2 Ta12 Br36'
_cell_volume   1509.08387683
_cell_formula_units_Z   2
loop_
 _symmetry_equiv_pos_site_id
 _symmetry_equiv_pos_as_xyz
  1  'x, y, z'
loop_
 _atom_site_type_symbol
 _atom_site_label
 _atom_site_symmetry_multiplicity
 _atom_site_fract_x
 _atom_site_fract_y
 _atom_site_fract_z
 _atom_site_occupancy
  Cs  Cs0  1  0.33333300  0.66666700  0.75000000  1
  Cs  Cs1  1  0.66666700  0.33333300  0.25000000  1
  Lu  Lu2  1  0.66666700  0.33333300  0.75000000  1
  Lu  Lu3  1  0.33333300  0.66666700  0.25000000  1
  Ta  Ta4  1  0.85215316  0.03901367  0.56462224  1
  Ta  Ta5  1  0.14784684  0.96098633  0.43537776  1
  Ta  Ta6  1  0.96098633  0.81313949  0.56462224  1
  Ta  Ta7  1  0.85215316  0.81313949  0.93537776  1
  Ta  Ta8  1  0.03901367  0.18686051  0.43537776  1
  Ta  Ta9  1  0.14784684  0.18686051  0.06462224  1
  Ta  Ta10  1  0.18686051  0.14784684  0.56462224  1
  Ta  Ta11  1  0.96098633  0.14784684  0.93537776  1
  Ta  Ta12  1  0.81313949  0.85215316  0.43537776  1
  Ta  Ta13  1  0.03901367  0.85215316  0.06462224  1
  Ta  Ta14  1  0.18686051  0.03901367  0.93537776  1
  Ta  Ta15  1  0.81313949  0.96098633  0.06462224  1
  Br  Br16  1  0.63825508  0.08937421  0.66276892  1
  Br  Br17  1  0.36174492  0.91062579  0.33723108  1
  Br  Br18  1  0.91062579  0.54888087  0.66276892  1
  Br  Br19  1  0.63825508  0.54888087  0.83723108  1
  Br  Br20  1  0.08937421  0.45111913  0.33723108  1
  Br  Br21  1  0.36174492  0.45111913  0.16276892  1
  Br  Br22  1  0.45111913  0.36174492  0.66276892  1
  Br  Br23  1  0.91062579  0.36174492  0.83723108  1
  Br  Br24  1  0.54888087  0.63825508  0.33723108  1
  Br  Br25  1  0.08937421  0.63825508  0.16276892  1
  Br  Br26  1  0.45111913  0.08937421  0.83723108  1
  Br  Br27  1  0.54888087  0.91062579  0.16276892  1
  Br  Br28  1  0.04748037  0.23420406  0.66087769  1
  Br  Br29  1  0.95251963  0.76579594  0.33912231  1
  Br  Br30  1  0.76579594  0.81327632  0.66087769  1
  Br  Br31  1  0.04748037  0.81327632  0.83912231  1
  Br  Br32  1  0.23420406  0.18672368  0.33912231  1
  Br  Br33  1  0.95251963  0.18672368  0.16087769  1
  Br  Br34  1  0.18672368  0.95251963  0.66087769  1
  Br  Br35  1  0.76579594  0.95251963  0.83912231  1
  Br  Br36  1  0.81327632  0.04748037  0.33912231  1
  Br  Br37  1  0.23420406  0.04748037  0.16087769  1
  Br  Br38  1  0.18672368  0.23420406  0.83912231  1
  Br  Br39  1  0.81327632  0.76579594  0.16087769  1
  Br  Br40  1  0.28002175  0.41850411  0.50101583  1
  Br  Br41  1  0.71997825  0.58149589  0.49898417  1
  Br  Br42  1  0.58149589  0.86151764  0.50101583  1
  Br  Br43  1  0.28002175  0.86151764  0.99898417  1
  Br  Br44  1  0.41850411  0.13848236  0.49898417  1
  Br  Br45  1  0.71997825  0.13848236  0.00101583  1
  Br  Br46  1  0.13848236  0.71997825  0.50101583  1
  Br  Br47  1  0.58149589  0.71997825  0.99898417  1
  Br  Br48  1  0.86151764  0.28002175  0.49898417  1
  Br  Br49  1  0.41850411  0.28002175  0.00101583  1
  Br  Br50  1  0.13848236  0.41850411  0.99898417  1
  Br  Br51  1  0.86151764  0.58149589  0.00101583  1
