# generated using pymatgen
data_Nd(YS2)3
_symmetry_space_group_name_H-M   'P 1'
_cell_length_a   3.98995283
_cell_length_b   11.07743317
_cell_length_c   11.35410924
_cell_angle_alpha   71.23857404
_cell_angle_beta   90.00000000
_cell_angle_gamma   90.00000000
_symmetry_Int_Tables_number   1
_chemical_formula_structural   Nd(YS2)3
_chemical_formula_sum   'Nd2 Y6 S12'
_cell_volume   475.16943199
_cell_formula_units_Z   2
loop_
 _symmetry_equiv_pos_site_id
 _symmetry_equiv_pos_as_xyz
  1  'x, y, z'
loop_
 _atom_site_type_symbol
 _atom_site_label
 _atom_site_symmetry_multiplicity
 _atom_site_fract_x
 _atom_site_fract_y
 _atom_site_fract_z
 _atom_site_occupancy
  Nd  Nd0  1  0.75000000  0.54835125  0.80613039  1
  Nd  Nd1  1  0.25000000  0.45164875  0.19386961  1
  Y  Y2  1  0.75000000  0.18063306  0.99793760  1
  Y  Y3  1  0.25000000  0.81936694  0.00206240  1
  Y  Y4  1  0.75000000  0.93979164  0.66740031  1
  Y  Y5  1  0.25000000  0.06020836  0.33259969  1
  Y  Y6  1  0.75000000  0.66129557  0.41374006  1
  Y  Y7  1  0.25000000  0.33870443  0.58625994  1
  S  S8  1  0.75000000  0.97790573  0.88796812  1
  S  S9  1  0.25000000  0.02209427  0.11203188  1
  S  S10  1  0.75000000  0.30522258  0.74892580  1
  S  S11  1  0.25000000  0.69477742  0.25107420  1
  S  S12  1  0.75000000  0.89523972  0.44081277  1
  S  S13  1  0.25000000  0.10476028  0.55918723  1
  S  S14  1  0.75000000  0.41793314  0.40543987  1
  S  S15  1  0.25000000  0.58206686  0.59456013  1
  S  S16  1  0.75000000  0.23673405  0.22711561  1
  S  S17  1  0.25000000  0.76326595  0.77288439  1
  S  S18  1  0.75000000  0.61658765  0.03693315  1
  S  S19  1  0.25000000  0.38341235  0.96306685  1
