# generated using pymatgen
data_CaZn2(FeO2)4
_symmetry_space_group_name_H-M   'P 1'
_cell_length_a   6.32725474
_cell_length_b   6.32725544
_cell_length_c   6.48058900
_cell_angle_alpha   59.19505559
_cell_angle_beta   59.19505178
_cell_angle_gamma   58.62158908
_symmetry_Int_Tables_number   1
_chemical_formula_structural   CaZn2(FeO2)4
_chemical_formula_sum   'Ca1 Zn2 Fe4 O8'
_cell_volume   179.27467485
_cell_formula_units_Z   1
loop_
 _symmetry_equiv_pos_site_id
 _symmetry_equiv_pos_as_xyz
  1  'x, y, z'
loop_
 _atom_site_type_symbol
 _atom_site_label
 _atom_site_symmetry_multiplicity
 _atom_site_fract_x
 _atom_site_fract_y
 _atom_site_fract_z
 _atom_site_occupancy
  Ca  Ca0  1  0.19927300  0.19927300  0.80072700  1
  Zn  Zn1  1  0.16394100  0.72405100  0.55600400  1
  Zn  Zn2  1  0.72405100  0.16394100  0.55600400  1
  Fe  Fe3  1  0.87530500  0.87530400  0.12469600  1
  Fe  Fe4  1  0.31719700  0.31719800  0.18280200  1
  Fe  Fe5  1  0.61996000  0.61996000  0.10966800  1
  Fe  Fe6  1  0.61996000  0.61996000  0.65041300  1
  O  O7  1  0.40252600  0.40252600  0.39689100  1
  O  O8  1  0.40252600  0.40252600  0.79805700  1
  O  O9  1  0.43537400  0.89153200  0.33654700  1
  O  O10  1  0.89153100  0.43537700  0.33654600  1
  O  O11  1  0.35421000  0.77726300  0.93426400  1
  O  O12  1  0.77726600  0.35420900  0.93426300  1
  O  O13  1  0.84802400  0.84802400  0.45116700  1
  O  O14  1  0.84802400  0.84802400  0.85278400  1
