# generated using pymatgen
data_Y4Mg(WO5)4
_symmetry_space_group_name_H-M   'P 1'
_cell_length_a   5.34521377
_cell_length_b   6.53318713
_cell_length_c   12.77175996
_cell_angle_alpha   91.36829903
_cell_angle_beta   90.31863214
_cell_angle_gamma   109.69386947
_symmetry_Int_Tables_number   1
_chemical_formula_structural   Y4Mg(WO5)4
_chemical_formula_sum   'Y4 Mg1 W4 O20'
_cell_volume   419.75419705
_cell_formula_units_Z   1
loop_
 _symmetry_equiv_pos_site_id
 _symmetry_equiv_pos_as_xyz
  1  'x, y, z'
loop_
 _atom_site_type_symbol
 _atom_site_label
 _atom_site_symmetry_multiplicity
 _atom_site_fract_x
 _atom_site_fract_y
 _atom_site_fract_z
 _atom_site_occupancy
  Y  Y0  1  0.14003600  0.79155000  0.45019200  1
  Y  Y1  1  0.82458600  0.21655600  0.55809800  1
  Y  Y2  1  0.35186600  0.71902600  0.95171800  1
  Y  Y3  1  0.66409800  0.29158900  0.06176500  1
  Mg  Mg4  1  0.71579900  0.46924800  0.80622300  1
  W  W5  1  0.95680400  0.84943200  0.13817400  1
  W  W6  1  0.05078600  0.14507900  0.86631100  1
  W  W7  1  0.53320400  0.69948200  0.63974500  1
  W  W8  1  0.46515400  0.35621000  0.36116900  1
  O  O9  1  0.07106100  0.57139900  0.09286700  1
  O  O10  1  0.96881500  0.43836700  0.91272400  1
  O  O11  1  0.43696300  0.94791100  0.61796500  1
  O  O12  1  0.51369400  0.07844700  0.41682200  1
  O  O13  1  0.84066300  0.85182000  0.56265300  1
  O  O14  1  0.14490100  0.17057100  0.42689100  1
  O  O15  1  0.64832100  0.65658200  0.06943500  1
  O  O16  1  0.40344500  0.32869900  0.90671500  1
  O  O17  1  0.26167500  0.98842200  0.05816400  1
  O  O18  1  0.74330400  0.03174300  0.94569600  1
  O  O19  1  0.22312200  0.52991600  0.57231300  1
  O  O20  1  0.79478300  0.47119500  0.42968200  1
  O  O21  1  0.01583900  0.79263300  0.27168000  1
  O  O22  1  0.96072400  0.19916600  0.73606000  1
  O  O23  1  0.53448600  0.70261800  0.78676600  1
  O  O24  1  0.49352600  0.30785800  0.22350200  1
  O  O25  1  0.11804300  0.89103800  0.84706200  1
  O  O26  1  0.84504200  0.08066600  0.15633600  1
  O  O27  1  0.37154200  0.59796600  0.36644400  1
  O  O28  1  0.67021900  0.45481000  0.65224600  1
