# generated using pymatgen
data_Te2Mo
_symmetry_space_group_name_H-M   'P 1'
_cell_length_a   3.56138363
_cell_length_b   3.56138276
_cell_length_c   38.99026814
_cell_angle_alpha   90.00000000
_cell_angle_beta   90.00000000
_cell_angle_gamma   119.99998853
_symmetry_Int_Tables_number   1
_chemical_formula_structural   Te2Mo
_chemical_formula_sum   'Te8 Mo4'
_cell_volume   428.27656824
_cell_formula_units_Z   4
loop_
 _symmetry_equiv_pos_site_id
 _symmetry_equiv_pos_as_xyz
  1  'x, y, z'
loop_
 _atom_site_type_symbol
 _atom_site_label
 _atom_site_symmetry_multiplicity
 _atom_site_fract_x
 _atom_site_fract_y
 _atom_site_fract_z
 _atom_site_occupancy
  Te  Te0  1  0.33333300  0.66666700  0.23704858  1
  Te  Te1  1  0.33333300  0.66666700  0.61349883  1
  Te  Te2  1  0.66666700  0.33333300  0.04890633  1
  Te  Te3  1  0.66666700  0.33333300  0.42531141  1
  Te  Te4  1  0.66666700  0.33333300  0.14076117  1
  Te  Te5  1  0.66666700  0.33333300  0.51721042  1
  Te  Te6  1  0.33333300  0.66666700  0.32894759  1
  Te  Te7  1  0.33333300  0.66666700  0.70535267  1
  Mo  Mo8  1  0.33333300  0.66666700  0.09479150  1
  Mo  Mo9  1  0.33333300  0.66666700  0.47127066  1
  Mo  Mo10  1  0.66666700  0.33333300  0.28298834  1
  Mo  Mo11  1  0.66666700  0.33333300  0.65946750  1
