# generated using pymatgen
data_CaMnF5
_symmetry_space_group_name_H-M   'P 1'
_cell_length_a   9.93881312
_cell_length_b   5.43549388
_cell_length_c   7.92539618
_cell_angle_alpha   68.82536186
_cell_angle_beta   90.00000000
_cell_angle_gamma   90.00000000
_symmetry_Int_Tables_number   1
_chemical_formula_structural   CaMnF5
_chemical_formula_sum   'Ca4 Mn4 F20'
_cell_volume   399.24161501
_cell_formula_units_Z   4
loop_
 _symmetry_equiv_pos_site_id
 _symmetry_equiv_pos_as_xyz
  1  'x, y, z'
loop_
 _atom_site_type_symbol
 _atom_site_label
 _atom_site_symmetry_multiplicity
 _atom_site_fract_x
 _atom_site_fract_y
 _atom_site_fract_z
 _atom_site_occupancy
  Ca  Ca0  1  0.01974701  0.52946763  0.74441362  1
  Ca  Ca1  1  0.51974701  0.47053237  0.75558638  1
  Ca  Ca2  1  0.98025299  0.47053237  0.25558638  1
  Ca  Ca3  1  0.48025299  0.52946763  0.24441362  1
  Mn  Mn4  1  0.75267166  0.11850024  0.59808508  1
  Mn  Mn5  1  0.25267166  0.88149976  0.90191492  1
  Mn  Mn6  1  0.24732834  0.88149976  0.40191492  1
  Mn  Mn7  1  0.74732834  0.11850024  0.09808508  1
  F  F8  1  0.88002281  0.39733638  0.55659137  1
  F  F9  1  0.38002281  0.60266362  0.94340863  1
  F  F10  1  0.11997719  0.60266362  0.44340863  1
  F  F11  1  0.61997719  0.39733638  0.05659137  1
  F  F12  1  0.61288320  0.36404461  0.50339242  1
  F  F13  1  0.11288320  0.63595539  0.99660758  1
  F  F14  1  0.38711680  0.63595539  0.49660758  1
  F  F15  1  0.88711680  0.36404461  0.00339242  1
  F  F16  1  0.38968993  0.11489723  0.80663836  1
  F  F17  1  0.88968993  0.88510277  0.69336164  1
  F  F18  1  0.61031007  0.88510277  0.19336164  1
  F  F19  1  0.11031007  0.11489723  0.30663836  1
  F  F20  1  0.13464632  0.15598585  0.86587997  1
  F  F21  1  0.63464632  0.84401415  0.63412003  1
  F  F22  1  0.86535368  0.84401415  0.13412003  1
  F  F23  1  0.36535368  0.15598585  0.36587997  1
  F  F24  1  0.69373292  0.17385015  0.83369839  1
  F  F25  1  0.19373292  0.82614985  0.66630161  1
  F  F26  1  0.30626708  0.82614985  0.16630161  1
  F  F27  1  0.80626708  0.17385015  0.33369839  1
