# generated using pymatgen
data_Ba2V(SiO4)2
_symmetry_space_group_name_H-M   'P 1'
_cell_length_a   8.51620479
_cell_length_b   8.51620479
_cell_length_c   5.25487976
_cell_angle_alpha   90.00000000
_cell_angle_beta   90.00000000
_cell_angle_gamma   90.00000000
_symmetry_Int_Tables_number   1
_chemical_formula_structural   Ba2V(SiO4)2
_chemical_formula_sum   'Ba4 V2 Si4 O16'
_cell_volume   381.11406436
_cell_formula_units_Z   2
loop_
 _symmetry_equiv_pos_site_id
 _symmetry_equiv_pos_as_xyz
  1  'x, y, z'
loop_
 _atom_site_type_symbol
 _atom_site_label
 _atom_site_symmetry_multiplicity
 _atom_site_fract_x
 _atom_site_fract_y
 _atom_site_fract_z
 _atom_site_occupancy
  Ba  Ba0  1  0.17132179  0.67132179  0.99905562  1
  Ba  Ba1  1  0.67132179  0.82867821  0.99905562  1
  Ba  Ba2  1  0.32867821  0.17132179  0.99905562  1
  Ba  Ba3  1  0.82867821  0.32867821  0.99905562  1
  V  V4  1  0.50000000  0.50000000  0.53794822  1
  V  V5  1  -0.00000000  0.00000000  0.53794822  1
  Si  Si6  1  0.37045013  0.87045013  0.52004328  1
  Si  Si7  1  0.87045013  0.62954987  0.52004328  1
  Si  Si8  1  0.12954987  0.37045013  0.52004328  1
  Si  Si9  1  0.62954987  0.12954987  0.52004328  1
  O  O10  1  0.50000000  0.50000000  0.22510632  1
  O  O11  1  -0.00000000  0.00000000  0.22510632  1
  O  O12  1  0.79427798  0.07716512  0.65194267  1
  O  O13  1  0.20572202  0.92283488  0.65194267  1
  O  O14  1  0.92283488  0.79427798  0.65194267  1
  O  O15  1  0.07716512  0.20572202  0.65194267  1
  O  O16  1  0.42283488  0.70572202  0.65194267  1
  O  O17  1  0.70572202  0.57716512  0.65194267  1
  O  O18  1  0.29427798  0.42283488  0.65194267  1
  O  O19  1  0.57716512  0.29427798  0.65194267  1
  O  O20  1  0.50000000  0.00000000  0.63081349  1
  O  O21  1  -0.00000000  0.50000000  0.63081349  1
  O  O22  1  0.62865892  0.12865892  0.21643175  1
  O  O23  1  0.12865892  0.37134108  0.21643175  1
  O  O24  1  0.87134108  0.62865892  0.21643175  1
  O  O25  1  0.37134108  0.87134108  0.21643175  1
