# generated using pymatgen
data_Rb2NdBr5
_symmetry_space_group_name_H-M   'P 1'
_cell_length_a   8.65248665
_cell_length_b   9.35047739
_cell_length_c   13.81462711
_cell_angle_alpha   90.00000000
_cell_angle_beta   90.00000000
_cell_angle_gamma   90.00000000
_symmetry_Int_Tables_number   1
_chemical_formula_structural   Rb2NdBr5
_chemical_formula_sum   'Rb8 Nd4 Br20'
_cell_volume   1117.67075947
_cell_formula_units_Z   4
loop_
 _symmetry_equiv_pos_site_id
 _symmetry_equiv_pos_as_xyz
  1  'x, y, z'
loop_
 _atom_site_type_symbol
 _atom_site_label
 _atom_site_symmetry_multiplicity
 _atom_site_fract_x
 _atom_site_fract_y
 _atom_site_fract_z
 _atom_site_occupancy
  Rb  Rb0  1  0.94081070  0.00455344  0.82843868  1
  Rb  Rb1  1  0.05918930  0.99544656  0.17156132  1
  Rb  Rb2  1  0.44081070  0.99544656  0.67156132  1
  Rb  Rb3  1  0.05918930  0.50455344  0.17156132  1
  Rb  Rb4  1  0.55918930  0.00455344  0.32843868  1
  Rb  Rb5  1  0.94081070  0.49544656  0.82843868  1
  Rb  Rb6  1  0.55918930  0.49544656  0.32843868  1
  Rb  Rb7  1  0.44081070  0.50455344  0.67156132  1
  Nd  Nd8  1  0.92481587  0.75000000  0.50564122  1
  Nd  Nd9  1  0.07518413  0.25000000  0.49435878  1
  Nd  Nd10  1  0.42481587  0.25000000  0.99435878  1
  Nd  Nd11  1  0.57518413  0.75000000  0.00564122  1
  Br  Br12  1  0.11993869  0.75000000  0.67867038  1
  Br  Br13  1  0.88006131  0.25000000  0.32132962  1
  Br  Br14  1  0.61993869  0.25000000  0.82132962  1
  Br  Br15  1  0.38006131  0.75000000  0.17867038  1
  Br  Br16  1  0.83373344  0.04422034  0.57247108  1
  Br  Br17  1  0.16626656  0.95577966  0.42752892  1
  Br  Br18  1  0.33373344  0.95577966  0.92752892  1
  Br  Br19  1  0.16626656  0.54422034  0.42752892  1
  Br  Br20  1  0.66626656  0.04422034  0.07247108  1
  Br  Br21  1  0.83373344  0.45577966  0.57247108  1
  Br  Br22  1  0.66626656  0.45577966  0.07247108  1
  Br  Br23  1  0.33373344  0.54422034  0.92752892  1
  Br  Br24  1  0.58290998  0.75000000  0.50984794  1
  Br  Br25  1  0.41709002  0.25000000  0.49015206  1
  Br  Br26  1  0.08290998  0.25000000  0.99015206  1
  Br  Br27  1  0.91709002  0.75000000  0.00984794  1
  Br  Br28  1  0.65483060  0.75000000  0.79924871  1
  Br  Br29  1  0.34516940  0.25000000  0.20075129  1
  Br  Br30  1  0.15483060  0.25000000  0.70075129  1
  Br  Br31  1  0.84516940  0.75000000  0.29924871  1
