# generated using pymatgen
data_Na3LiY3P3CO15F2
_symmetry_space_group_name_H-M   'P 1'
_cell_length_a   11.09600032
_cell_length_b   11.09600032
_cell_length_c   11.09600032
_cell_angle_alpha   90.00000000
_cell_angle_beta   90.00000000
_cell_angle_gamma   90.00000000
_symmetry_Int_Tables_number   1
_chemical_formula_structural   Na3LiY3P3CO15F2
_chemical_formula_sum   'Na12 Li4 Y12 P12 C4 O60 F8'
_cell_volume   1366.15313093
_cell_formula_units_Z   4
loop_
 _symmetry_equiv_pos_site_id
 _symmetry_equiv_pos_as_xyz
  1  'x, y, z'
loop_
 _atom_site_type_symbol
 _atom_site_label
 _atom_site_symmetry_multiplicity
 _atom_site_fract_x
 _atom_site_fract_y
 _atom_site_fract_z
 _atom_site_occupancy
  Na  Na0  1  0.33412226  0.33412226  0.00975382  1
  Na  Na1  1  0.33412226  0.66587774  0.99024618  1
  Na  Na2  1  0.66587774  0.66587774  0.00975382  1
  Na  Na3  1  0.66587774  0.33412226  0.99024618  1
  Na  Na4  1  0.99024618  0.66587774  0.33412226  1
  Na  Na5  1  0.99024618  0.33412226  0.66587774  1
  Na  Na6  1  0.00975382  0.33412226  0.33412226  1
  Na  Na7  1  0.00975382  0.66587774  0.66587774  1
  Na  Na8  1  0.66587774  0.99024618  0.33412226  1
  Na  Na9  1  0.66587774  0.00975382  0.66587774  1
  Na  Na10  1  0.33412226  0.00975382  0.33412226  1
  Na  Na11  1  0.33412226  0.99024618  0.66587774  1
  Li  Li12  1  0.80169666  0.80169666  0.80169666  1
  Li  Li13  1  0.80169666  0.19830334  0.19830334  1
  Li  Li14  1  0.19830334  0.19830334  0.80169666  1
  Li  Li15  1  0.19830334  0.80169666  0.19830334  1
  Y  Y16  1  0.68567071  0.00000000  -0.00000000  1
  Y  Y17  1  0.31432929  0.00000000  -0.00000000  1
  Y  Y18  1  -0.00000000  0.68567071  -0.00000000  1
  Y  Y19  1  -0.00000000  0.31432929  -0.00000000  1
  Y  Y20  1  -0.00000000  0.00000000  0.68567071  1
  Y  Y21  1  -0.00000000  0.00000000  0.31432929  1
  Y  Y22  1  0.50000000  0.50000000  0.74649577  1
  Y  Y23  1  0.50000000  0.50000000  0.25350423  1
  Y  Y24  1  0.50000000  0.74649577  0.50000000  1
  Y  Y25  1  0.50000000  0.25350423  0.50000000  1
  Y  Y26  1  0.74649577  0.50000000  0.50000000  1
  Y  Y27  1  0.25350423  0.50000000  0.50000000  1
  P  P28  1  0.48405904  0.18534782  0.81465218  1
  P  P29  1  0.48405904  0.81465218  0.18534782  1
  P  P30  1  0.51594096  0.81465218  0.81465218  1
  P  P31  1  0.51594096  0.18534782  0.18534782  1
  P  P32  1  0.81465218  0.51594096  0.81465218  1
  P  P33  1  0.81465218  0.48405904  0.18534782  1
  P  P34  1  0.18534782  0.48405904  0.81465218  1
  P  P35  1  0.18534782  0.51594096  0.18534782  1
  P  P36  1  0.81465218  0.18534782  0.48405904  1
  P  P37  1  0.81465218  0.81465218  0.51594096  1
  P  P38  1  0.18534782  0.81465218  0.48405904  1
  P  P39  1  0.18534782  0.18534782  0.51594096  1
  C  C40  1  0.88130838  0.11869162  0.88130838  1
  C  C41  1  0.88130838  0.88130838  0.11869162  1
  C  C42  1  0.11869162  0.88130838  0.88130838  1
  C  C43  1  0.11869162  0.11869162  0.11869162  1
  O  O44  1  0.14562710  0.35591298  0.85437290  1
  O  O45  1  0.14562710  0.64408702  0.14562710  1
  O  O46  1  0.85437290  0.64408702  0.85437290  1
  O  O47  1  0.85437290  0.35591298  0.14562710  1
  O  O48  1  0.50023759  0.68125485  0.84581350  1
  O  O49  1  0.50023759  0.31874515  0.15418650  1
  O  O50  1  0.49976241  0.31874515  0.84581350  1
  O  O51  1  0.49976241  0.68125485  0.15418650  1
  O  O52  1  0.49976241  0.15418650  0.68125485  1
  O  O53  1  0.49976241  0.84581350  0.31874515  1
  O  O54  1  0.50023759  0.84581350  0.68125485  1
  O  O55  1  0.50023759  0.15418650  0.31874515  1
  O  O56  1  0.84581350  0.50023759  0.68125485  1
  O  O57  1  0.84581350  0.49976241  0.31874515  1
  O  O58  1  0.15418650  0.49976241  0.68125485  1
  O  O59  1  0.15418650  0.50023759  0.31874515  1
  O  O60  1  0.68125485  0.50023759  0.84581350  1
  O  O61  1  0.68125485  0.49976241  0.15418650  1
  O  O62  1  0.31874515  0.49976241  0.84581350  1
  O  O63  1  0.31874515  0.50023759  0.15418650  1
  O  O64  1  0.35591298  0.14562710  0.85437290  1
  O  O65  1  0.35591298  0.85437290  0.14562710  1
  O  O66  1  0.64408702  0.85437290  0.85437290  1
  O  O67  1  0.64408702  0.14562710  0.14562710  1
  O  O68  1  0.88537001  0.42070466  0.88537001  1
  O  O69  1  0.88537001  0.57929534  0.11462999  1
  O  O70  1  0.11462999  0.57929534  0.88537001  1
  O  O71  1  0.11462999  0.42070466  0.11462999  1
  O  O72  1  0.57929534  0.11462999  0.88537001  1
  O  O73  1  0.57929534  0.88537001  0.11462999  1
  O  O74  1  0.42070466  0.88537001  0.88537001  1
  O  O75  1  0.42070466  0.11462999  0.11462999  1
  O  O76  1  0.15418650  0.68125485  0.49976241  1
  O  O77  1  0.15418650  0.31874515  0.50023759  1
  O  O78  1  0.84581350  0.31874515  0.49976241  1
  O  O79  1  0.84581350  0.68125485  0.50023759  1
  O  O80  1  0.68125485  0.15418650  0.49976241  1
  O  O81  1  0.68125485  0.84581350  0.50023759  1
  O  O82  1  0.31874515  0.84581350  0.49976241  1
  O  O83  1  0.31874515  0.15418650  0.50023759  1
  O  O84  1  0.85437290  0.14562710  0.35591298  1
  O  O85  1  0.85437290  0.85437290  0.64408702  1
  O  O86  1  0.14562710  0.85437290  0.35591298  1
  O  O87  1  0.14562710  0.14562710  0.64408702  1
  O  O88  1  0.88537001  0.11462999  0.57929534  1
  O  O89  1  0.88537001  0.88537001  0.42070466  1
  O  O90  1  0.11462999  0.88537001  0.57929534  1
  O  O91  1  0.11462999  0.11462999  0.42070466  1
  O  O92  1  0.83469294  0.83469294  0.02313756  1
  O  O93  1  0.83469294  0.16530706  0.97686244  1
  O  O94  1  0.16530706  0.16530706  0.02313756  1
  O  O95  1  0.16530706  0.83469294  0.97686244  1
  O  O96  1  0.97686244  0.83469294  0.16530706  1
  O  O97  1  0.97686244  0.16530706  0.83469294  1
  O  O98  1  0.02313756  0.16530706  0.16530706  1
  O  O99  1  0.02313756  0.83469294  0.83469294  1
  O  O100  1  0.83469294  0.02313756  0.83469294  1
  O  O101  1  0.83469294  0.97686244  0.16530706  1
  O  O102  1  0.16530706  0.97686244  0.83469294  1
  O  O103  1  0.16530706  0.02313756  0.16530706  1
  F  F104  1  0.61777459  0.61777459  0.61777459  1
  F  F105  1  0.61777459  0.38222541  0.38222541  1
  F  F106  1  0.38222541  0.38222541  0.61777459  1
  F  F107  1  0.38222541  0.61777459  0.38222541  1
  F  F108  1  0.61239406  0.61239406  0.38760594  1
  F  F109  1  0.61239406  0.38760594  0.61239406  1
  F  F110  1  0.38760594  0.38760594  0.38760594  1
  F  F111  1  0.38760594  0.61239406  0.61239406  1
