# generated using pymatgen
data_MgP4(Br3O)4
_symmetry_space_group_name_H-M   'P 1'
_cell_length_a   7.10722722
_cell_length_b   10.13773205
_cell_length_c   11.17520083
_cell_angle_alpha   90.05105290
_cell_angle_beta   89.85582704
_cell_angle_gamma   98.32021977
_symmetry_Int_Tables_number   1
_chemical_formula_structural   MgP4(Br3O)4
_chemical_formula_sum   'Mg1 P4 Br12 O4'
_cell_volume   796.70884623
_cell_formula_units_Z   1
loop_
 _symmetry_equiv_pos_site_id
 _symmetry_equiv_pos_as_xyz
  1  'x, y, z'
loop_
 _atom_site_type_symbol
 _atom_site_label
 _atom_site_symmetry_multiplicity
 _atom_site_fract_x
 _atom_site_fract_y
 _atom_site_fract_z
 _atom_site_occupancy
  Mg  Mg0  1  0.50175500  0.99577100  0.24557500  1
  P  P1  1  0.36575400  0.31004000  0.24649700  1
  P  P2  1  0.61575600  0.68846800  0.74562900  1
  P  P3  1  0.90783400  0.18898800  0.74460200  1
  P  P4  1  0.07646500  0.78872800  0.24578200  1
  Br  Br5  1  0.79296800  0.65230100  0.58971200  1
  Br  Br6  1  0.84404800  0.05205300  0.24470800  1
  Br  Br7  1  0.33524400  0.84683400  0.41027100  1
  Br  Br8  1  0.72190900  0.14925200  0.90166200  1
  Br  Br9  1  0.20702400  0.35561400  0.40383900  1
  Br  Br10  1  0.79426300  0.65397700  0.90072600  1
  Br  Br11  1  0.38311400  0.52019500  0.74680000  1
  Br  Br12  1  0.72110800  0.14516800  0.58899800  1
  Br  Br13  1  0.08900500  0.03076800  0.74576000  1
  Br  Br14  1  0.20676100  0.35535800  0.08972200  1
  Br  Br15  1  0.33351800  0.84852500  0.08039600  1
  Br  Br16  1  0.62930500  0.44955200  0.24584900  1
  O  O17  1  0.55138700  0.82034400  0.74533500  1
  O  O18  1  0.01638500  0.32483700  0.74309300  1
  O  O19  1  0.40015100  0.16826700  0.24655400  1
  O  O20  1  0.01666400  0.64246000  0.24488800  1
