# generated using pymatgen
data_Rb3ErCl6
_symmetry_space_group_name_H-M   'P 1'
_cell_length_a   13.49356373
_cell_length_b   13.49356373
_cell_length_c   12.69889248
_cell_angle_alpha   80.89326009
_cell_angle_beta   80.89326009
_cell_angle_gamma   34.02548361
_symmetry_Int_Tables_number   1
_chemical_formula_structural   Rb3ErCl6
_chemical_formula_sum   'Rb12 Er4 Cl24'
_cell_volume   1275.95422790
_cell_formula_units_Z   4
loop_
 _symmetry_equiv_pos_site_id
 _symmetry_equiv_pos_as_xyz
  1  'x, y, z'
loop_
 _atom_site_type_symbol
 _atom_site_label
 _atom_site_symmetry_multiplicity
 _atom_site_fract_x
 _atom_site_fract_y
 _atom_site_fract_z
 _atom_site_occupancy
  Rb  Rb0  1  0.30166106  0.79842344  0.06657428  1
  Rb  Rb1  1  0.69833894  0.20157656  0.93342572  1
  Rb  Rb2  1  0.20157656  0.69833894  0.43342572  1
  Rb  Rb3  1  0.79842344  0.30166106  0.56657428  1
  Rb  Rb4  1  0.46777722  0.84086655  0.35523947  1
  Rb  Rb5  1  0.53222278  0.15913345  0.64476053  1
  Rb  Rb6  1  0.15913345  0.53222278  0.14476053  1
  Rb  Rb7  1  0.84086655  0.46777722  0.85523947  1
  Rb  Rb8  1  0.65168268  0.02469594  0.29987001  1
  Rb  Rb9  1  0.34831732  0.97530406  0.70012999  1
  Rb  Rb10  1  0.97530406  0.34831732  0.20012999  1
  Rb  Rb11  1  0.02469594  0.65168268  0.79987001  1
  Er  Er12  1  0.78425429  0.21574571  0.25000000  1
  Er  Er13  1  0.21574571  0.78425429  0.75000000  1
  Er  Er14  1  0.50000000  -0.00000000  0.00000000  1
  Er  Er15  1  0.00000000  0.50000000  0.50000000  1
  Cl  Cl16  1  0.62179245  0.72289851  0.08118649  1
  Cl  Cl17  1  0.37820755  0.27710149  0.91881351  1
  Cl  Cl18  1  0.27710149  0.37820755  0.41881351  1
  Cl  Cl19  1  0.72289851  0.62179245  0.58118649  1
  Cl  Cl20  1  0.49667317  0.38608282  0.17900818  1
  Cl  Cl21  1  0.50332683  0.61391718  0.82099182  1
  Cl  Cl22  1  0.61391718  0.50332683  0.32099182  1
  Cl  Cl23  1  0.38608282  0.49667317  0.67900818  1
  Cl  Cl24  1  0.78293765  0.86331135  0.03422463  1
  Cl  Cl25  1  0.21706235  0.13668865  0.96577537  1
  Cl  Cl26  1  0.13668865  0.21706235  0.46577537  1
  Cl  Cl27  1  0.86331135  0.78293765  0.53422463  1
  Cl  Cl28  1  0.91150312  0.97051530  0.69573844  1
  Cl  Cl29  1  0.08849688  0.02948470  0.30426156  1
  Cl  Cl30  1  0.02948470  0.08849688  0.80426156  1
  Cl  Cl31  1  0.97051530  0.91150312  0.19573844  1
  Cl  Cl32  1  0.71743494  0.16626745  0.43618983  1
  Cl  Cl33  1  0.28256506  0.83373255  0.56381017  1
  Cl  Cl34  1  0.83373255  0.28256506  0.06381017  1
  Cl  Cl35  1  0.16626745  0.71743494  0.93618983  1
  Cl  Cl36  1  0.36047396  0.14038391  0.18730270  1
  Cl  Cl37  1  0.63952604  0.85961609  0.81269730  1
  Cl  Cl38  1  0.85961609  0.63952604  0.31269730  1
  Cl  Cl39  1  0.14038391  0.36047396  0.68730270  1
