# generated using pymatgen
data_Li8Fe(O2F)2
_symmetry_space_group_name_H-M   'P 1'
_cell_length_a   6.38473408
_cell_length_b   9.76451391
_cell_length_c   9.41025246
_cell_angle_alpha   94.84160375
_cell_angle_beta   79.28779179
_cell_angle_gamma   92.21654976
_symmetry_Int_Tables_number   1
_chemical_formula_structural   Li8Fe(O2F)2
_chemical_formula_sum   'Li32 Fe4 O16 F8'
_cell_volume   574.23212689
_cell_formula_units_Z   4
loop_
 _symmetry_equiv_pos_site_id
 _symmetry_equiv_pos_as_xyz
  1  'x, y, z'
loop_
 _atom_site_type_symbol
 _atom_site_label
 _atom_site_symmetry_multiplicity
 _atom_site_fract_x
 _atom_site_fract_y
 _atom_site_fract_z
 _atom_site_occupancy
  Li  Li0  1  0.86467200  0.50599900  0.11142400  1
  Li  Li1  1  0.11517200  0.75596600  0.61161200  1
  Li  Li2  1  0.36476400  0.00579900  0.11155500  1
  Li  Li3  1  0.61460400  0.25619300  0.61128700  1
  Li  Li4  1  0.88502500  0.24422400  0.38852900  1
  Li  Li5  1  0.13506200  0.49389200  0.88867700  1
  Li  Li6  1  0.38551300  0.74390200  0.38884500  1
  Li  Li7  1  0.63529300  0.99383600  0.88877200  1
  Li  Li8  1  0.89327500  0.25509800  0.05989900  1
  Li  Li9  1  0.14334000  0.50524700  0.55983400  1
  Li  Li10  1  0.39345000  0.75505200  0.06003800  1
  Li  Li11  1  0.64320500  0.00552600  0.56006300  1
  Li  Li12  1  0.85641100  0.49513500  0.44005800  1
  Li  Li13  1  0.10671300  0.74462400  0.94009700  1
  Li  Li14  1  0.35655300  0.99476200  0.43999600  1
  Li  Li15  1  0.60651500  0.24464300  0.93994800  1
  Li  Li16  1  0.15849000  0.50785400  0.24950700  1
  Li  Li17  1  0.40883400  0.75784700  0.74960200  1
  Li  Li18  1  0.65851300  0.00792600  0.24949500  1
  Li  Li19  1  0.90836300  0.25786200  0.74948200  1
  Li  Li20  1  0.59132100  0.24212500  0.25037600  1
  Li  Li21  1  0.84164100  0.49212700  0.75024500  1
  Li  Li22  1  0.09195300  0.74203000  0.25047700  1
  Li  Li23  1  0.34169600  0.99209300  0.75049300  1
  Li  Li24  1  0.56275500  0.50480400  0.28681100  1
  Li  Li25  1  0.81307400  0.75481800  0.78679800  1
  Li  Li26  1  0.06267000  0.00479800  0.28685800  1
  Li  Li27  1  0.31265700  0.25483600  0.78666300  1
  Li  Li28  1  0.18691600  0.24515400  0.21304300  1
  Li  Li29  1  0.43677200  0.49522600  0.71311200  1
  Li  Li30  1  0.68715200  0.74527500  0.21315500  1
  Li  Li31  1  0.93716200  0.99512300  0.71324300  1
  Fe  Fe32  1  0.50024200  0.49981900  0.99980800  1
  Fe  Fe33  1  0.75058400  0.75043800  0.50002600  1
  Fe  Fe34  1  0.00040700  0.99982900  0.99993900  1
  Fe  Fe35  1  0.24973500  0.24995000  0.49988000  1
  O  O36  1  0.63325600  0.37256500  0.10815900  1
  O  O37  1  0.88338800  0.62285300  0.60814500  1
  O  O38  1  0.13330500  0.87269900  0.10829600  1
  O  O39  1  0.38304300  0.12281300  0.60817000  1
  O  O40  1  0.11649600  0.37734800  0.39170500  1
  O  O41  1  0.36674500  0.62719800  0.89183200  1
  O  O42  1  0.61687400  0.87746900  0.39186100  1
  O  O43  1  0.86684100  0.12719700  0.89187200  1
  O  O44  1  0.85659700  0.61262600  0.28748300  1
  O  O45  1  0.10665500  0.86246900  0.78761800  1
  O  O46  1  0.35641400  0.11249300  0.28747300  1
  O  O47  1  0.60637800  0.36247300  0.78745600  1
  O  O48  1  0.89335500  0.13756400  0.21244700  1
  O  O49  1  0.14328500  0.38759400  0.71251100  1
  O  O50  1  0.39345600  0.63750500  0.21261100  1
  O  O51  1  0.64368900  0.88767200  0.71245200  1
  F  F52  1  0.12186400  0.39579400  0.06463800  1
  F  F53  1  0.37207800  0.64582800  0.56475800  1
  F  F54  1  0.62220700  0.89575300  0.06463100  1
  F  F55  1  0.87193600  0.14610600  0.56439700  1
  F  F56  1  0.62771900  0.35426300  0.43533400  1
  F  F57  1  0.87796100  0.60399500  0.93534200  1
  F  F58  1  0.12803700  0.85400900  0.43555800  1
  F  F59  1  0.37791500  0.10388500  0.93560600  1
