# generated using pymatgen
data_Cs2ZnI4
_symmetry_space_group_name_H-M   'P 1'
_cell_length_a   8.36234603
_cell_length_b   10.95790753
_cell_length_c   14.61204543
_cell_angle_alpha   89.99429817
_cell_angle_beta   89.99881028
_cell_angle_gamma   89.91073181
_symmetry_Int_Tables_number   1
_chemical_formula_structural   Cs2ZnI4
_chemical_formula_sum   'Cs8 Zn4 I16'
_cell_volume   1338.95582818
_cell_formula_units_Z   4
loop_
 _symmetry_equiv_pos_site_id
 _symmetry_equiv_pos_as_xyz
  1  'x, y, z'
loop_
 _atom_site_type_symbol
 _atom_site_label
 _atom_site_symmetry_multiplicity
 _atom_site_fract_x
 _atom_site_fract_y
 _atom_site_fract_z
 _atom_site_occupancy
  Cs  Cs0  1  0.25010565  0.52383736  0.16701953  1
  Cs  Cs1  1  0.25005866  0.02375119  0.33301768  1
  Cs  Cs2  1  0.74988176  0.47611585  0.83299329  1
  Cs  Cs3  1  0.74987619  0.97619758  0.66699628  1
  Cs  Cs4  1  0.24997080  0.87091578  0.90363984  1
  Cs  Cs5  1  0.24992767  0.37107606  0.59635333  1
  Cs  Cs6  1  0.74971903  0.12882573  0.09621815  1
  Cs  Cs7  1  0.74980679  0.62892859  0.40366231  1
  Zn  Zn8  1  0.24982441  0.26520234  0.92204373  1
  Zn  Zn9  1  0.24996953  0.76550976  0.57815508  1
  Zn  Zn10  1  0.75038553  0.73476631  0.07796660  1
  Zn  Zn11  1  0.75017647  0.23466989  0.42183026  1
  I  I12  1  0.24993914  0.50261442  0.90049800  1
  I  I13  1  0.24934177  0.00287222  0.59940224  1
  I  I14  1  0.75052881  0.49726651  0.09945299  1
  I  I15  1  0.75041006  0.99731118  0.40043667  1
  I  I16  1  0.24944658  0.18999102  0.09214603  1
  I  I17  1  0.24968200  0.68999300  0.40813619  1
  I  I18  1  0.75056457  0.81003411  0.90792652  1
  I  I19  1  0.75048957  0.30996819  0.59190798  1
  I  I20  1  0.50532289  0.17317701  0.84583387  1
  I  I21  1  0.99465146  0.67333249  0.65434463  1
  I  I22  1  0.00539702  0.82662797  0.15433561  1
  I  I23  1  0.49464306  0.32680501  0.34581271  1
  I  I24  1  0.49472082  0.82682062  0.15419215  1
  I  I25  1  0.00519995  0.32667108  0.34566443  1
  I  I26  1  0.99463120  0.17332707  0.84559823  1
  I  I27  1  0.50532860  0.67339267  0.65441666  1
