# generated using pymatgen
data_Y5Mg(MoO6)2
_symmetry_space_group_name_H-M   'P 1'
_cell_length_a   5.93237834
_cell_length_b   7.13586525
_cell_length_c   7.51658237
_cell_angle_alpha   105.50897406
_cell_angle_beta   89.94100388
_cell_angle_gamma   114.81310047
_symmetry_Int_Tables_number   1
_chemical_formula_structural   Y5Mg(MoO6)2
_chemical_formula_sum   'Y5 Mg1 Mo2 O12'
_cell_volume   276.04725184
_cell_formula_units_Z   1
loop_
 _symmetry_equiv_pos_site_id
 _symmetry_equiv_pos_as_xyz
  1  'x, y, z'
loop_
 _atom_site_type_symbol
 _atom_site_label
 _atom_site_symmetry_multiplicity
 _atom_site_fract_x
 _atom_site_fract_y
 _atom_site_fract_z
 _atom_site_occupancy
  Y  Y0  1  0.47745500  0.96006800  0.50753800  1
  Y  Y1  1  0.18955300  0.38412300  0.80212900  1
  Y  Y2  1  0.81902700  0.63607100  0.15219200  1
  Y  Y3  1  0.81583300  0.63518600  0.66035100  1
  Y  Y4  1  0.20695100  0.41057000  0.35120000  1
  Mg  Mg5  1  0.64961300  0.29238500  0.32356700  1
  Mo  Mo6  1  0.73639100  0.99836800  0.00070500  1
  Mo  Mo7  1  0.26396500  0.99952900  0.00148400  1
  O  O8  1  0.01562100  0.02616600  0.81778400  1
  O  O9  1  0.00220700  0.00051900  0.18601600  1
  O  O10  1  0.48771700  0.98011200  0.20496800  1
  O  O11  1  0.50354600  0.01191900  0.80404000  1
  O  O12  1  0.60404800  0.70255100  0.43441200  1
  O  O13  1  0.89421900  0.31631300  0.54530800  1
  O  O14  1  0.42354700  0.31699100  0.54519900  1
  O  O15  1  0.44146100  0.33969400  0.12832000  1
  O  O16  1  0.06588300  0.65202500  0.90367800  1
  O  O17  1  0.58282800  0.65005800  0.90419200  1
  O  O18  1  0.90492100  0.34021700  0.12482600  1
  O  O19  1  0.09229800  0.69898800  0.43244800  1
