# generated using pymatgen
data_TiFeO3
_symmetry_space_group_name_H-M   'P 1'
_cell_length_a   5.44262180
_cell_length_b   5.44261792
_cell_length_c   5.44262772
_cell_angle_alpha   55.71719058
_cell_angle_beta   55.71717239
_cell_angle_gamma   55.71721465
_symmetry_Int_Tables_number   1
_chemical_formula_structural   TiFeO3
_chemical_formula_sum   'Ti2 Fe2 O6'
_cell_volume   102.67577859
_cell_formula_units_Z   2
loop_
 _symmetry_equiv_pos_site_id
 _symmetry_equiv_pos_as_xyz
  1  'x, y, z'
loop_
 _atom_site_type_symbol
 _atom_site_label
 _atom_site_symmetry_multiplicity
 _atom_site_fract_x
 _atom_site_fract_y
 _atom_site_fract_z
 _atom_site_occupancy
  Ti  Ti0  1  0.65012324  0.65012324  0.65012324  1
  Ti  Ti1  1  0.34989566  0.34989566  0.34989566  1
  Fe  Fe2  1  0.85085315  0.85085415  0.85085515  1
  Fe  Fe3  1  0.14913871  0.14913871  0.14913671  1
  O  O4  1  0.06649239  0.73174955  0.44287008  1
  O  O5  1  0.73174955  0.44287108  0.06649139  1
  O  O6  1  0.44287008  0.06649239  0.73174855  1
  O  O7  1  0.93343268  0.26829991  0.55714463  1
  O  O8  1  0.55714463  0.93343268  0.26830091  1
  O  O9  1  0.26830091  0.55714363  0.93343368  1
