# generated using pymatgen
data_BaGeS3
_symmetry_space_group_name_H-M   'P 1'
_cell_length_a   5.80415490
_cell_length_b   13.48955987
_cell_length_c   15.55618473
_cell_angle_alpha   64.57360247
_cell_angle_beta   90.00000000
_cell_angle_gamma   90.00000000
_symmetry_Int_Tables_number   1
_chemical_formula_structural   BaGeS3
_chemical_formula_sum   'Ba8 Ge8 S24'
_cell_volume   1100.00276877
_cell_formula_units_Z   8
loop_
 _symmetry_equiv_pos_site_id
 _symmetry_equiv_pos_as_xyz
  1  'x, y, z'
loop_
 _atom_site_type_symbol
 _atom_site_label
 _atom_site_symmetry_multiplicity
 _atom_site_fract_x
 _atom_site_fract_y
 _atom_site_fract_z
 _atom_site_occupancy
  Ba  Ba0  1  0.74123354  0.39442041  0.13592123  1
  Ba  Ba1  1  0.24123354  0.10557959  0.86407877  1
  Ba  Ba2  1  0.25876646  0.60557959  0.86407877  1
  Ba  Ba3  1  0.75876646  0.89442041  0.13592123  1
  Ba  Ba4  1  0.24688047  0.03029437  0.36364030  1
  Ba  Ba5  1  0.74688047  0.46970563  0.63635970  1
  Ba  Ba6  1  0.75311953  0.96970563  0.63635970  1
  Ba  Ba7  1  0.25311953  0.53029437  0.36364030  1
  Ge  Ge8  1  0.84059974  0.26625802  0.42569461  1
  Ge  Ge9  1  0.34059974  0.23374198  0.57430539  1
  Ge  Ge10  1  0.15940026  0.73374198  0.57430539  1
  Ge  Ge11  1  0.65940026  0.76625802  0.42569461  1
  Ge  Ge12  1  0.15628830  0.19305174  0.07464645  1
  Ge  Ge13  1  0.65628830  0.30694826  0.92535355  1
  Ge  Ge14  1  0.84371170  0.80694826  0.92535355  1
  Ge  Ge15  1  0.34371170  0.69305174  0.07464645  1
  S  S16  1  0.75736773  0.43142341  0.32254401  1
  S  S17  1  0.25736773  0.06857659  0.67745599  1
  S  S18  1  0.24263227  0.56857659  0.67745599  1
  S  S19  1  0.74263227  0.93142341  0.32254401  1
  S  S20  1  0.23469005  0.26089685  0.42552517  1
  S  S21  1  0.73469005  0.23910315  0.57447483  1
  S  S22  1  0.76530995  0.73910315  0.57447483  1
  S  S23  1  0.26530995  0.76089685  0.42552517  1
  S  S24  1  0.75020509  0.12430228  0.40069122  1
  S  S25  1  0.25020509  0.37569772  0.59930878  1
  S  S26  1  0.24979491  0.87569772  0.59930878  1
  S  S27  1  0.74979491  0.62430228  0.40069122  1
  S  S28  1  0.23772413  0.25532188  0.17844313  1
  S  S29  1  0.73772413  0.24467812  0.82155687  1
  S  S30  1  0.76227587  0.74467812  0.82155687  1
  S  S31  1  0.26227587  0.75532188  0.17844313  1
  S  S32  1  0.76235690  0.18662085  0.07402618  1
  S  S33  1  0.26235690  0.31337915  0.92597382  1
  S  S34  1  0.23764310  0.81337915  0.92597382  1
  S  S35  1  0.73764310  0.68662085  0.07402618  1
  S  S36  1  0.24863233  0.02638577  0.10019092  1
  S  S37  1  0.74863233  0.47361423  0.89980908  1
  S  S38  1  0.75136767  0.97361423  0.89980908  1
  S  S39  1  0.25136767  0.52638577  0.10019092  1
