# generated using pymatgen
data_Tl2Hg3S4
_symmetry_space_group_name_H-M   'P 1'
_cell_length_a   6.80926059
_cell_length_b   6.80926059
_cell_length_c   13.30476609
_cell_angle_alpha   68.85686573
_cell_angle_beta   68.85686573
_cell_angle_gamma   59.44773178
_symmetry_Int_Tables_number   1
_chemical_formula_structural   Tl2Hg3S4
_chemical_formula_sum   'Tl4 Hg6 S8'
_cell_volume   483.25254642
_cell_formula_units_Z   2
loop_
 _symmetry_equiv_pos_site_id
 _symmetry_equiv_pos_as_xyz
  1  'x, y, z'
loop_
 _atom_site_type_symbol
 _atom_site_label
 _atom_site_symmetry_multiplicity
 _atom_site_fract_x
 _atom_site_fract_y
 _atom_site_fract_z
 _atom_site_occupancy
  Tl  Tl0  1  0.10412257  0.25673099  0.94506074  1
  Tl  Tl1  1  0.74326901  0.89587743  0.55493926  1
  Tl  Tl2  1  0.89587743  0.74326901  0.05493926  1
  Tl  Tl3  1  0.25673099  0.10412257  0.44506074  1
  Hg  Hg4  1  0.12294450  0.87705550  0.25000000  1
  Hg  Hg5  1  0.87705550  0.12294450  0.75000000  1
  Hg  Hg6  1  0.55396802  0.33049394  0.15199431  1
  Hg  Hg7  1  0.66950606  0.44603198  0.34800569  1
  Hg  Hg8  1  0.44603198  0.66950606  0.84800569  1
  Hg  Hg9  1  0.33049394  0.55396802  0.65199431  1
  S  S10  1  0.70972064  0.93784054  0.25236668  1
  S  S11  1  0.06215946  0.29027936  0.24763332  1
  S  S12  1  0.29027936  0.06215946  0.74763332  1
  S  S13  1  0.93784054  0.70972064  0.75236668  1
  S  S14  1  0.26369641  0.56927018  0.42390284  1
  S  S15  1  0.43072982  0.73630359  0.07609716  1
  S  S16  1  0.73630359  0.43072982  0.57609716  1
  S  S17  1  0.56927018  0.26369641  0.92390284  1
