# generated using pymatgen
data_Y5Mg(MoO6)2
_symmetry_space_group_name_H-M   'P 1'
_cell_length_a   5.95491800
_cell_length_b   6.87889258
_cell_length_c   7.47622285
_cell_angle_alpha   105.49351664
_cell_angle_beta   90.00000000
_cell_angle_gamma   115.64792118
_symmetry_Int_Tables_number   1
_chemical_formula_structural   Y5Mg(MoO6)2
_chemical_formula_sum   'Y5 Mg1 Mo2 O12'
_cell_volume   263.67629007
_cell_formula_units_Z   1
loop_
 _symmetry_equiv_pos_site_id
 _symmetry_equiv_pos_as_xyz
  1  'x, y, z'
loop_
 _atom_site_type_symbol
 _atom_site_label
 _atom_site_symmetry_multiplicity
 _atom_site_fract_x
 _atom_site_fract_y
 _atom_site_fract_z
 _atom_site_occupancy
  Y  Y0  1  0.50000000  0.00000000  0.50000000  1
  Y  Y1  1  0.19667400  0.39334700  0.85619800  1
  Y  Y2  1  0.80332600  0.60665300  0.14380200  1
  Y  Y3  1  0.79366800  0.58733600  0.64682900  1
  Y  Y4  1  0.20633200  0.41266400  0.35317100  1
  Mg  Mg5  1  0.00000000  0.00000000  0.50000000  1
  Mo  Mo6  1  0.71432800  0.00000000  0.00000000  1
  Mo  Mo7  1  0.28567200  0.00000000  0.00000000  1
  O  O8  1  0.00220400  0.00440700  0.79932100  1
  O  O9  1  0.99779600  0.99559300  0.20067900  1
  O  O10  1  0.48154500  0.96309000  0.20138100  1
  O  O11  1  0.51845500  0.03691000  0.79861900  1
  O  O12  1  0.62947300  0.72005600  0.44037400  1
  O  O13  1  0.90941700  0.27994400  0.55962600  1
  O  O14  1  0.37052700  0.27994400  0.55962600  1
  O  O15  1  0.40458100  0.34532400  0.10021300  1
  O  O16  1  0.05925800  0.65467600  0.89978700  1
  O  O17  1  0.59541900  0.65467600  0.89978700  1
  O  O18  1  0.94074200  0.34532400  0.10021300  1
  O  O19  1  0.09058300  0.72005600  0.44037400  1
