# generated using pymatgen
data_Ba3(AlP2)2
_symmetry_space_group_name_H-M   'P 1'
_cell_length_a   7.33620708
_cell_length_b   11.61234077
_cell_length_c   11.68887967
_cell_angle_alpha   90.00000000
_cell_angle_beta   90.00000000
_cell_angle_gamma   90.00000000
_symmetry_Int_Tables_number   1
_chemical_formula_structural   Ba3(AlP2)2
_chemical_formula_sum   'Ba12 Al8 P16'
_cell_volume   995.78193102
_cell_formula_units_Z   4
loop_
 _symmetry_equiv_pos_site_id
 _symmetry_equiv_pos_as_xyz
  1  'x, y, z'
loop_
 _atom_site_type_symbol
 _atom_site_label
 _atom_site_symmetry_multiplicity
 _atom_site_fract_x
 _atom_site_fract_y
 _atom_site_fract_z
 _atom_site_occupancy
  Ba  Ba0  1  0.57857775  0.07822952  0.36022338  1
  Ba  Ba1  1  0.07857775  0.42177048  0.13977662  1
  Ba  Ba2  1  0.42142225  0.57822952  0.63977662  1
  Ba  Ba3  1  0.92142225  0.92177048  0.86022338  1
  Ba  Ba4  1  0.42142225  0.92177048  0.63977662  1
  Ba  Ba5  1  0.92142225  0.57822952  0.86022338  1
  Ba  Ba6  1  0.57857775  0.42177048  0.36022338  1
  Ba  Ba7  1  0.07857775  0.07822952  0.13977662  1
  Ba  Ba8  1  0.59693168  0.25000000  0.73278657  1
  Ba  Ba9  1  0.09693168  0.25000000  0.76721343  1
  Ba  Ba10  1  0.40306832  0.75000000  0.26721343  1
  Ba  Ba11  1  0.90306832  0.75000000  0.23278657  1
  Al  Al12  1  0.55819086  0.12487731  0.03533007  1
  Al  Al13  1  0.05819086  0.37512269  0.46466993  1
  Al  Al14  1  0.44180914  0.62487731  0.96466993  1
  Al  Al15  1  0.94180914  0.87512269  0.53533007  1
  Al  Al16  1  0.44180914  0.87512269  0.96466993  1
  Al  Al17  1  0.94180914  0.62487731  0.53533007  1
  Al  Al18  1  0.55819086  0.37512269  0.03533007  1
  Al  Al19  1  0.05819086  0.12487731  0.46466993  1
  P  P20  1  0.65189103  0.55608970  0.11154627  1
  P  P21  1  0.15189103  0.94391030  0.38845373  1
  P  P22  1  0.34810897  0.05608970  0.88845373  1
  P  P23  1  0.84810897  0.44391030  0.61154627  1
  P  P24  1  0.34810897  0.44391030  0.88845373  1
  P  P25  1  0.84810897  0.05608970  0.61154627  1
  P  P26  1  0.65189103  0.94391030  0.11154627  1
  P  P27  1  0.15189103  0.55608970  0.38845373  1
  P  P28  1  0.80409703  0.25000000  0.97209322  1
  P  P29  1  0.30409703  0.25000000  0.52790678  1
  P  P30  1  0.19590297  0.75000000  0.02790678  1
  P  P31  1  0.69590297  0.75000000  0.47209322  1
  P  P32  1  0.91139610  0.25000000  0.33302862  1
  P  P33  1  0.41139610  0.25000000  0.16697138  1
  P  P34  1  0.08860390  0.75000000  0.66697138  1
  P  P35  1  0.58860390  0.75000000  0.83302862  1
