# generated using pymatgen
data_RbEu2Cl5
_symmetry_space_group_name_H-M   'P 1'
_cell_length_a   7.87992188
_cell_length_b   8.97547845
_cell_length_c   12.63444306
_cell_angle_alpha   89.77265290
_cell_angle_beta   89.99847048
_cell_angle_gamma   90.00081249
_symmetry_Int_Tables_number   1
_chemical_formula_structural   RbEu2Cl5
_chemical_formula_sum   'Rb4 Eu8 Cl20'
_cell_volume   893.57745680
_cell_formula_units_Z   4
loop_
 _symmetry_equiv_pos_site_id
 _symmetry_equiv_pos_as_xyz
  1  'x, y, z'
loop_
 _atom_site_type_symbol
 _atom_site_label
 _atom_site_symmetry_multiplicity
 _atom_site_fract_x
 _atom_site_fract_y
 _atom_site_fract_z
 _atom_site_occupancy
  Rb  Rb0  1  0.44459171  0.48918202  0.83422071  1
  Rb  Rb1  1  0.55536212  0.51084304  0.16580517  1
  Rb  Rb2  1  0.94460966  0.51080437  0.66581320  1
  Rb  Rb3  1  0.05542278  0.48917118  0.33418593  1
  Eu  Eu4  1  0.47604970  0.99868013  0.82215711  1
  Eu  Eu5  1  0.52397455  0.00136381  0.17778088  1
  Eu  Eu6  1  0.97605353  0.00133876  0.67779429  1
  Eu  Eu7  1  0.02394499  0.99867767  0.32223861  1
  Eu  Eu8  1  0.43198882  0.75295964  0.50617793  1
  Eu  Eu9  1  0.56803931  0.24702062  0.49382278  1
  Eu  Eu10  1  0.93195225  0.24696266  0.99383773  1
  Eu  Eu11  1  0.06804350  0.75298352  0.00618938  1
  Cl  Cl12  1  0.32748742  0.46494326  0.58038565  1
  Cl  Cl13  1  0.67251986  0.53505389  0.41959942  1
  Cl  Cl14  1  0.82751068  0.53503133  0.91962555  1
  Cl  Cl15  1  0.17250551  0.46495654  0.08040659  1
  Cl  Cl16  1  0.66608751  0.78951221  0.68362649  1
  Cl  Cl17  1  0.33393552  0.21049576  0.31635662  1
  Cl  Cl18  1  0.16605523  0.21049663  0.81635633  1
  Cl  Cl19  1  0.83394076  0.78947941  0.18366162  1
  Cl  Cl20  1  0.19084372  0.77543625  0.78360252  1
  Cl  Cl21  1  0.80913926  0.22453718  0.21638976  1
  Cl  Cl22  1  0.69082035  0.22457081  0.71638547  1
  Cl  Cl23  1  0.30917526  0.77547760  0.28360078  1
  Cl  Cl24  1  0.04975305  0.78983592  0.50224413  1
  Cl  Cl25  1  0.95026142  0.21015218  0.49776807  1
  Cl  Cl26  1  0.54970929  0.21013668  0.99774137  1
  Cl  Cl27  1  0.45028503  0.78991393  0.00221439  1
  Cl  Cl28  1  0.83958041  0.96101809  0.89951528  1
  Cl  Cl29  1  0.16038342  0.03897399  0.10050185  1
  Cl  Cl30  1  0.33956026  0.03895953  0.60046846  1
  Cl  Cl31  1  0.66041514  0.96103036  0.39952593  1
