# generated using pymatgen
data_CaCuP2O7
_symmetry_space_group_name_H-M   'P 1'
_cell_length_a   8.02485494
_cell_length_b   5.22941788
_cell_length_c   13.23893211
_cell_angle_alpha   68.19222100
_cell_angle_beta   90.00000000
_cell_angle_gamma   90.00000000
_symmetry_Int_Tables_number   1
_chemical_formula_structural   CaCuP2O7
_chemical_formula_sum   'Ca4 Cu4 P8 O28'
_cell_volume   515.81644448
_cell_formula_units_Z   4
loop_
 _symmetry_equiv_pos_site_id
 _symmetry_equiv_pos_as_xyz
  1  'x, y, z'
loop_
 _atom_site_type_symbol
 _atom_site_label
 _atom_site_symmetry_multiplicity
 _atom_site_fract_x
 _atom_site_fract_y
 _atom_site_fract_z
 _atom_site_occupancy
  Ca  Ca0  1  0.17735345  0.98856297  0.22342669  1
  Ca  Ca1  1  0.67735345  0.01143703  0.27657331  1
  Ca  Ca2  1  0.82264655  0.01143703  0.77657331  1
  Ca  Ca3  1  0.32264655  0.98856297  0.72342669  1
  Cu  Cu4  1  0.36014936  0.31517379  0.38904470  1
  Cu  Cu5  1  0.86014936  0.68482621  0.11095530  1
  Cu  Cu6  1  0.63985064  0.68482621  0.61095530  1
  Cu  Cu7  1  0.13985064  0.31517379  0.88904470  1
  P  P8  1  0.29880907  0.67353259  0.51453183  1
  P  P9  1  0.79880907  0.32646741  0.98546817  1
  P  P10  1  0.70119093  0.32646741  0.48546817  1
  P  P11  1  0.20119093  0.67353259  0.01453183  1
  P  P12  1  0.97233449  0.41047272  0.33613013  1
  P  P13  1  0.47233449  0.58952728  0.16386987  1
  P  P14  1  0.02766551  0.58952728  0.66386987  1
  P  P15  1  0.52766551  0.41047272  0.83613013  1
  O  O16  1  0.31525739  0.88418406  0.40152148  1
  O  O17  1  0.81525739  0.11581594  0.09847852  1
  O  O18  1  0.68474261  0.11581594  0.59847852  1
  O  O19  1  0.18474261  0.88418406  0.90152148  1
  O  O20  1  0.16524147  0.37401314  0.02837521  1
  O  O21  1  0.66524147  0.62598686  0.47162479  1
  O  O22  1  0.83475853  0.62598686  0.97162479  1
  O  O23  1  0.33475853  0.37401314  0.52837521  1
  O  O24  1  0.45608351  0.82161305  0.20486767  1
  O  O25  1  0.95608351  0.17838695  0.29513233  1
  O  O26  1  0.54391649  0.17838695  0.79513233  1
  O  O27  1  0.04391649  0.82161305  0.70486767  1
  O  O28  1  0.39376830  0.68895378  0.04522536  1
  O  O29  1  0.89376830  0.31104622  0.45477464  1
  O  O30  1  0.60623170  0.31104622  0.95477464  1
  O  O31  1  0.10623170  0.68895378  0.54522536  1
  O  O32  1  0.35039924  0.49637295  0.84574413  1
  O  O33  1  0.85039924  0.50362705  0.65425587  1
  O  O34  1  0.64960076  0.50362705  0.15425587  1
  O  O35  1  0.14960076  0.49637295  0.34574413  1
  O  O36  1  0.39759426  0.74843479  0.59910394  1
  O  O37  1  0.89759426  0.25156521  0.90089606  1
  O  O38  1  0.60240574  0.25156521  0.40089606  1
  O  O39  1  0.10240574  0.74843479  0.09910394  1
  O  O40  1  0.12258251  0.33046667  0.73379077  1
  O  O41  1  0.62258251  0.66953333  0.76620923  1
  O  O42  1  0.87741749  0.66953333  0.26620923  1
  O  O43  1  0.37741749  0.33046667  0.23379077  1
