# generated using pymatgen
data_Nd2HgO4
_symmetry_space_group_name_H-M   'P 1'
_cell_length_a   3.81244765
_cell_length_b   7.22056563
_cell_length_c   9.14930481
_cell_angle_alpha   77.00345042
_cell_angle_beta   77.97453433
_cell_angle_gamma   74.69249731
_symmetry_Int_Tables_number   1
_chemical_formula_structural   Nd2HgO4
_chemical_formula_sum   'Nd4 Hg2 O8'
_cell_volume   233.71129762
_cell_formula_units_Z   2
loop_
 _symmetry_equiv_pos_site_id
 _symmetry_equiv_pos_as_xyz
  1  'x, y, z'
loop_
 _atom_site_type_symbol
 _atom_site_label
 _atom_site_symmetry_multiplicity
 _atom_site_fract_x
 _atom_site_fract_y
 _atom_site_fract_z
 _atom_site_occupancy
  Nd  Nd0  1  0.61963189  0.21977823  0.54096000  1
  Nd  Nd1  1  0.38036811  0.78022177  0.45904000  1
  Nd  Nd2  1  0.84030406  0.51987574  0.79951413  1
  Nd  Nd3  1  0.15969594  0.48012426  0.20048587  1
  Hg  Hg4  1  0.11488646  0.93192529  0.83830080  1
  Hg  Hg5  1  0.88511354  0.06807471  0.16169920  1
  O  O6  1  0.20283921  0.65202355  0.94229903  1
  O  O7  1  0.79716079  0.34797645  0.05770097  1
  O  O8  1  0.03640775  0.20548234  0.72170216  1
  O  O9  1  0.96359225  0.79451766  0.27829784  1
  O  O10  1  0.41924229  0.50782482  0.65369060  1
  O  O11  1  0.58075771  0.49217518  0.34630940  1
  O  O12  1  0.23024500  0.15214926  0.38736074  1
  O  O13  1  0.76975500  0.84785074  0.61263926  1
