# generated using pymatgen
data_Y2ZnS4
_symmetry_space_group_name_H-M   'P 1'
_cell_length_a   6.30445957
_cell_length_b   7.88771925
_cell_length_c   13.52320200
_cell_angle_alpha   90.00000000
_cell_angle_beta   90.00000000
_cell_angle_gamma   90.00000000
_symmetry_Int_Tables_number   1
_chemical_formula_structural   Y2ZnS4
_chemical_formula_sum   'Y8 Zn4 S16'
_cell_volume   672.47918058
_cell_formula_units_Z   4
loop_
 _symmetry_equiv_pos_site_id
 _symmetry_equiv_pos_as_xyz
  1  'x, y, z'
loop_
 _atom_site_type_symbol
 _atom_site_label
 _atom_site_symmetry_multiplicity
 _atom_site_fract_x
 _atom_site_fract_y
 _atom_site_fract_z
 _atom_site_occupancy
  Y  Y0  1  -0.00000000  0.50000000  -0.00000000  1
  Y  Y1  1  0.50000000  -0.00000000  0.50000000  1
  Y  Y2  1  -0.00000000  -0.00000000  -0.00000000  1
  Y  Y3  1  0.50000000  0.50000000  0.50000000  1
  Y  Y4  1  0.00488840  0.75000000  0.26629591  1
  Y  Y5  1  0.49511160  0.75000000  0.76629591  1
  Y  Y6  1  0.99511160  0.25000000  0.73370409  1
  Y  Y7  1  0.50488840  0.25000000  0.23370409  1
  Zn  Zn8  1  0.58851856  0.75000000  0.09195954  1
  Zn  Zn9  1  0.91148144  0.75000000  0.59195954  1
  Zn  Zn10  1  0.41148144  0.25000000  0.90804046  1
  Zn  Zn11  1  0.08851856  0.25000000  0.40804046  1
  S  S12  1  0.22621826  0.75000000  0.09044350  1
  S  S13  1  0.27378174  0.75000000  0.59044350  1
  S  S14  1  0.77378174  0.25000000  0.90955650  1
  S  S15  1  0.72621826  0.25000000  0.40955650  1
  S  S16  1  0.75887535  0.75000000  0.43135415  1
  S  S17  1  0.74112465  0.75000000  0.93135415  1
  S  S18  1  0.24112465  0.25000000  0.56864585  1
  S  S19  1  0.25887535  0.25000000  0.06864585  1
  S  S20  1  0.75378827  0.51537332  0.16781819  1
  S  S21  1  0.74621173  0.98462668  0.66781819  1
  S  S22  1  0.24621173  0.01537332  0.83218181  1
  S  S23  1  0.25378827  0.48462668  0.33218181  1
  S  S24  1  0.24621173  0.48462668  0.83218181  1
  S  S25  1  0.25378827  0.01537332  0.33218181  1
  S  S26  1  0.75378827  0.98462668  0.16781819  1
  S  S27  1  0.74621173  0.51537332  0.66781819  1
