# generated using pymatgen
data_TbScS3
_symmetry_space_group_name_H-M   'P 1'
_cell_length_a   6.38954675
_cell_length_b   7.02160892
_cell_length_c   9.52792106
_cell_angle_alpha   90.00000000
_cell_angle_beta   90.00000000
_cell_angle_gamma   90.00000000
_symmetry_Int_Tables_number   1
_chemical_formula_structural   TbScS3
_chemical_formula_sum   'Tb4 Sc4 S12'
_cell_volume   427.46921084
_cell_formula_units_Z   4
loop_
 _symmetry_equiv_pos_site_id
 _symmetry_equiv_pos_as_xyz
  1  'x, y, z'
loop_
 _atom_site_type_symbol
 _atom_site_label
 _atom_site_symmetry_multiplicity
 _atom_site_fract_x
 _atom_site_fract_y
 _atom_site_fract_z
 _atom_site_occupancy
  Tb  Tb0  1  0.54021721  0.39977701  0.75000000  1
  Tb  Tb1  1  0.45978279  0.60022299  0.25000000  1
  Tb  Tb2  1  0.04021721  0.10022299  0.25000000  1
  Tb  Tb3  1  0.95978279  0.89977701  0.75000000  1
  Sc  Sc4  1  0.00000000  0.50000000  -0.00000000  1
  Sc  Sc5  1  0.00000000  0.50000000  0.50000000  1
  Sc  Sc6  1  0.50000000  -0.00000000  0.50000000  1
  Sc  Sc7  1  0.50000000  -0.00000000  -0.00000000  1
  S  S8  1  0.82391752  0.18459815  0.57038833  1
  S  S9  1  0.17608248  0.81540185  0.07038833  1
  S  S10  1  0.32391752  0.31540185  0.07038833  1
  S  S11  1  0.67608248  0.68459815  0.57038833  1
  S  S12  1  0.82391752  0.18459815  0.92961167  1
  S  S13  1  0.17608248  0.81540185  0.42961167  1
  S  S14  1  0.32391752  0.31540185  0.42961167  1
  S  S15  1  0.67608248  0.68459815  0.92961167  1
  S  S16  1  0.85685109  0.45296690  0.25000000  1
  S  S17  1  0.14314891  0.54703310  0.75000000  1
  S  S18  1  0.35685109  0.04703310  0.75000000  1
  S  S19  1  0.64314891  0.95296690  0.25000000  1
