# generated using pymatgen
data_MgAg20(BiO4)4
_symmetry_space_group_name_H-M   'P 1'
_cell_length_a   6.02087535
_cell_length_b   9.01836345
_cell_length_c   13.22515472
_cell_angle_alpha   91.28202177
_cell_angle_beta   89.29934403
_cell_angle_gamma   91.62815451
_symmetry_Int_Tables_number   1
_chemical_formula_structural   MgAg20(BiO4)4
_chemical_formula_sum   'Mg1 Ag20 Bi4 O16'
_cell_volume   717.58740952
_cell_formula_units_Z   1
loop_
 _symmetry_equiv_pos_site_id
 _symmetry_equiv_pos_as_xyz
  1  'x, y, z'
loop_
 _atom_site_type_symbol
 _atom_site_label
 _atom_site_symmetry_multiplicity
 _atom_site_fract_x
 _atom_site_fract_y
 _atom_site_fract_z
 _atom_site_occupancy
  Mg  Mg0  1  0.26686489  0.72759768  0.95737714  1
  Ag  Ag1  1  0.22511956  0.72535034  0.16303128  1
  Ag  Ag2  1  0.73700030  0.77802786  0.62992220  1
  Ag  Ag3  1  0.92974049  0.48011524  0.03192305  1
  Ag  Ag4  1  0.49881325  0.99771830  0.49672483  1
  Ag  Ag5  1  0.00832948  0.15097366  0.65387714  1
  Ag  Ag6  1  0.61048705  0.56599602  0.90062975  1
  Ag  Ag7  1  0.97016458  0.85813195  0.34263169  1
  Ag  Ag8  1  0.53305982  0.37069410  0.15385686  1
  Ag  Ag9  1  0.52635381  0.98506242  0.24535997  1
  Ag  Ag10  1  0.97065800  0.48153353  0.26020918  1
  Ag  Ag11  1  0.45073835  0.02107378  0.74512852  1
  Ag  Ag12  1  0.05848929  0.51281707  0.73932933  1
  Ag  Ag13  1  0.47737232  0.03638019  0.99654948  1
  Ag  Ag14  1  0.00566376  0.49865718  0.49521962  1
  Ag  Ag15  1  0.23441814  0.27270796  0.86779099  1
  Ag  Ag16  1  0.23190797  0.77395266  0.62954076  1
  Ag  Ag17  1  0.67301834  0.73131842  0.07677363  1
  Ag  Ag18  1  0.76451888  0.22416471  0.36960048  1
  Ag  Ag19  1  0.73557965  0.26076707  0.86122970  1
  Ag  Ag20  1  0.25956735  0.22355564  0.36636514  1
  Bi  Bi21  1  0.52457071  0.38070935  0.61275558  1
  Bi  Bi22  1  0.93246160  0.89761420  0.86788403  1
  Bi  Bi23  1  0.48060072  0.61907691  0.38460177  1
  Bi  Bi24  1  0.01204980  0.11131902  0.11939260  1
  O  O25  1  0.11101584  0.34503699  0.13935882  1
  O  O26  1  0.41150588  0.85958858  0.37160159  1
  O  O27  1  0.02551709  0.65463830  0.86702451  1
  O  O28  1  0.59078038  0.13777512  0.62025954  1
  O  O29  1  0.98611778  0.91526484  0.69957686  1
  O  O30  1  0.49453662  0.38935374  0.78809855  1
  O  O31  1  0.97698558  0.14473679  0.94058334  1
  O  O32  1  0.48640636  0.63893275  0.56913770  1
  O  O33  1  0.03890097  0.83912357  0.05088038  1
  O  O34  1  0.51354100  0.35689796  0.43605411  1
  O  O35  1  0.64739924  0.13336632  0.12607885  1
  O  O36  1  0.84746513  0.63369658  0.38161169  1
  O  O37  1  0.30424099  0.91380065  0.87569047  1
  O  O38  1  0.15843615  0.36785821  0.61255222  1
  O  O39  1  0.00688721  0.08865634  0.29424533  1
  O  O40  1  0.49104869  0.59595799  0.21787431  1
