# generated using pymatgen
data_Tm2SiO5
_symmetry_space_group_name_H-M   'P 1'
_cell_length_a   6.66336372
_cell_length_b   6.60300239
_cell_length_c   9.02465552
_cell_angle_alpha   77.40958070
_cell_angle_beta   90.00000000
_cell_angle_gamma   90.00000000
_symmetry_Int_Tables_number   1
_chemical_formula_structural   Tm2SiO5
_chemical_formula_sum   'Tm8 Si4 O20'
_cell_volume   387.52043692
_cell_formula_units_Z   4
loop_
 _symmetry_equiv_pos_site_id
 _symmetry_equiv_pos_as_xyz
  1  'x, y, z'
loop_
 _atom_site_type_symbol
 _atom_site_label
 _atom_site_symmetry_multiplicity
 _atom_site_fract_x
 _atom_site_fract_y
 _atom_site_fract_z
 _atom_site_occupancy
  Tm  Tm0  1  0.11984438  0.26919427  0.53159505  1
  Tm  Tm1  1  0.61984438  0.23080573  0.46840495  1
  Tm  Tm2  1  0.88015562  0.73080573  0.46840495  1
  Tm  Tm3  1  0.38015562  0.76919427  0.53159505  1
  Tm  Tm4  1  0.64084506  0.02052106  0.14098259  1
  Tm  Tm5  1  0.14084506  0.47947894  0.85901741  1
  Tm  Tm6  1  0.35915494  0.97947894  0.85901741  1
  Tm  Tm7  1  0.85915494  0.52052106  0.14098259  1
  Si  Si8  1  0.09519670  0.00746722  0.20185867  1
  Si  Si9  1  0.59519670  0.49253278  0.79814133  1
  Si  Si10  1  0.90480330  -0.00746722  0.79814133  1
  Si  Si11  1  0.40480330  0.50746722  0.20185867  1
  O  O12  1  0.87904332  0.42866444  0.39079891  1
  O  O13  1  0.37904332  0.07133556  0.60920109  1
  O  O14  1  0.12095668  0.57133556  0.60920109  1
  O  O15  1  0.62095668  0.92866444  0.39079891  1
  O  O16  1  0.29414477  0.00799088  0.10141188  1
  O  O17  1  0.79414477  0.49200912  0.89858812  1
  O  O18  1  0.70585523  0.99200912  0.89858812  1
  O  O19  1  0.20585523  0.50799088  0.10141188  1
  O  O20  1  0.14373081  0.98035439  0.38549287  1
  O  O21  1  0.64373081  0.51964561  0.61450713  1
  O  O22  1  0.85626919  0.01964561  0.61450713  1
  O  O23  1  0.35626919  0.48035439  0.38549287  1
  O  O24  1  0.56266254  0.31097577  0.21137060  1
  O  O25  1  0.06266254  0.18902423  0.78862940  1
  O  O26  1  0.43733746  0.68902423  0.78862940  1
  O  O27  1  0.93733746  0.81097577  0.21137060  1
  O  O28  1  0.56145561  0.69490412  0.14015695  1
  O  O29  1  0.06145561  0.80509588  0.85984305  1
  O  O30  1  0.43854439  0.30509588  0.85984305  1
  O  O31  1  0.93854439  0.19490412  0.14015695  1
