# generated using pymatgen
data_KLiMg14O15
_symmetry_space_group_name_H-M   'P 1'
_cell_length_a   8.63148445
_cell_length_b   8.60264852
_cell_length_c   4.41096749
_cell_angle_alpha   90.00000000
_cell_angle_beta   90.00000000
_cell_angle_gamma   90.00000000
_symmetry_Int_Tables_number   1
_chemical_formula_structural   KLiMg14O15
_chemical_formula_sum   'K1 Li1 Mg14 O15'
_cell_volume   327.53033440
_cell_formula_units_Z   1
loop_
 _symmetry_equiv_pos_site_id
 _symmetry_equiv_pos_as_xyz
  1  'x, y, z'
loop_
 _atom_site_type_symbol
 _atom_site_label
 _atom_site_symmetry_multiplicity
 _atom_site_fract_x
 _atom_site_fract_y
 _atom_site_fract_z
 _atom_site_occupancy
  K  K0  1  0.99173523  -0.00000000  0.00000000  1
  Li  Li1  1  0.97614672  0.50000000  0.00000000  1
  Mg  Mg2  1  0.49950044  -0.00000000  0.00000000  1
  Mg  Mg3  1  0.52003326  0.50000000  0.00000000  1
  Mg  Mg4  1  0.00468550  0.25835801  0.50000000  1
  Mg  Mg5  1  0.00468550  0.74164199  0.50000000  1
  Mg  Mg6  1  0.49820061  0.25204724  0.50000000  1
  Mg  Mg7  1  0.49820061  0.74795276  0.50000000  1
  Mg  Mg8  1  0.24901579  -0.00000000  0.50000000  1
  Mg  Mg9  1  0.23813270  0.50000000  0.50000000  1
  Mg  Mg10  1  0.74932389  -0.00000000  0.50000000  1
  Mg  Mg11  1  0.76645209  0.50000000  0.50000000  1
  Mg  Mg12  1  0.24496649  0.22867886  0.00000000  1
  Mg  Mg13  1  0.24496649  0.77132114  -0.00000000  1
  Mg  Mg14  1  0.75830410  0.25413038  -0.00000000  1
  Mg  Mg15  1  0.75830410  0.74586962  0.00000000  1
  O  O16  1  0.27360034  -0.00000000  0.00000000  1
  O  O17  1  0.72158802  -0.00000000  0.00000000  1
  O  O18  1  0.74586858  0.50000000  0.00000000  1
  O  O19  1  0.25190749  0.25769116  0.50000000  1
  O  O20  1  0.25190749  0.74230884  0.50000000  1
  O  O21  1  0.75007826  0.25289086  0.50000000  1
  O  O22  1  0.75007826  0.74710914  0.50000000  1
  O  O23  1  0.00900416  -0.00000000  0.50000000  1
  O  O24  1  0.00680560  0.50000000  0.50000000  1
  O  O25  1  0.49684443  -0.00000000  0.50000000  1
  O  O26  1  0.48369015  0.50000000  0.50000000  1
  O  O27  1  0.01593011  0.28141463  0.00000000  1
  O  O28  1  0.01593011  0.71858537  0.00000000  1
  O  O29  1  0.48705673  0.26520894  0.00000000  1
  O  O30  1  0.48705673  0.73479106  0.00000000  1
