# generated using pymatgen
data_Tl2GeF6
_symmetry_space_group_name_H-M   'P 1'
_cell_length_a   5.82551502
_cell_length_b   5.82551502
_cell_length_c   4.79743450
_cell_angle_alpha   90.00000000
_cell_angle_beta   90.00000000
_cell_angle_gamma   119.99998997
_symmetry_Int_Tables_number   1
_chemical_formula_structural   Tl2GeF6
_chemical_formula_sum   'Tl2 Ge1 F6'
_cell_volume   140.99651611
_cell_formula_units_Z   1
loop_
 _symmetry_equiv_pos_site_id
 _symmetry_equiv_pos_as_xyz
  1  'x, y, z'
loop_
 _atom_site_type_symbol
 _atom_site_label
 _atom_site_symmetry_multiplicity
 _atom_site_fract_x
 _atom_site_fract_y
 _atom_site_fract_z
 _atom_site_occupancy
  Tl  Tl0  1  0.33333300  0.66666700  0.30667819  1
  Tl  Tl1  1  0.66666700  0.33333300  0.69332181  1
  Ge  Ge2  1  -0.00000000  -0.00000000  -0.00000000  1
  F  F3  1  0.85143874  0.14856126  0.21318187  1
  F  F4  1  0.14856126  0.85143874  0.78681813  1
  F  F5  1  0.85143874  0.70287748  0.21318187  1
  F  F6  1  0.14856126  0.29712252  0.78681813  1
  F  F7  1  0.29712252  0.14856126  0.21318187  1
  F  F8  1  0.70287748  0.85143874  0.78681813  1
