# generated using pymatgen
data_Mg14CoBO16
_symmetry_space_group_name_H-M   'P 1'
_cell_length_a   8.56380043
_cell_length_b   8.42599644
_cell_length_c   4.26227158
_cell_angle_alpha   90.00000000
_cell_angle_beta   90.00000000
_cell_angle_gamma   90.00000000
_symmetry_Int_Tables_number   1
_chemical_formula_structural   Mg14CoBO16
_chemical_formula_sum   'Mg14 Co1 B1 O16'
_cell_volume   307.55934517
_cell_formula_units_Z   1
loop_
 _symmetry_equiv_pos_site_id
 _symmetry_equiv_pos_as_xyz
  1  'x, y, z'
loop_
 _atom_site_type_symbol
 _atom_site_label
 _atom_site_symmetry_multiplicity
 _atom_site_fract_x
 _atom_site_fract_y
 _atom_site_fract_z
 _atom_site_occupancy
  Mg  Mg0  1  0.50000000  0.00000000  0.00000000  1
  Mg  Mg1  1  0.50000000  0.50000000  0.00000000  1
  Mg  Mg2  1  0.00000000  0.25907630  0.50000000  1
  Mg  Mg3  1  0.00000000  0.74092370  0.50000000  1
  Mg  Mg4  1  0.50000000  0.25031034  0.50000000  1
  Mg  Mg5  1  0.50000000  0.74968966  0.50000000  1
  Mg  Mg6  1  0.24592615  0.00000000  0.50000000  1
  Mg  Mg7  1  0.24755524  0.50000000  0.50000000  1
  Mg  Mg8  1  0.75407385  0.00000000  0.50000000  1
  Mg  Mg9  1  0.75244476  0.50000000  0.50000000  1
  Mg  Mg10  1  0.25100686  0.25518098  0.00000000  1
  Mg  Mg11  1  0.25100686  0.74481902  0.00000000  1
  Mg  Mg12  1  0.74899314  0.25518098  0.00000000  1
  Mg  Mg13  1  0.74899314  0.74481902  0.00000000  1
  Co  Co14  1  0.00000000  0.00000000  0.00000000  1
  B  B15  1  0.00000000  0.50000000  0.00000000  1
  O  O16  1  0.24588650  0.00000000  0.00000000  1
  O  O17  1  0.26339871  0.50000000  0.00000000  1
  O  O18  1  0.75411350  0.00000000  0.00000000  1
  O  O19  1  0.73660129  0.50000000  0.00000000  1
  O  O20  1  0.24541000  0.24935653  0.50000000  1
  O  O21  1  0.24541000  0.75064347  0.50000000  1
  O  O22  1  0.75459000  0.24935653  0.50000000  1
  O  O23  1  0.75459000  0.75064347  0.50000000  1
  O  O24  1  0.00000000  0.00000000  0.50000000  1
  O  O25  1  0.00000000  0.50000000  0.50000000  1
  O  O26  1  0.50000000  0.00000000  0.50000000  1
  O  O27  1  0.50000000  0.50000000  0.50000000  1
  O  O28  1  0.00000000  0.33548253  0.00000000  1
  O  O29  1  0.00000000  0.66451747  0.00000000  1
  O  O30  1  0.50000000  0.24607774  0.00000000  1
  O  O31  1  0.50000000  0.75392226  0.00000000  1
