# generated using pymatgen
data_Lu2SiO5
_symmetry_space_group_name_H-M   'P 1'
_cell_length_a   7.81236244
_cell_length_b   7.81236244
_cell_length_c   10.13184970
_cell_angle_alpha   61.21481088
_cell_angle_beta   61.21481088
_cell_angle_gamma   49.88073033
_symmetry_Int_Tables_number   1
_chemical_formula_structural   Lu2SiO5
_chemical_formula_sum   'Lu8 Si4 O20'
_cell_volume   400.68729579
_cell_formula_units_Z   4
loop_
 _symmetry_equiv_pos_site_id
 _symmetry_equiv_pos_as_xyz
  1  'x, y, z'
loop_
 _atom_site_type_symbol
 _atom_site_label
 _atom_site_symmetry_multiplicity
 _atom_site_fract_x
 _atom_site_fract_y
 _atom_site_fract_z
 _atom_site_occupancy
  Lu  Lu0  1  0.51732297  0.76329637  0.66253967  1
  Lu  Lu1  1  0.23670363  0.48267703  0.83746033  1
  Lu  Lu2  1  0.48267703  0.23670363  0.33746033  1
  Lu  Lu3  1  0.76329637  0.51732297  0.16253967  1
  Lu  Lu4  1  0.29365782  0.78075910  0.03184302  1
  Lu  Lu5  1  0.21924090  0.70634218  0.46815698  1
  Lu  Lu6  1  0.70634218  0.21924090  0.96815698  1
  Lu  Lu7  1  0.78075910  0.29365782  0.53184302  1
  Si  Si8  1  0.91028110  0.72449130  0.30706310  1
  Si  Si9  1  0.27550870  0.08971890  0.19293690  1
  Si  Si10  1  0.08971890  0.27550870  0.69293690  1
  Si  Si11  1  0.72449130  0.91028110  0.80706310  1
  O  O12  1  0.42017698  0.61481710  0.60253213  1
  O  O13  1  0.38518290  0.57982302  0.89746787  1
  O  O14  1  0.57982302  0.38518290  0.39746787  1
  O  O15  1  0.61481710  0.42017698  0.10253213  1
  O  O16  1  0.72476193  0.87041486  0.43798969  1
  O  O17  1  0.12958514  0.27523807  0.06201031  1
  O  O18  1  0.27523807  0.12958514  0.56201031  1
  O  O19  1  0.87041486  0.72476193  0.93798969  1
  O  O20  1  0.85143583  0.55045543  0.32279102  1
  O  O21  1  0.44954457  0.14856417  0.17720898  1
  O  O22  1  0.14856417  0.44954457  0.67720898  1
  O  O23  1  0.55045543  0.85143583  0.82279102  1
  O  O24  1  0.90349119  0.92048367  0.63596891  1
  O  O25  1  0.07951633  0.09650881  0.86403109  1
  O  O26  1  0.09650881  0.07951633  0.36403109  1
  O  O27  1  0.92048367  0.90349119  0.13596891  1
  O  O28  1  0.58864256  0.17068707  0.82617972  1
  O  O29  1  0.82931293  0.41135744  0.67382028  1
  O  O30  1  0.41135744  0.82931293  0.17382028  1
  O  O31  1  0.17068707  0.58864256  0.32617972  1
