# generated using pymatgen
data_Gd2MgS4
_symmetry_space_group_name_H-M   'P 1'
_cell_length_a   12.74155466
_cell_length_b   7.62094900
_cell_length_c   12.81986348
_cell_angle_alpha   90.00000000
_cell_angle_beta   90.00000000
_cell_angle_gamma   90.00000000
_symmetry_Int_Tables_number   1
_chemical_formula_structural   Gd2MgS4
_chemical_formula_sum   'Gd16 Mg8 S32'
_cell_volume   1244.84384783
_cell_formula_units_Z   8
loop_
 _symmetry_equiv_pos_site_id
 _symmetry_equiv_pos_as_xyz
  1  'x, y, z'
loop_
 _atom_site_type_symbol
 _atom_site_label
 _atom_site_symmetry_multiplicity
 _atom_site_fract_x
 _atom_site_fract_y
 _atom_site_fract_z
 _atom_site_occupancy
  Gd  Gd0  1  0.10944239  0.88056387  0.68528907  1
  Gd  Gd1  1  0.89055761  0.11943613  0.18528907  1
  Gd  Gd2  1  0.39055761  0.88056387  0.18528907  1
  Gd  Gd3  1  0.60944239  0.11943613  0.68528907  1
  Gd  Gd4  1  0.12863019  0.38003295  0.32601457  1
  Gd  Gd5  1  0.87136981  0.61996705  0.82601457  1
  Gd  Gd6  1  0.37136981  0.38003295  0.82601457  1
  Gd  Gd7  1  0.62863019  0.61996705  0.32601457  1
  Gd  Gd8  1  0.13307815  0.62460095  0.99228299  1
  Gd  Gd9  1  0.86692185  0.37539905  0.49228299  1
  Gd  Gd10  1  0.36692185  0.62460095  0.49228299  1
  Gd  Gd11  1  0.63307815  0.37539905  0.99228299  1
  Gd  Gd12  1  0.13424174  0.12478980  0.99119191  1
  Gd  Gd13  1  0.86575826  0.87521020  0.49119191  1
  Gd  Gd14  1  0.36575826  0.12478980  0.49119191  1
  Gd  Gd15  1  0.63424174  0.87521020  0.99119191  1
  Mg  Mg16  1  0.10676860  0.37494131  0.69065235  1
  Mg  Mg17  1  0.89323140  0.62505869  0.19065235  1
  Mg  Mg18  1  0.39323140  0.37494131  0.19065235  1
  Mg  Mg19  1  0.60676860  0.62505869  0.69065235  1
  Mg  Mg20  1  0.12539738  0.87410859  0.32185244  1
  Mg  Mg21  1  0.87460262  0.12589141  0.82185244  1
  Mg  Mg22  1  0.37460262  0.87410859  0.82185244  1
  Mg  Mg23  1  0.62539738  0.12589141  0.32185244  1
  S  S24  1  0.01164235  0.87915236  0.87797364  1
  S  S25  1  0.98835765  0.12084764  0.37797364  1
  S  S26  1  0.48835765  0.87915236  0.37797364  1
  S  S27  1  0.51164235  0.12084764  0.87797364  1
  S  S28  1  0.03215016  0.37813607  0.13048216  1
  S  S29  1  0.96784984  0.62186393  0.63048216  1
  S  S30  1  0.46784984  0.37813607  0.63048216  1
  S  S31  1  0.53215016  0.62186393  0.13048216  1
  S  S32  1  0.01975901  0.36997354  0.86920655  1
  S  S33  1  0.98024099  0.63002646  0.36920655  1
  S  S34  1  0.48024099  0.36997354  0.36920655  1
  S  S35  1  0.51975901  0.63002646  0.86920655  1
  S  S36  1  0.04154723  0.86981453  0.13835886  1
  S  S37  1  0.95845277  0.13018547  0.63835886  1
  S  S38  1  0.45845277  0.86981453  0.63835886  1
  S  S39  1  0.54154723  0.13018547  0.13835886  1
  S  S40  1  0.21223670  0.87413680  0.50056152  1
  S  S41  1  0.78776330  0.12586320  0.00056152  1
  S  S42  1  0.28776330  0.87413680  0.00056152  1
  S  S43  1  0.71223670  0.12586320  0.50056152  1
  S  S44  1  0.21196873  0.37524748  0.52096085  1
  S  S45  1  0.78803127  0.62475252  0.02096085  1
  S  S46  1  0.28803127  0.37524748  0.02096085  1
  S  S47  1  0.71196873  0.62475252  0.52096085  1
  S  S48  1  0.23275844  0.12557847  0.77579132  1
  S  S49  1  0.76724156  0.87442153  0.27579132  1
  S  S50  1  0.26724156  0.12557847  0.27579132  1
  S  S51  1  0.73275844  0.87442153  0.77579132  1
  S  S52  1  0.23010497  0.62785000  0.77638274  1
  S  S53  1  0.76989503  0.37215000  0.27638274  1
  S  S54  1  0.26989503  0.62785000  0.27638274  1
  S  S55  1  0.73010497  0.37215000  0.77638274  1
