# generated using pymatgen
data_Y2TiO5
_symmetry_space_group_name_H-M   'P 1'
_cell_length_a   3.68515313
_cell_length_b   10.35575120
_cell_length_c   11.24964441
_cell_angle_alpha   90.00000000
_cell_angle_beta   90.00000000
_cell_angle_gamma   90.00000000
_symmetry_Int_Tables_number   1
_chemical_formula_structural   Y2TiO5
_chemical_formula_sum   'Y8 Ti4 O20'
_cell_volume   429.31488045
_cell_formula_units_Z   4
loop_
 _symmetry_equiv_pos_site_id
 _symmetry_equiv_pos_as_xyz
  1  'x, y, z'
loop_
 _atom_site_type_symbol
 _atom_site_label
 _atom_site_symmetry_multiplicity
 _atom_site_fract_x
 _atom_site_fract_y
 _atom_site_fract_z
 _atom_site_occupancy
  Y  Y0  1  0.25000000  0.13610475  0.44347377  1
  Y  Y1  1  0.75000000  0.86389525  0.55652623  1
  Y  Y2  1  0.25000000  0.63610475  0.05652623  1
  Y  Y3  1  0.75000000  0.36389525  0.94347377  1
  Y  Y4  1  0.25000000  0.11521195  0.77718311  1
  Y  Y5  1  0.75000000  0.88478805  0.22281689  1
  Y  Y6  1  0.25000000  0.61521195  0.72281689  1
  Y  Y7  1  0.75000000  0.38478805  0.27718311  1
  Ti  Ti8  1  0.25000000  0.17420449  0.11942971  1
  Ti  Ti9  1  0.75000000  0.82579551  0.88057029  1
  Ti  Ti10  1  0.25000000  0.67420449  0.38057029  1
  Ti  Ti11  1  0.75000000  0.32579551  0.61942971  1
  O  O12  1  0.25000000  0.26402979  0.61674076  1
  O  O13  1  0.75000000  0.73597021  0.38325924  1
  O  O14  1  0.25000000  0.76402979  0.88325924  1
  O  O15  1  0.75000000  0.23597021  0.11674076  1
  O  O16  1  0.25000000  0.50643595  0.34530581  1
  O  O17  1  0.75000000  0.49356405  0.65469419  1
  O  O18  1  0.25000000  0.00643595  0.15469419  1
  O  O19  1  0.75000000  0.99356405  0.84530581  1
  O  O20  1  0.25000000  0.25638759  0.27081805  1
  O  O21  1  0.75000000  0.74361241  0.72918195  1
  O  O22  1  0.25000000  0.75638759  0.22918195  1
  O  O23  1  0.75000000  0.24361241  0.77081805  1
  O  O24  1  0.75000000  0.00616217  0.39487684  1
  O  O25  1  0.25000000  0.99383783  0.60512316  1
  O  O26  1  0.75000000  0.50616217  0.10512316  1
  O  O27  1  0.25000000  0.49383783  0.89487684  1
  O  O28  1  0.75000000  0.27552028  0.45706505  1
  O  O29  1  0.25000000  0.72447972  0.54293495  1
  O  O30  1  0.75000000  0.77552028  0.04293495  1
  O  O31  1  0.25000000  0.22447972  0.95706505  1
