# generated using pymatgen
data_KFe2P3(O4F3)2
_symmetry_space_group_name_H-M   'P 1'
_cell_length_a   7.13997330
_cell_length_b   7.56789002
_cell_length_c   10.43407915
_cell_angle_alpha   101.11920255
_cell_angle_beta   109.97680291
_cell_angle_gamma   90.07470376
_symmetry_Int_Tables_number   1
_chemical_formula_structural   KFe2P3(O4F3)2
_chemical_formula_sum   'K2 Fe4 P6 O16 F12'
_cell_volume   518.54864314
_cell_formula_units_Z   2
loop_
 _symmetry_equiv_pos_site_id
 _symmetry_equiv_pos_as_xyz
  1  'x, y, z'
loop_
 _atom_site_type_symbol
 _atom_site_label
 _atom_site_symmetry_multiplicity
 _atom_site_fract_x
 _atom_site_fract_y
 _atom_site_fract_z
 _atom_site_occupancy
  K  K0  1  0.79072644  0.07790831  0.80716029  1
  K  K1  1  0.20927356  0.92209169  0.19283971  1
  Fe  Fe2  1  0.65890135  0.32187053  0.33162681  1
  Fe  Fe3  1  0.34109865  0.67812947  0.66837319  1
  Fe  Fe4  1  0.50000000  0.50000000  -0.00000000  1
  Fe  Fe5  1  0.00000000  -0.00000000  0.50000000  1
  P  P6  1  0.65859080  0.72541788  0.50601898  1
  P  P7  1  0.34140920  0.27458212  0.49398102  1
  P  P8  1  0.31445055  0.08680296  0.82165505  1
  P  P9  1  0.68554945  0.91319704  0.17834495  1
  P  P10  1  0.04851186  0.58774738  0.83573485  1
  P  P11  1  0.95148814  0.41225262  0.16426515  1
  O  O12  1  0.74029321  0.56294977  0.44262731  1
  O  O13  1  0.25970679  0.43705023  0.55737269  1
  O  O14  1  0.79940071  0.89302783  0.55779169  1
  O  O15  1  0.20059929  0.10697217  0.44220831  1
  O  O16  1  0.57599756  0.07589171  0.21083294  1
  O  O17  1  0.42400244  0.92410829  0.78916706  1
  O  O18  1  0.46137079  0.24739291  0.89859951  1
  O  O19  1  0.53862921  0.75260709  0.10140049  1
  O  O20  1  0.86324452  0.87974649  0.29800644  1
  O  O21  1  0.13675548  0.12025351  0.70199356  1
  O  O22  1  0.89774221  0.33552214  0.26742354  1
  O  O23  1  0.10225779  0.66447786  0.73257646  1
  O  O24  1  0.79856612  0.48252809  0.05248771  1
  O  O25  1  0.20143388  0.51747191  0.94751229  1
  O  O26  1  0.42329343  0.30275351  0.38359942  1
  O  O27  1  0.57670657  0.69724649  0.61640058  1
  F  F28  1  0.83418686  0.20814879  0.47728707  1
  F  F29  1  0.16581314  0.79185121  0.52271293  1
  F  F30  1  0.50221952  0.42072224  0.16718655  1
  F  F31  1  0.49778048  0.57927776  0.83281345  1
  F  F32  1  0.78251410  0.95703714  0.07063095  1
  F  F33  1  0.21748590  0.04296286  0.92936905  1
  F  F34  1  0.87291602  0.44329429  0.76384634  1
  F  F35  1  0.12708398  0.55670571  0.23615366  1
  F  F36  1  0.52413399  0.22827368  0.61613343  1
  F  F37  1  0.47586601  0.77172632  0.38386657  1
  F  F38  1  0.05547332  0.26472398  0.09170180  1
  F  F39  1  0.94452668  0.73527602  0.90829820  1
