# generated using pymatgen
data_Mg6ZnSnO8
_symmetry_space_group_name_H-M   'P 1'
_cell_length_a   8.79214417
_cell_length_b   4.46396774
_cell_length_c   4.46396774
_cell_angle_alpha   90.00000000
_cell_angle_beta   90.00000000
_cell_angle_gamma   90.00000000
_symmetry_Int_Tables_number   1
_chemical_formula_structural   Mg6ZnSnO8
_chemical_formula_sum   'Mg6 Zn1 Sn1 O8'
_cell_volume   175.20112707
_cell_formula_units_Z   1
loop_
 _symmetry_equiv_pos_site_id
 _symmetry_equiv_pos_as_xyz
  1  'x, y, z'
loop_
 _atom_site_type_symbol
 _atom_site_label
 _atom_site_symmetry_multiplicity
 _atom_site_fract_x
 _atom_site_fract_y
 _atom_site_fract_z
 _atom_site_occupancy
  Mg  Mg0  1  -0.00000000  0.50000000  0.50000000  1
  Mg  Mg1  1  0.50000000  0.50000000  0.50000000  1
  Mg  Mg2  1  0.23758297  0.00000000  0.50000000  1
  Mg  Mg3  1  0.76241703  -0.00000000  0.50000000  1
  Mg  Mg4  1  0.23758297  0.50000000  0.00000000  1
  Mg  Mg5  1  0.76241703  0.50000000  -0.00000000  1
  Zn  Zn6  1  -0.00000000  -0.00000000  0.00000000  1
  Sn  Sn7  1  0.50000000  -0.00000000  0.00000000  1
  O  O8  1  0.23069839  -0.00000000  -0.00000000  1
  O  O9  1  0.76930161  0.00000000  0.00000000  1
  O  O10  1  0.24911209  0.50000000  0.50000000  1
  O  O11  1  0.75088791  0.50000000  0.50000000  1
  O  O12  1  -0.00000000  -0.00000000  0.50000000  1
  O  O13  1  0.50000000  -0.00000000  0.50000000  1
  O  O14  1  -0.00000000  0.50000000  0.00000000  1
  O  O15  1  0.50000000  0.50000000  0.00000000  1
