# generated using pymatgen
data_Cd2Ni6Te3PbO18
_symmetry_space_group_name_H-M   'P 1'
_cell_length_a   9.36371851
_cell_length_b   9.36371851
_cell_length_c   8.92927261
_cell_angle_alpha   90.00000000
_cell_angle_beta   90.00000000
_cell_angle_gamma   120.00000544
_symmetry_Int_Tables_number   1
_chemical_formula_structural   Cd2Ni6Te3PbO18
_chemical_formula_sum   'Cd4 Ni12 Te6 Pb2 O36'
_cell_volume   678.02138070
_cell_formula_units_Z   2
loop_
 _symmetry_equiv_pos_site_id
 _symmetry_equiv_pos_as_xyz
  1  'x, y, z'
loop_
 _atom_site_type_symbol
 _atom_site_label
 _atom_site_symmetry_multiplicity
 _atom_site_fract_x
 _atom_site_fract_y
 _atom_site_fract_z
 _atom_site_occupancy
  Cd  Cd0  1  0.33333300  0.66666700  0.43499418  1
  Cd  Cd1  1  0.66666700  0.33333300  0.93499418  1
  Cd  Cd2  1  0.66666700  0.33333300  0.56500582  1
  Cd  Cd3  1  0.33333300  0.66666700  0.06500582  1
  Ni  Ni4  1  0.35903234  0.00896749  0.58813677  1
  Ni  Ni5  1  0.64993615  0.64096766  0.58813677  1
  Ni  Ni6  1  0.99103251  0.35006385  0.58813677  1
  Ni  Ni7  1  0.64096766  0.99103251  0.08813677  1
  Ni  Ni8  1  0.35006385  0.35903234  0.08813677  1
  Ni  Ni9  1  0.00896749  0.64993615  0.08813677  1
  Ni  Ni10  1  0.64096766  0.99103251  0.41186323  1
  Ni  Ni11  1  0.35006385  0.35903234  0.41186323  1
  Ni  Ni12  1  0.00896749  0.64993615  0.41186323  1
  Ni  Ni13  1  0.35903234  0.00896749  0.91186323  1
  Ni  Ni14  1  0.64993615  0.64096766  0.91186323  1
  Ni  Ni15  1  0.99103251  0.35006385  0.91186323  1
  Te  Te16  1  0.66399671  0.64028717  0.25000000  1
  Te  Te17  1  0.97629047  0.33600329  0.25000000  1
  Te  Te18  1  0.35971283  0.02370953  0.25000000  1
  Te  Te19  1  0.33600329  0.35971283  0.75000000  1
  Te  Te20  1  0.02370953  0.66399671  0.75000000  1
  Te  Te21  1  0.64028717  0.97629047  0.75000000  1
  Pb  Pb22  1  0.00000000  -0.00000000  0.50000000  1
  Pb  Pb23  1  0.00000000  -0.00000000  0.00000000  1
  O  O24  1  0.20370872  0.89883421  0.40804888  1
  O  O25  1  0.69512549  0.79629128  0.40804888  1
  O  O26  1  0.10116579  0.30487451  0.40804888  1
  O  O27  1  0.79629128  0.10116579  0.90804888  1
  O  O28  1  0.30487451  0.20370872  0.90804888  1
  O  O29  1  0.89883421  0.69512549  0.90804888  1
  O  O30  1  0.79629128  0.10116579  0.59195112  1
  O  O31  1  0.30487451  0.20370872  0.59195112  1
  O  O32  1  0.89883421  0.69512549  0.59195112  1
  O  O33  1  0.20370872  0.89883421  0.09195112  1
  O  O34  1  0.69512549  0.79629128  0.09195112  1
  O  O35  1  0.10116579  0.30487451  0.09195112  1
  O  O36  1  0.48216431  0.87670520  0.58927858  1
  O  O37  1  0.39454088  0.51783569  0.58927858  1
  O  O38  1  0.12329480  0.60545912  0.58927858  1
  O  O39  1  0.51783569  0.12329480  0.08927858  1
  O  O40  1  0.60545912  0.48216431  0.08927858  1
  O  O41  1  0.87670520  0.39454088  0.08927858  1
  O  O42  1  0.51783569  0.12329480  0.41072142  1
  O  O43  1  0.60545912  0.48216431  0.41072142  1
  O  O44  1  0.87670520  0.39454088  0.41072142  1
  O  O45  1  0.48216431  0.87670520  0.91072142  1
  O  O46  1  0.39454088  0.51783569  0.91072142  1
  O  O47  1  0.12329480  0.60545912  0.91072142  1
  O  O48  1  0.12724303  0.58001679  0.25000000  1
  O  O49  1  0.45277376  0.87275697  0.25000000  1
  O  O50  1  0.41998321  0.54722624  0.25000000  1
  O  O51  1  0.87275697  0.41998321  0.75000000  1
  O  O52  1  0.54722624  0.12724303  0.75000000  1
  O  O53  1  0.58001679  0.45277376  0.75000000  1
  O  O54  1  0.89242657  0.70447515  0.25000000  1
  O  O55  1  0.81204857  0.10757343  0.25000000  1
  O  O56  1  0.29552485  0.18795143  0.25000000  1
  O  O57  1  0.10757343  0.29552485  0.75000000  1
  O  O58  1  0.18795143  0.89242657  0.75000000  1
  O  O59  1  0.70447515  0.81204857  0.75000000  1
