# generated using pymatgen
data_Tb3SbO7
_symmetry_space_group_name_H-M   'P 1'
_cell_length_a   6.44850997
_cell_length_b   6.44850997
_cell_length_c   7.48518906
_cell_angle_alpha   90.00000000
_cell_angle_beta   90.00000000
_cell_angle_gamma   109.52048655
_symmetry_Int_Tables_number   1
_chemical_formula_structural   Tb3SbO7
_chemical_formula_sum   'Tb6 Sb2 O14'
_cell_volume   293.36821343
_cell_formula_units_Z   2
loop_
 _symmetry_equiv_pos_site_id
 _symmetry_equiv_pos_as_xyz
  1  'x, y, z'
loop_
 _atom_site_type_symbol
 _atom_site_label
 _atom_site_symmetry_multiplicity
 _atom_site_fract_x
 _atom_site_fract_y
 _atom_site_fract_z
 _atom_site_occupancy
  Tb  Tb0  1  0.46823681  0.00006312  0.25052467  1
  Tb  Tb1  1  -0.00006312  0.53176319  0.24947533  1
  Tb  Tb2  1  0.49815266  0.49815266  -0.00000000  1
  Tb  Tb3  1  0.50184734  0.50184734  0.50000000  1
  Tb  Tb4  1  0.53176319  -0.00006312  0.75052467  1
  Tb  Tb5  1  0.00006312  0.46823681  0.74947533  1
  Sb  Sb6  1  0.99993610  0.99993610  0.50000000  1
  Sb  Sb7  1  0.00006390  0.00006390  -0.00000000  1
  O  O8  1  0.93259186  0.06740814  0.75000000  1
  O  O9  1  0.63685639  0.36314361  0.75000000  1
  O  O10  1  0.31938598  0.07066837  0.53042813  1
  O  O11  1  0.92933163  0.68061402  0.96957187  1
  O  O12  1  0.62971074  0.37028926  0.25000000  1
  O  O13  1  0.92746488  0.67968312  0.52944480  1
  O  O14  1  0.32031688  0.07253512  0.97055520  1
  O  O15  1  0.07253512  0.32031688  0.02944480  1
  O  O16  1  0.67968312  0.92746488  0.47055520  1
  O  O17  1  0.37028926  0.62971074  0.75000000  1
  O  O18  1  0.68061402  0.92933163  0.03042813  1
  O  O19  1  0.07066837  0.31938598  0.46957187  1
  O  O20  1  0.36314361  0.63685639  0.25000000  1
  O  O21  1  0.06740814  0.93259186  0.25000000  1
