# generated using pymatgen
data_Cs3Sc2Br9
_symmetry_space_group_name_H-M   'P 1'
_cell_length_a   7.75472792
_cell_length_b   7.75465210
_cell_length_c   19.43943950
_cell_angle_alpha   90.00507367
_cell_angle_beta   89.99684278
_cell_angle_gamma   120.00221424
_symmetry_Int_Tables_number   1
_chemical_formula_structural   Cs3Sc2Br9
_chemical_formula_sum   'Cs6 Sc4 Br18'
_cell_volume   1012.35670013
_cell_formula_units_Z   2
loop_
 _symmetry_equiv_pos_site_id
 _symmetry_equiv_pos_as_xyz
  1  'x, y, z'
loop_
 _atom_site_type_symbol
 _atom_site_label
 _atom_site_symmetry_multiplicity
 _atom_site_fract_x
 _atom_site_fract_y
 _atom_site_fract_z
 _atom_site_occupancy
  Cs  Cs0  1  0.33333236  0.66666777  0.07477692  1
  Cs  Cs1  1  0.66667111  0.33331482  0.92524423  1
  Cs  Cs2  1  0.66664007  0.33333859  0.57477051  1
  Cs  Cs3  1  0.33334861  0.66666762  0.42523678  1
  Cs  Cs4  1  -0.00000142  0.00000235  0.25000347  1
  Cs  Cs5  1  -0.00000143  0.00000139  0.75000659  1
  Sc  Sc6  1  0.33332917  0.66667847  0.65569936  1
  Sc  Sc7  1  0.66668178  0.33332809  0.34429927  1
  Sc  Sc8  1  0.66666369  0.33334019  0.15568364  1
  Sc  Sc9  1  0.33333630  0.66666036  0.84432021  1
  Br  Br10  1  0.16987340  0.33975896  0.58808137  1
  Br  Br11  1  0.83012539  0.66025792  0.41191963  1
  Br  Br12  1  0.66023505  0.83012527  0.58808119  1
  Br  Br13  1  0.83012214  0.66025375  0.08807823  1
  Br  Br14  1  0.33976091  0.16986455  0.41192051  1
  Br  Br15  1  0.16986129  0.33974293  0.91192768  1
  Br  Br16  1  0.16986157  0.83011239  0.58808081  1
  Br  Br17  1  0.33973561  0.16988054  0.08807990  1
  Br  Br18  1  0.83013706  0.16992118  0.41193240  1
  Br  Br19  1  0.66026041  0.83011014  0.91192526  1
  Br  Br20  1  0.83012506  0.16987347  0.08807756  1
  Br  Br21  1  0.16987556  0.83011721  0.91192259  1
  Br  Br22  1  0.51103724  0.02206217  0.24994457  1
  Br  Br23  1  0.48894253  0.97790490  0.75002879  1
  Br  Br24  1  0.97793507  0.48896916  0.24994322  1
  Br  Br25  1  0.02210459  0.51105132  0.74999872  1
  Br  Br26  1  0.51106277  0.48894181  0.25001184  1
  Br  Br27  1  0.48894410  0.51105268  0.75000673  1
