# generated using pymatgen
data_Tl2SbF5
_symmetry_space_group_name_H-M   'P 1'
_cell_length_a   7.62052036
_cell_length_b   7.62052036
_cell_length_c   6.66509316
_cell_angle_alpha   90.00000000
_cell_angle_beta   90.00000000
_cell_angle_gamma   130.05680971
_symmetry_Int_Tables_number   1
_chemical_formula_structural   Tl2SbF5
_chemical_formula_sum   'Tl4 Sb2 F10'
_cell_volume   296.25641105
_cell_formula_units_Z   2
loop_
 _symmetry_equiv_pos_site_id
 _symmetry_equiv_pos_as_xyz
  1  'x, y, z'
loop_
 _atom_site_type_symbol
 _atom_site_label
 _atom_site_symmetry_multiplicity
 _atom_site_fract_x
 _atom_site_fract_y
 _atom_site_fract_z
 _atom_site_occupancy
  Tl  Tl0  1  0.24719858  0.75280142  0.25000000  1
  Tl  Tl1  1  0.75280142  0.24719858  0.75000000  1
  Tl  Tl2  1  0.56650327  0.43349673  0.25000000  1
  Tl  Tl3  1  0.43349673  0.56650327  0.75000000  1
  Sb  Sb4  1  0.90848764  0.09151236  0.25000000  1
  Sb  Sb5  1  0.09151236  0.90848764  0.75000000  1
  F  F6  1  0.10610441  0.34868776  0.03522599  1
  F  F7  1  0.89389559  0.65131224  0.96477401  1
  F  F8  1  0.89389559  0.65131224  0.53522599  1
  F  F9  1  0.65131224  0.89389559  0.46477401  1
  F  F10  1  0.10610441  0.34868776  0.46477401  1
  F  F11  1  0.34868776  0.10610441  0.53522599  1
  F  F12  1  0.34868776  0.10610441  0.96477401  1
  F  F13  1  0.65131224  0.89389559  0.03522599  1
  F  F14  1  0.76550404  0.23449596  0.25000000  1
  F  F15  1  0.23449596  0.76550404  0.75000000  1
