# generated using pymatgen
data_CsSn
_symmetry_space_group_name_H-M   'P 1'
_cell_length_a   12.27962004
_cell_length_b   12.27973759
_cell_length_c   13.27075621
_cell_angle_alpha   117.55934169
_cell_angle_beta   117.55870135
_cell_angle_gamma   89.99999128
_symmetry_Int_Tables_number   1
_chemical_formula_structural   CsSn
_chemical_formula_sum   'Cs16 Sn16'
_cell_volume   1513.30002708
_cell_formula_units_Z   16
loop_
 _symmetry_equiv_pos_site_id
 _symmetry_equiv_pos_as_xyz
  1  'x, y, z'
loop_
 _atom_site_type_symbol
 _atom_site_label
 _atom_site_symmetry_multiplicity
 _atom_site_fract_x
 _atom_site_fract_y
 _atom_site_fract_z
 _atom_site_occupancy
  Cs  Cs0  1  0.25468326  0.00468246  0.74999378  1
  Cs  Cs1  1  0.24530970  0.25468155  0.24999330  1
  Cs  Cs2  1  0.00468847  0.49531654  0.25000622  1
  Cs  Cs3  1  0.49531739  0.24531845  0.75000670  1
  Cs  Cs4  1  0.74531674  0.99531754  0.25000622  1
  Cs  Cs5  1  0.75469030  0.74531845  0.75000670  1
  Cs  Cs6  1  0.99531153  0.50468246  0.74999378  1
  Cs  Cs7  1  0.50468261  0.75468155  0.24999330  1
  Cs  Cs8  1  0.60868671  0.25000000  0.50000000  1
  Cs  Cs9  1  0.75000307  0.60869139  0.00001057  1
  Cs  Cs10  1  0.24999250  0.89130861  0.99998943  1
  Cs  Cs11  1  0.89131512  0.75000000  0.50000000  1
  Cs  Cs12  1  0.39131329  0.75000000  0.50000000  1
  Cs  Cs13  1  0.24999693  0.39130861  0.99998943  1
  Cs  Cs14  1  0.75000750  0.10869139  0.00001057  1
  Cs  Cs15  1  0.10868488  0.25000000  0.50000000  1
  Sn  Sn16  1  0.13399061  0.71909272  0.14556541  1
  Sn  Sn17  1  0.57353997  0.48845427  0.35443690  1
  Sn  Sn18  1  0.78092523  0.36600554  0.35444800  1
  Sn  Sn19  1  0.48842620  0.78090728  0.85443459  1
  Sn  Sn20  1  0.36597821  0.57353299  0.85444733  1
  Sn  Sn21  1  0.92647623  0.13399446  0.64555200  1
  Sn  Sn22  1  0.71910207  0.01154573  0.64556310  1
  Sn  Sn23  1  0.01152987  0.92646701  0.14555267  1
  Sn  Sn24  1  0.86600939  0.28090728  0.85443459  1
  Sn  Sn25  1  0.42646003  0.51154673  0.64556310  1
  Sn  Sn26  1  0.21907477  0.63399446  0.64555200  1
  Sn  Sn27  1  0.51157480  0.21909272  0.14556541  1
  Sn  Sn28  1  0.63402179  0.42646701  0.14555267  1
  Sn  Sn29  1  0.07352377  0.86600554  0.35444800  1
  Sn  Sn30  1  0.28089793  0.98845327  0.35443690  1
  Sn  Sn31  1  0.98846913  0.07353299  0.85444733  1
