# generated using pymatgen
data_K3Ta2Cu3S8
_symmetry_space_group_name_H-M   'P 1'
_cell_length_a   12.17404726
_cell_length_b   12.17404726
_cell_length_c   14.38962947
_cell_angle_alpha   60.60863292
_cell_angle_beta   60.60863292
_cell_angle_gamma   26.30129449
_symmetry_Int_Tables_number   1
_chemical_formula_structural   K3Ta2Cu3S8
_chemical_formula_sum   'K6 Ta4 Cu6 S16'
_cell_volume   816.17029562
_cell_formula_units_Z   2
loop_
 _symmetry_equiv_pos_site_id
 _symmetry_equiv_pos_as_xyz
  1  'x, y, z'
loop_
 _atom_site_type_symbol
 _atom_site_label
 _atom_site_symmetry_multiplicity
 _atom_site_fract_x
 _atom_site_fract_y
 _atom_site_fract_z
 _atom_site_occupancy
  K  K0  1  0.73433542  0.65338712  0.40359220  1
  K  K1  1  0.34661288  0.26566458  0.09640780  1
  K  K2  1  0.26566458  0.34661288  0.59640780  1
  K  K3  1  0.65338712  0.73433542  0.90359220  1
  K  K4  1  0.00000000  -0.00000000  0.00000000  1
  K  K5  1  0.00000000  -0.00000000  0.50000000  1
  Ta  Ta6  1  0.15755373  0.59237734  0.27936790  1
  Ta  Ta7  1  0.40762266  0.84244627  0.22063210  1
  Ta  Ta8  1  0.84244627  0.40762266  0.72063210  1
  Ta  Ta9  1  0.59237734  0.15755373  0.77936790  1
  Cu  Cu10  1  0.27865209  0.72134791  0.25000000  1
  Cu  Cu11  1  0.72134791  0.27865209  0.75000000  1
  Cu  Cu12  1  0.90397170  0.33939968  0.21916804  1
  Cu  Cu13  1  0.66060032  0.09602830  0.28083196  1
  Cu  Cu14  1  0.09602830  0.66060032  0.78083196  1
  Cu  Cu15  1  0.33939968  0.90397170  0.71916804  1
  S  S16  1  0.95785968  0.86282844  0.37197946  1
  S  S17  1  0.13717156  0.04214032  0.12802054  1
  S  S18  1  0.04214032  0.13717156  0.62802054  1
  S  S19  1  0.86282844  0.95785968  0.87197946  1
  S  S20  1  0.48126129  0.44138201  0.16149528  1
  S  S21  1  0.55861799  0.51873871  0.33850472  1
  S  S22  1  0.51873871  0.55861799  0.83850472  1
  S  S23  1  0.44138201  0.48126129  0.66149528  1
  S  S24  1  0.87515102  0.81370155  0.18654595  1
  S  S25  1  0.18629845  0.12484898  0.31345405  1
  S  S26  1  0.12484898  0.18629845  0.81345405  1
  S  S27  1  0.81370155  0.87515102  0.68654595  1
  S  S28  1  0.73881944  0.67831138  0.11050704  1
  S  S29  1  0.32168862  0.26118056  0.38949296  1
  S  S30  1  0.26118056  0.32168862  0.88949296  1
  S  S31  1  0.67831138  0.73881944  0.61050704  1
