# generated using pymatgen
data_LaCoO3
_symmetry_space_group_name_H-M   'P 1'
_cell_length_a   5.36115326
_cell_length_b   7.62069411
_cell_length_c   5.44114223
_cell_angle_alpha   90.03294689
_cell_angle_beta   89.78964199
_cell_angle_gamma   91.17317138
_symmetry_Int_Tables_number   1
_chemical_formula_structural   LaCoO3
_chemical_formula_sum   'La4 Co4 O12'
_cell_volume   222.25359957
_cell_formula_units_Z   4
loop_
 _symmetry_equiv_pos_site_id
 _symmetry_equiv_pos_as_xyz
  1  'x, y, z'
loop_
 _atom_site_type_symbol
 _atom_site_label
 _atom_site_symmetry_multiplicity
 _atom_site_fract_x
 _atom_site_fract_y
 _atom_site_fract_z
 _atom_site_occupancy
  La  La0  1  0.24948189  0.50008245  0.74973429  1
  La  La1  1  0.75070548  0.99971385  0.24974338  1
  La  La2  1  0.74926907  0.50030485  0.25025609  1
  La  La3  1  0.25051783  -0.00008772  0.75027330  1
  Co  Co4  1  0.25000058  0.74999871  0.24998345  1
  Co  Co5  1  0.25000039  0.25000255  0.24999042  1
  Co  Co6  1  0.75000906  0.25000033  0.75000597  1
  Co  Co7  1  0.75000205  0.74999776  0.75000620  1
  O  O8  1  0.74788768  0.50004586  0.80596392  1
  O  O9  1  0.24743342  -0.00003262  0.30594663  1
  O  O10  1  0.25257306  0.50002950  0.19405688  1
  O  O11  1  0.75211279  -0.00004729  0.69403061  1
  O  O12  1  0.02657840  0.22382499  0.97342265  1
  O  O13  1  0.52400098  0.72343835  0.47603154  1
  O  O14  1  0.97599525  0.77655788  0.02397584  1
  O  O15  1  0.47342568  0.27617057  0.52657432  1
  O  O16  1  0.47533472  0.77944245  0.97536810  1
  O  O17  1  0.97285144  0.27913951  0.47285524  1
  O  O18  1  0.52714478  0.22086722  0.02714320  1
  O  O19  1  0.02467445  0.72055081  0.52463796  1
