# generated using pymatgen
data_K4Na4VMo7O20
_symmetry_space_group_name_H-M   'P 1'
_cell_length_a   11.47510787
_cell_length_b   11.77744098
_cell_length_c   17.35400707
_cell_angle_alpha   109.88004551
_cell_angle_beta   109.35706050
_cell_angle_gamma   89.88454351
_symmetry_Int_Tables_number   1
_chemical_formula_structural   K4Na4VMo7O20
_chemical_formula_sum   'K16 Na16 V4 Mo28 O80'
_cell_volume   2064.64384777
_cell_formula_units_Z   4
loop_
 _symmetry_equiv_pos_site_id
 _symmetry_equiv_pos_as_xyz
  1  'x, y, z'
loop_
 _atom_site_type_symbol
 _atom_site_label
 _atom_site_symmetry_multiplicity
 _atom_site_fract_x
 _atom_site_fract_y
 _atom_site_fract_z
 _atom_site_occupancy
  K  K0  1  0.30379400  0.06576500  0.10784400  1
  K  K1  1  0.30324300  0.56240300  0.10702900  1
  K  K2  1  0.80348600  0.06359400  0.10891200  1
  K  K3  1  0.80304700  0.56251700  0.10786700  1
  K  K4  1  0.20085800  0.93588800  0.39567200  1
  K  K5  1  0.19060600  0.92383300  0.87903900  1
  K  K6  1  0.69867100  0.43759000  0.39723700  1
  K  K7  1  0.68883900  0.42804900  0.87954200  1
  K  K8  1  0.69841500  0.93373700  0.39536600  1
  K  K9  1  0.05673700  0.29475000  0.10889700  1
  K  K10  1  0.05162100  0.79144300  0.10616900  1
  K  K11  1  0.55365100  0.29243900  0.10618900  1
  K  K12  1  0.55269200  0.79318700  0.10431900  1
  K  K13  1  0.45019300  0.71065700  0.39789300  1
  K  K14  1  0.43746100  0.70268900  0.87710600  1
  K  K15  1  0.94153000  0.70206200  0.87923400  1
  Na  Na16  1  0.29822900  0.07119000  0.60759100  1
  Na  Na17  1  0.30792800  0.56884300  0.60825700  1
  Na  Na18  1  0.80380900  0.06887700  0.60621700  1
  Na  Na19  1  0.81001600  0.56879000  0.60545000  1
  Na  Na20  1  0.20105400  0.43880900  0.40611500  1
  Na  Na21  1  0.19931600  0.43124000  0.88899500  1
  Na  Na22  1  0.69789200  0.93089400  0.89358700  1
  Na  Na23  1  0.05829700  0.28898800  0.60841300  1
  Na  Na24  1  0.05798600  0.78488000  0.60700100  1
  Na  Na25  1  0.55475700  0.28958100  0.60504600  1
  Na  Na26  1  0.55195600  0.78431300  0.60540700  1
  Na  Na27  1  0.45025800  0.21662400  0.40598500  1
  Na  Na28  1  0.44234000  0.21046900  0.89118000  1
  Na  Na29  1  0.95021200  0.21807600  0.40513600  1
  Na  Na30  1  0.94626300  0.21248700  0.89311000  1
  Na  Na31  1  0.95067300  0.71647700  0.40462800  1
  V  V32  1  0.10539200  0.57970100  0.74335400  1
  V  V33  1  0.59797700  0.58448900  0.74324600  1
  V  V34  1  0.35010800  0.40697200  0.74450700  1
  V  V35  1  0.34715100  0.91441800  0.74412200  1
  Mo  Mo36  1  0.00356300  0.99817900  0.99417200  1
  Mo  Mo37  1  0.01279200  0.00273300  0.50525600  1
  Mo  Mo38  1  0.00305900  0.49474600  0.99337800  1
  Mo  Mo39  1  0.01472900  0.50201900  0.50593200  1
  Mo  Mo40  1  0.50064500  0.99694700  0.99103300  1
  Mo  Mo41  1  0.51344500  0.00648400  0.50847800  1
  Mo  Mo42  1  0.50111000  0.49561400  0.99169200  1
  Mo  Mo43  1  0.51340000  0.50255900  0.50927000  1
  Mo  Mo44  1  0.25343200  0.24791500  0.99316700  1
  Mo  Mo45  1  0.26196700  0.25425900  0.50643500  1
  Mo  Mo46  1  0.25112600  0.74493700  0.99271400  1
  Mo  Mo47  1  0.26244500  0.75342000  0.50825600  1
  Mo  Mo48  1  0.75300500  0.24448300  0.99134100  1
  Mo  Mo49  1  0.76527700  0.25145100  0.50596000  1
  Mo  Mo50  1  0.75113500  0.74624200  0.99187200  1
  Mo  Mo51  1  0.76586700  0.75349400  0.50854000  1
  Mo  Mo52  1  0.09825000  0.10656200  0.25799700  1
  Mo  Mo53  1  0.09476100  0.09076100  0.74655300  1
  Mo  Mo54  1  0.09674300  0.59394300  0.25747100  1
  Mo  Mo55  1  0.59757100  0.10003700  0.25459100  1
  Mo  Mo56  1  0.58872900  0.08357700  0.74505100  1
  Mo  Mo57  1  0.59867200  0.59245900  0.25098000  1
  Mo  Mo58  1  0.34625900  0.40376500  0.25848000  1
  Mo  Mo59  1  0.34805600  0.91397100  0.25197800  1
  Mo  Mo60  1  0.85426900  0.40630500  0.25450400  1
  Mo  Mo61  1  0.85229300  0.40775200  0.74334300  1
  Mo  Mo62  1  0.85071600  0.91022600  0.25385400  1
  Mo  Mo63  1  0.83784200  0.91197100  0.74575400  1
  O  O64  1  0.12634100  0.12472100  0.48906600  1
  O  O65  1  0.12051800  0.11951800  0.98157600  1
  O  O66  1  0.12817000  0.61913800  0.48924900  1
  O  O67  1  0.12204600  0.61296700  0.98160300  1
  O  O68  1  0.62865800  0.12563000  0.49290300  1
  O  O69  1  0.61926100  0.11210400  0.97512700  1
  O  O70  1  0.63243100  0.62563500  0.49959400  1
  O  O71  1  0.62112100  0.61798500  0.98370300  1
  O  O72  1  0.13184900  0.37578300  0.00228000  1
  O  O73  1  0.14659000  0.38706100  0.52125700  1
  O  O74  1  0.13224500  0.87610700  0.00572800  1
  O  O75  1  0.14292400  0.88303800  0.52024400  1
  O  O76  1  0.62909200  0.37176000  0.00052400  1
  O  O77  1  0.64745200  0.38668600  0.52602300  1
  O  O78  1  0.63031700  0.87663900  0.99939200  1
  O  O79  1  0.64832300  0.88947300  0.52769400  1
  O  O80  1  0.38149700  0.12475300  0.49354800  1
  O  O81  1  0.37253000  0.11782000  0.98098600  1
  O  O82  1  0.37835800  0.61882700  0.49653200  1
  O  O83  1  0.36825300  0.61257100  0.98045500  1
  O  O84  1  0.88125300  0.11939700  0.48965000  1
  O  O85  1  0.87120800  0.11443300  0.97932600  1
  O  O86  1  0.88304900  0.62220700  0.49270700  1
  O  O87  1  0.87101500  0.61500700  0.98263000  1
  O  O88  1  0.38169400  0.37695500  0.00164900  1
  O  O89  1  0.39602800  0.38600000  0.52289900  1
  O  O90  1  0.38009500  0.87708700  0.00287200  1
  O  O91  1  0.39806400  0.89262300  0.52885800  1
  O  O92  1  0.88395300  0.37603500  0.00463900  1
  O  O93  1  0.89723900  0.38490900  0.52187600  1
  O  O94  1  0.87798000  0.87799900  0.00099500  1
  O  O95  1  0.89726400  0.88672500  0.52439400  1
  O  O96  1  0.07403800  0.08944500  0.13803000  1
  O  O97  1  0.09094000  0.11119000  0.64043400  1
  O  O98  1  0.07692800  0.58659800  0.14116100  1
  O  O99  1  0.09251600  0.60394700  0.64486000  1
  O  O100  1  0.57381100  0.08743000  0.13553500  1
  O  O101  1  0.59006400  0.11604500  0.64518100  1
  O  O102  1  0.57513000  0.58882100  0.13484100  1
  O  O103  1  0.58137000  0.61080900  0.64592000  1
  O  O104  1  0.44880500  0.39284700  0.36754400  1
  O  O105  1  0.43095000  0.40102600  0.85064500  1
  O  O106  1  0.44476200  0.90824700  0.36524700  1
  O  O107  1  0.42830400  0.90933500  0.84997400  1
  O  O108  1  0.95386400  0.39261500  0.36466600  1
  O  O109  1  0.94002500  0.39326100  0.85412200  1
  O  O110  1  0.94431700  0.89217000  0.36366300  1
  O  O111  1  0.94163300  0.90516300  0.85571800  1
  O  O112  1  0.32559500  0.30186800  0.13883200  1
  O  O113  1  0.32910300  0.28574900  0.64422900  1
  O  O114  1  0.32944700  0.79883300  0.13836700  1
  O  O115  1  0.33578300  0.79081000  0.64588400  1
  O  O116  1  0.83161400  0.29765700  0.13782000  1
  O  O117  1  0.84448600  0.27410900  0.64115800  1
  O  O118  1  0.83016100  0.80099100  0.13759200  1
  O  O119  1  0.84443600  0.78276000  0.64572200  1
  O  O120  1  0.20620600  0.22438000  0.36599400  1
  O  O121  1  0.19482500  0.21270700  0.85474400  1
  O  O122  1  0.20320000  0.70936000  0.36801700  1
  O  O123  1  0.17873600  0.69030400  0.85120000  1
  O  O124  1  0.70934100  0.20947200  0.36479700  1
  O  O125  1  0.69768200  0.19977600  0.85332200  1
  O  O126  1  0.70070300  0.70406300  0.36565800  1
  O  O127  1  0.67639000  0.69643700  0.85021800  1
  O  O128  1  0.44116900  0.07166200  0.26787500  1
  O  O129  1  0.41812100  0.06031900  0.74585500  1
  O  O130  1  0.44003200  0.54586900  0.25360100  1
  O  O131  1  0.43592800  0.53633100  0.73575500  1
  O  O132  1  0.94260700  0.06879100  0.26993600  1
  O  O133  1  0.92560700  0.06171000  0.74759200  1
  O  O134  1  0.93748200  0.56672600  0.26768700  1
  O  O135  1  0.93997700  0.54370900  0.73290100  1
  O  O136  1  0.18867100  0.44921500  0.26908300  1
  O  O137  1  0.18841900  0.44190100  0.74435600  1
  O  O138  1  0.18571400  0.95634300  0.25137900  1
  O  O139  1  0.18213500  0.94095400  0.73408400  1
  O  O140  1  0.69165800  0.44840600  0.25312500  1
  O  O141  1  0.68097200  0.44544300  0.73386000  1
  O  O142  1  0.68732800  0.95204500  0.25130200  1
  O  O143  1  0.66657800  0.93122100  0.74681900  1
