# generated using pymatgen
data_Sm2MgMo2(I4O15)2
_symmetry_space_group_name_H-M   'P 1'
_cell_length_a   6.98238170
_cell_length_b   7.19226191
_cell_length_c   14.35111048
_cell_angle_alpha   90.90098732
_cell_angle_beta   87.98357462
_cell_angle_gamma   114.84914764
_symmetry_Int_Tables_number   1
_chemical_formula_structural   Sm2MgMo2(I4O15)2
_chemical_formula_sum   'Sm2 Mg1 Mo2 I8 O30'
_cell_volume   653.57047557
_cell_formula_units_Z   1
loop_
 _symmetry_equiv_pos_site_id
 _symmetry_equiv_pos_as_xyz
  1  'x, y, z'
loop_
 _atom_site_type_symbol
 _atom_site_label
 _atom_site_symmetry_multiplicity
 _atom_site_fract_x
 _atom_site_fract_y
 _atom_site_fract_z
 _atom_site_occupancy
  Sm  Sm0  1  0.07056973  0.41848635  0.43677452  1
  Sm  Sm1  1  0.92914680  0.57002458  0.94309206  1
  Mg  Mg2  1  0.47174019  0.61762783  0.83565698  1
  Mo  Mo3  1  0.59173754  0.78406443  0.27804688  1
  Mo  Mo4  1  0.42421263  0.21706645  0.76970333  1
  I  I5  1  0.54027299  0.77216569  0.04095015  1
  I  I6  1  0.46414612  0.23909442  0.52643031  1
  I  I7  1  0.76045748  0.29816096  0.18881359  1
  I  I8  1  0.23086860  0.71469401  0.67233589  1
  I  I9  1  0.14881186  0.93868121  0.31634397  1
  I  I10  1  0.86358134  0.06056214  0.80168205  1
  I  I11  1  0.75250047  0.85856471  0.54642430  1
  I  I12  1  0.23696089  0.13180406  0.04714224  1
  O  O13  1  0.38405102  0.69108137  0.14913032  1
  O  O14  1  0.59029153  0.29148152  0.64481382  1
  O  O15  1  0.32383874  0.66032016  0.95317646  1
  O  O16  1  0.70647564  0.35926524  0.45742755  1
  O  O17  1  0.60902965  0.55074211  0.02288087  1
  O  O18  1  0.38500206  0.45363964  0.53032139  1
  O  O19  1  0.75824615  0.03579745  0.17764688  1
  O  O20  1  0.22400189  0.97152972  0.67104215  1
  O  O21  1  0.93109589  0.40435768  0.08565137  1
  O  O22  1  0.03092884  0.58142053  0.58872136  1
  O  O23  1  0.94976422  0.39003011  0.28077284  1
  O  O24  1  0.09528376  0.63029394  0.78718295  1
  O  O25  1  0.43036111  0.98423281  0.29261806  1
  O  O26  1  0.57710724  0.01526898  0.78915506  1
  O  O27  1  0.22363961  0.17832103  0.38194958  1
  O  O28  1  0.76911482  0.81558817  0.86669632  1
  O  O29  1  0.09336586  0.76188308  0.41451898  1
  O  O30  1  0.91630933  0.23473219  0.90115652  1
  O  O31  1  0.50832566  0.89675038  0.53836014  1
  O  O32  1  0.47768117  0.08740792  0.03381727  1
  O  O33  1  0.73447059  0.80679210  0.67341411  1
  O  O34  1  0.23606258  0.17173036  0.17174684  1
  O  O35  1  0.94616396  0.12582382  0.54720500  1
  O  O36  1  0.03295935  0.86875019  0.03511527  1
  O  O37  1  0.78006792  0.92479584  0.36584877  1
  O  O38  1  0.21371158  0.06252920  0.84935586  1
  O  O39  1  0.38338428  0.59594226  0.34307572  1
  O  O40  1  0.61845991  0.40239666  0.84400355  1
  O  O41  1  0.73237747  0.65342816  0.22393051  1
  O  O42  1  0.30712555  0.39304051  0.74351618  1
