# generated using pymatgen
data_K6MnSe4
_symmetry_space_group_name_H-M   'P 1'
_cell_length_a   10.24963186
_cell_length_b   10.24963734
_cell_length_c   7.96926077
_cell_angle_alpha   89.99961702
_cell_angle_beta   90.00038295
_cell_angle_gamma   119.99956617
_symmetry_Int_Tables_number   1
_chemical_formula_structural   K6MnSe4
_chemical_formula_sum   'K12 Mn2 Se8'
_cell_volume   725.04896057
_cell_formula_units_Z   2
loop_
 _symmetry_equiv_pos_site_id
 _symmetry_equiv_pos_as_xyz
  1  'x, y, z'
loop_
 _atom_site_type_symbol
 _atom_site_label
 _atom_site_symmetry_multiplicity
 _atom_site_fract_x
 _atom_site_fract_y
 _atom_site_fract_z
 _atom_site_occupancy
  K  K0  1  0.14677555  0.85322655  0.54346447  1
  K  K1  1  0.29355157  0.14677377  0.04347252  1
  K  K2  1  0.85322571  0.70644865  0.04347119  1
  K  K3  1  0.14677466  0.29355026  0.54346342  1
  K  K4  1  0.70645143  0.85322481  0.54346239  1
  K  K5  1  0.85322763  0.14677237  0.04346977  1
  K  K6  1  0.52808431  0.47191574  0.36753825  1
  K  K7  1  0.05617704  0.52808619  0.86752883  1
  K  K8  1  0.47191391  0.94382276  0.86752889  1
  K  K9  1  0.52808506  0.05616774  0.36753883  1
  K  K10  1  0.94383344  0.47191566  0.36753705  1
  K  K11  1  0.47191453  0.52808595  0.86752849  1
  Mn  Mn12  1  0.33333264  0.66666705  0.25134684  1
  Mn  Mn13  1  0.66666715  0.33333242  0.75134425  1
  Se  Se14  1  0.33333191  0.66666858  0.57576548  1
  Se  Se15  1  0.66667073  0.33332750  0.07577678  1
  Se  Se16  1  0.19482995  0.80516912  0.15084856  1
  Se  Se17  1  0.38970091  0.19485766  0.65085410  1
  Se  Se18  1  0.80514462  0.61029799  0.65085304  1
  Se  Se19  1  0.19483871  0.38967671  0.15087872  1
  Se  Se20  1  0.61032278  0.80516146  0.15087875  1
  Se  Se21  1  0.80514676  0.19485006  0.65085136  1
