# generated using pymatgen
data_Na2Mo2O7
_symmetry_space_group_name_H-M   'P 1'
_cell_length_a   6.89852031
_cell_length_b   6.89852031
_cell_length_c   14.69544149
_cell_angle_alpha   90.00000000
_cell_angle_beta   90.00000000
_cell_angle_gamma   117.32646387
_symmetry_Int_Tables_number   1
_chemical_formula_structural   Na2Mo2O7
_chemical_formula_sum   'Na8 Mo8 O28'
_cell_volume   621.30617738
_cell_formula_units_Z   4
loop_
 _symmetry_equiv_pos_site_id
 _symmetry_equiv_pos_as_xyz
  1  'x, y, z'
loop_
 _atom_site_type_symbol
 _atom_site_label
 _atom_site_symmetry_multiplicity
 _atom_site_fract_x
 _atom_site_fract_y
 _atom_site_fract_z
 _atom_site_occupancy
  Na  Na0  1  0.31946272  0.68053728  0.34493379  1
  Na  Na1  1  0.18053728  0.81946272  0.84493379  1
  Na  Na2  1  0.68053728  0.31946272  0.65506621  1
  Na  Na3  1  0.81946272  0.18053728  0.15506621  1
  Na  Na4  1  0.24660976  0.24660976  0.00000000  1
  Na  Na5  1  0.25339024  0.25339024  0.50000000  1
  Na  Na6  1  0.75339024  0.75339024  0.00000000  1
  Na  Na7  1  0.74660976  0.74660976  0.50000000  1
  Mo  Mo8  1  0.24657102  0.75342898  0.08413160  1
  Mo  Mo9  1  0.25342898  0.74657102  0.58413160  1
  Mo  Mo10  1  0.75342898  0.24657102  0.91586840  1
  Mo  Mo11  1  0.74657102  0.25342898  0.41586840  1
  Mo  Mo12  1  0.33106356  0.16893644  0.25000000  1
  Mo  Mo13  1  0.16893644  0.33106356  0.75000000  1
  Mo  Mo14  1  0.66893644  0.83106356  0.75000000  1
  Mo  Mo15  1  0.83106356  0.66893644  0.25000000  1
  O  O16  1  0.36118298  0.63881702  0.50123012  1
  O  O17  1  0.13881702  0.86118298  0.00123012  1
  O  O18  1  0.63881702  0.36118298  0.49876988  1
  O  O19  1  0.86118298  0.13881702  0.99876988  1
  O  O20  1  0.37692736  0.62307264  0.02903224  1
  O  O21  1  0.12307264  0.87692736  0.52903224  1
  O  O22  1  0.62307264  0.37692736  0.97096776  1
  O  O23  1  0.87692736  0.12307264  0.47096776  1
  O  O24  1  0.12130787  0.87869213  0.28212065  1
  O  O25  1  0.37869213  0.62130787  0.78212065  1
  O  O26  1  0.87869213  0.12130787  0.71787935  1
  O  O27  1  0.62130787  0.37869213  0.21787935  1
  O  O28  1  0.70931953  0.69012777  0.66180725  1
  O  O29  1  0.79068047  0.80987223  0.16180725  1
  O  O30  1  0.69012777  0.70931953  0.33819275  1
  O  O31  1  0.80987223  0.79068047  0.83819275  1
  O  O32  1  0.93299422  0.47011700  0.34537884  1
  O  O33  1  0.56700578  0.02988300  0.84537884  1
  O  O34  1  0.47011700  0.93299422  0.65462116  1
  O  O35  1  0.02988300  0.56700578  0.15462116  1
  O  O36  1  0.06700578  0.52988300  0.65462116  1
  O  O37  1  0.43299422  0.97011700  0.15462116  1
  O  O38  1  0.52988300  0.06700578  0.34537884  1
  O  O39  1  0.97011700  0.43299422  0.84537884  1
  O  O40  1  0.19012777  0.20931953  0.16180725  1
  O  O41  1  0.30987223  0.29068047  0.66180725  1
  O  O42  1  0.20931953  0.19012777  0.83819275  1
  O  O43  1  0.29068047  0.30987223  0.33819275  1
