# generated using pymatgen
data_Cs3Zr2P5S18
_symmetry_space_group_name_H-M   'P 1'
_cell_length_a   6.94851616
_cell_length_b   6.94851616
_cell_length_c   34.40189759
_cell_angle_alpha   86.69096941
_cell_angle_beta   86.69096941
_cell_angle_gamma   93.44480675
_symmetry_Int_Tables_number   1
_chemical_formula_structural   Cs3Zr2P5S18
_chemical_formula_sum   'Cs6 Zr4 P10 S36'
_cell_volume   1652.09940998
_cell_formula_units_Z   2
loop_
 _symmetry_equiv_pos_site_id
 _symmetry_equiv_pos_as_xyz
  1  'x, y, z'
loop_
 _atom_site_type_symbol
 _atom_site_label
 _atom_site_symmetry_multiplicity
 _atom_site_fract_x
 _atom_site_fract_y
 _atom_site_fract_z
 _atom_site_occupancy
  Cs  Cs0  1  0.72042825  0.52661929  0.86390536  1
  Cs  Cs1  1  0.52661929  0.72042825  0.36390536  1
  Cs  Cs2  1  0.22618353  0.00618051  0.56889827  1
  Cs  Cs3  1  0.00618051  0.22618353  0.06889827  1
  Cs  Cs4  1  0.34084462  0.06021926  0.75409775  1
  Cs  Cs5  1  0.06021926  0.34084462  0.25409775  1
  Zr  Zr6  1  0.65157619  0.47564130  0.65396395  1
  Zr  Zr7  1  0.47564130  0.65157619  0.15396395  1
  Zr  Zr8  1  0.46190390  0.87562416  0.96396651  1
  Zr  Zr9  1  0.87562416  0.46190390  0.46396651  1
  P  P10  1  0.84297044  0.35008347  0.73729351  1
  P  P11  1  0.35008347  0.84297044  0.23729351  1
  P  P12  1  0.19806737  0.56617159  0.67324320  1
  P  P13  1  0.56617159  0.19806737  0.17324320  1
  P  P14  1  0.73808240  0.44029281  0.55858847  1
  P  P15  1  0.44029281  0.73808240  0.05858847  1
  P  P16  1  0.25273747  0.80812653  0.88081070  1
  P  P17  1  0.80812653  0.25273747  0.38081070  1
  P  P18  1  0.92577934  0.98624876  0.94519292  1
  P  P19  1  0.98624876  0.92577934  0.44519292  1
  S  S20  1  0.11785561  0.51863432  0.73355925  1
  S  S21  1  0.51863432  0.11785561  0.23355925  1
  S  S22  1  0.83951319  0.20538796  0.78794939  1
  S  S23  1  0.20538796  0.83951319  0.28794939  1
  S  S24  1  0.82441950  0.19263144  0.68964273  1
  S  S25  1  0.19263144  0.82441950  0.18964273  1
  S  S26  1  0.30128883  0.31666558  0.65488467  1
  S  S27  1  0.31666558  0.30128883  0.15488467  1
  S  S28  1  0.41842067  0.77047111  0.66865232  1
  S  S29  1  0.77047111  0.41842067  0.16865232  1
  S  S30  1  0.73285981  0.22478382  0.60169339  1
  S  S31  1  0.22478382  0.73285981  0.10169339  1
  S  S32  1  0.00782144  0.51050930  0.53377446  1
  S  S33  1  0.51050930  0.00782144  0.03377446  1
  S  S34  1  0.48143759  0.99294757  0.88950265  1
  S  S35  1  0.99294757  0.48143759  0.38950265  1
  S  S36  1  0.64235835  0.54516319  0.72840871  1
  S  S37  1  0.54516319  0.64235835  0.22840871  1
  S  S38  1  0.72710743  0.18402143  0.95002708  1
  S  S39  1  0.18402143  0.72710743  0.45002708  1
  S  S40  1  0.58141867  0.36110564  0.51334892  1
  S  S41  1  0.36110564  0.58141867  0.01334892  1
  S  S42  1  0.25210941  0.61962704  0.92806149  1
  S  S43  1  0.61962704  0.25210941  0.42806149  1
  S  S44  1  0.79579563  0.72541317  0.96401356  1
  S  S45  1  0.72541317  0.79579563  0.46401356  1
  S  S46  1  0.07030376  0.15483468  0.47545623  1
  S  S47  1  0.15483468  0.07030376  0.97545623  1
  S  S48  1  0.62492790  0.66250156  0.58664383  1
  S  S49  1  0.66250156  0.62492790  0.08664383  1
  S  S50  1  0.98401949  0.66941718  0.64226954  1
  S  S51  1  0.66941718  0.98401949  0.14226954  1
  S  S52  1  0.00193137  0.97683778  0.88462865  1
  S  S53  1  0.97683778  0.00193137  0.38462865  1
  S  S54  1  0.23778149  0.69247492  0.83025448  1
  S  S55  1  0.69247492  0.23778149  0.33025448  1
