# generated using pymatgen
data_Rb8Ta6O19
_symmetry_space_group_name_H-M   'P 1'
_cell_length_a   9.63133165
_cell_length_b   9.63062152
_cell_length_c   9.63088685
_cell_angle_alpha   118.94916521
_cell_angle_beta   118.95189162
_cell_angle_gamma   91.82686355
_symmetry_Int_Tables_number   1
_chemical_formula_structural   Rb8Ta6O19
_chemical_formula_sum   'Rb8 Ta6 O19'
_cell_volume   641.34350413
_cell_formula_units_Z   1
loop_
 _symmetry_equiv_pos_site_id
 _symmetry_equiv_pos_as_xyz
  1  'x, y, z'
loop_
 _atom_site_type_symbol
 _atom_site_label
 _atom_site_symmetry_multiplicity
 _atom_site_fract_x
 _atom_site_fract_y
 _atom_site_fract_z
 _atom_site_occupancy
  Rb  Rb0  1  0.62789043  0.44374840  0.36044036  1
  Rb  Rb1  1  0.37211002  0.55625141  0.63955955  1
  Rb  Rb2  1  0.08333456  0.26744651  0.63957994  1
  Rb  Rb3  1  0.44374209  0.08331200  0.81586932  1
  Rb  Rb4  1  0.91666501  0.73255365  0.36041941  1
  Rb  Rb5  1  0.55625696  0.91668706  0.18413006  1
  Rb  Rb6  1  0.26745630  0.62788218  0.18412678  1
  Rb  Rb7  1  0.73254406  0.37211790  0.81587321  1
  Ta  Ta8  1  0.17353920  0.17353277  0.00000699  1
  Ta  Ta9  1  0.82646115  0.82646777  -0.00000647  1
  Ta  Ta10  1  0.21915068  0.10627636  0.32543051  1
  Ta  Ta11  1  0.78084608  0.89372074  0.67456394  1
  Ta  Ta12  1  0.10628410  0.78084683  0.88712867  1
  Ta  Ta13  1  0.89371455  0.21915865  0.11287422  1
  O  O14  1  0.08869792  0.26558286  0.35428759  1
  O  O15  1  0.91130193  0.73441668  0.64571216  1
  O  O16  1  0.26558780  0.91129825  0.17688786  1
  O  O17  1  0.73441256  0.08870244  0.82311378  1
  O  O18  1  0.32562426  0.23698091  0.27049382  1
  O  O19  1  0.67437683  0.76301938  0.72950721  1
  O  O20  1  0.96649792  0.05512228  0.72952160  1
  O  O21  1  0.23699288  0.96650281  0.91138446  1
  O  O22  1  0.03350291  0.94487814  0.27047875  1
  O  O23  1  0.76300635  0.03349751  0.08861601  1
  O  O24  1  0.05513235  0.32561141  0.08864904  1
  O  O25  1  0.94486708  0.67438738  0.91135097  1
  O  O26  1  0.37760865  0.20284441  0.58045478  1
  O  O27  1  0.62239399  0.79715668  0.41954854  1
  O  O28  1  0.20284753  0.62239861  0.82523759  1
  O  O29  1  0.79715315  0.37759978  0.17476224  1
  O  O30  1  0.30922921  0.30922556  0.00001308  1
  O  O31  1  0.69077066  0.69077413  0.99998725  1
  O  O32  1  -0.00000016  -0.00000043  -0.00000019  1
