# generated using pymatgen
data_Rb3TiF7
_symmetry_space_group_name_H-M   'P 1'
_cell_length_a   8.06004715
_cell_length_b   8.06004715
_cell_length_c   5.93620680
_cell_angle_alpha   90.00000000
_cell_angle_beta   90.00000000
_cell_angle_gamma   90.00000000
_symmetry_Int_Tables_number   1
_chemical_formula_structural   Rb3TiF7
_chemical_formula_sum   'Rb6 Ti2 F14'
_cell_volume   385.64187595
_cell_formula_units_Z   2
loop_
 _symmetry_equiv_pos_site_id
 _symmetry_equiv_pos_as_xyz
  1  'x, y, z'
loop_
 _atom_site_type_symbol
 _atom_site_label
 _atom_site_symmetry_multiplicity
 _atom_site_fract_x
 _atom_site_fract_y
 _atom_site_fract_z
 _atom_site_occupancy
  Rb  Rb0  1  0.18921034  0.68921034  0.50000000  1
  Rb  Rb1  1  0.68921034  0.81078966  0.50000000  1
  Rb  Rb2  1  0.31078966  0.18921034  0.50000000  1
  Rb  Rb3  1  0.81078966  0.31078966  0.50000000  1
  Rb  Rb4  1  0.50000000  0.50000000  0.00000000  1
  Rb  Rb5  1  -0.00000000  0.00000000  0.00000000  1
  Ti  Ti6  1  -0.00000000  0.50000000  0.00000000  1
  Ti  Ti7  1  0.50000000  0.00000000  0.00000000  1
  F  F8  1  0.38602257  0.88602257  0.77229645  1
  F  F9  1  0.61397743  0.11397743  0.77229645  1
  F  F10  1  0.11397743  0.38602257  0.77229645  1
  F  F11  1  0.88602257  0.61397743  0.77229645  1
  F  F12  1  0.38602257  0.88602257  0.22770355  1
  F  F13  1  0.88602257  0.61397743  0.22770355  1
  F  F14  1  0.11397743  0.38602257  0.22770355  1
  F  F15  1  0.61397743  0.11397743  0.22770355  1
  F  F16  1  -0.00000000  0.00000000  0.50000000  1
  F  F17  1  0.50000000  0.50000000  0.50000000  1
  F  F18  1  0.83548144  0.33548144  0.00000000  1
  F  F19  1  0.33548144  0.16451856  0.00000000  1
  F  F20  1  0.66451856  0.83548144  0.00000000  1
  F  F21  1  0.16451856  0.66451856  0.00000000  1
