# generated using pymatgen
data_Rb6Si2O7
_symmetry_space_group_name_H-M   'P 1'
_cell_length_a   9.21448849
_cell_length_b   6.74760263
_cell_length_c   11.32063384
_cell_angle_alpha   54.49150151
_cell_angle_beta   90.00000000
_cell_angle_gamma   90.00000000
_symmetry_Int_Tables_number   1
_chemical_formula_structural   Rb6Si2O7
_chemical_formula_sum   'Rb12 Si4 O14'
_cell_volume   572.96956221
_cell_formula_units_Z   2
loop_
 _symmetry_equiv_pos_site_id
 _symmetry_equiv_pos_as_xyz
  1  'x, y, z'
loop_
 _atom_site_type_symbol
 _atom_site_label
 _atom_site_symmetry_multiplicity
 _atom_site_fract_x
 _atom_site_fract_y
 _atom_site_fract_z
 _atom_site_occupancy
  Rb  Rb0  1  0.35258828  0.51689510  0.59295815  1
  Rb  Rb1  1  0.14741172  0.51689510  0.09295815  1
  Rb  Rb2  1  0.64741172  0.48310490  0.40704185  1
  Rb  Rb3  1  0.97441495  0.70755568  0.54495727  1
  Rb  Rb4  1  0.47441495  0.29244432  0.95504273  1
  Rb  Rb5  1  0.02558505  0.29244432  0.45504273  1
  Rb  Rb6  1  0.52558505  0.70755568  0.04495727  1
  Rb  Rb7  1  0.27673244  0.88900092  0.72478932  1
  Rb  Rb8  1  0.77673244  0.11099908  0.77521068  1
  Rb  Rb9  1  0.72326756  0.11099908  0.27521068  1
  Rb  Rb10  1  0.22326756  0.88900092  0.22478932  1
  Rb  Rb11  1  0.85258828  0.48310490  0.90704185  1
  Si  Si12  1  0.63150414  0.83391253  0.62293965  1
  Si  Si13  1  0.86849586  0.83391253  0.12293965  1
  Si  Si14  1  0.36849586  0.16608747  0.37706035  1
  Si  Si15  1  0.13150414  0.16608747  0.87706035  1
  O  O16  1  0.27652712  0.99497099  0.93514949  1
  O  O17  1  -0.00000000  0.00000000  -0.00000000  1
  O  O18  1  0.50000000  0.00000000  0.50000000  1
  O  O19  1  0.92207320  0.77033389  0.27870547  1
  O  O20  1  0.77652712  0.00502901  0.56485051  1
  O  O21  1  0.72347288  0.00502901  0.06485051  1
  O  O22  1  0.22347288  0.99497099  0.43514949  1
  O  O23  1  0.65580298  0.58905205  0.62768937  1
  O  O24  1  0.15580298  0.41094795  0.87231063  1
  O  O25  1  0.34419702  0.41094795  0.37231063  1
  O  O26  1  0.84419702  0.58905205  0.12768937  1
  O  O27  1  0.57792680  0.77033389  0.77870547  1
  O  O28  1  0.07792680  0.22966611  0.72129453  1
  O  O29  1  0.42207320  0.22966611  0.22129453  1
