# generated using pymatgen
data_Ba3Y4O9
_symmetry_space_group_name_H-M   'P 1'
_cell_length_a   9.19147366
_cell_length_b   9.19147366
_cell_length_c   9.19147316
_cell_angle_alpha   38.82228703
_cell_angle_beta   38.82228700
_cell_angle_gamma   38.82228833
_symmetry_Int_Tables_number   1
_chemical_formula_structural   Ba3Y4O9
_chemical_formula_sum   'Ba3 Y4 O9'
_cell_volume   274.36509794
_cell_formula_units_Z   1
loop_
 _symmetry_equiv_pos_site_id
 _symmetry_equiv_pos_as_xyz
  1  'x, y, z'
loop_
 _atom_site_type_symbol
 _atom_site_label
 _atom_site_symmetry_multiplicity
 _atom_site_fract_x
 _atom_site_fract_y
 _atom_site_fract_z
 _atom_site_occupancy
  Ba  Ba0  1  0.41653171  0.41653171  0.41653171  1
  Ba  Ba1  1  0.83586529  0.83586529  0.83586529  1
  Ba  Ba2  1  0.00105075  0.00105075  0.00105075  1
  Y  Y3  1  0.70057124  0.70057124  0.70057124  1
  Y  Y4  1  0.26187638  0.26187638  0.26187638  1
  Y  Y5  1  0.13671840  0.13671840  0.13671840  1
  Y  Y6  1  0.57515965  0.57515965  0.57515965  1
  O  O7  1  0.42528040  0.96210822  0.53810603  1
  O  O8  1  0.96210822  0.53810603  0.42528040  1
  O  O9  1  0.53810603  0.42528040  0.96210822  1
  O  O10  1  0.29606506  0.87702315  0.41502120  1
  O  O11  1  0.87702315  0.41502120  0.29606506  1
  O  O12  1  0.41502120  0.29606506  0.87702315  1
  O  O13  1  0.41806721  0.85928737  0.97826795  1
  O  O14  1  0.97826795  0.41806721  0.85928737  1
  O  O15  1  0.85928737  0.97826795  0.41806721  1
