# generated using pymatgen
data_Li4SnS4
_symmetry_space_group_name_H-M   'P 1'
_cell_length_a   6.33624611
_cell_length_b   7.87287108
_cell_length_c   14.21970100
_cell_angle_alpha   90.00000000
_cell_angle_beta   90.00000000
_cell_angle_gamma   90.00000000
_symmetry_Int_Tables_number   1
_chemical_formula_structural   Li4SnS4
_chemical_formula_sum   'Li16 Sn4 S16'
_cell_volume   709.34194585
_cell_formula_units_Z   4
loop_
 _symmetry_equiv_pos_site_id
 _symmetry_equiv_pos_as_xyz
  1  'x, y, z'
loop_
 _atom_site_type_symbol
 _atom_site_label
 _atom_site_symmetry_multiplicity
 _atom_site_fract_x
 _atom_site_fract_y
 _atom_site_fract_z
 _atom_site_occupancy
  Li  Li0  1  -0.00000000  0.50000000  -0.00000000  1
  Li  Li1  1  0.50000000  0.00000000  0.50000000  1
  Li  Li2  1  -0.00000000  0.00000000  -0.00000000  1
  Li  Li3  1  0.50000000  0.50000000  0.50000000  1
  Li  Li4  1  0.87341033  0.75000000  0.40979166  1
  Li  Li5  1  0.62658967  0.75000000  0.90979166  1
  Li  Li6  1  0.12658967  0.25000000  0.59020834  1
  Li  Li7  1  0.37341033  0.25000000  0.09020834  1
  Li  Li8  1  0.82147816  0.50462610  0.17781033  1
  Li  Li9  1  0.67852184  0.99537390  0.67781033  1
  Li  Li10  1  0.17852184  0.00462610  0.82218967  1
  Li  Li11  1  0.32147816  0.49537390  0.32218967  1
  Li  Li12  1  0.17852184  0.49537390  0.82218967  1
  Li  Li13  1  0.32147816  0.00462610  0.32218967  1
  Li  Li14  1  0.82147816  0.99537390  0.17781033  1
  Li  Li15  1  0.67852184  0.50462610  0.67781033  1
  Sn  Sn16  1  0.35731492  0.75000000  0.09141000  1
  Sn  Sn17  1  0.14268508  0.75000000  0.59141000  1
  Sn  Sn18  1  0.64268508  0.25000000  0.90859000  1
  Sn  Sn19  1  0.85731492  0.25000000  0.40859000  1
  S  S20  1  0.73452177  0.75000000  0.08205075  1
  S  S21  1  0.76547823  0.75000000  0.58205075  1
  S  S22  1  0.26547823  0.25000000  0.91794925  1
  S  S23  1  0.23452177  0.25000000  0.41794925  1
  S  S24  1  0.21275220  0.49923682  0.16004047  1
  S  S25  1  0.28724780  0.00076318  0.66004047  1
  S  S26  1  0.78724780  0.99923682  0.83995953  1
  S  S27  1  0.71275220  0.50076318  0.33995953  1
  S  S28  1  0.78724780  0.50076318  0.83995953  1
  S  S29  1  0.71275220  0.99923682  0.33995953  1
  S  S30  1  0.21275220  0.00076318  0.16004047  1
  S  S31  1  0.28724780  0.49923682  0.66004047  1
  S  S32  1  0.26436615  0.75000000  0.43015306  1
  S  S33  1  0.23563385  0.75000000  0.93015306  1
  S  S34  1  0.73563385  0.25000000  0.56984694  1
  S  S35  1  0.76436615  0.25000000  0.06984694  1
