# generated using pymatgen
data_Sr2VP2O9
_symmetry_space_group_name_H-M   'P 1'
_cell_length_a   6.72539888
_cell_length_b   6.99043567
_cell_length_c   8.72819197
_cell_angle_alpha   76.32543328
_cell_angle_beta   77.59859483
_cell_angle_gamma   115.20085882
_symmetry_Int_Tables_number   1
_chemical_formula_structural   Sr2VP2O9
_chemical_formula_sum   'Sr4 V2 P4 O18'
_cell_volume   336.74483058
_cell_formula_units_Z   2
loop_
 _symmetry_equiv_pos_site_id
 _symmetry_equiv_pos_as_xyz
  1  'x, y, z'
loop_
 _atom_site_type_symbol
 _atom_site_label
 _atom_site_symmetry_multiplicity
 _atom_site_fract_x
 _atom_site_fract_y
 _atom_site_fract_z
 _atom_site_occupancy
  Sr  Sr0  1  0.20798924  0.95538295  0.08474223  1
  Sr  Sr1  1  0.79273147  0.04012517  0.91525777  1
  Sr  Sr2  1  0.62793737  0.37533867  0.24919803  1
  Sr  Sr3  1  0.37713440  0.62453669  0.75080197  1
  V  V4  1  0.00386890  0.98130773  0.49147061  1
  V  V5  1  -0.00466049  0.47277834  0.50852939  1
  P  P6  1  0.82876859  0.57751514  0.84434774  1
  P  P7  1  0.17311633  0.42186288  0.15565226  1
  P  P8  1  0.41245832  0.16280993  0.67274324  1
  P  P9  1  0.58520156  0.83555417  0.32725576  1
  O  O10  1  0.95247597  0.68623758  0.95222060  1
  O  O11  1  0.59611443  0.36135547  0.95042345  1
  O  O12  1  0.04653688  0.31177792  0.04957655  1
  O  O13  1  0.40469657  0.63845818  0.04777940  1
  O  O14  1  0.74649579  0.78310999  0.21421287  1
  O  O15  1  0.53413566  -0.00050919  0.21552651  1
  O  O16  1  0.24966118  0.21501732  0.78447349  1
  O  O17  1  0.46070866  -0.00267713  0.78578713  1
  O  O18  1  0.98243588  0.51501125  0.72725967  1
  O  O19  1  0.79597677  0.75967683  0.72616604  1
  O  O20  1  0.02214282  0.48584287  0.27383396  1
  O  O21  1  0.20969555  0.24227192  0.27274033  1
  O  O22  1  0.70676735  0.93443007  0.44541150  1
  O  O23  1  0.34790498  0.61916442  0.44880012  1
  O  O24  1  0.29670510  0.06796454  0.55119988  1
  O  O25  1  0.65217885  0.37984157  0.55458850  1
  O  O26  1  0.03447783  0.78877426  0.41970619  1
  O  O27  1  0.95418402  0.20848146  0.58029381  1
