# generated using pymatgen
data_Na5InO4
_symmetry_space_group_name_H-M   'P 1'
_cell_length_a   10.50191733
_cell_length_b   10.64990030
_cell_length_c   10.70685626
_cell_angle_alpha   90.00000000
_cell_angle_beta   90.00000000
_cell_angle_gamma   90.00000000
_symmetry_Int_Tables_number   1
_chemical_formula_structural   Na5InO4
_chemical_formula_sum   'Na40 In8 O32'
_cell_volume   1197.50162010
_cell_formula_units_Z   8
loop_
 _symmetry_equiv_pos_site_id
 _symmetry_equiv_pos_as_xyz
  1  'x, y, z'
loop_
 _atom_site_type_symbol
 _atom_site_label
 _atom_site_symmetry_multiplicity
 _atom_site_fract_x
 _atom_site_fract_y
 _atom_site_fract_z
 _atom_site_occupancy
  Na  Na0  1  0.10323523  0.11874673  0.33844255  1
  Na  Na1  1  0.60323523  0.88125327  0.16155745  1
  Na  Na2  1  0.39676477  0.61874673  0.66155745  1
  Na  Na3  1  0.89676477  0.38125327  0.83844255  1
  Na  Na4  1  0.89676477  0.88125327  0.66155745  1
  Na  Na5  1  0.39676477  0.11874673  0.83844255  1
  Na  Na6  1  0.60323523  0.38125327  0.33844255  1
  Na  Na7  1  0.10323523  0.61874673  0.16155745  1
  Na  Na8  1  0.64258031  0.88700808  0.89677730  1
  Na  Na9  1  0.14258031  0.11299192  0.60322270  1
  Na  Na10  1  0.85741969  0.38700808  0.10322270  1
  Na  Na11  1  0.35741969  0.61299192  0.39677730  1
  Na  Na12  1  0.35741969  0.11299192  0.10322270  1
  Na  Na13  1  0.85741969  0.88700808  0.39677730  1
  Na  Na14  1  0.14258031  0.61299192  0.89677730  1
  Na  Na15  1  0.64258031  0.38700808  0.60322270  1
  Na  Na16  1  0.59559600  0.62448316  0.85253831  1
  Na  Na17  1  0.09559600  0.37551684  0.64746169  1
  Na  Na18  1  0.90440400  0.12448316  0.14746169  1
  Na  Na19  1  0.40440400  0.87551684  0.35253831  1
  Na  Na20  1  0.40440400  0.37551684  0.14746169  1
  Na  Na21  1  0.90440400  0.62448316  0.35253831  1
  Na  Na22  1  0.09559600  0.87551684  0.85253831  1
  Na  Na23  1  0.59559600  0.12448316  0.64746169  1
  Na  Na24  1  0.66684084  0.10718377  0.38257171  1
  Na  Na25  1  0.16684084  0.89281623  0.11742829  1
  Na  Na26  1  0.83315916  0.60718377  0.61742829  1
  Na  Na27  1  0.33315916  0.39281623  0.88257171  1
  Na  Na28  1  0.33315916  0.89281623  0.61742829  1
  Na  Na29  1  0.83315916  0.10718377  0.88257171  1
  Na  Na30  1  0.16684084  0.39281623  0.38257171  1
  Na  Na31  1  0.66684084  0.60718377  0.11742829  1
  Na  Na32  1  0.13186703  0.85053604  0.38181371  1
  Na  Na33  1  0.63186703  0.14946396  0.11818629  1
  Na  Na34  1  0.36813297  0.35053604  0.61818629  1
  Na  Na35  1  0.86813297  0.64946396  0.88181371  1
  Na  Na36  1  0.86813297  0.14946396  0.61818629  1
  Na  Na37  1  0.36813297  0.85053604  0.88181371  1
  Na  Na38  1  0.63186703  0.64946396  0.38181371  1
  Na  Na39  1  0.13186703  0.35053604  0.11818629  1
  In  In40  1  0.88477110  0.35231172  0.37865039  1
  In  In41  1  0.38477110  0.64768828  0.12134961  1
  In  In42  1  0.61522890  0.85231172  0.62134961  1
  In  In43  1  0.11522890  0.14768828  0.87865039  1
  In  In44  1  0.11522890  0.64768828  0.62134961  1
  In  In45  1  0.61522890  0.35231172  0.87865039  1
  In  In46  1  0.38477110  0.14768828  0.37865039  1
  In  In47  1  0.88477110  0.85231172  0.12134961  1
  O  O48  1  0.51144282  0.74765252  0.01130279  1
  O  O49  1  0.01144282  0.25234748  0.48869721  1
  O  O50  1  0.98855718  0.24765252  0.98869721  1
  O  O51  1  0.48855718  0.75234748  0.51130279  1
  O  O52  1  0.48855718  0.25234748  0.98869721  1
  O  O53  1  0.98855718  0.74765252  0.51130279  1
  O  O54  1  0.01144282  0.75234748  0.01130279  1
  O  O55  1  0.51144282  0.24765252  0.48869721  1
  O  O56  1  0.23800245  0.51412253  0.54377083  1
  O  O57  1  0.73800245  0.48587747  0.95622917  1
  O  O58  1  0.26199755  0.01412253  0.45622917  1
  O  O59  1  0.76199755  0.98587747  0.04377083  1
  O  O60  1  0.76199755  0.48587747  0.45622917  1
  O  O61  1  0.26199755  0.51412253  0.04377083  1
  O  O62  1  0.73800245  0.98587747  0.54377083  1
  O  O63  1  0.23800245  0.01412253  0.95622917  1
  O  O64  1  0.76731074  0.25249812  0.25649749  1
  O  O65  1  0.26731074  0.74750188  0.24350251  1
  O  O66  1  0.73268926  0.75249812  0.74350251  1
  O  O67  1  0.23268926  0.24750188  0.75649749  1
  O  O68  1  0.23268926  0.74750188  0.74350251  1
  O  O69  1  0.73268926  0.25249812  0.75649749  1
  O  O70  1  0.26731074  0.24750188  0.25649749  1
  O  O71  1  0.76731074  0.75249812  0.24350251  1
  O  O72  1  0.99973123  0.45718316  0.25599419  1
  O  O73  1  0.49973123  0.54281684  0.24400581  1
  O  O74  1  0.50026877  0.95718316  0.74400581  1
  O  O75  1  0.00026877  0.04281684  0.75599419  1
  O  O76  1  0.00026877  0.54281684  0.74400581  1
  O  O77  1  0.50026877  0.45718316  0.75599419  1
  O  O78  1  0.49973123  0.04281684  0.25599419  1
  O  O79  1  0.99973123  0.95718316  0.24400581  1
