# generated using pymatgen
data_K4As2Se5
_symmetry_space_group_name_H-M   'P 1'
_cell_length_a   22.97498946
_cell_length_b   7.70346213
_cell_length_c   9.68291200
_cell_angle_alpha   57.73404111
_cell_angle_beta   90.00000000
_cell_angle_gamma   90.00000000
_symmetry_Int_Tables_number   1
_chemical_formula_structural   K4As2Se5
_chemical_formula_sum   'K16 As8 Se20'
_cell_volume   1449.11058329
_cell_formula_units_Z   4
loop_
 _symmetry_equiv_pos_site_id
 _symmetry_equiv_pos_as_xyz
  1  'x, y, z'
loop_
 _atom_site_type_symbol
 _atom_site_label
 _atom_site_symmetry_multiplicity
 _atom_site_fract_x
 _atom_site_fract_y
 _atom_site_fract_z
 _atom_site_occupancy
  K  K0  1  0.54124309  0.75089767  0.49509325  1
  K  K1  1  0.95875691  0.75089767  0.99509325  1
  K  K2  1  0.45875691  0.24910233  0.50490675  1
  K  K3  1  0.04124309  0.24910233  0.00490675  1
  K  K4  1  0.75492311  0.74731565  0.49653881  1
  K  K5  1  0.74507689  0.74731565  0.99653881  1
  K  K6  1  0.24507689  0.25268435  0.50346119  1
  K  K7  1  0.25492311  0.25268435  0.00346119  1
  K  K8  1  0.54731967  0.75073835  0.99768163  1
  K  K9  1  0.95268033  0.75073835  0.49768163  1
  K  K10  1  0.45268033  0.24926165  0.00231837  1
  K  K11  1  0.04731967  0.24926165  0.50231837  1
  K  K12  1  0.65545981  0.23359352  0.50861875  1
  K  K13  1  0.84454019  0.23359352  0.00861875  1
  K  K14  1  0.34454019  0.76640648  0.49138125  1
  K  K15  1  0.15545981  0.76640648  0.99138125  1
  As  As16  1  0.64321496  0.15674171  0.13905465  1
  As  As17  1  0.85678504  0.15674171  0.63905465  1
  As  As18  1  0.35678504  0.84325829  0.86094535  1
  As  As19  1  0.14321496  0.84325829  0.36094535  1
  As  As20  1  0.64855854  0.35545773  0.82814041  1
  As  As21  1  0.85144146  0.35545773  0.32814041  1
  As  As22  1  0.35144146  0.64454227  0.17185959  1
  As  As23  1  0.14855854  0.64454227  0.67185959  1
  Se  Se24  1  0.64380014  0.80842902  0.23010820  1
  Se  Se25  1  0.85619986  0.80842902  0.73010820  1
  Se  Se26  1  0.35619986  0.19157098  0.76989180  1
  Se  Se27  1  0.14380014  0.19157098  0.26989180  1
  Se  Se28  1  0.72991978  0.23873196  0.22031170  1
  Se  Se29  1  0.77008022  0.23873196  0.72031170  1
  Se  Se30  1  0.27008022  0.76126804  0.77968830  1
  Se  Se31  1  0.22991978  0.76126804  0.27968830  1
  Se  Se32  1  0.56224996  0.24229285  0.23945423  1
  Se  Se33  1  0.93775004  0.24229285  0.73945423  1
  Se  Se34  1  0.43775004  0.75770715  0.76054577  1
  Se  Se35  1  0.06224996  0.75770715  0.26054577  1
  Se  Se36  1  0.64214452  0.69537017  0.76144839  1
  Se  Se37  1  0.85785548  0.69537017  0.26144839  1
  Se  Se38  1  0.35785548  0.30462983  0.23855161  1
  Se  Se39  1  0.14214452  0.30462983  0.73855161  1
  Se  Se40  1  0.55984760  0.26378457  0.76103244  1
  Se  Se41  1  0.94015240  0.26378457  0.26103244  1
  Se  Se42  1  0.44015240  0.73621543  0.23896756  1
  Se  Se43  1  0.05984760  0.73621543  0.73896756  1
