# generated using pymatgen
data_Sr4Mg(SO4)4
_symmetry_space_group_name_H-M   'P 1'
_cell_length_a   5.22465367
_cell_length_b   4.68794138
_cell_length_c   17.49813761
_cell_angle_alpha   88.16037897
_cell_angle_beta   90.00000000
_cell_angle_gamma   90.00000000
_symmetry_Int_Tables_number   1
_chemical_formula_structural   Sr4Mg(SO4)4
_chemical_formula_sum   'Sr4 Mg1 S4 O16'
_cell_volume   428.35872271
_cell_formula_units_Z   1
loop_
 _symmetry_equiv_pos_site_id
 _symmetry_equiv_pos_as_xyz
  1  'x, y, z'
loop_
 _atom_site_type_symbol
 _atom_site_label
 _atom_site_symmetry_multiplicity
 _atom_site_fract_x
 _atom_site_fract_y
 _atom_site_fract_z
 _atom_site_occupancy
  Sr  Sr0  1  0.25000000  0.27831382  0.58103378  1
  Sr  Sr1  1  0.25000000  0.26760426  0.17925142  1
  Sr  Sr2  1  0.75000000  0.72438018  0.41848179  1
  Sr  Sr3  1  0.75000000  0.75116251  0.82067102  1
  Mg  Mg4  1  0.25000000  0.77334237  0.99810505  1
  S  S5  1  0.25000000  0.31376797  0.80182107  1
  S  S6  1  0.25000000  0.16707020  0.39363533  1
  S  S7  1  0.75000000  0.70446980  0.19671184  1
  S  S8  1  0.75000000  0.83541758  0.60570259  1
  O  O9  1  0.75000000  0.38633162  0.19042100  1
  O  O10  1  0.75000000  0.15242283  0.60626970  1
  O  O11  1  0.25000000  0.63339159  0.80724748  1
  O  O12  1  0.25000000  0.85019280  0.39241532  1
  O  O13  1  0.75000000  0.70742655  0.68329387  1
  O  O14  1  0.75000000  0.78615655  0.27748661  1
  O  O15  1  0.25000000  0.29732029  0.31625136  1
  O  O16  1  0.25000000  0.23059274  0.72112427  1
  O  O17  1  0.01285941  0.20755353  0.84128580  1
  O  O18  1  0.48268867  0.25744146  0.43738425  1
  O  O19  1  0.51246124  0.81259060  0.15749701  1
  O  O20  1  0.98252202  0.74412158  0.56192668  1
  O  O21  1  0.98753876  0.81259060  0.15749701  1
  O  O22  1  0.51747798  0.74412158  0.56192668  1
  O  O23  1  0.48714059  0.20755353  0.84128580  1
  O  O24  1  0.01731133  0.25744146  0.43738425  1
