# generated using pymatgen
data_Li6Zn3(PS4)4
_symmetry_space_group_name_H-M   'P 1'
_cell_length_a   9.32525196
_cell_length_b   11.59459412
_cell_length_c   23.16992679
_cell_angle_alpha   90.03264267
_cell_angle_beta   89.97320037
_cell_angle_gamma   89.99767350
_symmetry_Int_Tables_number   1
_chemical_formula_structural   Li6Zn3(PS4)4
_chemical_formula_sum   'Li24 Zn12 P16 S64'
_cell_volume   2505.18999659
_cell_formula_units_Z   4
loop_
 _symmetry_equiv_pos_site_id
 _symmetry_equiv_pos_as_xyz
  1  'x, y, z'
loop_
 _atom_site_type_symbol
 _atom_site_label
 _atom_site_symmetry_multiplicity
 _atom_site_fract_x
 _atom_site_fract_y
 _atom_site_fract_z
 _atom_site_occupancy
  Li  Li0  1  0.74757634  0.00112157  0.87856749  1
  Li  Li1  1  0.25460313  0.74992124  0.75050996  1
  Li  Li2  1  0.24916061  0.25126622  0.75243109  1
  Li  Li3  1  0.24792055  0.75282542  0.99845283  1
  Li  Li4  1  0.50106931  0.49969228  0.25010009  1
  Li  Li5  1  0.50182065  0.99889942  0.25084899  1
  Li  Li6  1  0.50330057  0.50219061  0.49977527  1
  Li  Li7  1  0.49969854  0.99849092  0.49924492  1
  Li  Li8  1  0.00251695  0.75133103  0.37440881  1
  Li  Li9  1  0.00081671  0.25018521  0.37478521  1
  Li  Li10  1  0.50823456  0.50133382  0.75089224  1
  Li  Li11  1  0.50815899  0.99920443  0.74804597  1
  Li  Li12  1  0.99598451  0.75167879  0.62223520  1
  Li  Li13  1  0.99401501  0.25178578  0.62276608  1
  Li  Li14  1  0.50220483  0.49708227  0.99969569  1
  Li  Li15  1  0.50146976  0.00280713  0.00160144  1
  Li  Li16  1  0.99409357  0.74632036  0.87607540  1
  Li  Li17  1  0.99472134  0.25077324  0.87718561  1
  Li  Li18  1  0.99634134  0.75045587  0.12710857  1
  Li  Li19  1  0.00318171  0.24750160  0.12483217  1
  Li  Li20  1  0.50580170  0.74947830  0.62369967  1
  Li  Li21  1  0.50013836  0.25284922  0.87708303  1
  Li  Li22  1  0.50492735  0.74885998  0.87470073  1
  Li  Li23  1  0.99895163  0.00253293  0.00127470  1
  Zn  Zn24  1  0.50090872  0.24822580  0.12450998  1
  Zn  Zn25  1  0.50533891  0.74946171  0.12567073  1
  Zn  Zn26  1  0.49929461  0.24960327  0.37465409  1
  Zn  Zn27  1  0.50026876  0.75071527  0.37553474  1
  Zn  Zn28  1  0.99929483  0.50042053  0.25045880  1
  Zn  Zn29  1  0.99978323  0.99958640  0.24961440  1
  Zn  Zn30  1  0.50484754  0.25041642  0.62362720  1
  Zn  Zn31  1  0.99810868  0.50056984  0.49874240  1
  Zn  Zn32  1  0.99799434  0.99821405  0.49959520  1
  Zn  Zn33  1  0.98825094  0.50103509  0.74999115  1
  Zn  Zn34  1  0.99476411  0.00006128  0.74966619  1
  Zn  Zn35  1  0.99151667  0.49786347  0.99970479  1
  P  P36  1  0.75010337  0.24999967  0.24989330  1
  P  P37  1  0.75002306  0.74968325  0.25037200  1
  P  P38  1  0.74991153  0.25029525  0.49960705  1
  P  P39  1  0.75030408  0.74622277  0.49908138  1
  P  P40  1  0.25037624  0.49998220  0.37509645  1
  P  P41  1  0.25007849  0.00030885  0.37499549  1
  P  P42  1  0.75162320  0.24553124  0.74979990  1
  P  P43  1  0.74612443  0.75040126  0.75009589  1
  P  P44  1  0.24973700  0.49880658  0.62749886  1
  P  P45  1  0.24934088  0.00143647  0.62349774  1
  P  P46  1  0.74666610  0.25425205  0.99826904  1
  P  P47  1  0.75296168  0.75359878  0.00229726  1
  P  P48  1  0.24642807  0.50044695  0.87486387  1
  P  P49  1  0.25356474  0.99469820  0.87390981  1
  P  P50  1  0.25289990  0.50069123  0.12490812  1
  P  P51  1  0.24780685  0.00347968  0.12542701  1
  S  S52  1  0.86956226  0.35727751  0.05224936  1
  S  S53  1  0.87238459  0.85645808  0.05356127  1
  S  S54  1  0.86468316  0.36140189  0.30208109  1
  S  S55  1  0.86458585  0.86135042  0.30214024  1
  S  S56  1  0.36460691  0.61280073  0.17705801  1
  S  S57  1  0.37201039  0.10760627  0.17753188  1
  S  S58  1  0.86256719  0.36292804  0.55158983  1
  S  S59  1  0.86306781  0.86088154  0.55108460  1
  S  S60  1  0.36438013  0.61132999  0.42719726  1
  S  S61  1  0.36435582  0.11182206  0.42710161  1
  S  S62  1  0.86503262  0.35746996  0.80216151  1
  S  S63  1  0.87166566  0.85955221  0.80341921  1
  S  S64  1  0.36890257  0.60632834  0.67867613  1
  S  S65  1  0.36743184  0.11281317  0.67737877  1
  S  S66  1  0.36652811  0.60739042  0.92582575  1
  S  S67  1  0.36836493  0.10189703  0.92460563  1
  S  S68  1  0.63461420  0.64610834  0.30582993  1
  S  S69  1  0.63652242  0.14595678  0.30599069  1
  S  S70  1  0.63876906  0.64383503  0.55350745  1
  S  S71  1  0.63694371  0.14480371  0.55547342  1
  S  S72  1  0.13641163  0.89621343  0.43097370  1
  S  S73  1  0.13673659  0.39542843  0.43098312  1
  S  S74  1  0.63876617  0.64533067  0.80460145  1
  S  S75  1  0.63030167  0.14517232  0.80383830  1
  S  S76  1  0.13047091  0.89687134  0.68029428  1
  S  S77  1  0.12512716  0.39309975  0.68141481  1
  S  S78  1  0.62829967  0.64670406  0.05366075  1
  S  S79  1  0.63686320  0.14761802  0.05506186  1
  S  S80  1  0.12510785  0.89395483  0.92568779  1
  S  S81  1  0.12833798  0.39648661  0.92854621  1
  S  S82  1  0.13738990  0.89596128  0.18110034  1
  S  S83  1  0.13424305  0.39854138  0.17961407  1
  S  S84  1  0.86465361  0.13867424  0.19789290  1
  S  S85  1  0.86313609  0.63744265  0.19826583  1
  S  S86  1  0.86508680  0.13912477  0.44790727  1
  S  S87  1  0.87141492  0.64031216  0.44607608  1
  S  S88  1  0.36447055  0.38854372  0.32286312  1
  S  S89  1  0.36406404  0.88840275  0.32309894  1
  S  S90  1  0.86905304  0.13920076  0.69629700  1
  S  S91  1  0.87248344  0.64584353  0.69780543  1
  S  S92  1  0.36460989  0.38931441  0.57483740  1
  S  S93  1  0.36522374  0.89398975  0.57408580  1
  S  S94  1  0.86575975  0.14261743  0.94772855  1
  S  S95  1  0.86285819  0.63988446  0.94863697  1
  S  S96  1  0.36672119  0.39478199  0.82263981  1
  S  S97  1  0.37300930  0.89147080  0.81975391  1
  S  S98  1  0.36522398  0.38946757  0.07277521  1
  S  S99  1  0.36869308  0.88877243  0.07365669  1
  S  S100  1  0.63528238  0.35366803  0.19426211  1
  S  S101  1  0.63705832  0.85448217  0.19460166  1
  S  S102  1  0.63424624  0.35361731  0.44431865  1
  S  S103  1  0.63761892  0.85329698  0.44360517  1
  S  S104  1  0.13638921  0.60391905  0.31919878  1
  S  S105  1  0.13514708  0.10384230  0.31930341  1
  S  S106  1  0.63499431  0.35108928  0.69545765  1
  S  S107  1  0.63664050  0.85432856  0.69572593  1
  S  S108  1  0.13325114  0.60044670  0.57194105  1
  S  S109  1  0.12786401  0.10548979  0.57120040  1
  S  S110  1  0.63388478  0.35892054  0.94561490  1
  S  S111  1  0.63106511  0.85497581  0.94752052  1
  S  S112  1  0.12461303  0.60561201  0.81961451  1
  S  S113  1  0.12614842  0.10299289  0.82058524  1
  S  S114  1  0.13050418  0.60412049  0.06921832  1
  S  S115  1  0.13876380  0.10536976  0.07056843  1
