# generated using pymatgen
data_TlPbF7
_symmetry_space_group_name_H-M   'P 1'
_cell_length_a   5.45836889
_cell_length_b   8.78850250
_cell_length_c   11.32053380
_cell_angle_alpha   106.19800189
_cell_angle_beta   90.00000000
_cell_angle_gamma   90.00000000
_symmetry_Int_Tables_number   1
_chemical_formula_structural   TlPbF7
_chemical_formula_sum   'Tl4 Pb4 F28'
_cell_volume   521.49859465
_cell_formula_units_Z   4
loop_
 _symmetry_equiv_pos_site_id
 _symmetry_equiv_pos_as_xyz
  1  'x, y, z'
loop_
 _atom_site_type_symbol
 _atom_site_label
 _atom_site_symmetry_multiplicity
 _atom_site_fract_x
 _atom_site_fract_y
 _atom_site_fract_z
 _atom_site_occupancy
  Tl  Tl0  1  0.73792128  0.92036273  0.73389111  1
  Tl  Tl1  1  0.26207872  0.07963727  0.26610889  1
  Tl  Tl2  1  0.23792128  0.57963727  0.76610889  1
  Tl  Tl3  1  0.76207872  0.42036273  0.23389111  1
  Pb  Pb4  1  0.23440747  0.22726520  0.95910816  1
  Pb  Pb5  1  0.76559253  0.77273480  0.04089184  1
  Pb  Pb6  1  0.73440747  0.27273480  0.54089184  1
  Pb  Pb7  1  0.26559253  0.72726520  0.45910816  1
  F  F8  1  0.06389458  0.88789685  0.59139864  1
  F  F9  1  0.93610542  0.11210315  0.40860136  1
  F  F10  1  0.56389458  0.61210315  0.90860136  1
  F  F11  1  0.43610542  0.38789685  0.09139864  1
  F  F12  1  0.53326453  0.14473393  0.84682220  1
  F  F13  1  0.46673547  0.85526607  0.15317780  1
  F  F14  1  0.03326453  0.35526607  0.65317780  1
  F  F15  1  0.96673547  0.64473393  0.34682220  1
  F  F16  1  0.03867873  0.08325663  0.80932538  1
  F  F17  1  0.96132127  0.91674337  0.19067462  1
  F  F18  1  0.53867873  0.41674337  0.69067462  1
  F  F19  1  0.46132127  0.58325663  0.30932538  1
  F  F20  1  0.16754745  0.41012836  0.87939366  1
  F  F21  1  0.83245255  0.58987164  0.12060634  1
  F  F22  1  0.66754745  0.08987164  0.62060634  1
  F  F23  1  0.33245255  0.91012836  0.37939366  1
  F  F24  1  0.10548887  0.71884860  0.95470822  1
  F  F25  1  0.89451113  0.28115140  0.04529178  1
  F  F26  1  0.60548887  0.78115140  0.54529178  1
  F  F27  1  0.39451113  0.21884860  0.45470822  1
  F  F28  1  0.24640394  0.55744716  0.55414636  1
  F  F29  1  0.75359606  0.44255284  0.44585364  1
  F  F30  1  0.74640394  0.94255284  0.94585364  1
  F  F31  1  0.25359606  0.05744716  0.05414636  1
  F  F32  1  0.39343911  0.80953353  0.76630417  1
  F  F33  1  0.60656089  0.19046647  0.23369583  1
  F  F34  1  0.89343911  0.69046647  0.73369583  1
  F  F35  1  0.10656089  0.30953353  0.26630417  1
