# generated using pymatgen
data_SmPaO4
_symmetry_space_group_name_H-M   'P 1'
_cell_length_a   6.62991123
_cell_length_b   6.62991123
_cell_length_c   6.62991123
_cell_angle_alpha   131.52987206
_cell_angle_beta   131.52987206
_cell_angle_gamma   70.97256407
_symmetry_Int_Tables_number   1
_chemical_formula_structural   SmPaO4
_chemical_formula_sum   'Sm2 Pa2 O8'
_cell_volume   159.92993806
_cell_formula_units_Z   2
loop_
 _symmetry_equiv_pos_site_id
 _symmetry_equiv_pos_as_xyz
  1  'x, y, z'
loop_
 _atom_site_type_symbol
 _atom_site_label
 _atom_site_symmetry_multiplicity
 _atom_site_fract_x
 _atom_site_fract_y
 _atom_site_fract_z
 _atom_site_occupancy
  Sm  Sm0  1  -0.00000000  0.00000000  0.00000000  1
  Sm  Sm1  1  0.75000000  0.25000000  0.50000000  1
  Pa  Pa2  1  0.50000000  0.50000000  0.00000000  1
  Pa  Pa3  1  0.25000000  0.75000000  0.50000000  1
  O  O4  1  0.60883673  0.12500000  0.98383673  1
  O  O5  1  0.87500000  0.39116327  0.01616327  1
  O  O6  1  0.37500000  0.39116327  0.51616327  1
  O  O7  1  0.14116327  0.62500000  0.01616327  1
  O  O8  1  0.37500000  0.85883673  0.98383673  1
  O  O9  1  0.87500000  0.85883673  0.48383673  1
  O  O10  1  0.14116327  0.12500000  0.51616327  1
  O  O11  1  0.60883673  0.62500000  0.48383673  1
