# generated using pymatgen
data_ScTl3F6
_symmetry_space_group_name_H-M   'P 1'
_cell_length_a   6.34323017
_cell_length_b   6.34323017
_cell_length_c   9.39503009
_cell_angle_alpha   90.00000000
_cell_angle_beta   90.00000000
_cell_angle_gamma   90.00000000
_symmetry_Int_Tables_number   1
_chemical_formula_structural   ScTl3F6
_chemical_formula_sum   'Sc2 Tl6 F12'
_cell_volume   378.02377638
_cell_formula_units_Z   2
loop_
 _symmetry_equiv_pos_site_id
 _symmetry_equiv_pos_as_xyz
  1  'x, y, z'
loop_
 _atom_site_type_symbol
 _atom_site_label
 _atom_site_symmetry_multiplicity
 _atom_site_fract_x
 _atom_site_fract_y
 _atom_site_fract_z
 _atom_site_occupancy
  Sc  Sc0  1  -0.00000000  0.00000000  -0.00000000  1
  Sc  Sc1  1  0.50000000  0.50000000  0.50000000  1
  Tl  Tl2  1  -0.00000000  0.50000000  0.25000000  1
  Tl  Tl3  1  -0.00000000  0.50000000  0.75000000  1
  Tl  Tl4  1  0.50000000  0.00000000  0.25000000  1
  Tl  Tl5  1  0.50000000  0.00000000  0.75000000  1
  Tl  Tl6  1  -0.00000000  0.00000000  0.50000000  1
  Tl  Tl7  1  0.50000000  0.50000000  -0.00000000  1
  F  F8  1  0.13006877  0.29144008  -0.00000000  1
  F  F9  1  0.86993123  0.70855992  0.00000000  1
  F  F10  1  0.70855992  0.13006877  0.00000000  1
  F  F11  1  0.36993123  0.79144008  0.50000000  1
  F  F12  1  0.29144008  0.86993123  0.00000000  1
  F  F13  1  0.63006877  0.20855992  0.50000000  1
  F  F14  1  0.79144008  0.63006877  0.50000000  1
  F  F15  1  0.20855992  0.36993123  0.50000000  1
  F  F16  1  -0.00000000  0.00000000  0.21577991  1
  F  F17  1  -0.00000000  0.00000000  0.78422009  1
  F  F18  1  0.50000000  0.50000000  0.28422009  1
  F  F19  1  0.50000000  0.50000000  0.71577991  1
