# generated using pymatgen
data_Ba2ZnAs2
_symmetry_space_group_name_H-M   'P 1'
_cell_length_a   8.29456281
_cell_length_b   8.29456281
_cell_length_c   8.29456281
_cell_angle_alpha   133.10755886
_cell_angle_beta   130.51143489
_cell_angle_gamma   70.55086478
_symmetry_Int_Tables_number   1
_chemical_formula_structural   Ba2ZnAs2
_chemical_formula_sum   'Ba4 Zn2 As4'
_cell_volume   310.35861727
_cell_formula_units_Z   2
loop_
 _symmetry_equiv_pos_site_id
 _symmetry_equiv_pos_as_xyz
  1  'x, y, z'
loop_
 _atom_site_type_symbol
 _atom_site_label
 _atom_site_symmetry_multiplicity
 _atom_site_fract_x
 _atom_site_fract_y
 _atom_site_fract_z
 _atom_site_occupancy
  Ba  Ba0  1  0.66526242  0.86105722  0.80420520  1
  Ba  Ba1  1  0.33473758  0.13894278  0.19579480  1
  Ba  Ba2  1  0.94314698  0.63894278  0.30420520  1
  Ba  Ba3  1  0.05685302  0.36105722  0.69579480  1
  Zn  Zn4  1  0.50000000  0.25000000  0.75000000  1
  Zn  Zn5  1  0.50000000  0.75000000  0.25000000  1
  As  As6  1  0.40700252  0.60698428  0.80001624  1
  As  As7  1  0.59299748  0.39301572  0.19998376  1
  As  As8  1  0.19303196  0.89301572  0.30001624  1
  As  As9  1  0.80696804  0.10698428  0.69998376  1
