# generated using pymatgen
data_Er4OsBr4
_symmetry_space_group_name_H-M   'P 1'
_cell_length_a   8.78699116
_cell_length_b   8.78699116
_cell_length_c   6.50703037
_cell_angle_alpha   89.44791551
_cell_angle_beta   89.44791551
_cell_angle_gamma   89.29078503
_symmetry_Int_Tables_number   1
_chemical_formula_structural   Er4OsBr4
_chemical_formula_sum   'Er8 Os2 Br8'
_cell_volume   502.33114849
_cell_formula_units_Z   2
loop_
 _symmetry_equiv_pos_site_id
 _symmetry_equiv_pos_as_xyz
  1  'x, y, z'
loop_
 _atom_site_type_symbol
 _atom_site_label
 _atom_site_symmetry_multiplicity
 _atom_site_fract_x
 _atom_site_fract_y
 _atom_site_fract_z
 _atom_site_occupancy
  Er  Er0  1  0.24947938  0.90060565  0.01108546  1
  Er  Er1  1  0.75052062  0.09939435  0.98891454  1
  Er  Er2  1  0.09939435  0.75052062  0.48891454  1
  Er  Er3  1  0.90060565  0.24947938  0.51108546  1
  Er  Er4  1  0.75182950  0.90238919  0.50952935  1
  Er  Er5  1  0.24817050  0.09761081  0.49047065  1
  Er  Er6  1  0.09761081  0.24817050  0.99047065  1
  Er  Er7  1  0.90238919  0.75182950  0.00952935  1
  Os  Os8  1  0.99432136  0.00567864  0.25000000  1
  Os  Os9  1  0.00567864  0.99432136  0.75000000  1
  Br  Br10  1  0.42176748  0.81596377  0.40590107  1
  Br  Br11  1  0.57823252  0.18403623  0.59409893  1
  Br  Br12  1  0.18403623  0.57823252  0.09409893  1
  Br  Br13  1  0.81596377  0.42176748  0.90590107  1
  Br  Br14  1  0.41674622  0.19206170  0.09645020  1
  Br  Br15  1  0.58325378  0.80793830  0.90354980  1
  Br  Br16  1  0.80793830  0.58325378  0.40354980  1
  Br  Br17  1  0.19206170  0.41674622  0.59645020  1
