# generated using pymatgen
data_Ta3NO6
_symmetry_space_group_name_H-M   'P 1'
_cell_length_a   10.55469597
_cell_length_b   10.55469597
_cell_length_c   11.94043734
_cell_angle_alpha   60.55833670
_cell_angle_beta   60.55833670
_cell_angle_gamma   21.07372108
_symmetry_Int_Tables_number   1
_chemical_formula_structural   Ta3NO6
_chemical_formula_sum   'Ta9 N3 O18'
_cell_volume   414.22252159
_cell_formula_units_Z   3
loop_
 _symmetry_equiv_pos_site_id
 _symmetry_equiv_pos_as_xyz
  1  'x, y, z'
loop_
 _atom_site_type_symbol
 _atom_site_label
 _atom_site_symmetry_multiplicity
 _atom_site_fract_x
 _atom_site_fract_y
 _atom_site_fract_z
 _atom_site_occupancy
  Ta  Ta0  1  0.00017843  0.00017843  0.00004240  1
  Ta  Ta1  1  0.81559418  0.81559418  0.00275495  1
  Ta  Ta2  1  0.18306575  0.18306575  0.00152787  1
  Ta  Ta3  1  0.91940007  0.91940007  0.63409376  1
  Ta  Ta4  1  0.08033167  0.08033167  0.37332088  1
  Ta  Ta5  1  0.10424044  0.10424044  0.62737151  1
  Ta  Ta6  1  0.89177391  0.89177391  0.37300375  1
  Ta  Ta7  1  0.70871328  0.70871328  0.36968061  1
  Ta  Ta8  1  0.29014132  0.29014132  0.63204693  1
  N  N9  1  0.82835370  0.82835370  0.58996292  1
  N  N10  1  0.17262742  0.17262742  0.40418602  1
  N  N11  1  0.02411424  0.02411424  0.58176182  1
  O  O12  1  0.62805678  0.62805678  0.58154256  1
  O  O13  1  0.37497714  0.37497714  0.41356525  1
  O  O14  1  0.40174129  0.40174129  0.62552067  1
  O  O15  1  0.59778840  0.59778840  0.37136526  1
  O  O16  1  0.20716996  0.20716996  0.61405974  1
  O  O17  1  0.79565656  0.79565656  0.37740651  1
  O  O18  1  0.75189912  0.75189912  0.19151654  1
  O  O19  1  0.24622025  0.24622025  0.81041810  1
  O  O20  1  0.29056544  0.29056544  0.00318711  1
  O  O21  1  0.70902953  0.70902953  0.99895980  1
  O  O22  1  0.09858315  0.09858315  0.98870353  1
  O  O23  1  0.90037109  0.90037109  0.01428955  1
  O  O24  1  0.97599486  0.97599486  0.41419861  1
  O  O25  1  0.12773090  0.12773090  0.18886860  1
  O  O26  1  0.87060165  0.87060165  0.81432064  1
  O  O27  1  0.49898588  0.49898588  0.00090685  1
  O  O28  1  0.95215547  0.95215547  0.19537097  1
  O  O29  1  0.04929116  0.04929116  0.80604428  1
