# generated using pymatgen
data_Si2SnO6
_symmetry_space_group_name_H-M   'P 1'
_cell_length_a   6.59332422
_cell_length_b   6.59332422
_cell_length_c   5.35620423
_cell_angle_alpha   75.78551778
_cell_angle_beta   75.78551778
_cell_angle_gamma   85.27606664
_symmetry_Int_Tables_number   1
_chemical_formula_structural   Si2SnO6
_chemical_formula_sum   'Si4 Sn2 O12'
_cell_volume   218.74462120
_cell_formula_units_Z   2
loop_
 _symmetry_equiv_pos_site_id
 _symmetry_equiv_pos_as_xyz
  1  'x, y, z'
loop_
 _atom_site_type_symbol
 _atom_site_label
 _atom_site_symmetry_multiplicity
 _atom_site_fract_x
 _atom_site_fract_y
 _atom_site_fract_z
 _atom_site_occupancy
  Si  Si0  1  0.78175277  0.61450312  0.26042951  1
  Si  Si1  1  0.38549688  0.21824723  0.23957049  1
  Si  Si2  1  0.61450312  0.78175277  0.76042951  1
  Si  Si3  1  0.21824723  0.38549688  0.73957049  1
  Sn  Sn4  1  0.89156508  0.10843492  0.25000000  1
  Sn  Sn5  1  0.10843492  0.89156508  0.75000000  1
  O  O6  1  0.65066364  0.63586522  0.03599146  1
  O  O7  1  0.36413478  0.34933636  0.46400854  1
  O  O8  1  0.34933636  0.36413478  0.96400854  1
  O  O9  1  0.63586522  0.65066364  0.53599146  1
  O  O10  1  0.90190685  0.39283929  0.30258983  1
  O  O11  1  0.60716071  0.09809315  0.19741017  1
  O  O12  1  0.09809315  0.60716071  0.69741017  1
  O  O13  1  0.39283929  0.90190685  0.80258983  1
  O  O14  1  0.81184651  0.94901540  0.64593360  1
  O  O15  1  0.05098460  0.18815349  0.85406640  1
  O  O16  1  0.94901540  0.81184651  0.14593360  1
  O  O17  1  0.18815349  0.05098460  0.35406640  1
