# generated using pymatgen
data_Sr2Mg(H4O3)2
_symmetry_space_group_name_H-M   'P 1'
_cell_length_a   3.68598402
_cell_length_b   6.52046673
_cell_length_c   9.02988849
_cell_angle_alpha   84.22688943
_cell_angle_beta   86.61827523
_cell_angle_gamma   93.61321342
_symmetry_Int_Tables_number   1
_chemical_formula_structural   Sr2Mg(H4O3)2
_chemical_formula_sum   'Sr2 Mg1 H8 O6'
_cell_volume   215.03051290
_cell_formula_units_Z   1
loop_
 _symmetry_equiv_pos_site_id
 _symmetry_equiv_pos_as_xyz
  1  'x, y, z'
loop_
 _atom_site_type_symbol
 _atom_site_label
 _atom_site_symmetry_multiplicity
 _atom_site_fract_x
 _atom_site_fract_y
 _atom_site_fract_z
 _atom_site_occupancy
  Sr  Sr0  1  0.03542400  0.65023000  0.77115000  1
  Sr  Sr1  1  0.99613100  0.28773600  0.10974700  1
  Mg  Mg2  1  0.66775100  0.59498900  0.38634000  1
  H  H3  1  0.24383300  0.11606400  0.80112400  1
  H  H4  1  0.81897700  0.10567300  0.80179000  1
  H  H5  1  0.67279900  0.97836900  0.34844600  1
  H  H6  1  0.08731300  0.95297300  0.36772000  1
  H  H7  1  0.60141700  0.97707400  0.63189200  1
  H  H8  1  0.42761700  0.90734900  0.17764500  1
  H  H9  1  0.49089900  0.37560400  0.62378600  1
  H  H10  1  0.52941300  0.60055200  0.06348700  1
  O  O11  1  0.03214600  0.19202700  0.83929000  1
  O  O12  1  0.84627800  0.90997000  0.42214100  1
  O  O13  1  0.53933700  0.94654800  0.73915600  1
  O  O14  1  0.43889600  0.04441900  0.21521200  1
  O  O15  1  0.55001100  0.52441300  0.60613600  1
  O  O16  1  0.52175800  0.52351000  0.97414600  1
