# generated using pymatgen
data_Na3Mo(OF)3
_symmetry_space_group_name_H-M   'P 1'
_cell_length_a   5.80614613
_cell_length_b   5.80614595
_cell_length_c   5.80614606
_cell_angle_alpha   57.29251827
_cell_angle_beta   57.29251842
_cell_angle_gamma   57.29251490
_symmetry_Int_Tables_number   1
_chemical_formula_structural   Na3Mo(OF)3
_chemical_formula_sum   'Na3 Mo1 O3 F3'
_cell_volume   129.77639493
_cell_formula_units_Z   1
loop_
 _symmetry_equiv_pos_site_id
 _symmetry_equiv_pos_as_xyz
  1  'x, y, z'
loop_
 _atom_site_type_symbol
 _atom_site_label
 _atom_site_symmetry_multiplicity
 _atom_site_fract_x
 _atom_site_fract_y
 _atom_site_fract_z
 _atom_site_occupancy
  Na  Na0  1  0.77398223  0.77398223  0.77398023  1
  Na  Na1  1  0.49007933  0.49007933  0.49007933  1
  Na  Na2  1  0.27237372  0.27237372  0.27237472  1
  Mo  Mo3  1  -0.00022325  -0.00022325  -0.00022325  1
  O  O4  1  0.31132043  0.74534402  0.09397635  1
  O  O5  1  0.09397635  0.31132043  0.74534302  1
  O  O6  1  0.74534302  0.09397635  0.31132143  1
  F  F7  1  0.64021018  0.17593014  0.87120784  1
  F  F8  1  0.17593014  0.87120784  0.64020918  1
  F  F9  1  0.87120684  0.64020918  0.17593114  1
