# generated using pymatgen
data_ZnGa2(TeO3)4
_symmetry_space_group_name_H-M   'P 1'
_cell_length_a   9.17865260
_cell_length_b   9.17865260
_cell_length_c   9.17865260
_cell_angle_alpha   109.75573610
_cell_angle_beta   109.75573610
_cell_angle_gamma   108.90367606
_symmetry_Int_Tables_number   1
_chemical_formula_structural   ZnGa2(TeO3)4
_chemical_formula_sum   'Zn2 Ga4 Te8 O24'
_cell_volume   595.22749638
_cell_formula_units_Z   2
loop_
 _symmetry_equiv_pos_site_id
 _symmetry_equiv_pos_as_xyz
  1  'x, y, z'
loop_
 _atom_site_type_symbol
 _atom_site_label
 _atom_site_symmetry_multiplicity
 _atom_site_fract_x
 _atom_site_fract_y
 _atom_site_fract_z
 _atom_site_occupancy
  Zn  Zn0  1  0.50000000  0.50000000  -0.00000000  1
  Zn  Zn1  1  0.25000000  0.75000000  0.50000000  1
  Ga  Ga2  1  0.99396495  0.62500000  0.86896495  1
  Ga  Ga3  1  0.75603505  0.12500000  0.13103505  1
  Ga  Ga4  1  0.87500000  0.00603505  0.63103505  1
  Ga  Ga5  1  0.37500000  0.24396495  0.36896495  1
  Te  Te6  1  0.91016258  0.87209885  0.25973004  1
  Te  Te7  1  0.83983742  0.59956746  0.46193628  1
  Te  Te8  1  0.13763219  0.37790115  0.53806372  1
  Te  Te9  1  0.61236781  0.65043254  0.74026996  1
  Te  Te10  1  0.40043254  0.86236781  0.24026996  1
  Te  Te11  1  0.34956746  0.08983742  0.96193628  1
  Te  Te12  1  0.62209885  0.16016258  0.75973004  1
  Te  Te13  1  0.12790115  0.38763219  0.03806372  1
  O  O14  1  0.71590945  0.68296703  0.22423232  1
  O  O15  1  0.03409055  0.75832287  0.46705758  1
  O  O16  1  0.29126530  0.56703297  0.53294242  1
  O  O17  1  0.45873470  0.49167713  0.77576768  1
  O  O18  1  0.21155126  0.82918137  0.03890766  1
  O  O19  1  0.53844874  0.07735640  0.11762911  1
  O  O20  1  0.79027372  0.17264360  0.96109234  1
  O  O21  1  0.95972628  0.42081863  0.88237089  1
  O  O22  1  0.93138662  0.33238134  0.34202508  1
  O  O23  1  0.99035626  0.58936153  0.65797492  1
  O  O24  1  0.81861338  0.66063847  0.90099472  1
  O  O25  1  0.75964374  0.91761866  0.09900528  1
  O  O26  1  0.08238134  0.18138662  0.84202508  1
  O  O27  1  0.33936153  0.24035626  0.15797492  1
  O  O28  1  0.41063847  0.06861338  0.40099472  1
  O  O29  1  0.66761866  0.00964374  0.59900528  1
  O  O30  1  0.57918137  0.46155126  0.53890766  1
  O  O31  1  0.82735640  0.78844874  0.61762911  1
  O  O32  1  0.92264360  0.04027372  0.46109234  1
  O  O33  1  0.17081863  0.20972628  0.38237089  1
  O  O34  1  0.43296703  0.96590945  0.72423232  1
  O  O35  1  0.50832287  0.28409055  0.96705758  1
  O  O36  1  0.31703297  0.54126530  0.03294242  1
  O  O37  1  0.24167713  0.70873470  0.27576768  1
