# generated using pymatgen
data_Ba3Mn2O8
_symmetry_space_group_name_H-M   'P 1'
_cell_length_a   5.73059101
_cell_length_b   9.92431753
_cell_length_c   7.91969428
_cell_angle_alpha   102.05204713
_cell_angle_beta   68.79539252
_cell_angle_gamma   89.99180452
_symmetry_Int_Tables_number   1
_chemical_formula_structural   Ba3Mn2O8
_chemical_formula_sum   'Ba6 Mn4 O16'
_cell_volume   409.24304517
_cell_formula_units_Z   2
loop_
 _symmetry_equiv_pos_site_id
 _symmetry_equiv_pos_as_xyz
  1  'x, y, z'
loop_
 _atom_site_type_symbol
 _atom_site_label
 _atom_site_symmetry_multiplicity
 _atom_site_fract_x
 _atom_site_fract_y
 _atom_site_fract_z
 _atom_site_occupancy
  Ba  Ba0  1  0.50000072  0.49999938  -0.00000044  1
  Ba  Ba1  1  0.00000078  -0.00000038  -0.00000038  1
  Ba  Ba2  1  0.31037228  0.89653771  0.37928786  1
  Ba  Ba3  1  0.81037263  0.39653604  0.37928624  1
  Ba  Ba4  1  0.18962797  0.60346285  0.62071365  1
  Ba  Ba5  1  0.68962825  0.10346152  0.62071295  1
  Mn  Mn6  1  0.61111982  0.79633473  0.77787484  1
  Mn  Mn7  1  0.38888131  0.20366343  0.22212811  1
  Mn  Mn8  1  0.11112246  0.29632887  0.77786899  1
  Mn  Mn9  1  0.88887912  0.70366874  0.22213296  1
  O  O10  1  0.49440358  0.83515123  0.01114228  1
  O  O11  1  0.99440503  0.33514158  0.01113863  1
  O  O12  1  0.00559287  0.66485965  0.98886343  1
  O  O13  1  0.50559626  0.16485088  0.98885873  1
  O  O14  1  0.08934156  0.63690297  0.30354604  1
  O  O15  1  0.58934319  0.13689926  0.30354531  1
  O  O16  1  0.60709828  0.63688329  0.30352037  1
  O  O17  1  0.10709642  0.13688032  0.30351999  1
  O  O18  1  0.84823508  0.87799720  0.30352900  1
  O  O19  1  0.34823695  0.37799581  0.30352624  1
  O  O20  1  0.65176460  0.62200309  0.69647161  1
  O  O21  1  0.15176599  0.12200148  0.69646822  1
  O  O22  1  0.89289485  0.86312493  0.69647689  1
  O  O23  1  0.39289420  0.36312018  0.69647636  1
  O  O24  1  0.41066091  0.86309993  0.69645647  1
  O  O25  1  0.91066288  0.36309631  0.69645566  1
