# generated using pymatgen
data_Pr4(SiS4)3
_symmetry_space_group_name_H-M   'P 1'
_cell_length_a   11.45063326
_cell_length_b   11.45063326
_cell_length_c   11.45063269
_cell_angle_alpha   114.73475048
_cell_angle_beta   114.73475048
_cell_angle_gamma   114.73474962
_symmetry_Int_Tables_number   1
_chemical_formula_structural   Pr4(SiS4)3
_chemical_formula_sum   'Pr8 Si6 S24'
_cell_volume   860.21076292
_cell_formula_units_Z   2
loop_
 _symmetry_equiv_pos_site_id
 _symmetry_equiv_pos_as_xyz
  1  'x, y, z'
loop_
 _atom_site_type_symbol
 _atom_site_label
 _atom_site_symmetry_multiplicity
 _atom_site_fract_x
 _atom_site_fract_y
 _atom_site_fract_z
 _atom_site_occupancy
  Pr  Pr0  1  0.50298770  0.50298770  0.50298770  1
  Pr  Pr1  1  0.00298770  0.00298770  0.00298770  1
  Pr  Pr2  1  0.06775207  0.29294074  0.52827929  1
  Pr  Pr3  1  0.29294074  0.52827929  0.06775207  1
  Pr  Pr4  1  0.52827929  0.06775207  0.29294074  1
  Pr  Pr5  1  0.56775207  0.02827929  0.79294074  1
  Pr  Pr6  1  0.02827929  0.79294074  0.56775207  1
  Pr  Pr7  1  0.79294074  0.56775207  0.02827929  1
  Si  Si8  1  0.36060754  0.14723673  0.53240909  1
  Si  Si9  1  0.14723673  0.53240909  0.36060754  1
  Si  Si10  1  0.53240909  0.36060754  0.14723673  1
  Si  Si11  1  0.86060754  0.03240909  0.64723673  1
  Si  Si12  1  0.03240909  0.64723673  0.86060754  1
  Si  Si13  1  0.64723673  0.86060754  0.03240909  1
  S  S14  1  0.10636155  0.17999742  0.71506394  1
  S  S15  1  0.17999742  0.71506394  0.10636155  1
  S  S16  1  0.71506394  0.10636155  0.17999742  1
  S  S17  1  0.60636155  0.21506394  0.67999742  1
  S  S18  1  0.21506394  0.67999742  0.60636155  1
  S  S19  1  0.67999742  0.60636155  0.21506394  1
  S  S20  1  0.31358524  0.12756936  0.31890235  1
  S  S21  1  0.12756936  0.31890235  0.31358524  1
  S  S22  1  0.31890235  0.31358524  0.12756936  1
  S  S23  1  0.81358524  0.81890235  0.62756936  1
  S  S24  1  0.81890235  0.62756936  0.81358524  1
  S  S25  1  0.62756936  0.81358524  0.81890235  1
  S  S26  1  0.41270728  0.37741608  0.69725001  1
  S  S27  1  0.37741608  0.69725001  0.41270728  1
  S  S28  1  0.69725001  0.41270728  0.37741608  1
  S  S29  1  0.91270728  0.19725001  0.87741608  1
  S  S30  1  0.19725001  0.87741608  0.91270728  1
  S  S31  1  0.87741608  0.91270728  0.19725001  1
  S  S32  1  0.65528090  0.92271878  0.38793691  1
  S  S33  1  0.92271878  0.38793691  0.65528090  1
  S  S34  1  0.38793691  0.65528090  0.92271878  1
  S  S35  1  0.15528090  0.88793691  0.42271878  1
  S  S36  1  0.88793691  0.42271878  0.15528090  1
  S  S37  1  0.42271878  0.15528090  0.88793691  1
