# generated using pymatgen
data_Te6IrCl3
_symmetry_space_group_name_H-M   'P 1'
_cell_length_a   9.07590864
_cell_length_b   9.07590864
_cell_length_c   9.07590930
_cell_angle_alpha   107.78194172
_cell_angle_beta   107.78194172
_cell_angle_gamma   107.78193982
_symmetry_Int_Tables_number   1
_chemical_formula_structural   Te6IrCl3
_chemical_formula_sum   'Te12 Ir2 Cl6'
_cell_volume   608.84139066
_cell_formula_units_Z   2
loop_
 _symmetry_equiv_pos_site_id
 _symmetry_equiv_pos_as_xyz
  1  'x, y, z'
loop_
 _atom_site_type_symbol
 _atom_site_label
 _atom_site_symmetry_multiplicity
 _atom_site_fract_x
 _atom_site_fract_y
 _atom_site_fract_z
 _atom_site_occupancy
  Te  Te0  1  0.92169691  0.17335499  0.19032441  1
  Te  Te1  1  0.19032441  0.92169691  0.17335499  1
  Te  Te2  1  0.17335499  0.19032441  0.92169691  1
  Te  Te3  1  0.69032441  0.67335499  0.42169691  1
  Te  Te4  1  0.42169691  0.69032441  0.67335499  1
  Te  Te5  1  0.67335499  0.42169691  0.69032441  1
  Te  Te6  1  0.07830309  0.82664501  0.80967559  1
  Te  Te7  1  0.80967559  0.07830309  0.82664501  1
  Te  Te8  1  0.82664501  0.80967559  0.07830309  1
  Te  Te9  1  0.30967559  0.32664501  0.57830309  1
  Te  Te10  1  0.57830309  0.30967559  0.32664501  1
  Te  Te11  1  0.32664501  0.57830309  0.30967559  1
  Ir  Ir12  1  0.25000000  0.25000000  0.25000000  1
  Ir  Ir13  1  0.75000000  0.75000000  0.75000000  1
  Cl  Cl14  1  0.98578745  0.51421255  0.25000000  1
  Cl  Cl15  1  0.25000000  0.98578745  0.51421255  1
  Cl  Cl16  1  0.51421255  0.25000000  0.98578745  1
  Cl  Cl17  1  0.75000000  0.01421255  0.48578745  1
  Cl  Cl18  1  0.48578745  0.75000000  0.01421255  1
  Cl  Cl19  1  0.01421255  0.48578745  0.75000000  1
