# generated using pymatgen
data_RbBS2
_symmetry_space_group_name_H-M   'P 1'
_cell_length_a   9.69555218
_cell_length_b   9.69555218
_cell_length_c   9.69555084
_cell_angle_alpha   110.87839604
_cell_angle_beta   110.87839604
_cell_angle_gamma   110.87839713
_symmetry_Int_Tables_number   1
_chemical_formula_structural   RbBS2
_chemical_formula_sum   'Rb6 B6 S12'
_cell_volume   662.54379830
_cell_formula_units_Z   6
loop_
 _symmetry_equiv_pos_site_id
 _symmetry_equiv_pos_as_xyz
  1  'x, y, z'
loop_
 _atom_site_type_symbol
 _atom_site_label
 _atom_site_symmetry_multiplicity
 _atom_site_fract_x
 _atom_site_fract_y
 _atom_site_fract_z
 _atom_site_occupancy
  Rb  Rb0  1  0.25000000  0.69819306  0.80180694  1
  Rb  Rb1  1  0.80180694  0.25000000  0.69819306  1
  Rb  Rb2  1  0.69819306  0.80180694  0.25000000  1
  Rb  Rb3  1  0.75000000  0.30180694  0.19819306  1
  Rb  Rb4  1  0.19819306  0.75000000  0.30180694  1
  Rb  Rb5  1  0.30180694  0.19819306  0.75000000  1
  B  B6  1  0.25000000  0.36283880  0.13716120  1
  B  B7  1  0.13716120  0.25000000  0.36283880  1
  B  B8  1  0.36283880  0.13716120  0.25000000  1
  B  B9  1  0.75000000  0.63716120  0.86283880  1
  B  B10  1  0.86283880  0.75000000  0.63716120  1
  B  B11  1  0.63716120  0.86283880  0.75000000  1
  S  S12  1  0.86671167  0.63328833  0.75000000  1
  S  S13  1  0.63328833  0.75000000  0.86671167  1
  S  S14  1  0.75000000  0.86671167  0.63328833  1
  S  S15  1  0.13328833  0.36671167  0.25000000  1
  S  S16  1  0.36671167  0.25000000  0.13328833  1
  S  S17  1  0.25000000  0.13328833  0.36671167  1
  S  S18  1  0.52630072  0.97369928  0.75000000  1
  S  S19  1  0.97369928  0.75000000  0.52630072  1
  S  S20  1  0.75000000  0.52630072  0.97369928  1
  S  S21  1  0.47369928  0.02630072  0.25000000  1
  S  S22  1  0.02630072  0.25000000  0.47369928  1
  S  S23  1  0.25000000  0.47369928  0.02630072  1
