# generated using pymatgen
data_KZnPO4
_symmetry_space_group_name_H-M   'P 1'
_cell_length_a   5.27054678
_cell_length_b   8.52150655
_cell_length_c   8.95962121
_cell_angle_alpha   90.00000000
_cell_angle_beta   90.00000000
_cell_angle_gamma   90.00000000
_symmetry_Int_Tables_number   1
_chemical_formula_structural   KZnPO4
_chemical_formula_sum   'K4 Zn4 P4 O16'
_cell_volume   402.40345762
_cell_formula_units_Z   4
loop_
 _symmetry_equiv_pos_site_id
 _symmetry_equiv_pos_as_xyz
  1  'x, y, z'
loop_
 _atom_site_type_symbol
 _atom_site_label
 _atom_site_symmetry_multiplicity
 _atom_site_fract_x
 _atom_site_fract_y
 _atom_site_fract_z
 _atom_site_occupancy
  K  K0  1  0.52804447  0.99545463  0.76519899  1
  K  K1  1  0.52804447  0.49545463  0.73480101  1
  K  K2  1  0.02804447  0.00454537  0.23480101  1
  K  K3  1  0.02804447  0.50454537  0.26519899  1
  Zn  Zn4  1  0.51889105  0.30706749  0.08836153  1
  Zn  Zn5  1  0.01889105  0.19293251  0.58836153  1
  Zn  Zn6  1  0.51889105  0.80706749  0.41163847  1
  Zn  Zn7  1  0.01889105  0.69293251  0.91163847  1
  P  P8  1  0.52326604  0.71040536  0.07371931  1
  P  P9  1  0.02326604  0.28959464  0.92628069  1
  P  P10  1  0.02326604  0.78959464  0.57371931  1
  P  P11  1  0.52326604  0.21040536  0.42628069  1
  O  O12  1  0.86692112  0.24245283  0.06455182  1
  O  O13  1  0.36692112  0.75754717  0.93544818  1
  O  O14  1  0.36692112  0.25754717  0.56455182  1
  O  O15  1  0.86692112  0.74245283  0.43544818  1
  O  O16  1  0.54920483  0.53303281  0.08388335  1
  O  O17  1  0.04920483  0.46696819  0.91611665  1
  O  O18  1  0.04920483  0.96696719  0.58388335  1
  O  O19  1  0.54920483  0.03303181  0.41611665  1
  O  O20  1  0.38753975  0.77275930  0.21312481  1
  O  O21  1  0.88753975  0.22724070  0.78687519  1
  O  O22  1  0.88753975  0.72724070  0.71312481  1
  O  O23  1  0.38753975  0.27275930  0.28687519  1
  O  O24  1  0.29053475  0.71710536  0.55881707  1
  O  O25  1  0.79053475  0.28289464  0.44118293  1
  O  O26  1  0.79053475  0.78289464  0.05881707  1
  O  O27  1  0.29053475  0.21710536  0.94118293  1
