# generated using pymatgen
data_CsHS
_symmetry_space_group_name_H-M   'P 1'
_cell_length_a   7.45097573
_cell_length_b   7.45097573
_cell_length_c   7.45097573
_cell_angle_alpha   112.21452373
_cell_angle_beta   112.21452373
_cell_angle_gamma   104.11382688
_symmetry_Int_Tables_number   1
_chemical_formula_structural   CsHS
_chemical_formula_sum   'Cs4 H4 S4'
_cell_volume   316.37078994
_cell_formula_units_Z   4
loop_
 _symmetry_equiv_pos_site_id
 _symmetry_equiv_pos_as_xyz
  1  'x, y, z'
loop_
 _atom_site_type_symbol
 _atom_site_label
 _atom_site_symmetry_multiplicity
 _atom_site_fract_x
 _atom_site_fract_y
 _atom_site_fract_z
 _atom_site_occupancy
  Cs  Cs0  1  0.25000000  0.75000000  0.50000000  1
  Cs  Cs1  1  0.26720894  0.26720894  -0.00000000  1
  Cs  Cs2  1  0.73279106  0.73279106  -0.00000000  1
  Cs  Cs3  1  0.75000000  0.25000000  0.50000000  1
  H  H4  1  0.08607945  0.24183886  0.32791730  1
  H  H5  1  0.24183886  0.91392055  0.15575841  1
  H  H6  1  0.75816114  0.08607945  0.84424159  1
  H  H7  1  0.91392055  0.75816114  0.67208270  1
  S  S8  1  0.24180129  0.75132290  0.99312419  1
  S  S9  1  0.24867710  0.24180129  0.49047839  1
  S  S10  1  0.75132290  0.75819871  0.50952161  1
  S  S11  1  0.75819871  0.24867710  0.00687581  1
