# generated using pymatgen
data_K3AlSe3
_symmetry_space_group_name_H-M   'P 1'
_cell_length_a   13.10160551
_cell_length_b   8.10653919
_cell_length_c   10.46606880
_cell_angle_alpha   52.41097776
_cell_angle_beta   90.00000000
_cell_angle_gamma   90.00000000
_symmetry_Int_Tables_number   1
_chemical_formula_structural   K3AlSe3
_chemical_formula_sum   'K12 Al4 Se12'
_cell_volume   880.82906557
_cell_formula_units_Z   4
loop_
 _symmetry_equiv_pos_site_id
 _symmetry_equiv_pos_as_xyz
  1  'x, y, z'
loop_
 _atom_site_type_symbol
 _atom_site_label
 _atom_site_symmetry_multiplicity
 _atom_site_fract_x
 _atom_site_fract_y
 _atom_site_fract_z
 _atom_site_occupancy
  K  K0  1  0.31225326  0.15110383  0.07356895  1
  K  K1  1  0.68774674  0.84889617  0.92643105  1
  K  K2  1  0.81225326  0.84889617  0.42643105  1
  K  K3  1  0.89802241  0.32215728  0.39778370  1
  K  K4  1  0.61929938  0.37755097  0.47042706  1
  K  K5  1  0.11929938  0.62244903  0.02957294  1
  K  K6  1  0.38070062  0.62244903  0.52957294  1
  K  K7  1  0.88070062  0.37755097  0.97042706  1
  K  K8  1  0.60197759  0.32215728  0.89778370  1
  K  K9  1  0.10197759  0.67784272  0.60221630  1
  K  K10  1  0.39802241  0.67784272  0.10221630  1
  K  K11  1  0.18774674  0.15110383  0.57356895  1
  Al  Al12  1  0.06239383  0.94286845  0.15831862  1
  Al  Al13  1  0.56239383  0.05713155  0.34168138  1
  Al  Al14  1  0.43760617  0.94286845  0.65831862  1
  Al  Al15  1  0.93760617  0.05713155  0.84168138  1
  Se  Se16  1  0.39756229  0.17107211  0.36951408  1
  Se  Se17  1  0.89756229  0.82892789  0.13048592  1
  Se  Se18  1  0.60243771  0.82892789  0.63048592  1
  Se  Se19  1  0.10243771  0.17107211  0.86951408  1
  Se  Se20  1  0.68580736  0.32648026  0.19766757  1
  Se  Se21  1  0.18580736  0.67351974  0.30233243  1
  Se  Se22  1  0.31419264  0.67351974  0.80233243  1
  Se  Se23  1  0.81419264  0.32648026  0.69766757  1
  Se  Se24  1  0.54774503  0.87026379  0.23711560  1
  Se  Se25  1  0.04774503  0.12973621  0.26288440  1
  Se  Se26  1  0.45225497  0.12973621  0.76288440  1
  Se  Se27  1  0.95225497  0.87026379  0.73711560  1
