# generated using pymatgen
data_Ba10MgMn6(O12F)2
_symmetry_space_group_name_H-M   'P 1'
_cell_length_a   7.72224692
_cell_length_b   10.88707534
_cell_length_c   10.87407332
_cell_angle_alpha   121.13515822
_cell_angle_beta   90.00000000
_cell_angle_gamma   90.00000000
_symmetry_Int_Tables_number   1
_chemical_formula_structural   Ba10MgMn6(O12F)2
_chemical_formula_sum   'Ba10 Mg1 Mn6 O24 F2'
_cell_volume   782.52018324
_cell_formula_units_Z   1
loop_
 _symmetry_equiv_pos_site_id
 _symmetry_equiv_pos_as_xyz
  1  'x, y, z'
loop_
 _atom_site_type_symbol
 _atom_site_label
 _atom_site_symmetry_multiplicity
 _atom_site_fract_x
 _atom_site_fract_y
 _atom_site_fract_z
 _atom_site_occupancy
  Ba  Ba0  1  0.50336840  0.68870240  0.34814788  1
  Ba  Ba1  1  0.99070586  0.34900317  0.64717945  1
  Ba  Ba2  1  0.50929414  0.34900317  0.64717945  1
  Ba  Ba3  1  0.99663160  0.68870240  0.34814788  1
  Ba  Ba4  1  0.75000000  0.23336310  0.98455732  1
  Ba  Ba5  1  0.75000000  0.99762068  0.22261255  1
  Ba  Ba6  1  0.75000000  0.77550641  0.76582636  1
  Ba  Ba7  1  0.25000000  0.68119215  0.00264060  1
  Ba  Ba8  1  0.25000000  0.95757994  0.83432615  1
  Ba  Ba9  1  0.25000000  0.26049459  0.24798773  1
  Mg  Mg10  1  0.25000000  0.19655934  0.76133766  1
  Mn  Mn11  1  0.75000000  0.98687504  0.60328286  1
  Mn  Mn12  1  0.75000000  0.41042918  0.36243352  1
  Mn  Mn13  1  0.75000000  0.62424488  0.03234094  1
  Mn  Mn14  1  0.25000000  0.03563283  0.37910450  1
  Mn  Mn15  1  0.25000000  0.60661260  0.63301089  1
  Mn  Mn16  1  0.25000000  0.36585644  0.01391694  1
  O  O17  1  0.75000000  0.17107177  0.68179541  1
  O  O18  1  0.75000000  0.32521365  0.45881626  1
  O  O19  1  0.75000000  0.52574185  0.84700251  1
  O  O20  1  0.25000000  0.85670247  0.31200718  1
  O  O21  1  0.25000000  0.70042490  0.54711879  1
  O  O22  1  0.25000000  0.54190329  0.17963175  1
  O  O23  1  0.75000000  0.89993309  0.41759566  1
  O  O24  1  0.75000000  0.59517673  0.47213836  1
  O  O25  1  0.75000000  0.52825692  0.11737919  1
  O  O26  1  0.25000000  0.13535219  0.56621747  1
  O  O27  1  0.25000000  0.42196011  0.52370846  1
  O  O28  1  0.25000000  0.40716691  0.83779712  1
  O  O29  1  0.57364698  0.92409510  0.65246654  1
  O  O30  1  0.57118094  0.36104591  0.25350605  1
  O  O31  1  0.57539019  0.73864286  0.09891454  1
  O  O32  1  0.07401518  0.09832502  0.33179358  1
  O  O33  1  0.07508614  0.65331939  0.74663579  1
  O  O34  1  0.08582622  0.21703315  0.91425134  1
  O  O35  1  0.42598482  0.09832502  0.33179358  1
  O  O36  1  0.42491386  0.65331939  0.74663579  1
  O  O37  1  0.41417378  0.21703315  0.91425134  1
  O  O38  1  0.92635302  0.92409510  0.65246654  1
  O  O39  1  0.92881906  0.36104591  0.25350605  1
  O  O40  1  0.92460981  0.73864286  0.09891454  1
  F  F41  1  0.54194935  0.98064795  0.98606174  1
  F  F42  1  0.95805065  0.98064795  0.98606174  1
