# generated using pymatgen
data_Na3Nd(AsO4)2
_symmetry_space_group_name_H-M   'P 1'
_cell_length_a   5.62310746
_cell_length_b   14.32720555
_cell_length_c   19.54793204
_cell_angle_alpha   90.00000000
_cell_angle_beta   90.00000000
_cell_angle_gamma   90.00000000
_symmetry_Int_Tables_number   1
_chemical_formula_structural   Na3Nd(AsO4)2
_chemical_formula_sum   'Na24 Nd8 As16 O64'
_cell_volume   1574.84818888
_cell_formula_units_Z   8
loop_
 _symmetry_equiv_pos_site_id
 _symmetry_equiv_pos_as_xyz
  1  'x, y, z'
loop_
 _atom_site_type_symbol
 _atom_site_label
 _atom_site_symmetry_multiplicity
 _atom_site_fract_x
 _atom_site_fract_y
 _atom_site_fract_z
 _atom_site_occupancy
  Na  Na0  1  0.97896570  0.21646087  0.99390051  1
  Na  Na1  1  0.02103430  0.78353913  0.49390051  1
  Na  Na2  1  0.02103430  0.71646087  0.99390051  1
  Na  Na3  1  0.97896570  0.28353913  0.49390051  1
  Na  Na4  1  0.98268202  0.95202973  0.64712398  1
  Na  Na5  1  0.01731798  0.04797027  0.14712398  1
  Na  Na6  1  0.01731798  0.45202973  0.64712398  1
  Na  Na7  1  0.98268202  0.54797027  0.14712398  1
  Na  Na8  1  0.98819584  0.86212360  0.82695444  1
  Na  Na9  1  0.01180416  0.13787640  0.32695444  1
  Na  Na10  1  0.01180416  0.36212360  0.82695444  1
  Na  Na11  1  0.98819584  0.63787640  0.32695444  1
  Na  Na12  1  0.46818580  0.79769401  0.73194651  1
  Na  Na13  1  0.53181420  0.20230599  0.23194651  1
  Na  Na14  1  0.53181420  0.29769401  0.73194651  1
  Na  Na15  1  0.46818580  0.70230599  0.23194651  1
  Na  Na16  1  0.54284237  0.96748318  0.88768116  1
  Na  Na17  1  0.45715763  0.03251682  0.38768116  1
  Na  Na18  1  0.45715763  0.46748318  0.88768116  1
  Na  Na19  1  0.54284237  0.53251682  0.38768116  1
  Na  Na20  1  0.49372324  0.88509666  0.55188106  1
  Na  Na21  1  0.50627676  0.11490334  0.05188106  1
  Na  Na22  1  0.50627676  0.38509666  0.55188106  1
  Na  Na23  1  0.49372324  0.61490334  0.05188106  1
  Nd  Nd24  1  0.92700221  0.61137027  0.80374788  1
  Nd  Nd25  1  0.07299779  0.38862973  0.30374788  1
  Nd  Nd26  1  0.07299779  0.11137027  0.80374788  1
  Nd  Nd27  1  0.92700221  0.88862973  0.30374788  1
  Nd  Nd28  1  0.56022686  0.63811808  0.57295230  1
  Nd  Nd29  1  0.43977314  0.36188192  0.07295230  1
  Nd  Nd30  1  0.43977314  0.13811808  0.57295230  1
  Nd  Nd31  1  0.56022686  0.86188192  0.07295230  1
  As  As32  1  0.96536083  0.47521733  0.98090961  1
  As  As33  1  0.03463917  0.52478267  0.48090961  1
  As  As34  1  0.03463917  0.97521733  0.98090961  1
  As  As35  1  0.96536083  0.02478267  0.48090961  1
  As  As36  1  0.98681297  0.22464196  0.65296122  1
  As  As37  1  0.01318703  0.77535804  0.15296122  1
  As  As38  1  0.01318703  0.72464196  0.65296122  1
  As  As39  1  0.98681297  0.27535804  0.15296122  1
  As  As40  1  0.47501604  0.52423882  0.72416843  1
  As  As41  1  0.52498396  0.47576118  0.22416843  1
  As  As42  1  0.52498396  0.02423882  0.72416843  1
  As  As43  1  0.47501604  0.97576118  0.22416843  1
  As  As44  1  0.45823671  0.72619430  0.89602222  1
  As  As45  1  0.54176329  0.27380570  0.39602222  1
  As  As46  1  0.54176329  0.22619430  0.89602222  1
  As  As47  1  0.45823671  0.77380570  0.39602222  1
  O  O48  1  0.58273531  0.81232822  0.84733722  1
  O  O49  1  0.41726469  0.18767178  0.34733722  1
  O  O50  1  0.41726469  0.31232822  0.84733722  1
  O  O51  1  0.58273531  0.68767178  0.34733722  1
  O  O52  1  0.70347602  0.46687280  0.76539300  1
  O  O53  1  0.29652398  0.53312720  0.26539300  1
  O  O54  1  0.29652398  0.96687280  0.76539300  1
  O  O55  1  0.70347602  0.03312720  0.26539300  1
  O  O56  1  0.88691405  0.87170131  0.99677627  1
  O  O57  1  0.11308595  0.12829869  0.49677627  1
  O  O58  1  0.11308595  0.37170131  0.99677627  1
  O  O59  1  0.88691405  0.62829869  0.49677627  1
  O  O60  1  0.79087975  0.78142587  0.60863056  1
  O  O61  1  0.20912025  0.21857413  0.10863056  1
  O  O62  1  0.20912025  0.28142587  0.60863056  1
  O  O63  1  0.79087975  0.71857413  0.10863056  1
  O  O64  1  0.66410868  0.46337177  0.99789716  1
  O  O65  1  0.33589132  0.53662823  0.49789716  1
  O  O66  1  0.33589132  0.96337177  0.99789716  1
  O  O67  1  0.66410868  0.03662823  0.49789716  1
  O  O68  1  0.91292517  0.43866077  0.53043858  1
  O  O69  1  0.08707483  0.56133923  0.03043858  1
  O  O70  1  0.08707483  0.93866077  0.53043858  1
  O  O71  1  0.91292517  0.06133923  0.03043858  1
  O  O72  1  0.79097033  0.99432999  0.76181705  1
  O  O73  1  0.20902967  0.00567001  0.26181705  1
  O  O74  1  0.20902967  0.49432999  0.76181705  1
  O  O75  1  0.79097033  0.50567001  0.26181705  1
  O  O76  1  0.60976335  0.62325118  0.88213227  1
  O  O77  1  0.39023665  0.37674882  0.38213227  1
  O  O78  1  0.39023665  0.12325118  0.88213227  1
  O  O79  1  0.60976335  0.87674882  0.38213227  1
  O  O80  1  0.53907834  0.64090541  0.72907048  1
  O  O81  1  0.46092166  0.35909459  0.22907048  1
  O  O82  1  0.46092166  0.14090541  0.72907048  1
  O  O83  1  0.53907834  0.85909459  0.22907048  1
  O  O84  1  0.94942926  0.60811135  0.64892404  1
  O  O85  1  0.05057074  0.39188865  0.14892404  1
  O  O86  1  0.05057074  0.10811135  0.64892404  1
  O  O87  1  0.94942926  0.89188865  0.14892404  1
  O  O88  1  0.84073884  0.21355928  0.87570029  1
  O  O89  1  0.15926116  0.78644072  0.37570029  1
  O  O90  1  0.15926116  0.71355928  0.87570029  1
  O  O91  1  0.84073884  0.28644072  0.37570029  1
  O  O92  1  0.98469226  0.25632842  0.73794321  1
  O  O93  1  0.01530774  0.74367158  0.23794321  1
  O  O94  1  0.01530774  0.75632842  0.73794321  1
  O  O95  1  0.98469226  0.24367158  0.23794321  1
  O  O96  1  0.53527168  0.99465722  0.63877323  1
  O  O97  1  0.46472832  0.00534278  0.13877323  1
  O  O98  1  0.46472832  0.49465722  0.63877323  1
  O  O99  1  0.53527168  0.50534278  0.13877323  1
  O  O100  1  0.98748530  0.99679236  0.89510399  1
  O  O101  1  0.01251470  0.00320764  0.39510399  1
  O  O102  1  0.01251470  0.49679236  0.89510399  1
  O  O103  1  0.98748530  0.50320764  0.39510399  1
  O  O104  1  0.28293238  0.75435401  0.61761421  1
  O  O105  1  0.71706762  0.24564599  0.11761421  1
  O  O106  1  0.71706762  0.25435401  0.61761421  1
  O  O107  1  0.28293238  0.74564599  0.11761421  1
  O  O108  1  0.46695976  0.74702626  0.98279910  1
  O  O109  1  0.53304024  0.25297374  0.48279910  1
  O  O110  1  0.53304024  0.24702626  0.98279910  1
  O  O111  1  0.46695976  0.75297374  0.48279910  1
