# generated using pymatgen
data_TiAs2O7
_symmetry_space_group_name_H-M   'P 1'
_cell_length_a   12.94065688
_cell_length_b   5.12273202
_cell_length_c   9.61082917
_cell_angle_alpha   59.03242508
_cell_angle_beta   90.00000000
_cell_angle_gamma   90.00000000
_symmetry_Int_Tables_number   1
_chemical_formula_structural   TiAs2O7
_chemical_formula_sum   'Ti4 As8 O28'
_cell_volume   546.30100117
_cell_formula_units_Z   4
loop_
 _symmetry_equiv_pos_site_id
 _symmetry_equiv_pos_as_xyz
  1  'x, y, z'
loop_
 _atom_site_type_symbol
 _atom_site_label
 _atom_site_symmetry_multiplicity
 _atom_site_fract_x
 _atom_site_fract_y
 _atom_site_fract_z
 _atom_site_occupancy
  Ti  Ti0  1  0.34551829  0.35875382  0.34590694  1
  Ti  Ti1  1  0.84551829  0.64124618  0.15409306  1
  Ti  Ti2  1  0.65448171  0.64124618  0.65409306  1
  Ti  Ti3  1  0.15448171  0.35875382  0.84590694  1
  As  As4  1  0.31177011  0.76641735  0.93888264  1
  As  As5  1  0.81177011  0.23358265  0.56111736  1
  As  As6  1  0.68822989  0.23358265  0.06111736  1
  As  As7  1  0.18822989  0.76641735  0.43888264  1
  As  As8  1  0.48546939  0.12424601  0.68948012  1
  As  As9  1  0.98546939  0.87575399  0.81051988  1
  As  As10  1  0.51453061  0.87575399  0.31051988  1
  As  As11  1  0.01453061  0.12424601  0.18948012  1
  O  O12  1  0.43947553  0.81244108  0.86910300  1
  O  O13  1  0.93947553  0.18755892  0.63089700  1
  O  O14  1  0.56052447  0.18755892  0.13089700  1
  O  O15  1  0.06052447  0.81244108  0.36910300  1
  O  O16  1  0.03518027  0.63896973  0.75636764  1
  O  O17  1  0.53518027  0.36103027  0.74363236  1
  O  O18  1  0.96481973  0.36103027  0.24363236  1
  O  O19  1  0.46481973  0.63896973  0.25636764  1
  O  O20  1  0.27678867  0.09198747  0.92727568  1
  O  O21  1  0.77678867  0.90801253  0.57272432  1
  O  O22  1  0.72321133  0.90801253  0.07272432  1
  O  O23  1  0.22321133  0.09198747  0.42727568  1
  O  O24  1  0.25773049  0.68566537  0.31853704  1
  O  O25  1  0.75773049  0.31433463  0.18146296  1
  O  O26  1  0.74226951  0.31433463  0.68146296  1
  O  O27  1  0.24226951  0.68566537  0.81853704  1
  O  O28  1  0.31991401  0.46224477  0.12625572  1
  O  O29  1  0.81991401  0.53775523  0.37374428  1
  O  O30  1  0.68008599  0.53775523  0.87374428  1
  O  O31  1  0.18008599  0.46224477  0.62625572  1
  O  O32  1  0.38486046  0.28105107  0.56225377  1
  O  O33  1  0.88486046  0.71894893  0.93774623  1
  O  O34  1  0.61513954  0.71894893  0.43774623  1
  O  O35  1  0.11513954  0.28105107  0.06225377  1
  O  O36  1  0.42571606  0.01143774  0.38370836  1
  O  O37  1  0.92571606  0.98856226  0.11629164  1
  O  O38  1  0.57428394  0.98856226  0.61629164  1
  O  O39  1  0.07428394  0.01143774  0.88370836  1
