# generated using pymatgen
data_Tb4MgAl2(FeO6)2
_symmetry_space_group_name_H-M   'P 1'
_cell_length_a   5.43280785
_cell_length_b   5.83165189
_cell_length_c   8.35603122
_cell_angle_alpha   85.59948478
_cell_angle_beta   93.89892498
_cell_angle_gamma   89.04253654
_symmetry_Int_Tables_number   1
_chemical_formula_structural   Tb4MgAl2(FeO6)2
_chemical_formula_sum   'Tb4 Mg1 Al2 Fe2 O12'
_cell_volume   263.28248776
_cell_formula_units_Z   1
loop_
 _symmetry_equiv_pos_site_id
 _symmetry_equiv_pos_as_xyz
  1  'x, y, z'
loop_
 _atom_site_type_symbol
 _atom_site_label
 _atom_site_symmetry_multiplicity
 _atom_site_fract_x
 _atom_site_fract_y
 _atom_site_fract_z
 _atom_site_occupancy
  Tb  Tb0  1  0.52039500  0.62873800  0.28043900  1
  Tb  Tb1  1  0.93248100  0.11792000  0.29355700  1
  Tb  Tb2  1  0.47704300  0.40641100  0.73064100  1
  Tb  Tb3  1  0.05061100  0.91759500  0.72022100  1
  Mg  Mg4  1  0.38313300  0.21968400  0.11514900  1
  Al  Al5  1  0.97001000  0.50773500  0.54681600  1
  Al  Al6  1  0.53046500  0.90023000  0.91786100  1
  Fe  Fe7  1  0.96932500  0.54731100  0.00707500  1
  Fe  Fe8  1  0.48728000  0.00767900  0.50672100  1
  O  O9  1  0.32880700  0.97867700  0.28126300  1
  O  O10  1  0.17308700  0.44027600  0.21050000  1
  O  O11  1  0.65624700  0.01683500  0.73863900  1
  O  O12  1  0.87253500  0.53737700  0.75773400  1
  O  O13  1  0.74563800  0.85508500  0.08575100  1
  O  O14  1  0.70442000  0.34823800  0.46409000  1
  O  O15  1  0.16487500  0.22443900  0.56101100  1
  O  O16  1  0.32934200  0.66805200  0.89598900  1
  O  O17  1  0.29423100  0.12723200  0.90453500  1
  O  O18  1  0.26518300  0.67118400  0.56198000  1
  O  O19  1  0.81308700  0.80190900  0.45893300  1
  O  O20  1  0.69430600  0.36310500  0.12181000  1
