# generated using pymatgen
data_Mg6MnO8
_symmetry_space_group_name_H-M   'P 1'
_cell_length_a   8.35808273
_cell_length_b   8.35808547
_cell_length_c   10.23393995
_cell_angle_alpha   114.08976422
_cell_angle_beta   65.91021928
_cell_angle_gamma   89.98999310
_symmetry_Int_Tables_number   1
_chemical_formula_structural   Mg6MnO8
_chemical_formula_sum   'Mg24 Mn4 O32'
_cell_volume   583.76049973
_cell_formula_units_Z   4
loop_
 _symmetry_equiv_pos_site_id
 _symmetry_equiv_pos_as_xyz
  1  'x, y, z'
loop_
 _atom_site_type_symbol
 _atom_site_label
 _atom_site_symmetry_multiplicity
 _atom_site_fract_x
 _atom_site_fract_y
 _atom_site_fract_z
 _atom_site_occupancy
  Mg  Mg0  1  0.37500394  0.37499653  0.24999317  1
  Mg  Mg1  1  0.62500010  0.62500027  0.74999972  1
  Mg  Mg2  1  0.87499638  0.87500317  0.25000661  1
  Mg  Mg3  1  0.12499996  0.12499991  0.75000024  1
  Mg  Mg4  1  0.50000334  0.50000341  0.50000000  1
  Mg  Mg5  1  0.74999727  0.74999737  -0.00000003  1
  Mg  Mg6  1  -0.00000327  -0.00000325  0.49999995  1
  Mg  Mg7  1  0.25000259  0.25000275  0.00000002  1
  Mg  Mg8  1  0.74999985  0.25000029  -0.00000273  1
  Mg  Mg9  1  -0.00000089  0.50000080  0.49999725  1
  Mg  Mg10  1  0.25000033  0.74999977  0.00000267  1
  Mg  Mg11  1  0.50000082  -0.00000083  0.50000271  1
  Mg  Mg12  1  0.87500174  0.37500186  0.25000449  1
  Mg  Mg13  1  0.12499961  0.62500069  0.75000015  1
  Mg  Mg14  1  0.37499812  0.87499860  0.24999541  1
  Mg  Mg15  1  0.62500035  0.12499912  0.74999979  1
  Mg  Mg16  1  0.62500084  0.12499957  0.24999982  1
  Mg  Mg17  1  0.87499839  0.37499821  0.75000450  1
  Mg  Mg18  1  0.12499908  0.62500039  0.25000018  1
  Mg  Mg19  1  0.37500193  0.87500177  0.74999548  1
  Mg  Mg20  1  0.62500010  0.62500021  0.25000028  1
  Mg  Mg21  1  0.87500298  0.87499642  0.74999351  1
  Mg  Mg22  1  0.12499959  0.12500004  0.24999987  1
  Mg  Mg23  1  0.37499648  0.37500399  0.75000692  1
  Mn  Mn24  1  0.50000042  0.50000004  -0.00000055  1
  Mn  Mn25  1  0.75000036  0.74999995  0.50000001  1
  Mn  Mn26  1  -0.00000008  0.00000000  -0.00000028  1
  Mn  Mn27  1  0.25000071  0.25000000  0.49999977  1
  O  O28  1  0.87500405  0.12500085  0.75000088  1
  O  O29  1  0.12499873  0.37499611  0.25000093  1
  O  O30  1  0.37499359  0.62500176  0.75000125  1
  O  O31  1  0.62499875  0.87500632  0.25000103  1
  O  O32  1  0.62500163  0.37499375  0.24999876  1
  O  O33  1  0.87500649  0.62499866  0.74999872  1
  O  O34  1  0.12500090  0.87500404  0.24999904  1
  O  O35  1  0.37499603  0.12499892  0.74999908  1
  O  O36  1  0.02133890  0.24999518  0.49999111  1
  O  O37  1  0.27133037  0.50000110  0.00000130  1
  O  O38  1  0.52133575  0.74999651  0.49999306  1
  O  O39  1  0.77133316  0.00000179  0.00000359  1
  O  O40  1  0.88567689  0.11432333  0.22864039  1
  O  O41  1  0.13567668  0.36432343  0.72864061  1
  O  O42  1  0.38567587  0.61432414  0.22864146  1
  O  O43  1  0.63567615  0.86432418  0.72864159  1
  O  O44  1  0.61432376  0.38567565  0.77135846  1
  O  O45  1  0.86432412  0.63567605  0.27135837  1
  O  O46  1  0.11432311  0.88567678  0.77135962  1
  O  O47  1  0.36432329  0.13567649  0.27135939  1
  O  O48  1  0.74999652  0.52133570  0.50000706  1
  O  O49  1  0.00000163  0.77133324  -0.00000363  1
  O  O50  1  0.24999526  0.02133884  0.50000864  1
  O  O51  1  0.50000085  0.27133038  -0.00000131  1
  O  O52  1  0.74999932  0.97866991  0.50000137  1
  O  O53  1  0.00000481  0.22866099  -0.00000891  1
  O  O54  1  0.24999858  0.47866741  0.50000345  1
  O  O55  1  0.50000356  0.72866493  -0.00000823  1
  O  O56  1  0.47866722  0.24999828  0.49999645  1
  O  O57  1  0.72866470  0.50000354  0.00000799  1
  O  O58  1  0.97866962  0.74999893  0.49999867  1
  O  O59  1  0.22866066  0.00000476  0.00000889  1
