# generated using pymatgen
data_Rb5Ti6AgSe27
_symmetry_space_group_name_H-M   'P 1'
_cell_length_a   13.49591415
_cell_length_b   13.49591415
_cell_length_c   14.03328338
_cell_angle_alpha   90.00000000
_cell_angle_beta   90.00000000
_cell_angle_gamma   120.00000300
_symmetry_Int_Tables_number   1
_chemical_formula_structural   Rb5Ti6AgSe27
_chemical_formula_sum   'Rb10 Ti12 Ag2 Se54'
_cell_volume   2213.57646060
_cell_formula_units_Z   2
loop_
 _symmetry_equiv_pos_site_id
 _symmetry_equiv_pos_as_xyz
  1  'x, y, z'
loop_
 _atom_site_type_symbol
 _atom_site_label
 _atom_site_symmetry_multiplicity
 _atom_site_fract_x
 _atom_site_fract_y
 _atom_site_fract_z
 _atom_site_occupancy
  Rb  Rb0  1  0.65895884  0.62217604  0.73597949  1
  Rb  Rb1  1  0.37782396  0.03678280  0.73597949  1
  Rb  Rb2  1  0.33333300  0.66666700  0.06576792  1
  Rb  Rb3  1  0.66666700  0.33333300  0.56576792  1
  Rb  Rb4  1  0.33333300  0.66666700  0.42770101  1
  Rb  Rb5  1  0.66666700  0.33333300  0.92770101  1
  Rb  Rb6  1  0.96321720  0.34104116  0.73597949  1
  Rb  Rb7  1  0.03678280  0.37782396  0.23597949  1
  Rb  Rb8  1  0.62217604  0.65895884  0.23597949  1
  Rb  Rb9  1  0.34104116  0.96321720  0.23597949  1
  Ti  Ti10  1  0.98882355  0.66788393  0.61467279  1
  Ti  Ti11  1  0.01395495  0.66983272  0.37426455  1
  Ti  Ti12  1  0.33016728  0.34412223  0.37426455  1
  Ti  Ti13  1  0.65587777  0.98604505  0.37426455  1
  Ti  Ti14  1  0.66983272  0.01395495  0.87426455  1
  Ti  Ti15  1  0.34412223  0.33016728  0.87426455  1
  Ti  Ti16  1  0.98604505  0.65587777  0.87426455  1
  Ti  Ti17  1  0.01117645  0.67906038  0.11467279  1
  Ti  Ti18  1  0.32093962  0.33211607  0.11467279  1
  Ti  Ti19  1  0.66788393  0.98882355  0.11467279  1
  Ti  Ti20  1  0.67906038  0.01117645  0.61467279  1
  Ti  Ti21  1  0.33211607  0.32093962  0.61467279  1
  Ag  Ag22  1  0.00000000  -0.00000000  0.98901520  1
  Ag  Ag23  1  0.00000000  -0.00000000  0.48901520  1
  Se  Se24  1  0.84373397  0.66114819  0.98744083  1
  Se  Se25  1  0.50392208  0.81357648  0.65887386  1
  Se  Se26  1  0.18642352  0.69034560  0.65887386  1
  Se  Se27  1  0.30965440  0.49607792  0.65887386  1
  Se  Se28  1  0.81357648  0.50392208  0.15887386  1
  Se  Se29  1  0.69034560  0.18642352  0.15887386  1
  Se  Se30  1  0.49607792  0.30965440  0.15887386  1
  Se  Se31  1  0.45665211  0.87031961  0.88080895  1
  Se  Se32  1  0.12968039  0.58633250  0.88080895  1
  Se  Se33  1  0.41366750  0.54334789  0.88080895  1
  Se  Se34  1  0.87031961  0.45665211  0.38080895  1
  Se  Se35  1  0.58633250  0.12968039  0.38080895  1
  Se  Se36  1  0.98597949  0.51077995  -0.00000890  1
  Se  Se37  1  0.48922005  0.47519954  -0.00000890  1
  Se  Se38  1  0.52480046  0.01402051  -0.00000890  1
  Se  Se39  1  0.51077995  0.98597949  0.49999110  1
  Se  Se40  1  0.47519954  0.48922005  0.49999110  1
  Se  Se41  1  0.01402051  0.52480046  0.49999110  1
  Se  Se42  1  0.92112930  0.80573869  0.86914261  1
  Se  Se43  1  0.19426131  0.11539061  0.86914261  1
  Se  Se44  1  0.88460939  0.07887070  0.86914261  1
  Se  Se45  1  0.80573869  0.92112930  0.36914261  1
  Se  Se46  1  0.11539061  0.19426131  0.36914261  1
  Se  Se47  1  0.07887070  0.88460939  0.36914261  1
  Se  Se48  1  0.90351912  0.79634126  0.60104683  1
  Se  Se49  1  0.20365874  0.10717787  0.60104683  1
  Se  Se50  1  0.89282213  0.09648088  0.60104683  1
  Se  Se51  1  0.79634126  0.90351912  0.10104683  1
  Se  Se52  1  0.10717787  0.20365874  0.10104683  1
  Se  Se53  1  0.09648088  0.89282213  0.10104683  1
  Se  Se54  1  0.86151248  0.52787049  0.74110603  1
  Se  Se55  1  0.47212951  0.33364199  0.74110603  1
  Se  Se56  1  0.66635801  0.13848752  0.74110603  1
  Se  Se57  1  0.52787049  0.86151248  0.24110603  1
  Se  Se58  1  0.33364199  0.47212951  0.24110603  1
  Se  Se59  1  0.13848752  0.66635801  0.24110603  1
  Se  Se60  1  0.54334789  0.41366750  0.38080895  1
  Se  Se61  1  0.33885181  0.18258578  0.98744083  1
  Se  Se62  1  0.81741422  0.15626603  0.98744083  1
  Se  Se63  1  0.66114819  0.84373397  0.48744083  1
  Se  Se64  1  0.18258578  0.33885181  0.48744083  1
  Se  Se65  1  0.15626603  0.81741422  0.48744083  1
  Se  Se66  1  0.67783180  0.88040135  0.74500565  1
  Se  Se67  1  0.11959865  0.79743045  0.74500565  1
  Se  Se68  1  0.20256955  0.32216820  0.74500565  1
  Se  Se69  1  0.88040135  0.67783180  0.24500565  1
  Se  Se70  1  0.35727986  0.19628999  0.49309860  1
  Se  Se71  1  0.32216820  0.20256955  0.24500565  1
  Se  Se72  1  0.64272014  0.83901013  0.99309860  1
  Se  Se73  1  0.16098987  0.80371001  0.99309860  1
  Se  Se74  1  0.19628999  0.35727986  0.99309860  1
  Se  Se75  1  0.83901013  0.64272014  0.49309860  1
  Se  Se76  1  0.80371001  0.16098987  0.49309860  1
  Se  Se77  1  0.79743045  0.11959865  0.24500565  1
