# generated using pymatgen
data_KHo2CuS4
_symmetry_space_group_name_H-M   'P 1'
_cell_length_a   6.97690233
_cell_length_b   6.97690233
_cell_length_c   13.62016803
_cell_angle_alpha   90.00000000
_cell_angle_beta   90.00000000
_cell_angle_gamma   147.32282468
_symmetry_Int_Tables_number   1
_chemical_formula_structural   KHo2CuS4
_chemical_formula_sum   'K2 Ho4 Cu2 S8'
_cell_volume   357.95228634
_cell_formula_units_Z   2
loop_
 _symmetry_equiv_pos_site_id
 _symmetry_equiv_pos_as_xyz
  1  'x, y, z'
loop_
 _atom_site_type_symbol
 _atom_site_label
 _atom_site_symmetry_multiplicity
 _atom_site_fract_x
 _atom_site_fract_y
 _atom_site_fract_z
 _atom_site_occupancy
  K  K0  1  0.10951101  0.89048899  0.25000000  1
  K  K1  1  0.89048899  0.10951101  0.75000000  1
  Ho  Ho2  1  0.63440638  0.36559362  0.93683797  1
  Ho  Ho3  1  0.36559362  0.63440638  0.43683797  1
  Ho  Ho4  1  0.63440638  0.36559362  0.56316203  1
  Ho  Ho5  1  0.36559362  0.63440638  0.06316203  1
  Cu  Cu6  1  0.16258626  0.83741374  0.75000000  1
  Cu  Cu7  1  0.83741374  0.16258626  0.25000000  1
  S  S8  1  -0.00000000  -0.00000000  0.50000000  1
  S  S9  1  -0.00000000  -0.00000000  0.00000000  1
  S  S10  1  0.73706521  0.26293479  0.11094669  1
  S  S11  1  0.26293479  0.73706521  0.88905331  1
  S  S12  1  0.56904994  0.43095006  0.75000000  1
  S  S13  1  0.73706521  0.26293479  0.38905331  1
  S  S14  1  0.43095006  0.56904994  0.25000000  1
  S  S15  1  0.26293479  0.73706521  0.61094669  1
