# generated using pymatgen
data_Sn3SbF9
_symmetry_space_group_name_H-M   'P 1'
_cell_length_a   4.62714625
_cell_length_b   9.15873641
_cell_length_c   20.83912126
_cell_angle_alpha   90.00000000
_cell_angle_beta   90.00000000
_cell_angle_gamma   90.00000000
_symmetry_Int_Tables_number   1
_chemical_formula_structural   Sn3SbF9
_chemical_formula_sum   'Sn12 Sb4 F36'
_cell_volume   883.13721951
_cell_formula_units_Z   4
loop_
 _symmetry_equiv_pos_site_id
 _symmetry_equiv_pos_as_xyz
  1  'x, y, z'
loop_
 _atom_site_type_symbol
 _atom_site_label
 _atom_site_symmetry_multiplicity
 _atom_site_fract_x
 _atom_site_fract_y
 _atom_site_fract_z
 _atom_site_occupancy
  Sn  Sn0  1  0.04401207  0.75000000  0.50000000  1
  Sn  Sn1  1  0.95598793  0.25000000  0.00000000  1
  Sn  Sn2  1  0.95598793  0.25000000  0.50000000  1
  Sn  Sn3  1  0.04401207  0.75000000  0.00000000  1
  Sn  Sn4  1  0.52109194  0.51690977  0.62088399  1
  Sn  Sn5  1  0.47890806  0.48309023  0.12088399  1
  Sn  Sn6  1  0.52109194  0.98309023  0.37911601  1
  Sn  Sn7  1  0.47890806  0.01690977  0.87911601  1
  Sn  Sn8  1  0.47890806  0.48309023  0.37911601  1
  Sn  Sn9  1  0.52109194  0.51690977  0.87911601  1
  Sn  Sn10  1  0.47890806  0.01690977  0.62088399  1
  Sn  Sn11  1  0.52109194  0.98309023  0.12088399  1
  Sb  Sb12  1  0.06795859  0.24816759  0.75000000  1
  Sb  Sb13  1  0.93204141  0.75183241  0.25000000  1
  Sb  Sb14  1  0.06795859  0.25183241  0.25000000  1
  Sb  Sb15  1  0.93204141  0.74816759  0.75000000  1
  F  F16  1  0.17794025  0.92082418  0.75000000  1
  F  F17  1  0.82205975  0.07917582  0.25000000  1
  F  F18  1  0.17794025  0.57917582  0.25000000  1
  F  F19  1  0.82205975  0.42082418  0.75000000  1
  F  F20  1  0.38290375  0.82103553  0.56080704  1
  F  F21  1  0.61709625  0.17896447  0.06080704  1
  F  F22  1  0.38290375  0.67896447  0.43919296  1
  F  F23  1  0.61709625  0.32103553  0.93919296  1
  F  F24  1  0.61709625  0.17896447  0.43919296  1
  F  F25  1  0.38290375  0.82103553  0.93919296  1
  F  F26  1  0.61709625  0.32103553  0.56080704  1
  F  F27  1  0.38290375  0.67896447  0.06080704  1
  F  F28  1  0.22702417  0.36953509  0.66090349  1
  F  F29  1  0.77297583  0.63046491  0.16090349  1
  F  F30  1  0.22702417  0.13046491  0.33909651  1
  F  F31  1  0.77297583  0.86953509  0.83909651  1
  F  F32  1  0.77297583  0.63046491  0.33909651  1
  F  F33  1  0.22702417  0.36953509  0.83909651  1
  F  F34  1  0.77297583  0.86953509  0.66090349  1
  F  F35  1  0.22702417  0.13046491  0.16090349  1
  F  F36  1  0.19086262  0.54136188  0.55232401  1
  F  F37  1  0.80913738  0.45863812  0.05232401  1
  F  F38  1  0.19086262  0.95863812  0.44767599  1
  F  F39  1  0.80913738  0.04136188  0.94767599  1
  F  F40  1  0.80913738  0.45863812  0.44767599  1
  F  F41  1  0.19086262  0.54136188  0.94767599  1
  F  F42  1  0.80913738  0.04136188  0.55232401  1
  F  F43  1  0.19086262  0.95863812  0.05232401  1
  F  F44  1  0.22036720  0.67326844  0.68543434  1
  F  F45  1  0.77963280  0.32673156  0.18543434  1
  F  F46  1  0.22036720  0.82673156  0.31456566  1
  F  F47  1  0.77963280  0.17326844  0.81456566  1
  F  F48  1  0.77963280  0.32673156  0.31456566  1
  F  F49  1  0.22036720  0.67326844  0.81456566  1
  F  F50  1  0.77963280  0.17326844  0.68543434  1
  F  F51  1  0.22036720  0.82673156  0.18543434  1
