# generated using pymatgen
data_K6MgO4
_symmetry_space_group_name_H-M   'P 1'
_cell_length_a   8.44923324
_cell_length_b   8.44926331
_cell_length_c   6.58430833
_cell_angle_alpha   90.00000477
_cell_angle_beta   90.00001390
_cell_angle_gamma   120.00103973
_symmetry_Int_Tables_number   1
_chemical_formula_structural   K6MgO4
_chemical_formula_sum   'K12 Mg2 O8'
_cell_volume   407.07308147
_cell_formula_units_Z   2
loop_
 _symmetry_equiv_pos_site_id
 _symmetry_equiv_pos_as_xyz
  1  'x, y, z'
loop_
 _atom_site_type_symbol
 _atom_site_label
 _atom_site_symmetry_multiplicity
 _atom_site_fract_x
 _atom_site_fract_y
 _atom_site_fract_z
 _atom_site_occupancy
  K  K0  1  0.07073286  0.53536668  0.32099873  1
  K  K1  1  0.53536877  0.46463071  0.82100008  1
  K  K2  1  0.46463014  0.92926431  0.32099557  1
  K  K3  1  0.53536857  0.07073442  0.82099718  1
  K  K4  1  0.92926571  0.46463221  0.82099837  1
  K  K5  1  0.46463087  0.53537040  0.32099875  1
  K  K6  1  0.85585202  0.14414811  0.49937757  1
  K  K7  1  0.71170816  0.85585644  0.99938088  1
  K  K8  1  0.14414530  0.28829513  0.99938156  1
  K  K9  1  0.85585476  0.71170508  0.49938099  1
  K  K10  1  0.28829523  0.14414416  0.49937967  1
  K  K11  1  0.14414830  0.85585167  0.99937707  1
  Mg  Mg12  1  0.33333518  0.66666736  0.71509627  1
  Mg  Mg13  1  0.66666522  0.33333293  0.21509623  1
  O  O14  1  0.33333351  0.66666667  0.02038564  1
  O  O15  1  0.66666674  0.33333361  0.52038598  1
  O  O16  1  0.79857586  0.20142447  0.11638716  1
  O  O17  1  0.59715411  0.79858117  0.61639908  1
  O  O18  1  0.20142449  0.40285156  0.61639743  1
  O  O19  1  0.79857570  0.59714863  0.11639785  1
  O  O20  1  0.40284637  0.20141906  0.11639918  1
  O  O21  1  0.20142413  0.79857522  0.61638677  1
