# generated using pymatgen
data_Nb2Co4O9
_symmetry_space_group_name_H-M   'P 1'
_cell_length_a   5.20814220
_cell_length_b   5.22316856
_cell_length_c   14.32829825
_cell_angle_alpha   90.06184382
_cell_angle_beta   90.01908383
_cell_angle_gamma   60.02011402
_symmetry_Int_Tables_number   1
_chemical_formula_structural   Nb2Co4O9
_chemical_formula_sum   'Nb4 Co8 O18'
_cell_volume   337.62130325
_cell_formula_units_Z   2
loop_
 _symmetry_equiv_pos_site_id
 _symmetry_equiv_pos_as_xyz
  1  'x, y, z'
loop_
 _atom_site_type_symbol
 _atom_site_label
 _atom_site_symmetry_multiplicity
 _atom_site_fract_x
 _atom_site_fract_y
 _atom_site_fract_z
 _atom_site_occupancy
  Nb  Nb0  1  0.00050000  0.99948300  0.14294600  1
  Nb  Nb1  1  0.99980800  0.00121200  0.35902700  1
  Nb  Nb2  1  0.00095700  0.99867500  0.85867200  1
  Nb  Nb3  1  0.99951300  0.00134700  0.64276300  1
  Co  Co4  1  0.33257000  0.33352200  0.30508200  1
  Co  Co5  1  0.33305500  0.33456800  0.80580500  1
  Co  Co6  1  0.33337600  0.33341200  0.51371200  1
  Co  Co7  1  0.33586800  0.33200700  0.01129900  1
  Co  Co8  1  0.67196500  0.66487700  0.18929400  1
  Co  Co9  1  0.67370900  0.66301200  0.68922400  1
  Co  Co10  1  0.66446300  0.66756900  0.98787500  1
  Co  Co11  1  0.66763500  0.66774000  0.48680400  1
  O  O12  1  0.28955800  0.99736400  0.25069400  1
  O  O13  1  0.70855400  0.29151700  0.25035000  1
  O  O14  1  0.99760700  0.71124000  0.25049100  1
  O  O15  1  0.70903400  0.99990700  0.75063200  1
  O  O16  1  0.29043000  0.71232600  0.75015900  1
  O  O17  1  0.99721600  0.29122700  0.75058500  1
  O  O18  1  0.34351900  0.67804700  0.08432400  1
  O  O19  1  0.97790900  0.34349200  0.08423300  1
  O  O20  1  0.67694600  0.97931000  0.08443400  1
  O  O21  1  0.02169100  0.32284700  0.41675800  1
  O  O22  1  0.65631100  0.02037100  0.41644300  1
  O  O23  1  0.32101300  0.65618600  0.41675700  1
  O  O24  1  0.65544600  0.32260400  0.91604900  1
  O  O25  1  0.02215500  0.65546100  0.91663200  1
  O  O26  1  0.32282500  0.02008600  0.91651400  1
  O  O27  1  0.97592000  0.67815800  0.58470400  1
  O  O28  1  0.34191900  0.97897900  0.58407600  1
  O  O29  1  0.67852800  0.34345300  0.58366000  1
