# generated using pymatgen
data_Sr4GeP4
_symmetry_space_group_name_H-M   'P 1'
_cell_length_a   12.53924478
_cell_length_b   12.53924478
_cell_length_c   12.53924478
_cell_angle_alpha   90.00000000
_cell_angle_beta   90.00000000
_cell_angle_gamma   90.00000000
_symmetry_Int_Tables_number   1
_chemical_formula_structural   Sr4GeP4
_chemical_formula_sum   'Sr32 Ge8 P32'
_cell_volume   1971.57880680
_cell_formula_units_Z   8
loop_
 _symmetry_equiv_pos_site_id
 _symmetry_equiv_pos_as_xyz
  1  'x, y, z'
loop_
 _atom_site_type_symbol
 _atom_site_label
 _atom_site_symmetry_multiplicity
 _atom_site_fract_x
 _atom_site_fract_y
 _atom_site_fract_z
 _atom_site_occupancy
  Sr  Sr0  1  0.90394911  0.86745432  0.64467386  1
  Sr  Sr1  1  0.90394911  0.13254568  0.35532614  1
  Sr  Sr2  1  0.86745432  0.64467386  0.90394911  1
  Sr  Sr3  1  0.13254568  0.64467386  0.09605089  1
  Sr  Sr4  1  0.64467386  0.90394911  0.86745432  1
  Sr  Sr5  1  0.35532614  0.09605089  0.86745432  1
  Sr  Sr6  1  0.59605089  0.85532614  0.36745432  1
  Sr  Sr7  1  0.59605089  0.14467386  0.63254568  1
  Sr  Sr8  1  0.40394911  0.85532614  0.63254568  1
  Sr  Sr9  1  0.14467386  0.63254568  0.59605089  1
  Sr  Sr10  1  0.63254568  0.40394911  0.85532614  1
  Sr  Sr11  1  0.63254568  0.59605089  0.14467386  1
  Sr  Sr12  1  0.85532614  0.36745432  0.59605089  1
  Sr  Sr13  1  0.36745432  0.59605089  0.85532614  1
  Sr  Sr14  1  0.85532614  0.63254568  0.40394911  1
  Sr  Sr15  1  0.14467386  0.36745432  0.40394911  1
  Sr  Sr16  1  0.36745432  0.40394911  0.14467386  1
  Sr  Sr17  1  0.35532614  0.90394911  0.13254568  1
  Sr  Sr18  1  0.64467386  0.09605089  0.13254568  1
  Sr  Sr19  1  0.86745432  0.35532614  0.09605089  1
  Sr  Sr20  1  0.13254568  0.35532614  0.90394911  1
  Sr  Sr21  1  0.09605089  0.13254568  0.64467386  1
  Sr  Sr22  1  0.09605089  0.86745432  0.35532614  1
  Sr  Sr23  1  0.40394911  0.14467386  0.36745432  1
  Sr  Sr24  1  0.14498551  0.14498551  0.14498551  1
  Sr  Sr25  1  0.35501449  0.64498551  0.35501449  1
  Sr  Sr26  1  0.64498551  0.35501449  0.35501449  1
  Sr  Sr27  1  0.35501449  0.35501449  0.64498551  1
  Sr  Sr28  1  0.14498551  0.85501449  0.85501449  1
  Sr  Sr29  1  0.85501449  0.85501449  0.14498551  1
  Sr  Sr30  1  0.85501449  0.14498551  0.85501449  1
  Sr  Sr31  1  0.64498551  0.64498551  0.64498551  1
  Ge  Ge32  1  0.75000000  0.00000000  0.50000000  1
  Ge  Ge33  1  0.50000000  0.75000000  -0.00000000  1
  Ge  Ge34  1  0.50000000  0.25000000  -0.00000000  1
  Ge  Ge35  1  -0.00000000  0.50000000  0.25000000  1
  Ge  Ge36  1  -0.00000000  0.50000000  0.75000000  1
  Ge  Ge37  1  0.25000000  0.00000000  0.50000000  1
  Ge  Ge38  1  0.50000000  0.50000000  0.50000000  1
  Ge  Ge39  1  -0.00000000  0.00000000  -0.00000000  1
  P  P40  1  0.64795090  0.89361434  0.61707049  1
  P  P41  1  0.64795090  0.10638566  0.38292951  1
  P  P42  1  0.89361434  0.61707049  0.64795090  1
  P  P43  1  0.10638566  0.61707049  0.35204910  1
  P  P44  1  0.61707049  0.64795090  0.89361434  1
  P  P45  1  0.38292951  0.35204910  0.89361434  1
  P  P46  1  0.85204910  0.88292951  0.39361434  1
  P  P47  1  0.85204910  0.11707049  0.60638566  1
  P  P48  1  0.14795090  0.88292951  0.60638566  1
  P  P49  1  0.11707049  0.60638566  0.85204910  1
  P  P50  1  0.60638566  0.14795090  0.88292951  1
  P  P51  1  0.60638566  0.85204910  0.11707049  1
  P  P52  1  0.88292951  0.39361434  0.85204910  1
  P  P53  1  0.39361434  0.85204910  0.88292951  1
  P  P54  1  0.88292951  0.60638566  0.14795090  1
  P  P55  1  0.11707049  0.39361434  0.14795090  1
  P  P56  1  0.39361434  0.14795090  0.11707049  1
  P  P57  1  0.38292951  0.64795090  0.10638566  1
  P  P58  1  0.61707049  0.35204910  0.10638566  1
  P  P59  1  0.89361434  0.38292951  0.35204910  1
  P  P60  1  0.10638566  0.38292951  0.64795090  1
  P  P61  1  0.35204910  0.10638566  0.61707049  1
  P  P62  1  0.35204910  0.89361434  0.38292951  1
  P  P63  1  0.14795090  0.11707049  0.39361434  1
  P  P64  1  0.89184206  0.89184206  0.89184206  1
  P  P65  1  0.60815794  0.39184206  0.60815794  1
  P  P66  1  0.39184206  0.60815794  0.60815794  1
  P  P67  1  0.60815794  0.60815794  0.39184206  1
  P  P68  1  0.89184206  0.10815794  0.10815794  1
  P  P69  1  0.10815794  0.10815794  0.89184206  1
  P  P70  1  0.10815794  0.89184206  0.10815794  1
  P  P71  1  0.39184206  0.39184206  0.39184206  1
