# generated using pymatgen
data_Cs3ZnBr5
_symmetry_space_group_name_H-M   'P 1'
_cell_length_a   10.23756480
_cell_length_b   10.23756480
_cell_length_c   10.23756480
_cell_angle_alpha   123.45324086
_cell_angle_beta   123.45324086
_cell_angle_gamma   84.11612822
_symmetry_Int_Tables_number   1
_chemical_formula_structural   Cs3ZnBr5
_chemical_formula_sum   'Cs6 Zn2 Br10'
_cell_volume   714.98207348
_cell_formula_units_Z   2
loop_
 _symmetry_equiv_pos_site_id
 _symmetry_equiv_pos_as_xyz
  1  'x, y, z'
loop_
 _atom_site_type_symbol
 _atom_site_label
 _atom_site_symmetry_multiplicity
 _atom_site_fract_x
 _atom_site_fract_y
 _atom_site_fract_z
 _atom_site_occupancy
  Cs  Cs0  1  0.16086552  0.33913448  0.50000000  1
  Cs  Cs1  1  0.83913448  0.66086552  0.50000000  1
  Cs  Cs2  1  0.66086552  0.16086552  0.82173004  1
  Cs  Cs3  1  0.33913448  0.83913448  0.17826996  1
  Cs  Cs4  1  0.75000000  0.75000000  0.00000000  1
  Cs  Cs5  1  0.25000000  0.25000000  0.00000000  1
  Zn  Zn6  1  0.75000000  0.25000000  0.50000000  1
  Zn  Zn7  1  0.25000000  0.75000000  0.50000000  1
  Br  Br8  1  -0.00000000  -0.00000000  0.00000000  1
  Br  Br9  1  0.50000000  0.50000000  0.00000000  1
  Br  Br10  1  0.20256105  0.98534920  0.50000000  1
  Br  Br11  1  0.48534920  0.70256105  0.50000000  1
  Br  Br12  1  0.70256105  0.20256105  0.21721186  1
  Br  Br13  1  0.98534920  0.48534920  0.78278814  1
  Br  Br14  1  0.79743895  0.01465080  0.50000000  1
  Br  Br15  1  0.51465080  0.29743895  0.50000000  1
  Br  Br16  1  0.29743895  0.79743895  0.78278814  1
  Br  Br17  1  0.01465080  0.51465080  0.21721186  1
