# generated using pymatgen
data_MgFe6Sb10(IO3)6
_symmetry_space_group_name_H-M   'P 1'
_cell_length_a   8.30118800
_cell_length_b   9.31738326
_cell_length_c   12.58958739
_cell_angle_alpha   78.85040851
_cell_angle_beta   89.34634806
_cell_angle_gamma   77.65557446
_symmetry_Int_Tables_number   1
_chemical_formula_structural   MgFe6Sb10(IO3)6
_chemical_formula_sum   'Mg1 Fe6 Sb10 I6 O18'
_cell_volume   932.82400497
_cell_formula_units_Z   1
loop_
 _symmetry_equiv_pos_site_id
 _symmetry_equiv_pos_as_xyz
  1  'x, y, z'
loop_
 _atom_site_type_symbol
 _atom_site_label
 _atom_site_symmetry_multiplicity
 _atom_site_fract_x
 _atom_site_fract_y
 _atom_site_fract_z
 _atom_site_occupancy
  Mg  Mg0  1  0.47497852  0.37468329  0.18455715  1
  Fe  Fe1  1  0.73141208  0.99789325  0.32791169  1
  Fe  Fe2  1  0.27442589  0.02093913  0.65602363  1
  Fe  Fe3  1  0.02384913  0.99002123  0.12080674  1
  Fe  Fe4  1  0.98771641  0.00456413  0.87422862  1
  Fe  Fe5  1  0.63372717  0.08768522  0.06209253  1
  Fe  Fe6  1  0.38694377  0.91299407  0.93116400  1
  Sb  Sb7  1  0.88513735  0.18703996  0.49371635  1
  Sb  Sb8  1  0.08065394  0.83885983  0.50140306  1
  Sb  Sb9  1  0.27624112  0.10865853  0.26149451  1
  Sb  Sb10  1  0.71661450  0.86464156  0.74329114  1
  Sb  Sb11  1  0.54541892  0.20791606  0.77242970  1
  Sb  Sb12  1  0.47927016  0.77694401  0.23597758  1
  Sb  Sb13  1  0.22355876  0.24072003  0.99216961  1
  Sb  Sb14  1  0.78601031  0.74638074  0.01708758  1
  Sb  Sb15  1  0.82083280  0.33768807  0.18787463  1
  Sb  Sb16  1  0.15391491  0.69538316  0.79161776  1
  I  I17  1  0.74476373  0.36628341  0.92990186  1
  I  I18  1  0.24957975  0.62635341  0.07057291  1
  I  I19  1  0.88214776  0.69576183  0.30667323  1
  I  I20  1  0.12337199  0.30830513  0.69734380  1
  I  I21  1  0.48367886  0.28914161  0.42446539  1
  I  I22  1  0.44781669  0.71947382  0.59550312  1
  O  O23  1  0.17145691  0.04107445  0.97341843  1
  O  O24  1  0.85280492  0.94262351  0.01676722  1
  O  O25  1  0.84506099  0.98391135  0.46953587  1
  O  O26  1  0.12044013  0.03943117  0.52914614  1
  O  O27  1  0.79768526  0.11172460  0.18149114  1
  O  O28  1  0.20756775  0.89223294  0.80374501  1
  O  O29  1  0.46778847  0.12847767  0.92372335  1
  O  O30  1  0.55855870  0.86139755  0.08813981  1
  O  O31  1  0.77249723  0.05840803  0.77933128  1
  O  O32  1  0.24398097  0.91149039  0.22058279  1
  O  O33  1  0.48937136  0.03472164  0.71550526  1
  O  O34  1  0.51389002  0.95576008  0.29339509  1
  O  O35  1  0.10516747  0.18579354  0.13216523  1
  O  O36  1  0.93338474  0.76941365  0.86051113  1
  O  O37  1  0.01839769  0.77666652  0.65293388  1
  O  O38  1  0.92875684  0.25006462  0.34103439  1
  O  O39  1  0.61553604  0.80872358  0.89120255  1
  O  O40  1  0.40652799  0.20689523  0.12614783  1
