# generated using pymatgen
data_Li5FeO4
_symmetry_space_group_name_H-M   'P 1'
_cell_length_a   9.06335862
_cell_length_b   9.10340278
_cell_length_c   9.11419535
_cell_angle_alpha   90.00000000
_cell_angle_beta   90.00000000
_cell_angle_gamma   90.00000000
_symmetry_Int_Tables_number   1
_chemical_formula_structural   Li5FeO4
_chemical_formula_sum   'Li40 Fe8 O32'
_cell_volume   751.98859840
_cell_formula_units_Z   8
loop_
 _symmetry_equiv_pos_site_id
 _symmetry_equiv_pos_as_xyz
  1  'x, y, z'
loop_
 _atom_site_type_symbol
 _atom_site_label
 _atom_site_symmetry_multiplicity
 _atom_site_fract_x
 _atom_site_fract_y
 _atom_site_fract_z
 _atom_site_occupancy
  Li  Li0  1  0.10402421  0.61842475  0.15539383  1
  Li  Li1  1  0.60402421  0.38157525  0.34460617  1
  Li  Li2  1  0.39597579  0.11842475  0.84460617  1
  Li  Li3  1  0.89597579  0.88157525  0.65539383  1
  Li  Li4  1  0.89597579  0.38157525  0.84460617  1
  Li  Li5  1  0.39597579  0.61842475  0.65539383  1
  Li  Li6  1  0.60402421  0.88157525  0.15539383  1
  Li  Li7  1  0.10402421  0.11842475  0.34460617  1
  Li  Li8  1  0.16138469  0.38974477  0.38134791  1
  Li  Li9  1  0.66138469  0.61025523  0.11865209  1
  Li  Li10  1  0.33861531  0.88974477  0.61865209  1
  Li  Li11  1  0.83861531  0.11025523  0.88134791  1
  Li  Li12  1  0.83861531  0.61025523  0.61865209  1
  Li  Li13  1  0.33861531  0.38974477  0.88134791  1
  Li  Li14  1  0.66138469  0.11025523  0.38134791  1
  Li  Li15  1  0.16138469  0.88974477  0.11865209  1
  Li  Li16  1  0.89285716  0.62702554  0.35303173  1
  Li  Li17  1  0.39285716  0.37297446  0.14696827  1
  Li  Li18  1  0.60714284  0.12702554  0.64696827  1
  Li  Li19  1  0.87546878  0.64663443  0.88066906  1
  Li  Li20  1  0.10714284  0.37297446  0.64696827  1
  Li  Li21  1  0.60714284  0.62702554  0.85303173  1
  Li  Li22  1  0.39285716  0.87297446  0.35303173  1
  Li  Li23  1  0.89285716  0.12702554  0.14696827  1
  Li  Li24  1  0.85652072  0.38860756  0.10779227  1
  Li  Li25  1  0.35652072  0.61139244  0.39220773  1
  Li  Li26  1  0.64347928  0.88860756  0.89220773  1
  Li  Li27  1  0.14347928  0.11139244  0.60779227  1
  Li  Li28  1  0.14347928  0.61139244  0.89220773  1
  Li  Li29  1  0.64347928  0.38860756  0.60779227  1
  Li  Li30  1  0.35652072  0.11139244  0.10779227  1
  Li  Li31  1  0.85652072  0.88860756  0.39220773  1
  Li  Li32  1  0.87546878  0.14663443  0.61933094  1
  Li  Li33  1  0.37546878  0.85336557  0.88066906  1
  Li  Li34  1  0.62453122  0.64663443  0.38066906  1
  Li  Li35  1  0.12453122  0.35336557  0.11933094  1
  Li  Li36  1  0.12453122  0.85336557  0.38066906  1
  Li  Li37  1  0.62453122  0.14663443  0.11933094  1
  Li  Li38  1  0.37546878  0.35336557  0.61933094  1
  Li  Li39  1  0.10714284  0.87297446  0.85303173  1
  Fe  Fe40  1  0.88198382  0.35348997  0.38407862  1
  Fe  Fe41  1  0.38198382  0.64651003  0.11592138  1
  Fe  Fe42  1  0.61801618  0.85348997  0.61592138  1
  Fe  Fe43  1  0.11801618  0.14651003  0.88407862  1
  Fe  Fe44  1  0.11801618  0.64651003  0.61592138  1
  Fe  Fe45  1  0.61801618  0.35348997  0.88407862  1
  Fe  Fe46  1  0.38198382  0.14651003  0.38407862  1
  Fe  Fe47  1  0.88198382  0.85348997  0.11592138  1
  O  O48  1  0.75379662  0.49493791  0.46625333  1
  O  O49  1  0.25379662  0.50506209  0.03374667  1
  O  O50  1  0.74620338  0.99493791  0.53374667  1
  O  O51  1  0.24620338  0.00506209  0.96625333  1
  O  O52  1  0.24620338  0.50506209  0.53374667  1
  O  O53  1  0.74620338  0.49493791  0.96625333  1
  O  O54  1  0.25379662  0.00506209  0.46625333  1
  O  O55  1  0.75379662  0.99493791  0.03374667  1
  O  O56  1  0.99960963  0.46796877  0.25587333  1
  O  O57  1  0.49960963  0.53203123  0.24412667  1
  O  O58  1  0.50039037  0.96796877  0.74412667  1
  O  O59  1  0.00039037  0.03203123  0.75587333  1
  O  O60  1  0.00039037  0.53203123  0.74412667  1
  O  O61  1  0.50039037  0.46796877  0.75587333  1
  O  O62  1  0.49960963  0.03203123  0.25587333  1
  O  O63  1  0.99960963  0.96796877  0.24412667  1
  O  O64  1  0.75791687  0.25169810  0.25294167  1
  O  O65  1  0.25791687  0.74830190  0.24705833  1
  O  O66  1  0.74208313  0.75169810  0.74705833  1
  O  O67  1  0.24208313  0.24830190  0.75294167  1
  O  O68  1  0.01875476  0.74873301  0.00353827  1
  O  O69  1  0.74208313  0.25169810  0.75294167  1
  O  O70  1  0.25791687  0.24830190  0.25294167  1
  O  O71  1  0.75791687  0.75169810  0.24705833  1
  O  O72  1  0.01875476  0.24873301  0.49646173  1
  O  O73  1  0.51875476  0.75126699  0.00353827  1
  O  O74  1  0.48124524  0.74873301  0.50353827  1
  O  O75  1  0.98124524  0.25126699  0.99646173  1
  O  O76  1  0.98124524  0.75126699  0.50353827  1
  O  O77  1  0.48124524  0.24873301  0.99646173  1
  O  O78  1  0.51875476  0.25126699  0.49646173  1
  O  O79  1  0.24208313  0.74830190  0.74705833  1
