# generated using pymatgen
data_SmGdS3
_symmetry_space_group_name_H-M   'P 1'
_cell_length_a   3.96655604
_cell_length_b   7.40210746
_cell_length_c   15.38183537
_cell_angle_alpha   90.00000000
_cell_angle_beta   90.00000000
_cell_angle_gamma   90.00000000
_symmetry_Int_Tables_number   1
_chemical_formula_structural   SmGdS3
_chemical_formula_sum   'Sm4 Gd4 S12'
_cell_volume   451.62413102
_cell_formula_units_Z   4
loop_
 _symmetry_equiv_pos_site_id
 _symmetry_equiv_pos_as_xyz
  1  'x, y, z'
loop_
 _atom_site_type_symbol
 _atom_site_label
 _atom_site_symmetry_multiplicity
 _atom_site_fract_x
 _atom_site_fract_y
 _atom_site_fract_z
 _atom_site_occupancy
  Sm  Sm0  1  0.25000000  0.14269269  0.79637092  1
  Sm  Sm1  1  0.25000000  0.64269269  0.70362908  1
  Sm  Sm2  1  0.75000000  0.85730731  0.20362908  1
  Sm  Sm3  1  0.75000000  0.35730731  0.29637092  1
  Gd  Gd4  1  0.25000000  0.76696974  0.45677528  1
  Gd  Gd5  1  0.25000000  0.26696974  0.04322472  1
  Gd  Gd6  1  0.75000000  0.23303026  0.54322472  1
  Gd  Gd7  1  0.75000000  0.73303026  0.95677528  1
  S  S8  1  0.25000000  0.14886143  0.21768866  1
  S  S9  1  0.25000000  0.64886143  0.28231134  1
  S  S10  1  0.75000000  0.85113857  0.78231134  1
  S  S11  1  0.75000000  0.35113857  0.71768866  1
  S  S12  1  0.25000000  0.01021422  0.60750403  1
  S  S13  1  0.25000000  0.51021422  0.89249597  1
  S  S14  1  0.75000000  0.98978578  0.39249597  1
  S  S15  1  0.75000000  0.48978578  0.10750403  1
  S  S16  1  0.25000000  0.37461211  0.43426219  1
  S  S17  1  0.25000000  0.87461211  0.06573781  1
  S  S18  1  0.75000000  0.62538789  0.56573781  1
  S  S19  1  0.75000000  0.12538789  0.93426219  1
