# generated using pymatgen
data_LaAg(MoO4)2
_symmetry_space_group_name_H-M   'P 1'
_cell_length_a   6.90510850
_cell_length_b   6.90510850
_cell_length_c   6.90510850
_cell_angle_alpha   134.26269649
_cell_angle_beta   134.26269649
_cell_angle_gamma   66.67798673
_symmetry_Int_Tables_number   1
_chemical_formula_structural   LaAg(MoO4)2
_chemical_formula_sum   'La1 Ag1 Mo2 O8'
_cell_volume   166.16266331
_cell_formula_units_Z   1
loop_
 _symmetry_equiv_pos_site_id
 _symmetry_equiv_pos_as_xyz
  1  'x, y, z'
loop_
 _atom_site_type_symbol
 _atom_site_label
 _atom_site_symmetry_multiplicity
 _atom_site_fract_x
 _atom_site_fract_y
 _atom_site_fract_z
 _atom_site_occupancy
  La  La0  1  0.50000000  0.50000000  0.00000000  1
  Ag  Ag1  1  0.75000000  0.25000000  0.50000000  1
  Mo  Mo2  1  0.25000000  0.75000000  0.50000000  1
  Mo  Mo3  1  0.00000000  0.00000000  0.00000000  1
  O  O4  1  0.39604771  0.52103853  0.59105047  1
  O  O5  1  0.92998906  0.80499724  0.40894953  1
  O  O6  1  0.06685226  0.15404707  0.38585044  1
  O  O7  1  0.76819662  0.68100281  0.61414956  1
  O  O8  1  0.84595293  0.23180338  0.91280619  1
  O  O9  1  0.31899719  0.93314774  0.08719381  1
  O  O10  1  0.19500276  0.60395229  0.12499081  1
  O  O11  1  0.47896147  0.07001094  0.87500919  1
