# generated using pymatgen
data_WSCl4
_symmetry_space_group_name_H-M   'P 1'
_cell_length_a   6.23037837
_cell_length_b   7.17521332
_cell_length_c   8.37353149
_cell_angle_alpha   104.00623368
_cell_angle_beta   111.15667747
_cell_angle_gamma   85.18110548
_symmetry_Int_Tables_number   1
_chemical_formula_structural   WSCl4
_chemical_formula_sum   'W2 S2 Cl8'
_cell_volume   338.72032821
_cell_formula_units_Z   2
loop_
 _symmetry_equiv_pos_site_id
 _symmetry_equiv_pos_as_xyz
  1  'x, y, z'
loop_
 _atom_site_type_symbol
 _atom_site_label
 _atom_site_symmetry_multiplicity
 _atom_site_fract_x
 _atom_site_fract_y
 _atom_site_fract_z
 _atom_site_occupancy
  W  W0  1  0.85955435  0.23987679  0.78375665  1
  W  W1  1  0.14044565  0.76012321  0.21624335  1
  S  S2  1  0.69412104  0.97485476  0.70478594  1
  S  S3  1  0.30587896  0.02514524  0.29521406  1
  Cl  Cl4  1  0.12382273  0.66095905  0.92591554  1
  Cl  Cl5  1  0.87617727  0.33904095  0.07408446  1
  Cl  Cl6  1  0.43989945  0.55098657  0.28240537  1
  Cl  Cl7  1  0.56010055  0.44901343  0.71759463  1
  Cl  Cl8  1  0.07816591  0.73192153  0.46240410  1
  Cl  Cl9  1  0.92183409  0.26807847  0.53759590  1
  Cl  Cl10  1  0.76032137  0.84062374  0.10511963  1
  Cl  Cl11  1  0.23967863  0.15937626  0.89488037  1
