# generated using pymatgen
data_WF5
_symmetry_space_group_name_H-M   'P 1'
_cell_length_a   9.76532032
_cell_length_b   5.08919814
_cell_length_c   7.81034084
_cell_angle_alpha   66.61705338
_cell_angle_beta   90.00000000
_cell_angle_gamma   90.00000000
_symmetry_Int_Tables_number   1
_chemical_formula_structural   WF5
_chemical_formula_sum   'W4 F20'
_cell_volume   356.27745050
_cell_formula_units_Z   4
loop_
 _symmetry_equiv_pos_site_id
 _symmetry_equiv_pos_as_xyz
  1  'x, y, z'
loop_
 _atom_site_type_symbol
 _atom_site_label
 _atom_site_symmetry_multiplicity
 _atom_site_fract_x
 _atom_site_fract_y
 _atom_site_fract_z
 _atom_site_occupancy
  W  W0  1  0.75275820  0.12287227  0.59915025  1
  W  W1  1  0.25275820  0.87712773  0.90084975  1
  W  W2  1  0.24724180  0.87712773  0.40084975  1
  W  W3  1  0.74724180  0.12287227  0.09915025  1
  F  F4  1  0.84902427  0.46725653  0.54923227  1
  F  F5  1  0.34902427  0.53274347  0.95076773  1
  F  F6  1  0.15097573  0.53274347  0.45076773  1
  F  F7  1  0.65097573  0.46725653  0.04923227  1
  F  F8  1  0.60200555  0.33672335  0.48203956  1
  F  F9  1  0.10200555  0.66327665  0.01796044  1
  F  F10  1  0.39799445  0.66327665  0.51796044  1
  F  F11  1  0.89799445  0.33672335  0.98203956  1
  F  F12  1  0.41147648  0.08589729  0.80775534  1
  F  F13  1  0.91147648  0.91410271  0.69224466  1
  F  F14  1  0.58852352  0.91410271  0.19224466  1
  F  F15  1  0.08852352  0.08589729  0.30775534  1
  F  F16  1  0.15716323  0.22476638  0.84182667  1
  F  F17  1  0.65716323  0.77523362  0.65817333  1
  F  F18  1  0.84283677  0.77523362  0.15817333  1
  F  F19  1  0.34283677  0.22476638  0.34182667  1
  F  F20  1  0.70285195  0.11726238  0.84806874  1
  F  F21  1  0.20285195  0.88273762  0.65193126  1
  F  F22  1  0.29714805  0.88273762  0.15193126  1
  F  F23  1  0.79714805  0.11726238  0.34806874  1
