# generated using pymatgen
data_NdIn2Cl5
_symmetry_space_group_name_H-M   'P 1'
_cell_length_a   8.11954680
_cell_length_b   8.79882269
_cell_length_c   12.84152325
_cell_angle_alpha   90.00000000
_cell_angle_beta   90.00000000
_cell_angle_gamma   90.00000000
_symmetry_Int_Tables_number   1
_chemical_formula_structural   NdIn2Cl5
_chemical_formula_sum   'Nd4 In8 Cl20'
_cell_volume   917.42991631
_cell_formula_units_Z   4
loop_
 _symmetry_equiv_pos_site_id
 _symmetry_equiv_pos_as_xyz
  1  'x, y, z'
loop_
 _atom_site_type_symbol
 _atom_site_label
 _atom_site_symmetry_multiplicity
 _atom_site_fract_x
 _atom_site_fract_y
 _atom_site_fract_z
 _atom_site_occupancy
  Nd  Nd0  1  0.92380096  0.75000000  0.50479970  1
  Nd  Nd1  1  0.07619904  0.25000000  0.49520030  1
  Nd  Nd2  1  0.42380096  0.25000000  0.99520030  1
  Nd  Nd3  1  0.57619904  0.75000000  0.00479970  1
  In  In4  1  0.95385181  0.00552752  0.82792871  1
  In  In5  1  0.04614819  0.99447248  0.17207129  1
  In  In6  1  0.45385181  0.99447248  0.67207129  1
  In  In7  1  0.04614819  0.50552752  0.17207129  1
  In  In8  1  0.54614819  0.00552752  0.32792871  1
  In  In9  1  0.95385181  0.49447248  0.82792871  1
  In  In10  1  0.54614819  0.49447248  0.32792871  1
  In  In11  1  0.45385181  0.50552752  0.67207129  1
  Cl  Cl12  1  0.11326701  0.75000000  0.68362361  1
  Cl  Cl13  1  0.88673299  0.25000000  0.31637639  1
  Cl  Cl14  1  0.61326701  0.25000000  0.81637639  1
  Cl  Cl15  1  0.38673299  0.75000000  0.18362361  1
  Cl  Cl16  1  0.83412587  0.04392647  0.57464845  1
  Cl  Cl17  1  0.16587413  0.95607353  0.42535155  1
  Cl  Cl18  1  0.33412587  0.95607353  0.92535155  1
  Cl  Cl19  1  0.16587413  0.54392647  0.42535155  1
  Cl  Cl20  1  0.66587413  0.04392647  0.07464845  1
  Cl  Cl21  1  0.83412587  0.45607353  0.57464845  1
  Cl  Cl22  1  0.66587413  0.45607353  0.07464845  1
  Cl  Cl23  1  0.33412587  0.54392647  0.92535155  1
  Cl  Cl24  1  0.57908570  0.75000000  0.50757655  1
  Cl  Cl25  1  0.42091430  0.25000000  0.49242345  1
  Cl  Cl26  1  0.07908570  0.25000000  0.99242345  1
  Cl  Cl27  1  0.92091430  0.75000000  0.00757655  1
  Cl  Cl28  1  0.65951130  0.75000000  0.79398734  1
  Cl  Cl29  1  0.34048870  0.25000000  0.20601266  1
  Cl  Cl30  1  0.15951130  0.25000000  0.70601266  1
  Cl  Cl31  1  0.84048870  0.75000000  0.29398734  1
