# generated using pymatgen
data_MgAg20(BiO4)4
_symmetry_space_group_name_H-M   'P 1'
_cell_length_a   5.97614794
_cell_length_b   9.14592543
_cell_length_c   13.74615363
_cell_angle_alpha   93.61089739
_cell_angle_beta   94.29911750
_cell_angle_gamma   89.04968398
_symmetry_Int_Tables_number   1
_chemical_formula_structural   MgAg20(BiO4)4
_chemical_formula_sum   'Mg1 Ag20 Bi4 O16'
_cell_volume   747.67454021
_cell_formula_units_Z   1
loop_
 _symmetry_equiv_pos_site_id
 _symmetry_equiv_pos_as_xyz
  1  'x, y, z'
loop_
 _atom_site_type_symbol
 _atom_site_label
 _atom_site_symmetry_multiplicity
 _atom_site_fract_x
 _atom_site_fract_y
 _atom_site_fract_z
 _atom_site_occupancy
  Mg  Mg0  1  0.52972902  0.03535145  0.87370304  1
  Ag  Ag1  1  0.20041515  0.71972141  0.14360129  1
  Ag  Ag2  1  0.80250852  0.76926993  0.63293689  1
  Ag  Ag3  1  0.07128855  0.46395157  0.00571621  1
  Ag  Ag4  1  0.50477003  0.01550449  0.49755229  1
  Ag  Ag5  1  0.89831354  0.08845840  0.70300027  1
  Ag  Ag6  1  0.52689593  0.66256613  0.82889034  1
  Ag  Ag7  1  0.97651286  0.87179848  0.33031918  1
  Ag  Ag8  1  0.47176684  0.36306857  0.17279866  1
  Ag  Ag9  1  0.50791020  0.99326791  0.26669231  1
  Ag  Ag10  1  0.95235485  0.49208535  0.25263785  1
  Ag  Ag11  1  0.35442492  0.18254827  0.72079805  1
  Ag  Ag12  1  0.08642387  0.45197884  0.73812885  1
  Ag  Ag13  1  0.40781591  0.95449994  0.06012209  1
  Ag  Ag14  1  0.05278466  0.52768788  0.48906752  1
  Ag  Ag15  1  0.12284210  0.19056554  0.88148252  1
  Ag  Ag16  1  0.30114278  0.76681976  0.63619129  1
  Ag  Ag17  1  0.71134383  0.72153661  0.13317155  1
  Ag  Ag18  1  0.77001119  0.24194987  0.35476734  1
  Ag  Ag19  1  0.69645442  0.32644006  0.85986072  1
  Ag  Ag20  1  0.25600976  0.24602529  0.35411637  1
  Bi  Bi21  1  0.59880742  0.41152863  0.58958334  1
  Bi  Bi22  1  0.02265067  0.80252696  0.88715975  1
  Bi  Bi23  1  0.49850375  0.63671922  0.37882337  1
  Bi  Bi24  1  0.93376297  0.11473746  0.11245273  1
  O  O25  1  0.02667552  0.34706822  0.12902716  1
  O  O26  1  0.39512192  0.87139631  0.37957739  1
  O  O27  1  0.13875343  0.58394081  0.88615156  1
  O  O28  1  0.61051886  0.16588842  0.61149222  1
  O  O29  1  0.06126495  0.85858865  0.72911700  1
  O  O30  1  0.68173207  0.48619704  0.75278376  1
  O  O31  1  0.78476878  0.13215256  0.94711155  1
  O  O32  1  0.54182096  0.66170884  0.54787964  1
  O  O33  1  0.95196113  0.83834684  0.06098583  1
  O  O34  1  0.52518273  0.37967191  0.41804184  1
  O  O35  1  0.58492556  0.13287211  0.14833934  1
  O  O36  1  0.86499874  0.65024774  0.37400990  1
  O  O37  1  0.38398035  0.85600501  0.90646719  1
  O  O38  1  0.24295377  0.40401419  0.59745273  1
  O  O39  1  0.00497817  0.10069870  0.28137698  1
  O  O40  1  0.47616932  0.60202362  0.20682014  1
