# generated using pymatgen
data_Mg14VNiO16
_symmetry_space_group_name_H-M   'P 1'
_cell_length_a   8.52775808
_cell_length_b   8.53012958
_cell_length_c   4.27312421
_cell_angle_alpha   90.00000000
_cell_angle_beta   90.00000000
_cell_angle_gamma   90.00000000
_symmetry_Int_Tables_number   1
_chemical_formula_structural   Mg14VNiO16
_chemical_formula_sum   'Mg14 V1 Ni1 O16'
_cell_volume   310.83936783
_cell_formula_units_Z   1
loop_
 _symmetry_equiv_pos_site_id
 _symmetry_equiv_pos_as_xyz
  1  'x, y, z'
loop_
 _atom_site_type_symbol
 _atom_site_label
 _atom_site_symmetry_multiplicity
 _atom_site_fract_x
 _atom_site_fract_y
 _atom_site_fract_z
 _atom_site_occupancy
  Mg  Mg0  1  0.50000000  0.00000000  0.00000000  1
  Mg  Mg1  1  0.50000000  0.50000000  0.00000000  1
  Mg  Mg2  1  0.00000000  0.24767802  0.50000000  1
  Mg  Mg3  1  0.00000000  0.75232198  0.50000000  1
  Mg  Mg4  1  0.50000000  0.24982923  0.50000000  1
  Mg  Mg5  1  0.50000000  0.75017077  0.50000000  1
  Mg  Mg6  1  0.24891606  0.00000000  0.50000000  1
  Mg  Mg7  1  0.25093474  0.50000000  0.50000000  1
  Mg  Mg8  1  0.75108394  0.00000000  0.50000000  1
  Mg  Mg9  1  0.74906526  0.50000000  0.50000000  1
  Mg  Mg10  1  0.24994373  0.24882961  0.00000000  1
  Mg  Mg11  1  0.24994373  0.75117039  0.00000000  1
  Mg  Mg12  1  0.75005627  0.24882961  0.00000000  1
  Mg  Mg13  1  0.75005627  0.75117039  0.00000000  1
  V  V14  1  0.00000000  0.50000000  0.00000000  1
  Ni  Ni15  1  0.00000000  0.00000000  0.00000000  1
  O  O16  1  0.25125919  0.00000000  0.00000000  1
  O  O17  1  0.25520725  0.50000000  0.00000000  1
  O  O18  1  0.74874081  0.00000000  0.00000000  1
  O  O19  1  0.74479275  0.50000000  0.00000000  1
  O  O20  1  0.24935839  0.24994258  0.50000000  1
  O  O21  1  0.24935839  0.75005742  0.50000000  1
  O  O22  1  0.75064161  0.24994258  0.50000000  1
  O  O23  1  0.75064161  0.75005742  0.50000000  1
  O  O24  1  0.00000000  0.00000000  0.50000000  1
  O  O25  1  0.00000000  0.50000000  0.50000000  1
  O  O26  1  0.50000000  0.00000000  0.50000000  1
  O  O27  1  0.50000000  0.50000000  0.50000000  1
  O  O28  1  0.00000000  0.24530405  0.00000000  1
  O  O29  1  0.00000000  0.75469595  0.00000000  1
  O  O30  1  0.50000000  0.24911999  0.00000000  1
  O  O31  1  0.50000000  0.75088001  0.00000000  1
