# generated using pymatgen
data_Cs3Nb6SBr17
_symmetry_space_group_name_H-M   'P 1'
_cell_length_a   13.10252233
_cell_length_b   13.10252233
_cell_length_c   9.60182498
_cell_angle_alpha   89.77777233
_cell_angle_beta   89.77777233
_cell_angle_gamma   96.10437700
_symmetry_Int_Tables_number   1
_chemical_formula_structural   Cs3Nb6SBr17
_chemical_formula_sum   'Cs6 Nb12 S2 Br34'
_cell_volume   1639.02945024
_cell_formula_units_Z   2
loop_
 _symmetry_equiv_pos_site_id
 _symmetry_equiv_pos_as_xyz
  1  'x, y, z'
loop_
 _atom_site_type_symbol
 _atom_site_label
 _atom_site_symmetry_multiplicity
 _atom_site_fract_x
 _atom_site_fract_y
 _atom_site_fract_z
 _atom_site_occupancy
  Cs  Cs0  1  0.27147878  0.16404019  0.83253773  1
  Cs  Cs1  1  0.72852122  0.83595981  0.16746227  1
  Cs  Cs2  1  0.83595981  0.72852122  0.66746227  1
  Cs  Cs3  1  0.16404019  0.27147878  0.33253773  1
  Cs  Cs4  1  0.45079544  0.54920456  0.75000000  1
  Cs  Cs5  1  0.54920456  0.45079544  0.25000000  1
  Nb  Nb6  1  0.80223896  0.16432692  0.52032196  1
  Nb  Nb7  1  0.19776104  0.83567308  0.47967804  1
  Nb  Nb8  1  0.83567308  0.19776104  0.97967804  1
  Nb  Nb9  1  0.16432692  0.80223896  0.02032196  1
  Nb  Nb10  1  0.61668834  0.23783951  0.64074599  1
  Nb  Nb11  1  0.38331166  0.76216049  0.35925401  1
  Nb  Nb12  1  0.76216049  0.38331166  0.85925401  1
  Nb  Nb13  1  0.23783951  0.61668834  0.14074599  1
  Nb  Nb14  1  0.69545216  0.05179668  0.75763653  1
  Nb  Nb15  1  0.30454784  0.94820332  0.24236347  1
  Nb  Nb16  1  0.94820332  0.30454784  0.74236347  1
  Nb  Nb17  1  0.05179668  0.69545216  0.25763653  1
  S  S18  1  0.77692272  0.22307728  0.75000000  1
  S  S19  1  0.22307728  0.77692272  0.25000000  1
  Br  Br20  1  0.87110475  0.00971270  0.88775991  1
  Br  Br21  1  0.12889525  0.99028730  0.11224009  1
  Br  Br22  1  0.99028730  0.12889525  0.61224009  1
  Br  Br23  1  0.00971270  0.87110475  0.38775991  1
  Br  Br24  1  0.35954920  0.80045179  0.62178805  1
  Br  Br25  1  0.64045080  0.19954821  0.37821195  1
  Br  Br26  1  0.19954821  0.64045080  0.87821195  1
  Br  Br27  1  0.80045179  0.35954920  0.12178805  1
  Br  Br28  1  0.64836261  0.09779146  0.02206965  1
  Br  Br29  1  0.35163739  0.90220854  0.97793035  1
  Br  Br30  1  0.90220854  0.35163739  0.47793035  1
  Br  Br31  1  0.09779146  0.64836261  0.52206965  1
  Br  Br32  1  0.56118146  0.30973082  0.89280077  1
  Br  Br33  1  0.43881854  0.69026918  0.10719923  1
  Br  Br34  1  0.69026918  0.43881854  0.60719923  1
  Br  Br35  1  0.30973082  0.56118146  0.39280077  1
  Br  Br36  1  0.43362509  0.30409670  0.55669657  1
  Br  Br37  1  0.56637491  0.69590330  0.44330343  1
  Br  Br38  1  0.69590330  0.56637491  0.94330343  1
  Br  Br39  1  0.30409670  0.43362509  0.05669657  1
  Br  Br40  1  0.11929276  0.88070724  0.75000000  1
  Br  Br41  1  0.88070724  0.11929276  0.25000000  1
  Br  Br42  1  0.50721798  0.06236783  0.67910556  1
  Br  Br43  1  0.49278202  0.93763217  0.32089444  1
  Br  Br44  1  0.93763217  0.49278202  0.82089444  1
  Br  Br45  1  0.06236783  0.50721798  0.17910556  1
  Br  Br46  1  0.62741606  0.85533392  0.82666124  1
  Br  Br47  1  0.37258394  0.14466608  0.17333876  1
  Br  Br48  1  0.14466608  0.37258394  0.67333876  1
  Br  Br49  1  0.85533392  0.62741606  0.32666124  1
  Br  Br50  1  0.74273963  0.96760476  0.52079358  1
  Br  Br51  1  0.25726037  0.03239524  0.47920642  1
  Br  Br52  1  0.03239524  0.25726037  0.97920642  1
  Br  Br53  1  0.96760476  0.74273963  0.02079358  1
