# generated using pymatgen
data_ZrF4
_symmetry_space_group_name_H-M   'P 1'
_cell_length_a   7.73434039
_cell_length_b   7.73434039
_cell_length_c   7.72699884
_cell_angle_alpha   63.16224483
_cell_angle_beta   63.16224483
_cell_angle_gamma   80.39365143
_symmetry_Int_Tables_number   1
_chemical_formula_structural   ZrF4
_chemical_formula_sum   'Zr6 F24'
_cell_volume   367.62072929
_cell_formula_units_Z   6
loop_
 _symmetry_equiv_pos_site_id
 _symmetry_equiv_pos_as_xyz
  1  'x, y, z'
loop_
 _atom_site_type_symbol
 _atom_site_label
 _atom_site_symmetry_multiplicity
 _atom_site_fract_x
 _atom_site_fract_y
 _atom_site_fract_z
 _atom_site_occupancy
  Zr  Zr0  1  0.21437780  0.78562220  0.75000000  1
  Zr  Zr1  1  0.78562220  0.21437780  0.25000000  1
  Zr  Zr2  1  0.22290242  0.36566452  0.33361351  1
  Zr  Zr3  1  0.36566452  0.22290242  0.83361351  1
  Zr  Zr4  1  0.77709758  0.63433548  0.66638649  1
  Zr  Zr5  1  0.63433548  0.77709758  0.16638649  1
  F  F6  1  0.50000000  -0.00000000  -0.00000000  1
  F  F7  1  0.00000000  0.50000000  0.50000000  1
  F  F8  1  0.60648595  0.39351405  0.75000000  1
  F  F9  1  0.39351405  0.60648595  0.25000000  1
  F  F10  1  0.40197365  0.81672893  0.42487242  1
  F  F11  1  0.81672893  0.40197365  0.92487242  1
  F  F12  1  0.59802635  0.18327107  0.57512758  1
  F  F13  1  0.18327107  0.59802635  0.07512758  1
  F  F14  1  0.17081924  0.06294496  0.54479895  1
  F  F15  1  0.06294496  0.17081924  0.04479895  1
  F  F16  1  0.82918076  0.93705504  0.45520105  1
  F  F17  1  0.93705504  0.82918076  0.95520105  1
  F  F18  1  0.74217900  0.68294504  0.39304390  1
  F  F19  1  0.68294504  0.74217900  0.89304390  1
  F  F20  1  0.25782100  0.31705496  0.60695610  1
  F  F21  1  0.31705496  0.25782100  0.10695610  1
  F  F22  1  0.50172600  0.26051478  0.28348095  1
  F  F23  1  0.26051478  0.50172600  0.78348095  1
  F  F24  1  0.49827400  0.73948522  0.71651905  1
  F  F25  1  0.73948522  0.49827400  0.21651905  1
  F  F26  1  0.72346620  0.03058601  0.14975212  1
  F  F27  1  0.03058601  0.72346620  0.64975212  1
  F  F28  1  0.27653380  0.96941399  0.85024788  1
  F  F29  1  0.96941399  0.27653380  0.35024788  1
