# generated using pymatgen
data_Tm2PbS4
_symmetry_space_group_name_H-M   'P 1'
_cell_length_a   3.91807453
_cell_length_b   11.95671620
_cell_length_c   14.18331097
_cell_angle_alpha   90.00000000
_cell_angle_beta   90.00000000
_cell_angle_gamma   90.00000000
_symmetry_Int_Tables_number   1
_chemical_formula_structural   Tm2PbS4
_chemical_formula_sum   'Tm8 Pb4 S16'
_cell_volume   664.44989784
_cell_formula_units_Z   4
loop_
 _symmetry_equiv_pos_site_id
 _symmetry_equiv_pos_as_xyz
  1  'x, y, z'
loop_
 _atom_site_type_symbol
 _atom_site_label
 _atom_site_symmetry_multiplicity
 _atom_site_fract_x
 _atom_site_fract_y
 _atom_site_fract_z
 _atom_site_occupancy
  Tm  Tm0  1  0.25000000  0.43839831  0.38844186  1
  Tm  Tm1  1  0.25000000  0.93839831  0.11155814  1
  Tm  Tm2  1  0.75000000  0.56160169  0.61155814  1
  Tm  Tm3  1  0.75000000  0.06160169  0.88844186  1
  Tm  Tm4  1  0.25000000  0.41668742  0.90032032  1
  Tm  Tm5  1  0.25000000  0.91668742  0.59967968  1
  Tm  Tm6  1  0.75000000  0.58331258  0.09967968  1
  Tm  Tm7  1  0.75000000  0.08331258  0.40032032  1
  Pb  Pb8  1  0.25000000  0.76297096  0.33674613  1
  Pb  Pb9  1  0.25000000  0.26297096  0.16325387  1
  Pb  Pb10  1  0.75000000  0.23702904  0.66325387  1
  Pb  Pb11  1  0.75000000  0.73702904  0.83674613  1
  S  S12  1  0.25000000  0.20531901  0.83204159  1
  S  S13  1  0.25000000  0.70531901  0.66795841  1
  S  S14  1  0.75000000  0.79468099  0.16795841  1
  S  S15  1  0.75000000  0.29468099  0.33204159  1
  S  S16  1  0.25000000  0.12619604  0.52852793  1
  S  S17  1  0.25000000  0.62619604  0.97147207  1
  S  S18  1  0.75000000  0.87380396  0.47147207  1
  S  S19  1  0.75000000  0.37380396  0.02852793  1
  S  S20  1  0.25000000  0.02476454  0.28546568  1
  S  S21  1  0.25000000  0.52476454  0.21453432  1
  S  S22  1  0.75000000  0.97523546  0.71453432  1
  S  S23  1  0.75000000  0.47523546  0.78546568  1
  S  S24  1  0.25000000  0.41198031  0.57525905  1
  S  S25  1  0.25000000  0.91198031  0.92474095  1
  S  S26  1  0.75000000  0.58801969  0.42474095  1
  S  S27  1  0.75000000  0.08801969  0.07525905  1
