# generated using pymatgen
data_Na4Hf2(GeO4)3
_symmetry_space_group_name_H-M   'P 1'
_cell_length_a   9.18928829
_cell_length_b   9.18928829
_cell_length_c   9.18928799
_cell_angle_alpha   61.80107916
_cell_angle_beta   61.80107916
_cell_angle_gamma   61.80108454
_symmetry_Int_Tables_number   1
_chemical_formula_structural   Na4Hf2(GeO4)3
_chemical_formula_sum   'Na8 Hf4 Ge6 O24'
_cell_volume   570.83079990
_cell_formula_units_Z   2
loop_
 _symmetry_equiv_pos_site_id
 _symmetry_equiv_pos_as_xyz
  1  'x, y, z'
loop_
 _atom_site_type_symbol
 _atom_site_label
 _atom_site_symmetry_multiplicity
 _atom_site_fract_x
 _atom_site_fract_y
 _atom_site_fract_z
 _atom_site_occupancy
  Na  Na0  1  -0.00000000  0.00000000  -0.00000000  1
  Na  Na1  1  0.36954069  0.13045931  0.75000000  1
  Na  Na2  1  0.13045931  0.75000000  0.36954069  1
  Na  Na3  1  0.75000000  0.36954069  0.13045931  1
  Na  Na4  1  0.25000000  0.63045931  0.86954069  1
  Na  Na5  1  0.86954069  0.25000000  0.63045931  1
  Na  Na6  1  0.50000000  0.50000000  0.50000000  1
  Na  Na7  1  0.63045931  0.86954069  0.25000000  1
  Hf  Hf8  1  0.35680981  0.35680981  0.35680981  1
  Hf  Hf9  1  0.85680981  0.85680981  0.85680981  1
  Hf  Hf10  1  0.64319019  0.64319019  0.64319019  1
  Hf  Hf11  1  0.14319019  0.14319019  0.14319019  1
  Ge  Ge12  1  0.95599964  0.54400036  0.25000000  1
  Ge  Ge13  1  0.75000000  0.04400036  0.45599964  1
  Ge  Ge14  1  0.25000000  0.95599964  0.54400036  1
  Ge  Ge15  1  0.04400036  0.45599964  0.75000000  1
  Ge  Ge16  1  0.45599964  0.75000000  0.04400036  1
  Ge  Ge17  1  0.54400036  0.25000000  0.95599964  1
  O  O18  1  0.70256942  0.86535984  0.48996181  1
  O  O19  1  0.48996181  0.70256942  0.86535984  1
  O  O20  1  0.86535984  0.48996181  0.70256942  1
  O  O21  1  0.79743058  0.01003819  0.63464016  1
  O  O22  1  0.63464016  0.79743058  0.01003819  1
  O  O23  1  0.01003819  0.63464016  0.79743058  1
  O  O24  1  0.29743058  0.13464016  0.51003819  1
  O  O25  1  0.51003819  0.29743058  0.13464016  1
  O  O26  1  0.13464016  0.51003819  0.29743058  1
  O  O27  1  0.20256942  0.98996181  0.36535984  1
  O  O28  1  0.36535984  0.20256942  0.98996181  1
  O  O29  1  0.98996181  0.36535984  0.20256942  1
  O  O30  1  0.42234353  0.75935064  0.56178402  1
  O  O31  1  0.56178402  0.42234353  0.75935064  1
  O  O32  1  0.75935064  0.56178402  0.42234353  1
  O  O33  1  0.07765647  0.93821598  0.74064936  1
  O  O34  1  0.74064936  0.07765647  0.93821598  1
  O  O35  1  0.93821598  0.74064936  0.07765647  1
  O  O36  1  0.06178402  0.25935064  0.92234353  1
  O  O37  1  0.25935064  0.92234353  0.06178402  1
  O  O38  1  0.92234353  0.06178402  0.25935064  1
  O  O39  1  0.24064936  0.43821598  0.57765647  1
  O  O40  1  0.43821598  0.57765647  0.24064936  1
  O  O41  1  0.57765647  0.24064936  0.43821598  1
