# generated using pymatgen
data_Nb2O5
_symmetry_space_group_name_H-M   'P 1'
_cell_length_a   3.83744110
_cell_length_b   14.62795034
_cell_length_c   15.34099716
_cell_angle_alpha   73.10380476
_cell_angle_beta   82.81512072
_cell_angle_gamma   82.46290404
_symmetry_Int_Tables_number   1
_chemical_formula_structural   Nb2O5
_chemical_formula_sum   'Nb16 O40'
_cell_volume   813.41863124
_cell_formula_units_Z   8
loop_
 _symmetry_equiv_pos_site_id
 _symmetry_equiv_pos_as_xyz
  1  'x, y, z'
loop_
 _atom_site_type_symbol
 _atom_site_label
 _atom_site_symmetry_multiplicity
 _atom_site_fract_x
 _atom_site_fract_y
 _atom_site_fract_z
 _atom_site_occupancy
  Nb  Nb0  1  0.06137802  0.97848333  0.89876064  1
  Nb  Nb1  1  0.93862198  0.02151667  0.10123936  1
  Nb  Nb2  1  0.65802573  0.78380326  0.90014428  1
  Nb  Nb3  1  0.34197427  0.21619674  0.09985572  1
  Nb  Nb4  1  0.79215830  0.51328722  0.90239919  1
  Nb  Nb5  1  0.20784170  0.48671278  0.09760081  1
  Nb  Nb6  1  0.92515112  0.24723804  0.90246171  1
  Nb  Nb7  1  0.07484888  0.75276196  0.09753829  1
  Nb  Nb8  1  0.02046777  0.32969856  0.62936590  1
  Nb  Nb9  1  0.97953223  0.67030144  0.37063410  1
  Nb  Nb10  1  0.15507137  0.06127609  0.62858217  1
  Nb  Nb11  1  0.84492863  0.93872391  0.37141783  1
  Nb  Nb12  1  0.75207899  0.86271340  0.63312763  1
  Nb  Nb13  1  0.24792101  0.13728660  0.36687237  1
  Nb  Nb14  1  0.88767740  0.59115590  0.63349030  1
  Nb  Nb15  1  0.11232260  0.40884410  0.36650970  1
  O  O16  1  0.57443164  0.93921308  0.91192464  1
  O  O17  1  0.42556736  0.06078692  0.08807536  1
  O  O18  1  0.12943343  0.81454416  0.92658798  1
  O  O19  1  0.87056657  0.18545584  0.07341202  1
  O  O20  1  0.27329214  0.51442157  0.93899716  1
  O  O21  1  0.72670786  0.48557843  0.06100284  1
  O  O22  1  0.41153073  0.23200010  0.94493644  1
  O  O23  1  0.58846927  0.76799990  0.05506356  1
  O  O24  1  0.51918386  0.31403458  0.64759870  1
  O  O25  1  0.48081614  0.68596542  0.35240130  1
  O  O26  1  0.66905542  0.02127110  0.64061805  1
  O  O27  1  0.33094458  0.97872890  0.35938195  1
  O  O28  1  0.22953644  0.89841989  0.64250522  1
  O  O29  1  0.77046356  0.10158011  0.35749478  1
  O  O30  1  0.37617694  0.60315092  0.64449720  1
  O  O31  1  0.62382306  0.39684908  0.35550280  1
  O  O32  1  0.71465296  0.65563048  0.91506360  1
  O  O33  1  0.28534704  0.34436952  0.08493640  1
  O  O34  1  0.85529188  0.37578420  0.91363104  1
  O  O35  1  0.14470812  0.62421580  0.08636896  1
  O  O36  1  0.98485636  0.08986345  0.94042584  1
  O  O37  1  0.01514364  0.91013655  0.05957416  1
  O  O38  1  0.10204614  0.02001943  0.77589030  1
  O  O39  1  0.89795386  0.97998057  0.22410970  1
  O  O40  1  0.69555833  0.83231686  0.77656848  1
  O  O41  1  0.30444167  0.16768314  0.22343152  1
  O  O42  1  0.83127924  0.55750010  0.77994141  1
  O  O43  1  0.16872076  0.44249990  0.22005859  1
  O  O44  1  0.97588236  0.26601070  0.78222357  1
  O  O45  1  0.02411764  0.73398930  0.21777643  1
  O  O46  1  0.09193136  0.18509407  0.63104420  1
  O  O47  1  0.90806864  0.81490593  0.36895580  1
  O  O48  1  0.81248000  0.73737325  0.63766975  1
  O  O49  1  0.18752000  0.26262675  0.36233025  1
  O  O50  1  0.94792535  0.45607676  0.64807354  1
  O  O51  1  0.05207465  0.54392324  0.35192646  1
  O  O52  1  0.06537949  0.36979260  0.49944842  1
  O  O53  1  0.93462051  0.63020740  0.50055158  1
  O  O54  1  0.20845601  0.08455210  0.49853387  1
  O  O55  1  0.79154399  0.91544790  0.50146613  1
