# generated using pymatgen
data_Er2S3
_symmetry_space_group_name_H-M   'P 1'
_cell_length_a   3.81354251
_cell_length_b   10.40918000
_cell_length_c   10.50304613
_cell_angle_alpha   90.00000000
_cell_angle_beta   90.00000000
_cell_angle_gamma   90.00000000
_symmetry_Int_Tables_number   1
_chemical_formula_structural   Er2S3
_chemical_formula_sum   'Er8 S12'
_cell_volume   416.92734818
_cell_formula_units_Z   4
loop_
 _symmetry_equiv_pos_site_id
 _symmetry_equiv_pos_as_xyz
  1  'x, y, z'
loop_
 _atom_site_type_symbol
 _atom_site_label
 _atom_site_symmetry_multiplicity
 _atom_site_fract_x
 _atom_site_fract_y
 _atom_site_fract_z
 _atom_site_occupancy
  Er  Er0  1  0.25000000  0.18720056  0.48996709  1
  Er  Er1  1  0.25000000  0.31279944  0.98996709  1
  Er  Er2  1  0.75000000  0.81279944  0.51003291  1
  Er  Er3  1  0.75000000  0.68720056  0.01003291  1
  Er  Er4  1  0.75000000  0.49569082  0.69201805  1
  Er  Er5  1  0.75000000  0.00430918  0.19201805  1
  Er  Er6  1  0.25000000  0.50430918  0.30798195  1
  Er  Er7  1  0.25000000  0.99569082  0.80798195  1
  S  S8  1  0.25000000  0.62676391  0.54595536  1
  S  S9  1  0.25000000  0.87323609  0.04595536  1
  S  S10  1  0.75000000  0.37323609  0.45404464  1
  S  S11  1  0.75000000  0.12676391  0.95404464  1
  S  S12  1  0.75000000  0.05530770  0.61853893  1
  S  S13  1  0.75000000  0.44469230  0.11853893  1
  S  S14  1  0.25000000  0.94469230  0.38146107  1
  S  S15  1  0.25000000  0.55530770  0.88146107  1
  S  S16  1  0.25000000  0.30556684  0.72713939  1
  S  S17  1  0.25000000  0.19443316  0.22713939  1
  S  S18  1  0.75000000  0.69443316  0.27286061  1
  S  S19  1  0.75000000  0.80556684  0.77286061  1
