# generated using pymatgen
data_ZnSi3GeH35C13BrO
_symmetry_space_group_name_H-M   'P 1'
_cell_length_a   10.11417614
_cell_length_b   11.02214803
_cell_length_c   13.82925575
_cell_angle_alpha   92.27444861
_cell_angle_beta   105.64617766
_cell_angle_gamma   97.22652798
_symmetry_Int_Tables_number   1
_chemical_formula_structural   ZnSi3GeH35C13BrO
_chemical_formula_sum   'Zn2 Si6 Ge2 H70 C26 Br2 O2'
_cell_volume   1468.38691974
_cell_formula_units_Z   2
loop_
 _symmetry_equiv_pos_site_id
 _symmetry_equiv_pos_as_xyz
  1  'x, y, z'
loop_
 _atom_site_type_symbol
 _atom_site_label
 _atom_site_symmetry_multiplicity
 _atom_site_fract_x
 _atom_site_fract_y
 _atom_site_fract_z
 _atom_site_occupancy
  Zn  Zn0  1  0.90419996  0.86851903  0.91090762  1
  Zn  Zn1  1  0.09580004  0.13148097  0.08909238  1
  Si  Si2  1  0.08962777  0.72553480  0.73348906  1
  Si  Si3  1  0.91037223  0.27446520  0.26651094  1
  Si  Si4  1  0.73038677  0.55270825  0.73886245  1
  Si  Si5  1  0.26961323  0.44729175  0.26113755  1
  Si  Si6  1  0.74651908  0.87288764  0.61909117  1
  Si  Si7  1  0.25348092  0.12711236  0.38090883  1
  Ge  Ge8  1  0.86329521  0.75259024  0.74887261  1
  Ge  Ge9  1  0.13670479  0.24740976  0.25112739  1
  H  H10  1  0.22640504  0.90723077  0.84811304  1
  H  H11  1  0.77359496  0.09276923  0.15188696  1
  H  H12  1  0.31750833  0.85282002  0.76490635  1
  H  H13  1  0.68249167  0.14717998  0.23509365  1
  H  H14  1  0.18414879  0.94439528  0.72007709  1
  H  H15  1  0.81585121  0.05560472  0.27992291  1
  H  H16  1  0.73441570  0.46983525  0.56706328  1
  H  H17  1  0.26558430  0.53016475  0.43293672  1
  H  H18  1  0.87008913  0.42262560  0.66257977  1
  H  H19  1  0.12991087  0.57737440  0.33742023  1
  H  H20  1  0.69665916  0.35160873  0.64356651  1
  H  H21  1  0.30334084  0.64839127  0.35643349  1
  H  H22  1  0.60235277  0.91761148  0.95573894  1
  H  H23  1  0.39764723  0.08238852  0.04426106  1
  H  H24  1  0.56069634  0.76158932  0.90565486  1
  H  H25  1  0.43930366  0.23841068  0.09434514  1
  H  H26  1  0.17408415  0.63527496  0.89892891  1
  H  H27  1  0.82591585  0.36472504  0.10107109  1
  H  H28  1  0.10606972  0.51688533  0.79983293  1
  H  H29  1  0.89393028  0.48311467  0.20016707  1
  H  H30  1  0.27213367  0.60263334  0.81395611  1
  H  H31  1  0.72786633  0.39736666  0.18604389  1
  H  H32  1  0.62039547  0.62517695  0.12528005  1
  H  H33  1  0.37960453  0.37482305  0.87471995  1
  H  H34  1  0.65548157  0.75401840  0.21309251  1
  H  H35  1  0.34451843  0.24598160  0.78690749  1
  H  H36  1  0.84699525  0.68747571  0.11108154  1
  H  H37  1  0.15300475  0.31252429  0.88891846  1
  H  H38  1  0.85320562  0.83898491  0.16348175  1
  H  H39  1  0.14679438  0.16101509  0.83651825  1
  H  H40  1  0.62416279  0.70470412  0.48365012  1
  H  H41  1  0.37583721  0.29529588  0.51634988  1
  H  H42  1  0.64326185  0.85039034  0.43401334  1
  H  H43  1  0.35673815  0.14960966  0.56598666  1
  H  H44  1  0.78683833  0.76739251  0.46725387  1
  H  H45  1  0.21316167  0.23260749  0.53274613  1
  H  H46  1  0.50454107  0.59658444  0.62574912  1
  H  H47  1  0.49545893  0.40341556  0.37425088  1
  H  H48  1  0.48169824  0.46669630  0.69477302  1
  H  H49  1  0.51830176  0.53330370  0.30522698  1
  H  H50  1  0.50645011  0.61763654  0.75421169  1
  H  H51  1  0.49354989  0.38236346  0.24578831  1
  H  H52  1  0.88284809  0.47112853  0.88973390  1
  H  H53  1  0.11715191  0.52887147  0.11026610  1
  H  H54  1  0.74766297  0.53735538  0.92238591  1
  H  H55  1  0.25233703  0.46264462  0.07761409  1
  H  H56  1  0.71175283  0.39021902  0.85437086  1
  H  H57  1  0.28824717  0.60978098  0.14562914  1
  H  H58  1  0.50800630  0.83535396  0.64470088  1
  H  H59  1  0.49199370  0.16464604  0.35529912  1
  H  H60  1  0.60619474  0.97155806  0.71590185  1
  H  H61  1  0.39380526  0.02844194  0.28409815  1
  H  H62  1  0.53407442  0.97198521  0.58383554  1
  H  H63  1  0.46592558  0.02801479  0.41616446  1
  H  H64  1  0.51926170  0.87210836  0.09607054  1
  H  H65  1  0.48073830  0.12789164  0.90392946  1
  H  H66  1  0.44216783  0.72904200  0.03072407  1
  H  H67  1  0.55783217  0.27095800  0.96927593  1
  H  H68  1  0.04923700  0.73865237  0.54718235  1
  H  H69  1  0.95076300  0.26134763  0.45281765  1
  H  H70  1  0.19646416  0.66647247  0.60056325  1
  H  H71  1  0.80353584  0.33352753  0.39943675  1
  H  H72  1  0.02726984  0.58261103  0.57586702  1
  H  H73  1  0.97273016  0.41738897  0.42413298  1
  H  H74  1  0.95377433  0.00483000  0.59372366  1
  H  H75  1  0.04622567  0.99517000  0.40627634  1
  H  H76  1  0.79910749  0.07233879  0.55302836  1
  H  H77  1  0.20089251  0.92766121  0.44697164  1
  H  H78  1  0.88655430  0.07884979  0.68368735  1
  H  H79  1  0.11344570  0.92115021  0.31631265  1
  C  C80  1  0.21544868  0.87227039  0.77040497  1
  C  C81  1  0.78455132  0.12772961  0.22959503  1
  C  C82  1  0.76165917  0.43973922  0.64376308  1
  C  C83  1  0.23834083  0.56026078  0.35623692  1
  C  C84  1  0.60784501  0.82202120  0.97519939  1
  C  C85  1  0.39215499  0.17797880  0.02480061  1
  C  C86  1  0.16665335  0.60867012  0.82007067  1
  C  C87  1  0.83334665  0.39132988  0.17992933  1
  C  C88  1  0.64866782  0.72556868  0.13461760  1
  C  C89  1  0.35133218  0.27443132  0.86538240  1
  C  C90  1  0.78648819  0.76403246  0.11093255  1
  C  C91  1  0.21351181  0.23596754  0.88906745  1
  C  C92  1  0.69563749  0.79002375  0.48913318  1
  C  C93  1  0.30436251  0.20997625  0.51086682  1
  C  C94  1  0.53778695  0.56016413  0.69988083  1
  C  C95  1  0.46221305  0.43983587  0.30011917  1
  C  C96  1  0.77259794  0.48211608  0.86355863  1
  C  C97  1  0.22740206  0.51788392  0.13644137  1
  C  C98  1  0.58315612  0.91603883  0.64395371  1
  C  C99  1  0.41684388  0.08396117  0.35604629  1
  C  C100  1  0.54143813  0.78915358  0.05977356  1
  C  C101  1  0.45856187  0.21084642  0.94022644  1
  C  C102  1  0.08898934  0.67308328  0.60165008  1
  C  C103  1  0.91101066  0.32691672  0.39834992  1
  C  C104  1  0.85842396  0.02098490  0.61252325  1
  C  C105  1  0.14157604  0.97901510  0.38747675  1
  Br  Br106  1  0.87873212  0.09738407  0.93856786  1
  Br  Br107  1  0.12126788  0.90261593  0.06143214  1
  O  O108  1  0.75305729  0.80536861  0.00954694  1
  O  O109  1  0.24694271  0.19463139  0.99045306  1
