# generated using pymatgen
data_K3V3O8
_symmetry_space_group_name_H-M   'P 1'
_cell_length_a   5.63815245
_cell_length_b   9.28302701
_cell_length_c   9.28767497
_cell_angle_alpha   63.45729972
_cell_angle_beta   72.34012993
_cell_angle_gamma   72.32529866
_symmetry_Int_Tables_number   1
_chemical_formula_structural   K3V3O8
_chemical_formula_sum   'K6 V6 O16'
_cell_volume   406.24797700
_cell_formula_units_Z   2
loop_
 _symmetry_equiv_pos_site_id
 _symmetry_equiv_pos_as_xyz
  1  'x, y, z'
loop_
 _atom_site_type_symbol
 _atom_site_label
 _atom_site_symmetry_multiplicity
 _atom_site_fract_x
 _atom_site_fract_y
 _atom_site_fract_z
 _atom_site_occupancy
  K  K0  1  0.99998291  -0.00000723  0.00000328  1
  K  K1  1  0.50001115  0.49999370  0.50000233  1
  K  K2  1  0.84213627  0.49091753  0.82467485  1
  K  K3  1  0.34214362  0.99093027  0.32465742  1
  K  K4  1  0.15785596  0.50906725  0.17534475  1
  K  K5  1  0.65786377  0.00908305  0.67532124  1
  V  V6  1  0.25000047  0.75000011  0.75000062  1
  V  V7  1  0.74999983  0.25000152  0.24999954  1
  V  V8  1  0.62880409  0.70484900  0.03782551  1
  V  V9  1  0.12880479  0.20486367  0.53782050  1
  V  V10  1  0.37119431  0.29513749  0.96218055  1
  V  V11  1  0.87119599  0.79515290  0.46217379  1
  O  O12  1  0.51606163  0.81692564  0.15071503  1
  O  O13  1  0.01606567  0.31693148  0.65071092  1
  O  O14  1  0.48393036  0.18307096  0.84928961  1
  O  O15  1  0.98394049  0.68307781  0.34928415  1
  O  O16  1  0.58081037  0.25274119  0.08745871  1
  O  O17  1  0.08081142  0.75274744  0.58746899  1
  O  O18  1  0.32929314  0.50421198  0.83669416  1
  O  O19  1  0.82928492  0.00423172  0.33669567  1
  O  O20  1  0.07865303  0.25255849  0.08727624  1
  O  O21  1  0.57864276  0.75255985  0.58728307  1
  O  O22  1  0.92136433  0.74744036  0.91271406  1
  O  O23  1  0.42134934  0.24744613  0.41272289  1
  O  O24  1  0.67071445  0.49576494  0.16330667  1
  O  O25  1  0.17071133  0.99578669  0.66330610  1
  O  O26  1  0.41918385  0.74725581  0.91252733  1
  O  O27  1  0.91918774  0.24726126  0.41254001  1
