# generated using pymatgen
data_Zr3N4
_symmetry_space_group_name_H-M   'P 1'
_cell_length_a   5.86747035
_cell_length_b   5.86747032
_cell_length_c   5.86747062
_cell_angle_alpha   109.47122168
_cell_angle_beta   109.47122155
_cell_angle_gamma   109.47122486
_symmetry_Int_Tables_number   1
_chemical_formula_structural   Zr3N4
_chemical_formula_sum   'Zr6 N8'
_cell_volume   155.50014740
_cell_formula_units_Z   2
loop_
 _symmetry_equiv_pos_site_id
 _symmetry_equiv_pos_as_xyz
  1  'x, y, z'
loop_
 _atom_site_type_symbol
 _atom_site_label
 _atom_site_symmetry_multiplicity
 _atom_site_fract_x
 _atom_site_fract_y
 _atom_site_fract_z
 _atom_site_occupancy
  Zr  Zr0  1  0.75000000  0.87500000  0.12500000  1
  Zr  Zr1  1  0.62500000  0.37500000  0.25000000  1
  Zr  Zr2  1  0.87500000  0.12500000  0.75000000  1
  Zr  Zr3  1  0.12500000  0.75000000  0.87500000  1
  Zr  Zr4  1  0.37500000  0.25000000  0.62500000  1
  Zr  Zr5  1  0.25000000  0.62500000  0.37500000  1
  N  N6  1  0.63032569  0.63032569  0.63032569  1
  N  N7  1  0.36967431  0.50000000  -0.00000000  1
  N  N8  1  0.50000000  -0.00000000  0.36967431  1
  N  N9  1  -0.00000000  0.36967431  0.50000000  1
  N  N10  1  0.50000000  -0.00000000  0.86967431  1
  N  N11  1  -0.00000000  0.86967431  0.50000000  1
  N  N12  1  0.13032569  0.13032569  0.13032569  1
  N  N13  1  0.86967431  0.50000000  -0.00000000  1
