# generated using pymatgen
data_Cs8Mg(Sn2O3)4
_symmetry_space_group_name_H-M   'P 1'
_cell_length_a   6.20951748
_cell_length_b   9.11777632
_cell_length_c   16.23439458
_cell_angle_alpha   84.15040622
_cell_angle_beta   90.00000000
_cell_angle_gamma   90.00000000
_symmetry_Int_Tables_number   1
_chemical_formula_structural   Cs8Mg(Sn2O3)4
_chemical_formula_sum   'Cs8 Mg1 Sn8 O12'
_cell_volume   914.35647945
_cell_formula_units_Z   1
loop_
 _symmetry_equiv_pos_site_id
 _symmetry_equiv_pos_as_xyz
  1  'x, y, z'
loop_
 _atom_site_type_symbol
 _atom_site_label
 _atom_site_symmetry_multiplicity
 _atom_site_fract_x
 _atom_site_fract_y
 _atom_site_fract_z
 _atom_site_occupancy
  Cs  Cs0  1  0.25000000  0.55896389  0.38271238  1
  Cs  Cs1  1  0.75000000  0.43265293  0.61923129  1
  Cs  Cs2  1  0.75000000  0.09710839  0.17606027  1
  Cs  Cs3  1  0.25000000  0.90244380  0.82872760  1
  Cs  Cs4  1  0.25000000  0.40181248  0.14475022  1
  Cs  Cs5  1  0.75000000  0.59223694  0.83634900  1
  Cs  Cs6  1  0.75000000  0.85334563  0.41879123  1
  Cs  Cs7  1  0.25000000  0.14694596  0.59334254  1
  Mg  Mg8  1  0.75000000  0.76462293  0.04331636  1
  Sn  Sn9  1  0.25000000  0.84558817  0.18096477  1
  Sn  Sn10  1  0.75000000  0.15066563  0.82638067  1
  Sn  Sn11  1  0.75000000  0.30706518  0.37716092  1
  Sn  Sn12  1  0.25000000  0.69076518  0.61730761  1
  Sn  Sn13  1  0.25000000  0.12297628  0.32454862  1
  Sn  Sn14  1  0.75000000  0.89131684  0.67006984  1
  Sn  Sn15  1  0.75000000  0.63844376  0.23771172  1
  Sn  Sn16  1  0.25000000  0.36562763  0.77151471  1
  O  O17  1  0.00230141  0.27708376  0.29533656  1
  O  O18  1  0.50206124  0.73652702  0.69495765  1
  O  O19  1  0.99724370  0.78305031  0.26290697  1
  O  O20  1  0.49819922  0.22233065  0.74559847  1
  O  O21  1  0.99793876  0.73652702  0.69495765  1
  O  O22  1  0.49769859  0.27708376  0.29533656  1
  O  O23  1  0.00180078  0.22233065  0.74559847  1
  O  O24  1  0.50275630  0.78305031  0.26290697  1
  O  O25  1  0.25000000  0.06648805  0.20229252  1
  O  O26  1  0.75000000  0.93677960  0.79299773  1
  O  O27  1  0.75000000  0.53619723  0.35919316  1
  O  O28  1  0.25000000  0.46354104  0.64758856  1
