# generated using pymatgen
data_ZrSnS3
_symmetry_space_group_name_H-M   'P 1'
_cell_length_a   3.74441614
_cell_length_b   9.44076215
_cell_length_c   14.08601102
_cell_angle_alpha   90.00000000
_cell_angle_beta   90.00000000
_cell_angle_gamma   90.00000000
_symmetry_Int_Tables_number   1
_chemical_formula_structural   ZrSnS3
_chemical_formula_sum   'Zr4 Sn4 S12'
_cell_volume   497.94249214
_cell_formula_units_Z   4
loop_
 _symmetry_equiv_pos_site_id
 _symmetry_equiv_pos_as_xyz
  1  'x, y, z'
loop_
 _atom_site_type_symbol
 _atom_site_label
 _atom_site_symmetry_multiplicity
 _atom_site_fract_x
 _atom_site_fract_y
 _atom_site_fract_z
 _atom_site_occupancy
  Zr  Zr0  1  0.25000000  0.65901481  0.45179204  1
  Zr  Zr1  1  0.75000000  0.34098519  0.54820796  1
  Zr  Zr2  1  0.25000000  0.15901481  0.04820796  1
  Zr  Zr3  1  0.75000000  0.84098519  0.95179204  1
  Sn  Sn4  1  0.75000000  0.94798908  0.33221482  1
  Sn  Sn5  1  0.25000000  0.05201092  0.66778518  1
  Sn  Sn6  1  0.75000000  0.44798908  0.16778518  1
  Sn  Sn7  1  0.25000000  0.55201092  0.83221482  1
  S  S8  1  0.25000000  0.51175852  0.60611747  1
  S  S9  1  0.75000000  0.48824148  0.39388253  1
  S  S10  1  0.25000000  0.01175852  0.89388253  1
  S  S11  1  0.75000000  0.98824148  0.10611747  1
  S  S12  1  0.75000000  0.82552030  0.50596987  1
  S  S13  1  0.25000000  0.17447970  0.49403013  1
  S  S14  1  0.75000000  0.32552030  0.99403013  1
  S  S15  1  0.25000000  0.67447970  0.00596987  1
  S  S16  1  0.75000000  0.73087898  0.78662818  1
  S  S17  1  0.25000000  0.26912102  0.21337182  1
  S  S18  1  0.75000000  0.23087898  0.71337182  1
  S  S19  1  0.25000000  0.76912102  0.28662818  1
