# generated using pymatgen
data_Ba2TbCl7
_symmetry_space_group_name_H-M   'P 1'
_cell_length_a   15.64894264
_cell_length_b   6.86994987
_cell_length_c   10.60238590
_cell_angle_alpha   89.38119263
_cell_angle_beta   90.00000000
_cell_angle_gamma   90.00000000
_symmetry_Int_Tables_number   1
_chemical_formula_structural   Ba2TbCl7
_chemical_formula_sum   'Ba8 Tb4 Cl28'
_cell_volume   1139.76901122
_cell_formula_units_Z   4
loop_
 _symmetry_equiv_pos_site_id
 _symmetry_equiv_pos_as_xyz
  1  'x, y, z'
loop_
 _atom_site_type_symbol
 _atom_site_label
 _atom_site_symmetry_multiplicity
 _atom_site_fract_x
 _atom_site_fract_y
 _atom_site_fract_z
 _atom_site_occupancy
  Ba  Ba0  1  0.27978725  0.23496427  0.54892812  1
  Ba  Ba1  1  0.72021275  0.76503573  0.45107188  1
  Ba  Ba2  1  0.77978725  0.76503573  0.95107188  1
  Ba  Ba3  1  0.22021275  0.23496427  0.04892812  1
  Ba  Ba4  1  0.43916942  0.76516176  0.82353745  1
  Ba  Ba5  1  0.56083058  0.23483824  0.17646255  1
  Ba  Ba6  1  0.93916942  0.23483824  0.67646255  1
  Ba  Ba7  1  0.06083058  0.76516176  0.32353745  1
  Tb  Tb8  1  0.12720580  0.71799562  0.78153304  1
  Tb  Tb9  1  0.87279420  0.28200438  0.21846696  1
  Tb  Tb10  1  0.62720580  0.28200438  0.71846696  1
  Tb  Tb11  1  0.37279420  0.71799562  0.28153304  1
  Cl  Cl12  1  0.07075504  0.37027259  0.87639591  1
  Cl  Cl13  1  0.92924496  0.62972741  0.12360409  1
  Cl  Cl14  1  0.57075504  0.62972741  0.62360409  1
  Cl  Cl15  1  0.42924496  0.37027259  0.37639591  1
  Cl  Cl16  1  0.10490814  0.98756811  0.58505004  1
  Cl  Cl17  1  0.89509186  0.01243189  0.41494996  1
  Cl  Cl18  1  0.60490814  0.01243189  0.91494996  1
  Cl  Cl19  1  0.39509186  0.98756811  0.08505004  1
  Cl  Cl20  1  0.95938445  0.79552219  0.78761817  1
  Cl  Cl21  1  0.04061555  0.20447781  0.21238183  1
  Cl  Cl22  1  0.45938445  0.20447781  0.71238183  1
  Cl  Cl23  1  0.54061555  0.79552219  0.28761817  1
  Cl  Cl24  1  0.36037360  0.79166481  0.52932809  1
  Cl  Cl25  1  0.63962640  0.20833519  0.47067191  1
  Cl  Cl26  1  0.86037360  0.20833519  0.97067191  1
  Cl  Cl27  1  0.13962640  0.79166481  0.02932809  1
  Cl  Cl28  1  0.25773772  0.98891976  0.80195206  1
  Cl  Cl29  1  0.74226228  0.01108024  0.19804794  1
  Cl  Cl30  1  0.75773772  0.01108024  0.69804794  1
  Cl  Cl31  1  0.24226228  0.98891976  0.30195206  1
  Cl  Cl32  1  0.27272796  0.50006031  0.79464129  1
  Cl  Cl33  1  0.72727204  0.49993969  0.20535871  1
  Cl  Cl34  1  0.77272796  0.49993969  0.70535871  1
  Cl  Cl35  1  0.22727204  0.50006031  0.29464129  1
  Cl  Cl36  1  0.10431080  0.49876164  0.57046898  1
  Cl  Cl37  1  0.89568920  0.50123836  0.42953102  1
  Cl  Cl38  1  0.60431080  0.50123836  0.92953102  1
  Cl  Cl39  1  0.39568920  0.49876164  0.07046898  1
