# generated using pymatgen
data_Sr(TbS2)2
_symmetry_space_group_name_H-M   'P 1'
_cell_length_a   4.00512644
_cell_length_b   12.04160878
_cell_length_c   14.38451258
_cell_angle_alpha   90.00000000
_cell_angle_beta   90.00000000
_cell_angle_gamma   90.00000000
_symmetry_Int_Tables_number   1
_chemical_formula_structural   Sr(TbS2)2
_chemical_formula_sum   'Sr4 Tb8 S16'
_cell_volume   693.73865629
_cell_formula_units_Z   4
loop_
 _symmetry_equiv_pos_site_id
 _symmetry_equiv_pos_as_xyz
  1  'x, y, z'
loop_
 _atom_site_type_symbol
 _atom_site_label
 _atom_site_symmetry_multiplicity
 _atom_site_fract_x
 _atom_site_fract_y
 _atom_site_fract_z
 _atom_site_occupancy
  Sr  Sr0  1  0.25000000  0.75755415  0.33872726  1
  Sr  Sr1  1  0.25000000  0.25755415  0.16127274  1
  Sr  Sr2  1  0.75000000  0.24244585  0.66127274  1
  Sr  Sr3  1  0.75000000  0.74244585  0.83872726  1
  Tb  Tb4  1  0.25000000  0.43197406  0.38968238  1
  Tb  Tb5  1  0.25000000  0.93197406  0.11031762  1
  Tb  Tb6  1  0.75000000  0.56802594  0.61031762  1
  Tb  Tb7  1  0.75000000  0.06802594  0.88968238  1
  Tb  Tb8  1  0.25000000  0.41858764  0.89891563  1
  Tb  Tb9  1  0.25000000  0.91858764  0.60108437  1
  Tb  Tb10  1  0.75000000  0.58141236  0.10108437  1
  Tb  Tb11  1  0.75000000  0.08141236  0.39891563  1
  S  S12  1  0.25000000  0.20695968  0.82457690  1
  S  S13  1  0.25000000  0.70695968  0.67542310  1
  S  S14  1  0.75000000  0.79304032  0.17542310  1
  S  S15  1  0.75000000  0.29304032  0.32457690  1
  S  S16  1  0.25000000  0.13002041  0.52725244  1
  S  S17  1  0.25000000  0.63002041  0.97274756  1
  S  S18  1  0.75000000  0.86997959  0.47274756  1
  S  S19  1  0.75000000  0.36997959  0.02725244  1
  S  S20  1  0.25000000  0.02310377  0.28413803  1
  S  S21  1  0.25000000  0.52310377  0.21586197  1
  S  S22  1  0.75000000  0.97689623  0.71586197  1
  S  S23  1  0.75000000  0.47689623  0.78413803  1
  S  S24  1  0.25000000  0.41408409  0.57851079  1
  S  S25  1  0.25000000  0.91408409  0.92148921  1
  S  S26  1  0.75000000  0.58591591  0.42148921  1
  S  S27  1  0.75000000  0.08591591  0.07851079  1
