# generated using pymatgen
data_CsMg14WO16
_symmetry_space_group_name_H-M   'P 1'
_cell_length_a   8.80688652
_cell_length_b   9.03100492
_cell_length_c   4.46700278
_cell_angle_alpha   90.00000000
_cell_angle_beta   90.00000000
_cell_angle_gamma   90.00000000
_symmetry_Int_Tables_number   1
_chemical_formula_structural   CsMg14WO16
_chemical_formula_sum   'Cs1 Mg14 W1 O16'
_cell_volume   355.28322465
_cell_formula_units_Z   1
loop_
 _symmetry_equiv_pos_site_id
 _symmetry_equiv_pos_as_xyz
  1  'x, y, z'
loop_
 _atom_site_type_symbol
 _atom_site_label
 _atom_site_symmetry_multiplicity
 _atom_site_fract_x
 _atom_site_fract_y
 _atom_site_fract_z
 _atom_site_occupancy
  Cs  Cs0  1  0.00000000  0.00000000  0.00000000  1
  Mg  Mg1  1  0.50000000  0.00000000  0.00000000  1
  Mg  Mg2  1  0.50000000  0.50000000  0.00000000  1
  Mg  Mg3  1  0.00000000  0.25042956  0.50000000  1
  Mg  Mg4  1  0.00000000  0.74957044  0.50000000  1
  Mg  Mg5  1  0.50000000  0.25177808  0.50000000  1
  Mg  Mg6  1  0.50000000  0.74822192  0.50000000  1
  Mg  Mg7  1  0.26492824  0.00000000  0.50000000  1
  Mg  Mg8  1  0.25843568  0.50000000  0.50000000  1
  Mg  Mg9  1  0.73507176  0.00000000  0.50000000  1
  Mg  Mg10  1  0.74156432  0.50000000  0.50000000  1
  Mg  Mg11  1  0.26014301  0.24809570  0.00000000  1
  Mg  Mg12  1  0.26014301  0.75190430  0.00000000  1
  Mg  Mg13  1  0.73985699  0.24809570  0.00000000  1
  Mg  Mg14  1  0.73985699  0.75190430  0.00000000  1
  W  W15  1  0.00000000  0.50000000  0.00000000  1
  O  O16  1  0.28743449  0.00000000  0.00000000  1
  O  O17  1  0.25447497  0.50000000  0.00000000  1
  O  O18  1  0.71256551  0.00000000  0.00000000  1
  O  O19  1  0.74552503  0.50000000  0.00000000  1
  O  O20  1  0.25018726  0.25138172  0.50000000  1
  O  O21  1  0.25018726  0.74861828  0.50000000  1
  O  O22  1  0.74981274  0.25138172  0.50000000  1
  O  O23  1  0.74981274  0.74861828  0.50000000  1
  O  O24  1  0.00000000  0.00000000  0.50000000  1
  O  O25  1  0.00000000  0.50000000  0.50000000  1
  O  O26  1  0.50000000  0.00000000  0.50000000  1
  O  O27  1  0.50000000  0.50000000  0.50000000  1
  O  O28  1  0.00000000  0.27410456  0.00000000  1
  O  O29  1  0.00000000  0.72589544  0.00000000  1
  O  O30  1  0.50000000  0.26255460  0.00000000  1
  O  O31  1  0.50000000  0.73744540  0.00000000  1
