# generated using pymatgen
data_Al2S3
_symmetry_space_group_name_H-M   'P 1'
_cell_length_a   6.03393352
_cell_length_b   6.03393352
_cell_length_c   6.46875720
_cell_angle_alpha   62.19974616
_cell_angle_beta   62.19974616
_cell_angle_gamma   60.00001117
_symmetry_Int_Tables_number   1
_chemical_formula_structural   Al2S3
_chemical_formula_sum   'Al4 S6'
_cell_volume   171.85949016
_cell_formula_units_Z   2
loop_
 _symmetry_equiv_pos_site_id
 _symmetry_equiv_pos_as_xyz
  1  'x, y, z'
loop_
 _atom_site_type_symbol
 _atom_site_label
 _atom_site_symmetry_multiplicity
 _atom_site_fract_x
 _atom_site_fract_y
 _atom_site_fract_z
 _atom_site_occupancy
  Al  Al0  1  0.65148624  0.65148624  0.04553928  1
  Al  Al1  1  0.15148624  0.15148624  0.54554028  1
  Al  Al2  1  0.34851376  0.34851376  0.95445972  1
  Al  Al3  1  0.84851376  0.84851376  0.45446072  1
  S  S4  1  0.44330186  0.05669814  0.75000000  1
  S  S5  1  0.05669814  0.75000000  0.75000000  1
  S  S6  1  0.75000000  0.44330186  0.75000000  1
  S  S7  1  0.94330186  0.25000000  0.25000000  1
  S  S8  1  0.25000000  0.55669814  0.25000000  1
  S  S9  1  0.55669814  0.94330186  0.25000000  1
