# generated using pymatgen
data_CeSe2
_symmetry_space_group_name_H-M   'P 1'
_cell_length_a   8.71400708
_cell_length_b   18.92408273
_cell_length_c   18.92408261
_cell_angle_alpha   103.41886932
_cell_angle_beta   90.00000000
_cell_angle_gamma   90.00000000
_symmetry_Int_Tables_number   1
_chemical_formula_structural   CeSe2
_chemical_formula_sum   'Ce12 Se24'
_cell_volume   3035.47231187
_cell_formula_units_Z   12
loop_
 _symmetry_equiv_pos_site_id
 _symmetry_equiv_pos_as_xyz
  1  'x, y, z'
loop_
 _atom_site_type_symbol
 _atom_site_label
 _atom_site_symmetry_multiplicity
 _atom_site_fract_x
 _atom_site_fract_y
 _atom_site_fract_z
 _atom_site_occupancy
  Ce  Ce0  1  0.23989725  0.76260786  0.66138289  1
  Ce  Ce1  1  0.23989725  0.33861711  0.23739214  1
  Ce  Ce2  1  0.73989725  0.23739214  0.33861711  1
  Ce  Ce3  1  0.73989725  0.66138289  0.76260786  1
  Ce  Ce4  1  0.19217990  0.00918645  0.58361980  1
  Ce  Ce5  1  0.19217990  0.41638020  0.99081355  1
  Ce  Ce6  1  0.69217990  0.99081355  0.41638020  1
  Ce  Ce7  1  0.69217990  0.58361980  0.00918645  1
  Ce  Ce8  1  0.66697811  0.71504818  0.28495182  1
  Ce  Ce9  1  0.16697811  0.28495182  0.71504818  1
  Ce  Ce10  1  0.17478136  0.61523404  0.38476596  1
  Ce  Ce11  1  0.67478136  0.38476596  0.61523404  1
  Se  Se12  1  0.01104821  0.72628509  0.74380529  1
  Se  Se13  1  0.01104821  0.25619471  0.27371491  1
  Se  Se14  1  0.51104821  0.27371491  0.25619471  1
  Se  Se15  1  0.51104821  0.74380529  0.72628509  1
  Se  Se16  1  0.19290995  0.90457252  0.66012888  1
  Se  Se17  1  0.19290995  0.33987112  0.09542748  1
  Se  Se18  1  0.69290995  0.09542748  0.33987112  1
  Se  Se19  1  0.69290995  0.66012888  0.90457252  1
  Se  Se20  1  0.21989876  0.66543600  0.53035812  1
  Se  Se21  1  0.21989876  0.46964188  0.33456400  1
  Se  Se22  1  0.71989876  0.33456400  0.46964188  1
  Se  Se23  1  0.71989876  0.53035812  0.66543600  1
  Se  Se24  1  0.96421551  0.00024762  0.48530982  1
  Se  Se25  1  0.96421551  0.51469018  0.99975238  1
  Se  Se26  1  0.46421551  0.99975238  0.51469018  1
  Se  Se27  1  0.46421551  0.48530982  0.00024762  1
  Se  Se28  1  0.70546634  0.86031930  0.32155309  1
  Se  Se29  1  0.70546634  0.67844691  0.13968070  1
  Se  Se30  1  0.20546634  0.13968070  0.67844691  1
  Se  Se31  1  0.20546634  0.32155309  0.86031930  1
  Se  Se32  1  0.88632017  0.64997093  0.35002907  1
  Se  Se33  1  0.38632017  0.35002907  0.64997093  1
  Se  Se34  1  0.37068854  0.68604560  0.31395440  1
  Se  Se35  1  0.87068854  0.31395440  0.68604560  1
