# generated using pymatgen
data_CaMoO4
_symmetry_space_group_name_H-M   'P 1'
_cell_length_a   5.23044958
_cell_length_b   5.22923698
_cell_length_c   6.78616531
_cell_angle_alpha   112.66334552
_cell_angle_beta   112.67534880
_cell_angle_gamma   90.01305517
_symmetry_Int_Tables_number   1
_chemical_formula_structural   CaMoO4
_chemical_formula_sum   'Ca2 Mo2 O8'
_cell_volume   155.60806378
_cell_formula_units_Z   2
loop_
 _symmetry_equiv_pos_site_id
 _symmetry_equiv_pos_as_xyz
  1  'x, y, z'
loop_
 _atom_site_type_symbol
 _atom_site_label
 _atom_site_symmetry_multiplicity
 _atom_site_fract_x
 _atom_site_fract_y
 _atom_site_fract_z
 _atom_site_occupancy
  Ca  Ca0  1  0.37500242  0.12510010  0.74998830  1
  Ca  Ca1  1  0.62499658  0.87489990  0.25001170  1
  Mo  Mo2  1  0.87498263  0.62517476  0.75007962  1
  Mo  Mo3  1  0.12501637  0.37482524  0.24992038  1
  O  O4  1  0.20167191  0.55945894  0.91986488  1
  O  O5  1  0.36037468  0.70164762  0.41988566  1
  O  O6  1  0.05947883  0.21792774  0.41971779  1
  O  O7  1  0.71804268  0.86050118  0.91989901  1
  O  O8  1  0.28195732  0.13949782  0.08010099  1
  O  O9  1  0.94052117  0.78207226  0.58028221  1
  O  O10  1  0.79832709  0.44054006  0.08013612  1
  O  O11  1  0.63962532  0.29835238  0.58011434  1
