# generated using pymatgen
data_VSb(SeO3)4
_symmetry_space_group_name_H-M   'P 1'
_cell_length_a   8.07277697
_cell_length_b   8.04413781
_cell_length_c   8.09728701
_cell_angle_alpha   89.22826668
_cell_angle_beta   90.00000000
_cell_angle_gamma   90.00000000
_symmetry_Int_Tables_number   1
_chemical_formula_structural   VSb(SeO3)4
_chemical_formula_sum   'V2 Sb2 Se8 O24'
_cell_volume   525.77822115
_cell_formula_units_Z   2
loop_
 _symmetry_equiv_pos_site_id
 _symmetry_equiv_pos_as_xyz
  1  'x, y, z'
loop_
 _atom_site_type_symbol
 _atom_site_label
 _atom_site_symmetry_multiplicity
 _atom_site_fract_x
 _atom_site_fract_y
 _atom_site_fract_z
 _atom_site_occupancy
  V  V0  1  -0.00000000  0.50000000  0.00000000  1
  V  V1  1  0.50000000  0.50000000  0.50000000  1
  Sb  Sb2  1  -0.00000000  -0.00000000  0.50000000  1
  Sb  Sb3  1  0.50000000  -0.00000000  0.00000000  1
  Se  Se4  1  0.32999834  0.65874699  0.16874004  1
  Se  Se5  1  0.82999834  0.34125301  0.33125996  1
  Se  Se6  1  0.66460475  0.82581685  0.66581782  1
  Se  Se7  1  0.16460475  0.17418315  0.83418218  1
  Se  Se8  1  0.67000166  0.34125301  0.83125996  1
  Se  Se9  1  0.17000166  0.65874699  0.66874004  1
  Se  Se10  1  0.33539525  0.17418315  0.33418218  1
  Se  Se11  1  0.83539525  0.82581685  0.16581782  1
  O  O12  1  0.24233658  0.53042565  0.03029137  1
  O  O13  1  0.74233658  0.46957435  0.46970863  1
  O  O14  1  0.75757638  0.97363392  0.53467732  1
  O  O15  1  0.25757638  0.02636608  0.96532268  1
  O  O16  1  0.53163390  0.96885046  0.75844889  1
  O  O17  1  0.46724189  0.52675599  0.25754267  1
  O  O18  1  0.96724189  0.47324401  0.24245733  1
  O  O19  1  0.03163390  0.03114954  0.74155111  1
  O  O20  1  0.97284274  0.24156570  0.46859938  1
  O  O21  1  0.53219382  0.74734791  0.52952049  1
  O  O22  1  0.47284274  0.75843430  0.03140062  1
  O  O23  1  0.03219382  0.25265209  0.97047951  1
  O  O24  1  0.75766342  0.46957435  0.96970863  1
  O  O25  1  0.25766342  0.53042565  0.53029137  1
  O  O26  1  0.24242362  0.02636608  0.46532268  1
  O  O27  1  0.74242362  0.97363392  0.03467732  1
  O  O28  1  0.46836610  0.03114954  0.24155111  1
  O  O29  1  0.53275811  0.47324401  0.74245733  1
  O  O30  1  0.03275811  0.52675599  0.75754267  1
  O  O31  1  0.96836610  0.96885046  0.25844889  1
  O  O32  1  0.02715726  0.75843430  0.53140062  1
  O  O33  1  0.46780618  0.25265209  0.47047951  1
  O  O34  1  0.52715726  0.24156570  0.96859938  1
  O  O35  1  0.96780618  0.74734791  0.02952049  1
