# generated using pymatgen
data_Cs2PrCl5
_symmetry_space_group_name_H-M   'P 1'
_cell_length_a   8.60362803
_cell_length_b   9.16049246
_cell_length_c   13.82484832
_cell_angle_alpha   90.00000000
_cell_angle_beta   90.00000000
_cell_angle_gamma   90.00000000
_symmetry_Int_Tables_number   1
_chemical_formula_structural   Cs2PrCl5
_chemical_formula_sum   'Cs8 Pr4 Cl20'
_cell_volume   1089.58426414
_cell_formula_units_Z   4
loop_
 _symmetry_equiv_pos_site_id
 _symmetry_equiv_pos_as_xyz
  1  'x, y, z'
loop_
 _atom_site_type_symbol
 _atom_site_label
 _atom_site_symmetry_multiplicity
 _atom_site_fract_x
 _atom_site_fract_y
 _atom_site_fract_z
 _atom_site_occupancy
  Cs  Cs0  1  0.94183522  0.00506682  0.82977091  1
  Cs  Cs1  1  0.05816478  0.99493318  0.17022909  1
  Cs  Cs2  1  0.44183522  0.99493318  0.67022909  1
  Cs  Cs3  1  0.05816478  0.50506682  0.17022909  1
  Cs  Cs4  1  0.55816478  0.00506682  0.32977091  1
  Cs  Cs5  1  0.94183522  0.49493318  0.82977091  1
  Cs  Cs6  1  0.55816478  0.49493318  0.32977091  1
  Cs  Cs7  1  0.44183522  0.50506682  0.67022909  1
  Pr  Pr8  1  0.93384889  0.75000000  0.50431503  1
  Pr  Pr9  1  0.06615111  0.25000000  0.49568497  1
  Pr  Pr10  1  0.43384889  0.25000000  0.99568497  1
  Pr  Pr11  1  0.56615111  0.75000000  0.00431503  1
  Cl  Cl12  1  0.11324258  0.75000000  0.67190826  1
  Cl  Cl13  1  0.88675742  0.25000000  0.32809174  1
  Cl  Cl14  1  0.61324258  0.25000000  0.82809174  1
  Cl  Cl15  1  0.38675742  0.75000000  0.17190826  1
  Cl  Cl16  1  0.84228438  0.04178852  0.56783401  1
  Cl  Cl17  1  0.15771562  0.95821148  0.43216599  1
  Cl  Cl18  1  0.34228438  0.95821148  0.93216599  1
  Cl  Cl19  1  0.15771562  0.54178852  0.43216599  1
  Cl  Cl20  1  0.65771562  0.04178852  0.06783401  1
  Cl  Cl21  1  0.84228438  0.45821148  0.56783401  1
  Cl  Cl22  1  0.65771562  0.45821148  0.06783401  1
  Cl  Cl23  1  0.34228438  0.54178852  0.93216599  1
  Cl  Cl24  1  0.60937183  0.75000000  0.51451215  1
  Cl  Cl25  1  0.39062817  0.25000000  0.48548785  1
  Cl  Cl26  1  0.10937183  0.25000000  0.98548785  1
  Cl  Cl27  1  0.89062817  0.75000000  0.01451215  1
  Cl  Cl28  1  0.64694629  0.75000000  0.80902844  1
  Cl  Cl29  1  0.35305371  0.25000000  0.19097156  1
  Cl  Cl30  1  0.14694629  0.25000000  0.69097156  1
  Cl  Cl31  1  0.85305371  0.75000000  0.30902844  1
