# generated using pymatgen
data_K3NaMo5Se2O23
_symmetry_space_group_name_H-M   'P 1'
_cell_length_a   9.98725499
_cell_length_b   24.03071955
_cell_length_c   10.40838604
_cell_angle_alpha   90.00000000
_cell_angle_beta   113.66536142
_cell_angle_gamma   90.00000000
_symmetry_Int_Tables_number   1
_chemical_formula_structural   K3NaMo5Se2O23
_chemical_formula_sum   'K12 Na4 Mo20 Se8 O92'
_cell_volume   2287.95214729
_cell_formula_units_Z   4
loop_
 _symmetry_equiv_pos_site_id
 _symmetry_equiv_pos_as_xyz
  1  'x, y, z'
loop_
 _atom_site_type_symbol
 _atom_site_label
 _atom_site_symmetry_multiplicity
 _atom_site_fract_x
 _atom_site_fract_y
 _atom_site_fract_z
 _atom_site_occupancy
  K  K0  1  0.59110604  0.61699486  0.97245704  1
  K  K1  1  0.09110604  0.88300514  0.47245704  1
  K  K2  1  0.40889396  0.38300514  0.02754296  1
  K  K3  1  0.90889396  0.11699486  0.52754296  1
  K  K4  1  0.06620214  0.57630921  0.21239496  1
  K  K5  1  0.56620214  0.92369079  0.71239496  1
  K  K6  1  0.93379786  0.42369079  0.78760504  1
  K  K7  1  0.43379786  0.07630921  0.28760504  1
  K  K8  1  0.92772593  0.74159369  0.01709810  1
  K  K9  1  0.42772593  0.75840631  0.51709810  1
  K  K10  1  0.07227407  0.25840631  0.98290190  1
  K  K11  1  0.57227407  0.24159369  0.48290190  1
  Na  Na12  1  0.43962940  0.52255485  0.30057582  1
  Na  Na13  1  0.93962940  0.97744515  0.80057582  1
  Na  Na14  1  0.56037060  0.47744515  0.69942418  1
  Na  Na15  1  0.06037060  0.02255485  0.19942418  1
  Mo  Mo16  1  0.38993359  0.91607496  0.32644940  1
  Mo  Mo17  1  0.88993359  0.58392504  0.82644940  1
  Mo  Mo18  1  0.61006641  0.08392504  0.67355060  1
  Mo  Mo19  1  0.11006641  0.41607496  0.17355060  1
  Mo  Mo20  1  0.73653101  0.96099171  0.37870551  1
  Mo  Mo21  1  0.23653101  0.53900829  0.87870551  1
  Mo  Mo22  1  0.26346899  0.03900829  0.62129449  1
  Mo  Mo23  1  0.76346899  0.46099171  0.12129449  1
  Mo  Mo24  1  0.28981440  0.80460202  0.10106827  1
  Mo  Mo25  1  0.78981440  0.69539798  0.60106827  1
  Mo  Mo26  1  0.71018560  0.19539798  0.89893173  1
  Mo  Mo27  1  0.21018560  0.30460202  0.39893173  1
  Mo  Mo28  1  0.80085374  0.89532365  0.08146398  1
  Mo  Mo29  1  0.30085374  0.60467635  0.58146398  1
  Mo  Mo30  1  0.19914626  0.10467635  0.91853602  1
  Mo  Mo31  1  0.69914626  0.39532365  0.41853602  1
  Mo  Mo32  1  0.54361794  0.79107554  0.95464441  1
  Mo  Mo33  1  0.04361794  0.70892446  0.45464441  1
  Mo  Mo34  1  0.45638206  0.20892446  0.04535559  1
  Mo  Mo35  1  0.95638206  0.29107554  0.54535559  1
  Se  Se36  1  0.67773741  0.81434669  0.32310806  1
  Se  Se37  1  0.17773741  0.68565331  0.82310806  1
  Se  Se38  1  0.32226259  0.18565331  0.67689194  1
  Se  Se39  1  0.82226259  0.31434669  0.17689194  1
  Se  Se40  1  0.42547185  0.93305647  0.00955591  1
  Se  Se41  1  0.92547185  0.56694353  0.50955591  1
  Se  Se42  1  0.57452815  0.06694353  0.99044409  1
  Se  Se43  1  0.07452815  0.43305647  0.49044409  1
  O  O44  1  0.36314085  0.88116482  0.46355570  1
  O  O45  1  0.86314085  0.61883518  0.96355570  1
  O  O46  1  0.63685915  0.11883518  0.53644430  1
  O  O47  1  0.13685915  0.38116482  0.03644430  1
  O  O48  1  0.28268711  0.97676967  0.29785161  1
  O  O49  1  0.78268711  0.52323033  0.79785161  1
  O  O50  1  0.71731289  0.02323033  0.70214839  1
  O  O51  1  0.21731289  0.47676967  0.20214839  1
  O  O52  1  0.70044615  0.03132725  0.33137444  1
  O  O53  1  0.20044615  0.46867275  0.83137444  1
  O  O54  1  0.29955385  0.96867275  0.66862556  1
  O  O55  1  0.79955385  0.53132725  0.16862556  1
  O  O56  1  0.88894900  0.96628258  0.53897953  1
  O  O57  1  0.38894900  0.53371742  0.03897953  1
  O  O58  1  0.11105100  0.03371742  0.46102047  1
  O  O59  1  0.61105100  0.46628258  0.96102047  1
  O  O60  1  0.12996590  0.79807331  0.94987861  1
  O  O61  1  0.62996590  0.70192669  0.44987861  1
  O  O62  1  0.87003410  0.20192669  0.05012139  1
  O  O63  1  0.37003410  0.29807331  0.55012139  1
  O  O64  1  0.25434817  0.75945789  0.21491938  1
  O  O65  1  0.75434817  0.74054211  0.71491938  1
  O  O66  1  0.74565183  0.24054211  0.78508062  1
  O  O67  1  0.24565183  0.25945789  0.28508062  1
  O  O68  1  0.86136128  0.94167297  0.98259125  1
  O  O69  1  0.36136128  0.55832703  0.48259125  1
  O  O70  1  0.13863872  0.05832703  0.01740875  1
  O  O71  1  0.63863872  0.44167297  0.51740875  1
  O  O72  1  0.95459766  0.85452041  0.16868792  1
  O  O73  1  0.45459766  0.64547959  0.66868792  1
  O  O74  1  0.04540234  0.14547959  0.83131208  1
  O  O75  1  0.54540234  0.35452041  0.33131208  1
  O  O76  1  0.42366806  0.78955212  0.77847545  1
  O  O77  1  0.92366806  0.71044788  0.27847545  1
  O  O78  1  0.57633194  0.21044788  0.22152455  1
  O  O79  1  0.07633194  0.28955212  0.72152455  1
  O  O80  1  0.64477148  0.72976034  0.97885607  1
  O  O81  1  0.14477148  0.77023966  0.47885607  1
  O  O82  1  0.35522852  0.27023966  0.02114393  1
  O  O83  1  0.85522852  0.22976034  0.52114393  1
  O  O84  1  0.57792900  0.94370664  0.97866391  1
  O  O85  1  0.07792900  0.55629336  0.47866391  1
  O  O86  1  0.42207100  0.05629336  0.02133609  1
  O  O87  1  0.92207100  0.44370664  0.52133609  1
  O  O88  1  0.68284759  0.84543615  0.93014201  1
  O  O89  1  0.18284759  0.65456385  0.43014201  1
  O  O90  1  0.31715241  0.15456385  0.06985799  1
  O  O91  1  0.81715241  0.34543615  0.56985799  1
  O  O92  1  0.50119854  0.83096043  0.30553317  1
  O  O93  1  0.00119854  0.66903957  0.80553317  1
  O  O94  1  0.49880146  0.16903957  0.69446683  1
  O  O95  1  0.99880146  0.33096043  0.19446683  1
  O  O96  1  0.42785693  0.76139654  0.05495298  1
  O  O97  1  0.92785693  0.73860346  0.55495298  1
  O  O98  1  0.57214307  0.23860346  0.94504702  1
  O  O99  1  0.07214307  0.26139654  0.44504702  1
  O  O100  1  0.58542807  0.94483974  0.44783680  1
  O  O101  1  0.08542807  0.55516026  0.94783680  1
  O  O102  1  0.41457193  0.05516026  0.55216320  1
  O  O103  1  0.91457193  0.44483974  0.05216320  1
  O  O104  1  0.81789107  0.94186308  0.24162355  1
  O  O105  1  0.31789107  0.55813692  0.74162355  1
  O  O106  1  0.18210893  0.05813692  0.75837645  1
  O  O107  1  0.68210893  0.44186308  0.25837645  1
  O  O108  1  0.67315562  0.83308986  0.15718246  1
  O  O109  1  0.17315562  0.66691014  0.65718246  1
  O  O110  1  0.32684438  0.16691014  0.84281754  1
  O  O111  1  0.82684438  0.33308986  0.34281754  1
  O  O112  1  0.39474624  0.86203658  0.98057143  1
  O  O113  1  0.89474624  0.63796342  0.48057143  1
  O  O114  1  0.60525376  0.13796342  0.01942857  1
  O  O115  1  0.10525376  0.36203658  0.51942857  1
  O  O116  1  0.25592971  0.87854290  0.16203351  1
  O  O117  1  0.75592971  0.62145710  0.66203351  1
  O  O118  1  0.74407029  0.12145710  0.83796649  1
  O  O119  1  0.24407029  0.37854290  0.33796649  1
  O  O120  1  0.77888039  0.86778917  0.41989173  1
  O  O121  1  0.27888039  0.63221083  0.91989173  1
  O  O122  1  0.22111961  0.13221083  0.58010827  1
  O  O123  1  0.72111961  0.36778917  0.08010827  1
  O  O124  1  0.50600374  0.93831176  0.19551101  1
  O  O125  1  0.00600374  0.56168824  0.69551101  1
  O  O126  1  0.49399626  0.06168824  0.80448899  1
  O  O127  1  0.99399626  0.43831176  0.30448899  1
  O  O128  1  0.40173924  0.63847412  0.21822678  1
  O  O129  1  0.90173924  0.86152588  0.71822678  1
  O  O130  1  0.59826076  0.36152588  0.78177322  1
  O  O131  1  0.09826076  0.13847412  0.28177322  1
  O  O132  1  0.52837982  0.62769165  0.23520928  1
  O  O133  1  0.02837982  0.87230835  0.73520928  1
  O  O134  1  0.47162018  0.37230835  0.76479072  1
  O  O135  1  0.97162018  0.12769165  0.26479072  1
