# generated using pymatgen
data_Ba(TbS2)2
_symmetry_space_group_name_H-M   'P 1'
_cell_length_a   4.06508932
_cell_length_b   12.31415063
_cell_length_c   14.59308917
_cell_angle_alpha   90.00000000
_cell_angle_beta   90.00000000
_cell_angle_gamma   90.00000000
_symmetry_Int_Tables_number   1
_chemical_formula_structural   Ba(TbS2)2
_chemical_formula_sum   'Ba4 Tb8 S16'
_cell_volume   730.50264111
_cell_formula_units_Z   4
loop_
 _symmetry_equiv_pos_site_id
 _symmetry_equiv_pos_as_xyz
  1  'x, y, z'
loop_
 _atom_site_type_symbol
 _atom_site_label
 _atom_site_symmetry_multiplicity
 _atom_site_fract_x
 _atom_site_fract_y
 _atom_site_fract_z
 _atom_site_occupancy
  Ba  Ba0  1  0.25000000  0.75742694  0.33851641  1
  Ba  Ba1  1  0.25000000  0.25742694  0.16148359  1
  Ba  Ba2  1  0.75000000  0.24257306  0.66148359  1
  Ba  Ba3  1  0.75000000  0.74257306  0.83851641  1
  Tb  Tb4  1  0.25000000  0.43198679  0.39136166  1
  Tb  Tb5  1  0.25000000  0.93198679  0.10863834  1
  Tb  Tb6  1  0.75000000  0.56801321  0.60863834  1
  Tb  Tb7  1  0.75000000  0.06801321  0.89136166  1
  Tb  Tb8  1  0.25000000  0.42126048  0.89801449  1
  Tb  Tb9  1  0.25000000  0.92126048  0.60198551  1
  Tb  Tb10  1  0.75000000  0.57873952  0.10198551  1
  Tb  Tb11  1  0.75000000  0.07873952  0.39801449  1
  S  S12  1  0.25000000  0.20729923  0.83566446  1
  S  S13  1  0.25000000  0.70729923  0.66433554  1
  S  S14  1  0.75000000  0.79270077  0.16433554  1
  S  S15  1  0.75000000  0.29270077  0.33566446  1
  S  S16  1  0.25000000  0.12428565  0.52302111  1
  S  S17  1  0.25000000  0.62428565  0.97697889  1
  S  S18  1  0.75000000  0.87571435  0.47697889  1
  S  S19  1  0.75000000  0.37571435  0.02302111  1
  S  S20  1  0.25000000  0.02245678  0.28302933  1
  S  S21  1  0.25000000  0.52245678  0.21697067  1
  S  S22  1  0.75000000  0.97754322  0.71697067  1
  S  S23  1  0.75000000  0.47754322  0.78302933  1
  S  S24  1  0.25000000  0.41955733  0.57706563  1
  S  S25  1  0.25000000  0.91955733  0.92293437  1
  S  S26  1  0.75000000  0.58044267  0.42293437  1
  S  S27  1  0.75000000  0.08044267  0.07706563  1
