# generated using pymatgen
data_Na6S2O9
_symmetry_space_group_name_H-M   'P 1'
_cell_length_a   6.76504248
_cell_length_b   6.76504192
_cell_length_c   6.76504241
_cell_angle_alpha   60.00000711
_cell_angle_beta   60.00000991
_cell_angle_gamma   60.00000106
_symmetry_Int_Tables_number   1
_chemical_formula_structural   Na6S2O9
_chemical_formula_sum   'Na6 S2 O9'
_cell_volume   218.92562850
_cell_formula_units_Z   1
loop_
 _symmetry_equiv_pos_site_id
 _symmetry_equiv_pos_as_xyz
  1  'x, y, z'
loop_
 _atom_site_type_symbol
 _atom_site_label
 _atom_site_symmetry_multiplicity
 _atom_site_fract_x
 _atom_site_fract_y
 _atom_site_fract_z
 _atom_site_occupancy
  Na  Na0  1  0.23783247  0.23783247  0.76216753  1
  Na  Na1  1  0.76216753  0.23783247  0.76216753  1
  Na  Na2  1  0.23783247  0.76216753  0.23783247  1
  Na  Na3  1  0.76216753  0.23783247  0.23783247  1
  Na  Na4  1  0.23783247  0.76216753  0.76216753  1
  Na  Na5  1  0.76216753  0.76216753  0.23783247  1
  S  S6  1  0.75000000  0.75000000  0.75000000  1
  S  S7  1  0.25000000  0.25000000  0.25000000  1
  O  O8  1  0.00000000  -0.00000000  -0.00000000  1
  O  O9  1  0.66079740  0.66079740  0.01760580  1
  O  O10  1  0.33920260  0.33920260  0.33920260  1
  O  O11  1  0.33920260  0.98239420  0.33920260  1
  O  O12  1  0.98239420  0.33920260  0.33920260  1
  O  O13  1  0.01760580  0.66079740  0.66079740  1
  O  O14  1  0.66079740  0.66079740  0.66079740  1
  O  O15  1  0.66079740  0.01760580  0.66079740  1
  O  O16  1  0.33920260  0.33920260  0.98239420  1
