# generated using pymatgen
data_NaLiMg14O15
_symmetry_space_group_name_H-M   'P 1'
_cell_length_a   8.54629870
_cell_length_b   8.58797698
_cell_length_c   4.28606210
_cell_angle_alpha   90.00000000
_cell_angle_beta   90.00000000
_cell_angle_gamma   90.00000000
_symmetry_Int_Tables_number   1
_chemical_formula_structural   NaLiMg14O15
_chemical_formula_sum   'Na1 Li1 Mg14 O15'
_cell_volume   314.57731297
_cell_formula_units_Z   1
loop_
 _symmetry_equiv_pos_site_id
 _symmetry_equiv_pos_as_xyz
  1  'x, y, z'
loop_
 _atom_site_type_symbol
 _atom_site_label
 _atom_site_symmetry_multiplicity
 _atom_site_fract_x
 _atom_site_fract_y
 _atom_site_fract_z
 _atom_site_occupancy
  Na  Na0  1  0.99609841  0.50000000  0.00000000  1
  Li  Li1  1  0.97761010  0.00000000  0.00000000  1
  Mg  Mg2  1  0.52114368  0.00000000  0.00000000  1
  Mg  Mg3  1  0.50197333  0.50000000  0.00000000  1
  Mg  Mg4  1  0.00183894  0.24659138  0.50000000  1
  Mg  Mg5  1  0.00183894  0.75340862  0.50000000  1
  Mg  Mg6  1  0.49929523  0.24960491  0.50000000  1
  Mg  Mg7  1  0.49929523  0.75039509  0.50000000  1
  Mg  Mg8  1  0.23966017  0.00000000  0.50000000  1
  Mg  Mg9  1  0.24461226  0.50000000  0.50000000  1
  Mg  Mg10  1  0.76636316  0.00000000  0.50000000  1
  Mg  Mg11  1  0.75615995  0.50000000  0.50000000  1
  Mg  Mg12  1  0.24236452  0.27268341  0.00000000  1
  Mg  Mg13  1  0.24236452  0.72731659  0.00000000  1
  Mg  Mg14  1  0.76130413  0.24961916  0.00000000  1
  Mg  Mg15  1  0.76130413  0.75038084  0.00000000  1
  O  O16  1  0.26575729  0.50000000  0.00000000  1
  O  O17  1  0.74804547  0.00000000  0.00000000  1
  O  O18  1  0.73432813  0.50000000  0.00000000  1
  O  O19  1  0.25130885  0.24168014  0.50000000  1
  O  O20  1  0.25130885  0.75831986  0.50000000  1
  O  O21  1  0.74880769  0.24701768  0.50000000  1
  O  O22  1  0.74880769  0.75298232  0.50000000  1
  O  O23  1  0.00885874  0.00000000  0.50000000  1
  O  O24  1  0.00339809  0.50000000  0.50000000  1
  O  O25  1  0.48359460  0.00000000  0.50000000  1
  O  O26  1  0.49675432  0.50000000  0.50000000  1
  O  O27  1  0.00989397  0.23245536  0.00000000  1
  O  O28  1  0.00989397  0.76754464  0.00000000  1
  O  O29  1  0.48800783  0.23752559  0.00000000  1
  O  O30  1  0.48800783  0.76247441  0.00000000  1
