# generated using pymatgen
data_RbGeCl3
_symmetry_space_group_name_H-M   'P 1'
_cell_length_a   7.29946596
_cell_length_b   7.98976514
_cell_length_c   10.84438740
_cell_angle_alpha   90.00000000
_cell_angle_beta   90.00000000
_cell_angle_gamma   90.00000000
_symmetry_Int_Tables_number   1
_chemical_formula_structural   RbGeCl3
_chemical_formula_sum   'Rb4 Ge4 Cl12'
_cell_volume   632.45572000
_cell_formula_units_Z   4
loop_
 _symmetry_equiv_pos_site_id
 _symmetry_equiv_pos_as_xyz
  1  'x, y, z'
loop_
 _atom_site_type_symbol
 _atom_site_label
 _atom_site_symmetry_multiplicity
 _atom_site_fract_x
 _atom_site_fract_y
 _atom_site_fract_z
 _atom_site_occupancy
  Rb  Rb0  1  0.97071249  0.41579701  0.75107416  1
  Rb  Rb1  1  0.47071249  0.08420299  0.25107416  1
  Rb  Rb2  1  0.52928751  0.91579701  0.75107416  1
  Rb  Rb3  1  0.02928751  0.58420299  0.25107416  1
  Ge  Ge4  1  0.48492698  0.47276566  0.51868727  1
  Ge  Ge5  1  0.51507302  0.52723434  0.01868727  1
  Ge  Ge6  1  0.01507302  0.97276566  0.51868727  1
  Ge  Ge7  1  0.98492698  0.02723434  0.01868727  1
  Cl  Cl8  1  0.34421902  0.77827594  0.04759007  1
  Cl  Cl9  1  0.15578098  0.27827594  0.04759007  1
  Cl  Cl10  1  0.84421902  0.72172406  0.54759007  1
  Cl  Cl11  1  0.28874698  0.83036952  0.46743650  1
  Cl  Cl12  1  0.21125302  0.33036952  0.46743650  1
  Cl  Cl13  1  0.78874698  0.66963048  0.96743650  1
  Cl  Cl14  1  0.41721364  0.50554139  0.73041000  1
  Cl  Cl15  1  0.71125302  0.16963048  0.96743650  1
  Cl  Cl16  1  0.91721364  -0.00554139  0.23041000  1
  Cl  Cl17  1  0.58278636  0.49445861  0.23041000  1
  Cl  Cl18  1  0.08278636  0.00554139  0.73041000  1
  Cl  Cl19  1  0.65578098  0.22172406  0.54759007  1
