# generated using pymatgen
data_SnIBr
_symmetry_space_group_name_H-M   'P 1'
_cell_length_a   4.40231866
_cell_length_b   9.11048343
_cell_length_c   11.05980545
_cell_angle_alpha   90.00000000
_cell_angle_beta   90.00000000
_cell_angle_gamma   90.00000000
_symmetry_Int_Tables_number   1
_chemical_formula_structural   SnIBr
_chemical_formula_sum   'Sn4 I4 Br4'
_cell_volume   443.57839547
_cell_formula_units_Z   4
loop_
 _symmetry_equiv_pos_site_id
 _symmetry_equiv_pos_as_xyz
  1  'x, y, z'
loop_
 _atom_site_type_symbol
 _atom_site_label
 _atom_site_symmetry_multiplicity
 _atom_site_fract_x
 _atom_site_fract_y
 _atom_site_fract_z
 _atom_site_occupancy
  Sn  Sn0  1  0.25000000  0.61053157  0.65726345  1
  Sn  Sn1  1  0.75000000  0.38946843  0.34273655  1
  Sn  Sn2  1  0.75000000  0.88946843  0.15726345  1
  Sn  Sn3  1  0.25000000  0.11053157  0.84273655  1
  I  I4  1  0.25000000  0.51528973  0.17964643  1
  I  I5  1  0.75000000  0.48471027  0.82035357  1
  I  I6  1  0.75000000  0.98471027  0.67964643  1
  I  I7  1  0.25000000  0.01528973  0.32035357  1
  Br  Br8  1  0.25000000  0.84119958  0.95287806  1
  Br  Br9  1  0.75000000  0.15880042  0.04712194  1
  Br  Br10  1  0.75000000  0.65880042  0.45287806  1
  Br  Br11  1  0.25000000  0.34119958  0.54712194  1
