# generated using pymatgen
data_UMo4PbO16
_symmetry_space_group_name_H-M   'P 1'
_cell_length_a   6.76554639
_cell_length_b   8.53882418
_cell_length_c   14.24066706
_cell_angle_alpha   53.73229781
_cell_angle_beta   90.00000000
_cell_angle_gamma   90.00000000
_symmetry_Int_Tables_number   1
_chemical_formula_structural   UMo4PbO16
_chemical_formula_sum   'U2 Mo8 Pb2 O32'
_cell_volume   663.29603936
_cell_formula_units_Z   2
loop_
 _symmetry_equiv_pos_site_id
 _symmetry_equiv_pos_as_xyz
  1  'x, y, z'
loop_
 _atom_site_type_symbol
 _atom_site_label
 _atom_site_symmetry_multiplicity
 _atom_site_fract_x
 _atom_site_fract_y
 _atom_site_fract_z
 _atom_site_occupancy
  U  U0  1  0.30454136  -0.00000000  0.25000000  1
  U  U1  1  0.69545864  -0.00000000  0.75000000  1
  Mo  Mo2  1  0.83578393  0.70511825  0.09399506  1
  Mo  Mo3  1  0.16421607  0.29488175  0.90600494  1
  Mo  Mo4  1  0.83578393  0.29488175  0.40600494  1
  Mo  Mo5  1  0.16421607  0.70511825  0.59399506  1
  Mo  Mo6  1  0.83558854  0.79682782  0.40409361  1
  Mo  Mo7  1  0.16441146  0.20317218  0.59590639  1
  Mo  Mo8  1  0.83558854  0.20317218  0.09590639  1
  Mo  Mo9  1  0.16441146  0.79682782  0.90409361  1
  Pb  Pb10  1  0.31090988  0.50000000  0.25000000  1
  Pb  Pb11  1  0.68909012  0.50000000  0.75000000  1
  O  O12  1  0.85212155  0.81793977  0.93016700  1
  O  O13  1  0.14787845  0.18206023  0.06983300  1
  O  O14  1  0.85212155  0.18206023  0.56983300  1
  O  O15  1  0.14787845  0.81793977  0.43016700  1
  O  O16  1  0.94310334  -0.00000000  0.25000000  1
  O  O17  1  0.05689666  -0.00000000  0.75000000  1
  O  O18  1  0.92319767  0.50000000  0.25000000  1
  O  O19  1  0.07680233  0.50000000  0.75000000  1
  O  O20  1  0.84810070  0.60088729  0.40123909  1
  O  O21  1  0.15189930  0.39911271  0.59876091  1
  O  O22  1  0.84810070  0.39911271  0.09876091  1
  O  O23  1  0.15189930  0.60088729  0.90123909  1
  O  O24  1  0.85954318  0.68984200  0.55904651  1
  O  O25  1  0.14045682  0.31015800  0.44095349  1
  O  O26  1  0.85954318  0.31015800  0.94095349  1
  O  O27  1  0.14045682  0.68984200  0.05904651  1
  O  O28  1  0.58662010  0.87173627  0.36941244  1
  O  O29  1  0.41337990  0.12826373  0.63058756  1
  O  O30  1  0.58662010  0.12826373  0.13058756  1
  O  O31  1  0.41337990  0.87173627  0.86941244  1
  O  O32  1  0.58963374  0.64589969  0.11142080  1
  O  O33  1  0.41036626  0.35410031  0.88857920  1
  O  O34  1  0.58963374  0.35410031  0.38857920  1
  O  O35  1  0.41036626  0.64589969  0.61142080  1
  O  O36  1  0.30399020  0.79123283  0.24634710  1
  O  O37  1  0.69600980  0.20876717  0.75365290  1
  O  O38  1  0.30399020  0.20876717  0.25365290  1
  O  O39  1  0.69600980  0.79123283  0.74634710  1
  O  O40  1  0.84752319  0.90128311  0.09723313  1
  O  O41  1  0.15247681  0.09871689  0.90276687  1
  O  O42  1  0.84752319  0.09871689  0.40276687  1
  O  O43  1  0.15247681  0.90128311  0.59723313  1
