# generated using pymatgen
data_WI2
_symmetry_space_group_name_H-M   'P 1'
_cell_length_a   10.49364903
_cell_length_b   10.49364903
_cell_length_c   12.79394527
_cell_angle_alpha   90.00000000
_cell_angle_beta   90.00000000
_cell_angle_gamma   104.81817556
_symmetry_Int_Tables_number   1
_chemical_formula_structural   WI2
_chemical_formula_sum   'W12 I24'
_cell_volume   1361.97232492
_cell_formula_units_Z   12
loop_
 _symmetry_equiv_pos_site_id
 _symmetry_equiv_pos_as_xyz
  1  'x, y, z'
loop_
 _atom_site_type_symbol
 _atom_site_label
 _atom_site_symmetry_multiplicity
 _atom_site_fract_x
 _atom_site_fract_y
 _atom_site_fract_z
 _atom_site_occupancy
  W  W0  1  0.11283798  0.88716202  -0.00000000  1
  W  W1  1  0.88716202  0.11283798  -0.00000000  1
  W  W2  1  0.38716202  0.61283798  0.50000000  1
  W  W3  1  0.61283798  0.38716202  0.50000000  1
  W  W4  1  0.43283628  0.43283628  0.36912947  1
  W  W5  1  0.56716372  0.56716372  0.63087053  1
  W  W6  1  0.06716372  0.06716372  0.86912947  1
  W  W7  1  0.93283628  0.93283628  0.13087053  1
  W  W8  1  0.13096883  0.13096883  0.06718082  1
  W  W9  1  0.86903117  0.86903117  0.93281918  1
  W  W10  1  0.36903117  0.36903117  0.56718082  1
  W  W11  1  0.63096883  0.63096883  0.43281918  1
  I  I12  1  0.28334348  0.71665652  -0.00000000  1
  I  I13  1  0.71665652  0.28334348  -0.00000000  1
  I  I14  1  0.21665652  0.78334348  0.50000000  1
  I  I15  1  0.78334348  0.21665652  0.50000000  1
  I  I16  1  0.18740410  0.94942099  0.21025791  1
  I  I17  1  0.81259590  0.05057901  0.78974209  1
  I  I18  1  0.31259590  0.55057901  0.71025791  1
  I  I19  1  0.44942099  0.68740410  0.28974209  1
  I  I20  1  0.68740410  0.44942099  0.28974209  1
  I  I21  1  0.55057901  0.31259590  0.71025791  1
  I  I22  1  0.05057901  0.81259590  0.78974209  1
  I  I23  1  0.94942099  0.18740410  0.21025791  1
  I  I24  1  0.34319201  0.34319201  0.15703687  1
  I  I25  1  0.65680799  0.65680799  0.84296313  1
  I  I26  1  0.15680899  0.15680899  0.65703687  1
  I  I27  1  0.84319201  0.84319201  0.34296313  1
  I  I28  1  0.67065868  0.90913018  0.06795063  1
  I  I29  1  0.32934132  0.09086982  0.93204937  1
  I  I30  1  0.82934132  0.59086982  0.56795063  1
  I  I31  1  0.40913018  0.17065868  0.43204937  1
  I  I32  1  0.17065868  0.40913018  0.43204937  1
  I  I33  1  0.59086982  0.82934132  0.56795063  1
  I  I34  1  0.09086982  0.32934132  0.93204937  1
  I  I35  1  0.90913018  0.67065868  0.06795063  1
