# generated using pymatgen
data_MgMn6Nb4O18
_symmetry_space_group_name_H-M   'P 1'
_cell_length_a   5.37197889
_cell_length_b   5.54691187
_cell_length_c   15.29086162
_cell_angle_alpha   87.07508495
_cell_angle_beta   100.11129966
_cell_angle_gamma   119.25593317
_symmetry_Int_Tables_number   1
_chemical_formula_structural   MgMn6Nb4O18
_chemical_formula_sum   'Mg1 Mn6 Nb4 O18'
_cell_volume   391.02223495
_cell_formula_units_Z   1
loop_
 _symmetry_equiv_pos_site_id
 _symmetry_equiv_pos_as_xyz
  1  'x, y, z'
loop_
 _atom_site_type_symbol
 _atom_site_label
 _atom_site_symmetry_multiplicity
 _atom_site_fract_x
 _atom_site_fract_y
 _atom_site_fract_z
 _atom_site_occupancy
  Mg  Mg0  1  0.76146300  0.70681100  0.45206700  1
  Mn  Mn1  1  0.63545700  0.33819600  0.68305900  1
  Mn  Mn2  1  0.60093800  0.28008700  0.98023700  1
  Mn  Mn3  1  0.57645000  0.10672100  0.47973500  1
  Mn  Mn4  1  0.23765200  0.63868100  0.56579300  1
  Mn  Mn5  1  0.28864700  0.62504100  0.00645800  1
  Mn  Mn6  1  0.68974500  0.35459800  0.17932100  1
  Nb  Nb7  1  0.87133800  0.93149100  0.87092500  1
  Nb  Nb8  1  0.01794500  0.97333200  0.13646700  1
  Nb  Nb9  1  0.98419400  0.01219000  0.66916900  1
  Nb  Nb10  1  0.10280800  0.09514800  0.33162300  1
  O  O11  1  0.34847100  0.29738600  0.08597000  1
  O  O12  1  0.58160200  0.63141200  0.91913000  1
  O  O13  1  0.01052700  0.28998300  0.23572900  1
  O  O14  1  0.38553400  0.10284400  0.23751000  1
  O  O15  1  0.95511300  0.62910200  0.08636000  1
  O  O16  1  0.66956300  0.76099000  0.56701400  1
  O  O17  1  0.75685900  0.06365600  0.75372000  1
  O  O18  1  0.92756800  0.24650000  0.93111200  1
  O  O19  1  0.14883700  0.78908000  0.43564800  1
  O  O20  1  0.29800000  0.02615700  0.60838100  1
  O  O21  1  0.32999300  0.33060900  0.73009400  1
  O  O22  1  0.87698100  0.31470200  0.59832900  1
  O  O23  1  0.86802300  0.75699100  0.24266200  1
  O  O24  1  0.21767200  0.92974400  0.92242800  1
  O  O25  1  0.67993100  0.99288300  0.08110000  1
  O  O26  1  0.81596600  0.05258100  0.39650600  1
  O  O27  1  0.44925200  0.35958400  0.40484000  1
  O  O28  1  0.92180600  0.70516200  0.74415100  1
