# generated using pymatgen
data_RbSm2Ag3Te5
_symmetry_space_group_name_H-M   'P 1'
_cell_length_a   4.61071437
_cell_length_b   8.37796855
_cell_length_c   18.69063953
_cell_angle_alpha   90.00000000
_cell_angle_beta   90.00000000
_cell_angle_gamma   105.97208543
_symmetry_Int_Tables_number   1
_chemical_formula_structural   RbSm2Ag3Te5
_chemical_formula_sum   'Rb2 Sm4 Ag6 Te10'
_cell_volume   694.11808494
_cell_formula_units_Z   2
loop_
 _symmetry_equiv_pos_site_id
 _symmetry_equiv_pos_as_xyz
  1  'x, y, z'
loop_
 _atom_site_type_symbol
 _atom_site_label
 _atom_site_symmetry_multiplicity
 _atom_site_fract_x
 _atom_site_fract_y
 _atom_site_fract_z
 _atom_site_occupancy
  Rb  Rb0  1  0.44185932  0.88371865  0.25000000  1
  Rb  Rb1  1  0.55814068  0.11628135  0.75000000  1
  Sm  Sm2  1  0.30951943  0.61903987  0.90556318  1
  Sm  Sm3  1  0.69048057  0.38096013  0.09443682  1
  Sm  Sm4  1  0.30951943  0.61903987  0.59443682  1
  Sm  Sm5  1  0.69048057  0.38096013  0.40556318  1
  Ag  Ag6  1  0.16380656  0.32761312  0.25000000  1
  Ag  Ag7  1  0.83619344  0.67238688  0.75000000  1
  Ag  Ag8  1  0.91405863  0.82811726  0.47307378  1
  Ag  Ag9  1  0.08594137  0.17188274  0.52692622  1
  Ag  Ag10  1  0.91405863  0.82811726  0.02692622  1
  Ag  Ag11  1  0.08594137  0.17188274  0.97307378  1
  Te  Te12  1  0.94092195  0.88184490  0.87731895  1
  Te  Te13  1  0.05907805  0.11815510  0.12268105  1
  Te  Te14  1  0.94092195  0.88184490  0.62268105  1
  Te  Te15  1  0.05907805  0.11815510  0.37731895  1
  Te  Te16  1  0.67276926  0.34553853  0.92752506  1
  Te  Te17  1  0.32723074  0.65446147  0.07247494  1
  Te  Te18  1  0.67276926  0.34553853  0.57247494  1
  Te  Te19  1  0.32723074  0.65446147  0.42752506  1
  Te  Te20  1  0.76027390  0.52054781  0.25000000  1
  Te  Te21  1  0.23972610  0.47945219  0.75000000  1
