# generated using pymatgen
data_Ba3(NaSb2)2
_symmetry_space_group_name_H-M   'P 1'
_cell_length_a   8.28194639
_cell_length_b   9.29017855
_cell_length_c   19.56663609
_cell_angle_alpha   61.90378084
_cell_angle_beta   90.00000000
_cell_angle_gamma   90.00000000
_symmetry_Int_Tables_number   1
_chemical_formula_structural   Ba3(NaSb2)2
_chemical_formula_sum   'Ba12 Na8 Sb16'
_cell_volume   1328.06396783
_cell_formula_units_Z   4
loop_
 _symmetry_equiv_pos_site_id
 _symmetry_equiv_pos_as_xyz
  1  'x, y, z'
loop_
 _atom_site_type_symbol
 _atom_site_label
 _atom_site_symmetry_multiplicity
 _atom_site_fract_x
 _atom_site_fract_y
 _atom_site_fract_z
 _atom_site_occupancy
  Ba  Ba0  1  0.98833815  0.78660407  0.40393542  1
  Ba  Ba1  1  0.48833815  0.21339593  0.09606458  1
  Ba  Ba2  1  0.01245672  0.90815389  0.90393692  1
  Ba  Ba3  1  0.51245672  0.09184611  0.59606308  1
  Ba  Ba4  1  0.01166185  0.21339593  0.59606458  1
  Ba  Ba5  1  0.51166185  0.78660407  0.90393542  1
  Ba  Ba6  1  0.98754328  0.09184611  0.09606308  1
  Ba  Ba7  1  0.48754328  0.90815389  0.40393692  1
  Ba  Ba8  1  0.17367704  0.45120063  0.86786735  1
  Ba  Ba9  1  0.67367704  0.54879937  0.63213265  1
  Ba  Ba10  1  0.82632296  0.54879937  0.13213265  1
  Ba  Ba11  1  0.32632296  0.45120063  0.36786735  1
  Na  Na12  1  0.65359192  0.77727626  0.24790480  1
  Na  Na13  1  0.15359192  0.22272374  0.25209520  1
  Na  Na14  1  0.34640808  0.22272374  0.75209520  1
  Na  Na15  1  0.84640808  0.77727626  0.74790480  1
  Na  Na16  1  0.82255434  0.28809106  0.37586104  1
  Na  Na17  1  0.32255434  0.71190894  0.12413896  1
  Na  Na18  1  0.17744566  0.71190894  0.62413896  1
  Na  Na19  1  0.67744566  0.28809106  0.87586104  1
  Sb  Sb20  1  0.52092564  0.32528532  0.25264146  1
  Sb  Sb21  1  0.02092564  0.67471468  0.24735854  1
  Sb  Sb22  1  0.47907436  0.67471468  0.74735854  1
  Sb  Sb23  1  0.97907436  0.32528532  0.75264146  1
  Sb  Sb24  1  0.77484858  0.11675469  0.24972292  1
  Sb  Sb25  1  0.27484858  0.88324531  0.25027708  1
  Sb  Sb26  1  0.22515142  0.88324531  0.75027708  1
  Sb  Sb27  1  0.72515142  0.11675469  0.74972292  1
  Sb  Sb28  1  0.65674751  0.50171309  0.46335248  1
  Sb  Sb29  1  0.15674751  0.49828691  0.03664752  1
  Sb  Sb30  1  0.34881930  0.07140751  0.96173436  1
  Sb  Sb31  1  0.84881930  0.92859249  0.53826564  1
  Sb  Sb32  1  0.34325249  0.49828691  0.53664752  1
  Sb  Sb33  1  0.84325249  0.50171309  0.96335248  1
  Sb  Sb34  1  0.65118070  0.92859249  0.03826564  1
  Sb  Sb35  1  0.15118070  0.07140751  0.46173436  1
