# generated using pymatgen
data_TlV3Cd4O12
_symmetry_space_group_name_H-M   'P 1'
_cell_length_a   9.43174675
_cell_length_b   9.43174675
_cell_length_c   7.08902914
_cell_angle_alpha   72.81849555
_cell_angle_beta   72.81849555
_cell_angle_gamma   92.16796051
_symmetry_Int_Tables_number   1
_chemical_formula_structural   TlV3Cd4O12
_chemical_formula_sum   'Tl2 V6 Cd8 O24'
_cell_volume   570.16467684
_cell_formula_units_Z   2
loop_
 _symmetry_equiv_pos_site_id
 _symmetry_equiv_pos_as_xyz
  1  'x, y, z'
loop_
 _atom_site_type_symbol
 _atom_site_label
 _atom_site_symmetry_multiplicity
 _atom_site_fract_x
 _atom_site_fract_y
 _atom_site_fract_z
 _atom_site_occupancy
  Tl  Tl0  1  0.97743963  0.02898704  0.74876099  1
  Tl  Tl1  1  0.02898704  0.97743963  0.24876099  1
  V  V2  1  0.70307605  0.29933090  0.74953468  1
  V  V3  1  0.29933090  0.70307605  0.24953468  1
  V  V4  1  0.12442378  0.35206734  0.85927258  1
  V  V5  1  0.64978583  0.87123385  0.63765584  1
  V  V6  1  0.87123385  0.64978583  0.13765584  1
  V  V7  1  0.35206734  0.12442378  0.35927258  1
  Cd  Cd8  1  0.94011440  0.62049636  0.64048358  1
  Cd  Cd9  1  0.38006346  0.06509873  0.85178766  1
  Cd  Cd10  1  0.06509873  0.38006346  0.35178766  1
  Cd  Cd11  1  0.62049636  0.94011440  0.14048358  1
  Cd  Cd12  1  0.26149307  0.73584939  0.75617649  1
  Cd  Cd13  1  0.73584939  0.26149307  0.25617649  1
  Cd  Cd14  1  0.51484718  0.52718988  0.53670797  1
  Cd  Cd15  1  0.52718988  0.51484718  0.03670797  1
  O  O16  1  0.71404243  0.48008336  0.76757876  1
  O  O17  1  0.52576670  0.28606874  0.72734271  1
  O  O18  1  0.28606874  0.52576770  0.22734271  1
  O  O19  1  0.48008336  0.71404243  0.26757876  1
  O  O20  1  0.28008634  0.48625057  0.78696885  1
  O  O21  1  0.52063220  0.70635467  0.70927223  1
  O  O22  1  0.70635467  0.52063220  0.20927223  1
  O  O23  1  0.48625057  0.28008634  0.28696885  1
  O  O24  1  0.99143023  0.33363978  0.09796017  1
  O  O25  1  0.67063998  0.00365634  0.39978377  1
  O  O26  1  0.00365634  0.67063998  0.89978377  1
  O  O27  1  0.33363978  0.99143023  0.59796017  1
  O  O28  1  0.81959737  0.27051051  0.53014779  1
  O  O29  1  0.73016128  0.18213321  0.96869564  1
  O  O30  1  0.18213321  0.73016128  0.46869564  1
  O  O31  1  0.27051051  0.81959737  0.03014779  1
  O  O32  1  0.03465675  0.39638806  0.67660962  1
  O  O33  1  0.59940736  0.95803204  0.82188995  1
  O  O34  1  0.95803204  0.59940736  0.32188995  1
  O  O35  1  0.39638806  0.03465675  0.17660962  1
  O  O36  1  0.17655481  0.17920950  0.87093011  1
  O  O37  1  0.82158403  0.82155786  0.63164162  1
  O  O38  1  0.82155786  0.82158403  0.13164162  1
  O  O39  1  0.17920950  0.17655481  0.37093011  1
