# generated using pymatgen
data_Cs2GeSe4
_symmetry_space_group_name_H-M   'P 1'
_cell_length_a   8.64784862
_cell_length_b   8.64784862
_cell_length_c   10.25809384
_cell_angle_alpha   62.03310030
_cell_angle_beta   62.03310030
_cell_angle_gamma   53.15286075
_symmetry_Int_Tables_number   1
_chemical_formula_structural   Cs2GeSe4
_chemical_formula_sum   'Cs4 Ge2 Se8'
_cell_volume   522.73663729
_cell_formula_units_Z   2
loop_
 _symmetry_equiv_pos_site_id
 _symmetry_equiv_pos_as_xyz
  1  'x, y, z'
loop_
 _atom_site_type_symbol
 _atom_site_label
 _atom_site_symmetry_multiplicity
 _atom_site_fract_x
 _atom_site_fract_y
 _atom_site_fract_z
 _atom_site_occupancy
  Cs  Cs0  1  0.15897193  0.15897193  0.71355922  1
  Cs  Cs1  1  0.84102807  0.84102807  0.28644078  1
  Cs  Cs2  1  0.40820943  0.40820943  0.85795812  1
  Cs  Cs3  1  0.59179057  0.59179057  0.14204188  1
  Ge  Ge4  1  0.15721564  0.15721564  0.29726269  1
  Ge  Ge5  1  0.84278436  0.84278436  0.70273731  1
  Se  Se6  1  0.83821512  0.33380180  0.46572339  1
  Se  Se7  1  0.33380180  0.83821512  0.46572339  1
  Se  Se8  1  0.16178488  0.66619820  0.53427661  1
  Se  Se9  1  0.66619820  0.16178488  0.53427661  1
  Se  Se10  1  0.12579777  0.12579777  0.10291149  1
  Se  Se11  1  0.87420223  0.87420223  0.89708851  1
  Se  Se12  1  0.31521931  0.31521931  0.26965467  1
  Se  Se13  1  0.68478069  0.68478069  0.73034533  1
