# generated using pymatgen
data_Cs3Cu5O4
_symmetry_space_group_name_H-M   'P 1'
_cell_length_a   7.53500383
_cell_length_b   10.32922916
_cell_length_c   14.77656313
_cell_angle_alpha   73.77864207
_cell_angle_beta   90.00000000
_cell_angle_gamma   90.00000000
_symmetry_Int_Tables_number   1
_chemical_formula_structural   Cs3Cu5O4
_chemical_formula_sum   'Cs12 Cu20 O16'
_cell_volume   1104.28667230
_cell_formula_units_Z   4
loop_
 _symmetry_equiv_pos_site_id
 _symmetry_equiv_pos_as_xyz
  1  'x, y, z'
loop_
 _atom_site_type_symbol
 _atom_site_label
 _atom_site_symmetry_multiplicity
 _atom_site_fract_x
 _atom_site_fract_y
 _atom_site_fract_z
 _atom_site_occupancy
  Cs  Cs0  1  0.09005552  0.32108772  0.10874214  1
  Cs  Cs1  1  0.59005552  0.67891228  0.39125786  1
  Cs  Cs2  1  0.90994448  0.67891228  0.89125786  1
  Cs  Cs3  1  0.40994448  0.32108772  0.60874214  1
  Cs  Cs4  1  0.70167324  0.27567409  0.91833120  1
  Cs  Cs5  1  0.20167324  0.72432591  0.58166880  1
  Cs  Cs6  1  0.29832676  0.72432591  0.08166880  1
  Cs  Cs7  1  0.79832676  0.27567409  0.41833120  1
  Cs  Cs8  1  0.17146565  0.10415182  0.90633881  1
  Cs  Cs9  1  0.67146565  0.89584818  0.59366119  1
  Cs  Cs10  1  0.82853435  0.89584818  0.09366119  1
  Cs  Cs11  1  0.32853435  0.10415182  0.40633881  1
  Cu  Cu12  1  0.07710031  0.06628991  0.62792040  1
  Cu  Cu13  1  0.04408642  0.43016932  0.76769692  1
  Cu  Cu14  1  0.95591358  0.56983068  0.23230308  1
  Cu  Cu15  1  0.45591358  0.43016932  0.26769692  1
  Cu  Cu16  1  0.67650183  0.06393315  0.25978918  1
  Cu  Cu17  1  0.17650183  0.93606685  0.24021082  1
  Cu  Cu18  1  0.32349817  0.93606685  0.74021082  1
  Cu  Cu19  1  0.82349817  0.06393315  0.75978918  1
  Cu  Cu20  1  0.79556302  0.52933026  0.62696936  1
  Cu  Cu21  1  0.29556302  0.47066974  0.87303064  1
  Cu  Cu22  1  0.20443698  0.47066974  0.37303064  1
  Cu  Cu23  1  0.70443698  0.52933026  0.12696936  1
  Cu  Cu24  1  0.93474994  0.29446580  0.64309797  1
  Cu  Cu25  1  0.43474994  0.70553420  0.85690203  1
  Cu  Cu26  1  0.06525006  0.70553420  0.35690203  1
  Cu  Cu27  1  0.56525006  0.29446580  0.14309797  1
  Cu  Cu28  1  0.92289969  0.93371009  0.37207960  1
  Cu  Cu29  1  0.42289969  0.06628991  0.12792040  1
  Cu  Cu30  1  0.54408642  0.56983068  0.73230308  1
  Cu  Cu31  1  0.57710031  0.93371009  0.87207960  1
  O  O32  1  0.42532172  0.39942366  0.39367009  1
  O  O33  1  0.92532172  0.60057634  0.10632991  1
  O  O34  1  0.57467828  0.60057634  0.60632991  1
  O  O35  1  0.07467828  0.39942366  0.89367009  1
  O  O36  1  0.29661147  0.00448125  0.61447471  1
  O  O37  1  0.79661147  0.99551875  0.88552529  1
  O  O38  1  0.70338853  0.99551875  0.38552529  1
  O  O39  1  0.20338853  0.00448125  0.11447471  1
  O  O40  1  0.85091475  0.13328544  0.63159544  1
  O  O41  1  0.35091475  0.86671456  0.86840456  1
  O  O42  1  0.14908525  0.86671456  0.36840456  1
  O  O43  1  0.64908525  0.13328544  0.13159544  1
  O  O44  1  0.52215816  0.53976557  0.85960790  1
  O  O45  1  0.02215816  0.46023443  0.64039210  1
  O  O46  1  0.47784184  0.46023443  0.14039210  1
  O  O47  1  0.97784184  0.53976557  0.35960790  1
