# generated using pymatgen
data_SbPbF7
_symmetry_space_group_name_H-M   'P 1'
_cell_length_a   4.71514383
_cell_length_b   7.38346846
_cell_length_c   7.64847531
_cell_angle_alpha   106.44577957
_cell_angle_beta   102.31479609
_cell_angle_gamma   90.26792045
_symmetry_Int_Tables_number   1
_chemical_formula_structural   SbPbF7
_chemical_formula_sum   'Sb2 Pb2 F14'
_cell_volume   248.90278938
_cell_formula_units_Z   2
loop_
 _symmetry_equiv_pos_site_id
 _symmetry_equiv_pos_as_xyz
  1  'x, y, z'
loop_
 _atom_site_type_symbol
 _atom_site_label
 _atom_site_symmetry_multiplicity
 _atom_site_fract_x
 _atom_site_fract_y
 _atom_site_fract_z
 _atom_site_occupancy
  Sb  Sb0  1  0.35314289  0.18478548  0.28340684  1
  Sb  Sb1  1  0.64685711  0.81521452  0.71659316  1
  Pb  Pb2  1  0.83148694  0.64773871  0.20163531  1
  Pb  Pb3  1  0.16851306  0.35226129  0.79836469  1
  F  F4  1  0.71951057  0.43442339  0.90931785  1
  F  F5  1  0.28048943  0.56557661  0.09068215  1
  F  F6  1  0.05234568  0.05516562  0.33841936  1
  F  F7  1  0.94765432  0.94483438  0.66158064  1
  F  F8  1  0.48741699  0.94882473  0.17166498  1
  F  F9  1  0.51258301  0.05117527  0.82833502  1
  F  F10  1  0.58490519  0.19981613  0.52297996  1
  F  F11  1  0.41509481  0.80018387  0.47702004  1
  F  F12  1  0.65336104  0.31604789  0.22797599  1
  F  F13  1  0.34663896  0.68395211  0.77202401  1
  F  F14  1  0.20775991  0.41873625  0.39585774  1
  F  F15  1  0.79224009  0.58126375  0.60414226  1
  F  F16  1  0.11761922  0.18658112  0.04802063  1
  F  F17  1  0.88238078  0.81341888  0.95197937  1
