# generated using pymatgen
data_Sr2CrO4
_symmetry_space_group_name_H-M   'P 1'
_cell_length_a   5.81040999
_cell_length_b   10.02839088
_cell_length_c   14.16261590
_cell_angle_alpha   90.00000000
_cell_angle_beta   90.00000000
_cell_angle_gamma   90.00000000
_symmetry_Int_Tables_number   1
_chemical_formula_structural   Sr2CrO4
_chemical_formula_sum   'Sr16 Cr8 O32'
_cell_volume   825.24235179
_cell_formula_units_Z   8
loop_
 _symmetry_equiv_pos_site_id
 _symmetry_equiv_pos_as_xyz
  1  'x, y, z'
loop_
 _atom_site_type_symbol
 _atom_site_label
 _atom_site_symmetry_multiplicity
 _atom_site_fract_x
 _atom_site_fract_y
 _atom_site_fract_z
 _atom_site_occupancy
  Sr  Sr0  1  0.72806237  0.77823161  0.04791237  1
  Sr  Sr1  1  0.27193763  0.27823161  0.95208763  1
  Sr  Sr2  1  0.77193763  0.77823161  0.54791237  1
  Sr  Sr3  1  0.22806237  0.27823161  0.45208763  1
  Sr  Sr4  1  0.68973470  0.41372630  0.12001993  1
  Sr  Sr5  1  0.31026530  0.91372630  0.87998007  1
  Sr  Sr6  1  0.81026530  0.41372630  0.62001993  1
  Sr  Sr7  1  0.18973470  0.91372630  0.37998007  1
  Sr  Sr8  1  0.68954872  0.13876807  0.29525125  1
  Sr  Sr9  1  0.31045128  0.63876807  0.70474875  1
  Sr  Sr10  1  0.81045128  0.13876807  0.79525125  1
  Sr  Sr11  1  0.18954872  0.63876807  0.20474875  1
  Sr  Sr12  1  0.72183048  0.50239370  0.36981444  1
  Sr  Sr13  1  0.27816952  0.00239370  0.63018556  1
  Sr  Sr14  1  0.77816952  0.50239370  0.86981444  1
  Sr  Sr15  1  0.22183048  0.00239370  0.13018556  1
  Cr  Cr16  1  0.19446677  0.28570353  0.22848401  1
  Cr  Cr17  1  0.80553323  0.78570353  0.77151599  1
  Cr  Cr18  1  0.30553323  0.28570353  0.72848401  1
  Cr  Cr19  1  0.69446677  0.78570353  0.27151599  1
  Cr  Cr20  1  0.27656228  0.62841306  0.47558267  1
  Cr  Cr21  1  0.72343772  0.12841306  0.52441733  1
  Cr  Cr22  1  0.22343772  0.62841306  0.97558267  1
  Cr  Cr23  1  0.77656228  0.12841306  0.02441733  1
  O  O24  1  0.05494984  0.51110208  0.48702786  1
  O  O25  1  0.94505016  0.01110208  0.51297214  1
  O  O26  1  0.44505016  0.51110208  0.98702786  1
  O  O27  1  0.55494984  0.01110208  0.01297214  1
  O  O28  1  0.52572152  0.55816532  0.53042779  1
  O  O29  1  0.47427848  0.05816532  0.46957221  1
  O  O30  1  0.97427848  0.55816532  0.03042779  1
  O  O31  1  0.02572152  0.05816532  0.96957221  1
  O  O32  1  0.94377734  0.84847462  0.20613903  1
  O  O33  1  0.05622266  0.34847462  0.79386097  1
  O  O34  1  0.55622266  0.84847462  0.70613903  1
  O  O35  1  0.44377734  0.34847462  0.29386097  1
  O  O36  1  0.27897029  0.77291294  0.04533614  1
  O  O37  1  0.72102971  0.27291294  0.95466386  1
  O  O38  1  0.22102971  0.77291294  0.54533614  1
  O  O39  1  0.77897029  0.27291294  0.45466386  1
  O  O40  1  0.63927560  0.64248131  0.19947425  1
  O  O41  1  0.36072440  0.14248131  0.80052575  1
  O  O42  1  0.86072440  0.64248131  0.69947425  1
  O  O43  1  0.13927560  0.14248131  0.30052575  1
  O  O44  1  0.36502355  0.67866685  0.36126697  1
  O  O45  1  0.63497645  0.17866685  0.63873303  1
  O  O46  1  0.13497645  0.67866685  0.86126697  1
  O  O47  1  0.86502355  0.17866685  0.13873303  1
  O  O48  1  0.34277992  0.25155097  0.12252114  1
  O  O49  1  0.65722008  0.75155097  0.87747886  1
  O  O50  1  0.15722008  0.25155097  0.62252114  1
  O  O51  1  0.84277992  0.75155097  0.37747886  1
  O  O52  1  0.99844769  0.41971063  0.24430519  1
  O  O53  1  0.00155231  0.91971063  0.75569481  1
  O  O54  1  0.50155231  0.41971063  0.74430519  1
  O  O55  1  0.49844769  0.91971063  0.25569481  1
