# generated using pymatgen
data_Th4Mg(B2O5)4
_symmetry_space_group_name_H-M   'P 1'
_cell_length_a   6.81996615
_cell_length_b   6.81996619
_cell_length_c   10.26794618
_cell_angle_alpha   79.81165814
_cell_angle_beta   79.81166096
_cell_angle_gamma   63.67747701
_symmetry_Int_Tables_number   1
_chemical_formula_structural   Th4Mg(B2O5)4
_chemical_formula_sum   'Th4 Mg1 B8 O20'
_cell_volume   418.68101265
_cell_formula_units_Z   1
loop_
 _symmetry_equiv_pos_site_id
 _symmetry_equiv_pos_as_xyz
  1  'x, y, z'
loop_
 _atom_site_type_symbol
 _atom_site_label
 _atom_site_symmetry_multiplicity
 _atom_site_fract_x
 _atom_site_fract_y
 _atom_site_fract_z
 _atom_site_occupancy
  Th  Th0  1  0.97593343  0.39642550  0.18988633  1
  Th  Th1  1  0.60357350  0.02406657  0.31011367  1
  Th  Th2  1  0.02496103  0.63070218  0.80151540  1
  Th  Th3  1  0.36929682  0.97503897  0.69848460  1
  Mg  Mg4  1  0.53454381  0.46545619  0.75000000  1
  B  B5  1  0.24024797  0.79890640  0.50337790  1
  B  B6  1  0.15551428  0.57056972  0.35904600  1
  B  B7  1  0.42943028  0.84448572  0.14095400  1
  B  B8  1  0.88372621  0.43113667  0.62328482  1
  B  B9  1  0.56886333  0.11627379  0.87671518  1
  B  B10  1  0.20109360  0.75975203  0.99662210  1
  B  B11  1  0.74556630  0.20568026  0.50148752  1
  B  B12  1  0.79431974  0.25443370  0.99851248  1
  O  O13  1  0.26334349  0.65130511  0.41976001  1
  O  O14  1  0.67924452  0.23450853  0.90481184  1
  O  O15  1  0.76549147  0.32075548  0.59518816  1
  O  O16  1  0.34869489  0.73665651  0.08023999  1
  O  O17  1  0.37267779  0.25050479  0.82484728  1
  O  O18  1  0.74949521  0.62732221  0.67515272  1
  O  O19  1  0.63371685  0.73113297  0.18828598  1
  O  O20  1  0.26886703  0.36628315  0.31171402  1
  O  O21  1  0.31574065  0.06223861  0.16621966  1
  O  O22  1  0.93776139  0.68425935  0.33378034  1
  O  O23  1  0.66253366  0.89925898  0.86273994  1
  O  O24  1  0.10074102  0.33746634  0.63726006  1
  O  O25  1  0.89911273  0.39029537  0.96387600  1
  O  O26  1  0.60970463  0.10088727  0.53612400  1
  O  O27  1  0.10751805  0.60962109  0.02371762  1
  O  O28  1  0.39037891  0.89248195  0.47628238  1
  O  O29  1  0.13816852  0.91515336  0.88775706  1
  O  O30  1  0.08484664  0.86183148  0.61224294  1
  O  O31  1  0.78183452  0.16694329  0.12859971  1
  O  O32  1  0.83305671  0.21816548  0.37140029  1
