# generated using pymatgen
data_TiNb2O7
_symmetry_space_group_name_H-M   'P 1'
_cell_length_a   10.53557562
_cell_length_b   10.53557562
_cell_length_c   11.99270759
_cell_angle_alpha   59.86168251
_cell_angle_beta   59.86168251
_cell_angle_gamma   21.00336735
_symmetry_Int_Tables_number   1
_chemical_formula_structural   TiNb2O7
_chemical_formula_sum   'Ti3 Nb6 O21'
_cell_volume   410.22615243
_cell_formula_units_Z   3
loop_
 _symmetry_equiv_pos_site_id
 _symmetry_equiv_pos_as_xyz
  1  'x, y, z'
loop_
 _atom_site_type_symbol
 _atom_site_label
 _atom_site_symmetry_multiplicity
 _atom_site_fract_x
 _atom_site_fract_y
 _atom_site_fract_z
 _atom_site_occupancy
  Ti  Ti0  1  0.70595881  0.70595881  0.36112382  1
  Ti  Ti1  1  0.30188075  0.30188075  0.63501546  1
  Ti  Ti2  1  0.92273728  0.92273728  0.63217661  1
  Nb  Nb3  1  0.81718793  0.81718793  0.99587503  1
  Nb  Nb4  1  0.18409389  0.18409389  0.99556482  1
  Nb  Nb5  1  0.12064415  0.12064415  0.62437185  1
  Nb  Nb6  1  0.88292630  0.88292630  0.37270156  1
  Nb  Nb7  1  -0.00008250  -0.00008250  0.99590924  1
  Nb  Nb8  1  0.07477104  0.07477104  0.37192923  1
  O  O9  1  0.94980507  0.94980507  0.19833871  1
  O  O10  1  0.05050984  0.05050984  0.80238346  1
  O  O11  1  0.62941120  0.62941120  0.57531771  1
  O  O12  1  0.37065971  0.37065971  0.42382797  1
  O  O13  1  0.28970716  0.28970716  0.00321544  1
  O  O14  1  0.70812373  0.70812373  0.99943911  1
  O  O15  1  0.09911839  0.09911839  0.98487041  1
  O  O16  1  0.89960730  0.89960730  0.01667135  1
  O  O17  1  0.74935273  0.74935273  0.19276320  1
  O  O18  1  0.24994502  0.24994502  0.80736380  1
  O  O19  1  0.82666967  0.82666967  0.59740867  1
  O  O20  1  0.17376086  0.17376086  0.40356638  1
  O  O21  1  0.97321010  0.97321010  0.41908742  1
  O  O22  1  0.02269534  0.02269534  0.58149278  1
  O  O23  1  0.12431663  0.12431663  0.19079120  1
  O  O24  1  0.87399982  0.87399982  0.80989735  1
  O  O25  1  0.40152741  0.40152741  0.62454836  1
  O  O26  1  0.59808126  0.59808126  0.37770140  1
  O  O27  1  0.49851808  0.49851808  0.00680111  1
  O  O28  1  0.21111153  0.21111153  0.62090130  1
  O  O29  1  0.78975050  0.78975050  0.37894226  1
