# generated using pymatgen
data_Tm2MgS4
_symmetry_space_group_name_H-M   'P 1'
_cell_length_a   7.78256824
_cell_length_b   7.78257051
_cell_length_c   7.78256811
_cell_angle_alpha   59.99951902
_cell_angle_beta   59.99951550
_cell_angle_gamma   59.99949672
_symmetry_Int_Tables_number   1
_chemical_formula_structural   Tm2MgS4
_chemical_formula_sum   'Tm4 Mg2 S8'
_cell_volume   333.31059018
_cell_formula_units_Z   2
loop_
 _symmetry_equiv_pos_site_id
 _symmetry_equiv_pos_as_xyz
  1  'x, y, z'
loop_
 _atom_site_type_symbol
 _atom_site_label
 _atom_site_symmetry_multiplicity
 _atom_site_fract_x
 _atom_site_fract_y
 _atom_site_fract_z
 _atom_site_occupancy
  Tm  Tm0  1  0.62499957  0.12500001  0.62499970  1
  Tm  Tm1  1  0.62500012  0.62500005  0.12500005  1
  Tm  Tm2  1  0.12499933  0.62500041  0.62499958  1
  Tm  Tm3  1  0.62500023  0.62500018  0.62500012  1
  Mg  Mg4  1  0.00000162  0.00000137  0.00000178  1
  Mg  Mg5  1  0.24999865  0.24999852  0.24999821  1
  S  S6  1  0.38045825  0.38045783  0.38045852  1
  S  S7  1  0.85862702  0.38045774  0.38045734  1
  S  S8  1  0.38045802  0.85862679  0.38045727  1
  S  S9  1  0.38045727  0.38045744  0.85862725  1
  S  S10  1  0.86954983  0.86954982  0.39135111  1
  S  S11  1  0.86954999  0.39135079  0.86955013  1
  S  S12  1  0.39135062  0.86955001  0.86954974  1
  S  S13  1  0.86954947  0.86954904  0.86954920  1
