# generated using pymatgen
data_K2Se5
_symmetry_space_group_name_H-M   'P 1'
_cell_length_a   6.75689330
_cell_length_b   7.01584933
_cell_length_c   17.98654916
_cell_angle_alpha   90.00000000
_cell_angle_beta   90.00000000
_cell_angle_gamma   90.00000000
_symmetry_Int_Tables_number   1
_chemical_formula_structural   K2Se5
_chemical_formula_sum   'K8 Se20'
_cell_volume   852.65857426
_cell_formula_units_Z   4
loop_
 _symmetry_equiv_pos_site_id
 _symmetry_equiv_pos_as_xyz
  1  'x, y, z'
loop_
 _atom_site_type_symbol
 _atom_site_label
 _atom_site_symmetry_multiplicity
 _atom_site_fract_x
 _atom_site_fract_y
 _atom_site_fract_z
 _atom_site_occupancy
  K  K0  1  0.87304272  0.08602870  0.50624247  1
  K  K1  1  0.37304272  0.41397130  0.49375753  1
  K  K2  1  0.12695728  0.58602870  0.99375753  1
  K  K3  1  0.62695728  0.91397130  0.00624247  1
  K  K4  1  0.08573371  0.76115139  0.33752288  1
  K  K5  1  0.58573371  0.73884861  0.66247712  1
  K  K6  1  0.91426629  0.26115139  0.16247712  1
  K  K7  1  0.41426629  0.23884861  0.83752288  1
  Se  Se8  1  0.46633803  0.62734432  0.20517126  1
  Se  Se9  1  0.96633803  0.87265568  0.79482874  1
  Se  Se10  1  0.53366197  0.12734432  0.29482874  1
  Se  Se11  1  0.03366197  0.37265568  0.70517126  1
  Se  Se12  1  0.26055668  0.86490403  0.15045866  1
  Se  Se13  1  0.76055668  0.63509597  0.84954134  1
  Se  Se14  1  0.73944332  0.36490403  0.34954134  1
  Se  Se15  1  0.23944332  0.13509597  0.65045866  1
  Se  Se16  1  0.93033510  0.75880767  0.16212426  1
  Se  Se17  1  0.43033510  0.74119233  0.83787574  1
  Se  Se18  1  0.06966490  0.25880767  0.33787574  1
  Se  Se19  1  0.56966490  0.24119233  0.66212426  1
  Se  Se20  1  0.07230063  0.64164482  0.62630931  1
  Se  Se21  1  0.57230063  0.85835518  0.37369069  1
  Se  Se22  1  0.92769937  0.14164482  0.87369069  1
  Se  Se23  1  0.42770037  0.35835518  0.12630931  1
  Se  Se24  1  0.89690806  0.57952132  0.51674296  1
  Se  Se25  1  0.39690806  0.92047868  0.48325704  1
  Se  Se26  1  0.10309194  0.07952132  0.98325704  1
  Se  Se27  1  0.60309194  0.42047868  0.01674296  1
