# generated using pymatgen
data_Mg6VFeO8
_symmetry_space_group_name_H-M   'P 1'
_cell_length_a   8.60518103
_cell_length_b   4.28956618
_cell_length_c   4.28956618
_cell_angle_alpha   90.00000000
_cell_angle_beta   90.00000000
_cell_angle_gamma   90.00000000
_symmetry_Int_Tables_number   1
_chemical_formula_structural   Mg6VFeO8
_chemical_formula_sum   'Mg6 V1 Fe1 O8'
_cell_volume   158.33858382
_cell_formula_units_Z   1
loop_
 _symmetry_equiv_pos_site_id
 _symmetry_equiv_pos_as_xyz
  1  'x, y, z'
loop_
 _atom_site_type_symbol
 _atom_site_label
 _atom_site_symmetry_multiplicity
 _atom_site_fract_x
 _atom_site_fract_y
 _atom_site_fract_z
 _atom_site_occupancy
  Mg  Mg0  1  0.50000000  0.00000000  0.00000000  1
  Mg  Mg1  1  0.50000000  0.50000000  0.50000000  1
  Mg  Mg2  1  0.25188846  0.00000000  0.50000000  1
  Mg  Mg3  1  0.74811154  0.00000000  0.50000000  1
  Mg  Mg4  1  0.25188846  0.50000000  0.00000000  1
  Mg  Mg5  1  0.74811154  0.50000000  0.00000000  1
  V  V6  1  0.00000000  0.50000000  0.50000000  1
  Fe  Fe7  1  0.00000000  0.00000000  0.00000000  1
  O  O8  1  0.25435490  0.00000000  0.00000000  1
  O  O9  1  0.74564510  0.00000000  0.00000000  1
  O  O10  1  0.25532495  0.50000000  0.50000000  1
  O  O11  1  0.74467505  0.50000000  0.50000000  1
  O  O12  1  0.00000000  0.00000000  0.50000000  1
  O  O13  1  0.50000000  0.00000000  0.50000000  1
  O  O14  1  0.00000000  0.50000000  0.00000000  1
  O  O15  1  0.50000000  0.50000000  0.00000000  1
