# generated using pymatgen
data_Ba4NaGa2B8(BrO6)3
_symmetry_space_group_name_H-M   'P 1'
_cell_length_a   6.98922769
_cell_length_b   12.39014309
_cell_length_c   12.39014309
_cell_angle_alpha   90.00000000
_cell_angle_beta   90.00000000
_cell_angle_gamma   90.00000000
_symmetry_Int_Tables_number   1
_chemical_formula_structural   Ba4NaGa2B8(BrO6)3
_chemical_formula_sum   'Ba8 Na2 Ga4 B16 Br6 O36'
_cell_volume   1072.95580241
_cell_formula_units_Z   2
loop_
 _symmetry_equiv_pos_site_id
 _symmetry_equiv_pos_as_xyz
  1  'x, y, z'
loop_
 _atom_site_type_symbol
 _atom_site_label
 _atom_site_symmetry_multiplicity
 _atom_site_fract_x
 _atom_site_fract_y
 _atom_site_fract_z
 _atom_site_occupancy
  Ba  Ba0  1  0.01237680  0.27391694  0.98327094  1
  Ba  Ba1  1  0.01237680  0.72608306  0.01672906  1
  Ba  Ba2  1  0.51237680  0.77391694  0.51672906  1
  Ba  Ba3  1  0.51237680  0.22608306  0.48327094  1
  Ba  Ba4  1  0.01237680  0.01672906  0.72608306  1
  Ba  Ba5  1  0.01237680  0.98327094  0.27391694  1
  Ba  Ba6  1  0.51237680  0.51672906  0.77391694  1
  Ba  Ba7  1  0.51237680  0.48327094  0.22608306  1
  Na  Na8  1  0.35956853  -0.00000000  -0.00000000  1
  Na  Na9  1  0.85956853  0.50000000  0.50000000  1
  Ga  Ga10  1  0.51760366  0.20182621  0.79817379  1
  Ga  Ga11  1  0.51760366  0.79817379  0.20182621  1
  Ga  Ga12  1  0.01760366  0.70182621  0.70182621  1
  Ga  Ga13  1  0.01760366  0.29817379  0.29817379  1
  B  B14  1  0.55291239  0.23265561  0.03677790  1
  B  B15  1  0.55291239  0.76734439  0.96322210  1
  B  B16  1  0.05291239  0.73265561  0.46322210  1
  B  B17  1  0.05291239  0.26734439  0.53677790  1
  B  B18  1  0.55291239  0.96322210  0.76734439  1
  B  B19  1  0.55291239  0.03677790  0.23265561  1
  B  B20  1  0.05291239  0.46322210  0.73265561  1
  B  B21  1  0.05291239  0.53677790  0.26734439  1
  B  B22  1  0.14292948  0.26698583  0.73301417  1
  B  B23  1  0.14292948  0.73301417  0.26698583  1
  B  B24  1  0.64292948  0.76698583  0.76698583  1
  B  B25  1  0.64292948  0.23301417  0.23301417  1
  B  B26  1  0.81813805  0.31618266  0.68381734  1
  B  B27  1  0.81813805  0.68381734  0.31618266  1
  B  B28  1  0.31813805  0.81618266  0.81618266  1
  B  B29  1  0.31813805  0.18381734  0.18381734  1
  Br  Br30  1  0.93384847  -0.00000000  -0.00000000  1
  Br  Br31  1  0.43384847  0.50000000  0.50000000  1
  Br  Br32  1  0.78262453  0.50000000  -0.00000000  1
  Br  Br33  1  0.28262453  -0.00000000  0.50000000  1
  Br  Br34  1  0.78262453  -0.00000000  0.50000000  1
  Br  Br35  1  0.28262453  0.50000000  -0.00000000  1
  O  O36  1  0.93709188  0.24749826  0.75250174  1
  O  O37  1  0.93709188  0.75250174  0.24749826  1
  O  O38  1  0.43709188  0.74749826  0.74749826  1
  O  O39  1  0.43709188  0.25250174  0.25250174  1
  O  O40  1  0.68564283  0.25638976  0.11659982  1
  O  O41  1  0.68564283  0.74361024  0.88340018  1
  O  O42  1  0.18564283  0.75638976  0.38340018  1
  O  O43  1  0.18564283  0.24361024  0.61659982  1
  O  O44  1  0.68564283  0.88340018  0.74361024  1
  O  O45  1  0.68564283  0.11659982  0.25638976  1
  O  O46  1  0.18564283  0.38340018  0.75638976  1
  O  O47  1  0.18564283  0.61659982  0.24361024  1
  O  O48  1  0.36814372  0.20094670  0.06402755  1
  O  O49  1  0.36814372  0.79905330  0.93597245  1
  O  O50  1  0.86814372  0.70094670  0.43597245  1
  O  O51  1  0.86814372  0.29905330  0.56402755  1
  O  O52  1  0.36814372  0.93597245  0.79905330  1
  O  O53  1  0.36814372  0.06402755  0.20094670  1
  O  O54  1  0.86814372  0.43597245  0.70094670  1
  O  O55  1  0.86814372  0.56402755  0.29905330  1
  O  O56  1  0.61497990  0.30078279  0.69921721  1
  O  O57  1  0.61497990  0.69921721  0.30078279  1
  O  O58  1  0.11497990  0.80078279  0.80078279  1
  O  O59  1  0.11497990  0.19921721  0.19921721  1
  O  O60  1  0.25214541  0.19654216  0.80345784  1
  O  O61  1  0.25214541  0.80345784  0.19654216  1
  O  O62  1  0.75214541  0.69654216  0.69654216  1
  O  O63  1  0.75214541  0.30345784  0.30345784  1
  O  O64  1  0.61681356  0.23766681  0.93279380  1
  O  O65  1  0.61681356  0.76233319  0.06720620  1
  O  O66  1  0.11681356  0.73766681  0.56720620  1
  O  O67  1  0.11681356  0.26233319  0.43279380  1
  O  O68  1  0.61681356  0.06720620  0.76233319  1
  O  O69  1  0.61681356  0.93279380  0.23766681  1
  O  O70  1  0.11681356  0.56720620  0.73766681  1
  O  O71  1  0.11681356  0.43279380  0.26233319  1
