# generated using pymatgen
data_PtCl2
_symmetry_space_group_name_H-M   'P 1'
_cell_length_a   6.45249984
_cell_length_b   6.45249984
_cell_length_c   7.40393266
_cell_angle_alpha   74.88005547
_cell_angle_beta   74.88005547
_cell_angle_gamma   30.75602203
_symmetry_Int_Tables_number   1
_chemical_formula_structural   PtCl2
_chemical_formula_sum   'Pt2 Cl4'
_cell_volume   151.76155507
_cell_formula_units_Z   2
loop_
 _symmetry_equiv_pos_site_id
 _symmetry_equiv_pos_as_xyz
  1  'x, y, z'
loop_
 _atom_site_type_symbol
 _atom_site_label
 _atom_site_symmetry_multiplicity
 _atom_site_fract_x
 _atom_site_fract_y
 _atom_site_fract_z
 _atom_site_occupancy
  Pt  Pt0  1  0.47737250  0.47737250  0.75633119  1
  Pt  Pt1  1  0.52262750  0.52262750  0.24366881  1
  Cl  Cl2  1  0.84768823  0.84768823  0.80604757  1
  Cl  Cl3  1  0.15231177  0.15231177  0.19395243  1
  Cl  Cl4  1  0.89299651  0.89299651  0.29073890  1
  Cl  Cl5  1  0.10700349  0.10700349  0.70926110  1
