# generated using pymatgen
data_SmHO2
_symmetry_space_group_name_H-M   'P 1'
_cell_length_a   3.75823501
_cell_length_b   4.37537148
_cell_length_c   6.14931225
_cell_angle_alpha   71.35457694
_cell_angle_beta   90.00000000
_cell_angle_gamma   90.00000000
_symmetry_Int_Tables_number   1
_chemical_formula_structural   SmHO2
_chemical_formula_sum   'Sm2 H2 O4'
_cell_volume   95.81017184
_cell_formula_units_Z   2
loop_
 _symmetry_equiv_pos_site_id
 _symmetry_equiv_pos_as_xyz
  1  'x, y, z'
loop_
 _atom_site_type_symbol
 _atom_site_label
 _atom_site_symmetry_multiplicity
 _atom_site_fract_x
 _atom_site_fract_y
 _atom_site_fract_z
 _atom_site_occupancy
  Sm  Sm0  1  0.25000000  0.66670818  0.19079455  1
  Sm  Sm1  1  0.75000000  0.33329182  0.80920545  1
  H  H2  1  0.75000000  0.97983395  0.42571357  1
  H  H3  1  0.25000000  0.02016605  0.57428643  1
  O  O4  1  0.25000000  0.23622565  0.04578735  1
  O  O5  1  0.75000000  0.75394978  0.43888026  1
  O  O6  1  0.25000000  0.24605022  0.56111974  1
  O  O7  1  0.75000000  0.76377435  0.95421265  1
