# generated using pymatgen
data_MgV8(OF)8
_symmetry_space_group_name_H-M   'P 1'
_cell_length_a   4.96449002
_cell_length_b   10.44484903
_cell_length_c   5.67716010
_cell_angle_alpha   83.76747376
_cell_angle_beta   92.96268270
_cell_angle_gamma   89.53361184
_symmetry_Int_Tables_number   1
_chemical_formula_structural   MgV8(OF)8
_chemical_formula_sum   'Mg1 V8 O8 F8'
_cell_volume   292.22065268
_cell_formula_units_Z   1
loop_
 _symmetry_equiv_pos_site_id
 _symmetry_equiv_pos_as_xyz
  1  'x, y, z'
loop_
 _atom_site_type_symbol
 _atom_site_label
 _atom_site_symmetry_multiplicity
 _atom_site_fract_x
 _atom_site_fract_y
 _atom_site_fract_z
 _atom_site_occupancy
  Mg  Mg0  1  0.50640976  0.37390623  0.36386602  1
  V  V1  1  0.49371368  0.25019261  0.80294790  1
  V  V2  1  0.51087200  0.99704174  0.50340293  1
  V  V3  1  0.52414234  0.74097299  0.23863740  1
  V  V4  1  0.52200315  0.52468212  0.94139115  1
  V  V5  1  0.99066274  0.22587525  0.27840879  1
  V  V6  1  0.03434609  0.77390945  0.71756035  1
  V  V7  1  0.01479293  0.50606759  0.48484544  1
  V  V8  1  0.00684847  0.99501916  0.00458755  1
  O  O9  1  0.81744948  0.06934965  0.29413985  1
  O  O10  1  0.69781430  0.82272350  0.51199716  1
  O  O11  1  0.66158782  0.55456687  0.27044237  1
  O  O12  1  0.67626552  0.32686418  0.06900355  1
  O  O13  1  0.36657782  0.42515024  0.68184133  1
  O  O14  1  0.33452308  0.68583480  0.94417783  1
  O  O15  1  0.34142737  0.19501153  0.47528879  1
  O  O16  1  0.20105724  0.93581401  0.70351124  1
  F  F17  1  0.85503818  0.58550635  0.76964615  1
  F  F18  1  0.83551718  0.31573627  0.56453178  1
  F  F19  1  0.82865442  0.81258813  0.02392998  1
  F  F20  1  0.67182747  0.07416491  0.80259712  1
  F  F21  1  0.34116288  0.92381847  0.20828944  1
  F  F22  1  0.20006007  0.68797728  0.43776125  1
  F  F23  1  0.17708852  0.17975236  0.97986859  1
  F  F24  1  0.16793548  0.42372432  0.18923104  1
