# generated using pymatgen
data_Cs2Hg3S4
_symmetry_space_group_name_H-M   'P 1'
_cell_length_a   6.34535900
_cell_length_b   9.89419761
_cell_length_c   9.89419761
_cell_angle_alpha   73.10887030
_cell_angle_beta   71.29711917
_cell_angle_gamma   71.29711917
_symmetry_Int_Tables_number   1
_chemical_formula_structural   Cs2Hg3S4
_chemical_formula_sum   'Cs4 Hg6 S8'
_cell_volume   544.97099417
_cell_formula_units_Z   2
loop_
 _symmetry_equiv_pos_site_id
 _symmetry_equiv_pos_as_xyz
  1  'x, y, z'
loop_
 _atom_site_type_symbol
 _atom_site_label
 _atom_site_symmetry_multiplicity
 _atom_site_fract_x
 _atom_site_fract_y
 _atom_site_fract_z
 _atom_site_occupancy
  Cs  Cs0  1  0.74224841  0.62097035  0.37902965  1
  Cs  Cs1  1  0.25775159  0.37902965  0.62097035  1
  Cs  Cs2  1  0.75775159  0.12097035  0.87902965  1
  Cs  Cs3  1  0.24224841  0.87902965  0.12097035  1
  Hg  Hg4  1  0.75000000  0.75000000  0.75000000  1
  Hg  Hg5  1  0.25000000  0.25000000  0.25000000  1
  Hg  Hg6  1  0.25000000  0.90573068  0.59426932  1
  Hg  Hg7  1  0.25000000  0.59426932  0.90573068  1
  Hg  Hg8  1  0.75000000  0.09426932  0.40573068  1
  Hg  Hg9  1  0.75000000  0.40573068  0.09426932  1
  S  S10  1  0.07906611  0.77516346  0.51145170  1
  S  S11  1  0.63431974  0.51145170  0.77516346  1
  S  S12  1  0.42093389  0.98854830  0.72483654  1
  S  S13  1  0.86568026  0.72483654  0.98854830  1
  S  S14  1  0.92093389  0.22483654  0.48854830  1
  S  S15  1  0.36568026  0.48854830  0.22483654  1
  S  S16  1  0.57906611  0.01145170  0.27516346  1
  S  S17  1  0.13431974  0.27516346  0.01145170  1
