# generated using pymatgen
data_K2ZnS2
_symmetry_space_group_name_H-M   'P 1'
_cell_length_a   7.79140348
_cell_length_b   7.79140348
_cell_length_c   7.79140348
_cell_angle_alpha   133.35777684
_cell_angle_beta   128.92571443
_cell_angle_gamma   71.64738665
_symmetry_Int_Tables_number   1
_chemical_formula_structural   K2ZnS2
_chemical_formula_sum   'K4 Zn2 S4'
_cell_volume   261.80290943
_cell_formula_units_Z   2
loop_
 _symmetry_equiv_pos_site_id
 _symmetry_equiv_pos_as_xyz
  1  'x, y, z'
loop_
 _atom_site_type_symbol
 _atom_site_label
 _atom_site_symmetry_multiplicity
 _atom_site_fract_x
 _atom_site_fract_y
 _atom_site_fract_z
 _atom_site_occupancy
  K  K0  1  0.81100410  0.64522687  0.16577622  1
  K  K1  1  0.18899590  0.35477313  0.83422378  1
  K  K2  1  0.47945065  0.14522687  0.33422378  1
  K  K3  1  0.52054935  0.85477313  0.66577622  1
  Zn  Zn4  1  -0.00000000  0.75000000  0.75000000  1
  Zn  Zn5  1  -0.00000000  0.25000000  0.25000000  1
  S  S6  1  0.70979133  0.39800038  0.31179095  1
  S  S7  1  0.29020867  0.60199962  0.68820905  1
  S  S8  1  0.08620843  0.89800038  0.18820905  1
  S  S9  1  0.91379157  0.10199962  0.81179095  1
