# generated using pymatgen
data_Sr3GdRhO6
_symmetry_space_group_name_H-M   'P 1'
_cell_length_a   6.82351686
_cell_length_b   6.82351686
_cell_length_c   6.82351711
_cell_angle_alpha   91.87044572
_cell_angle_beta   91.87044572
_cell_angle_gamma   91.87044548
_symmetry_Int_Tables_number   1
_chemical_formula_structural   Sr3GdRhO6
_chemical_formula_sum   'Sr6 Gd2 Rh2 O12'
_cell_volume   317.18639398
_cell_formula_units_Z   2
loop_
 _symmetry_equiv_pos_site_id
 _symmetry_equiv_pos_as_xyz
  1  'x, y, z'
loop_
 _atom_site_type_symbol
 _atom_site_label
 _atom_site_symmetry_multiplicity
 _atom_site_fract_x
 _atom_site_fract_y
 _atom_site_fract_z
 _atom_site_occupancy
  Sr  Sr0  1  0.38064731  0.11935269  0.75000000  1
  Sr  Sr1  1  0.11935269  0.75000000  0.38064731  1
  Sr  Sr2  1  0.75000000  0.38064731  0.11935269  1
  Sr  Sr3  1  0.61935269  0.88064731  0.25000000  1
  Sr  Sr4  1  0.25000000  0.61935269  0.88064731  1
  Sr  Sr5  1  0.88064731  0.25000000  0.61935269  1
  Gd  Gd6  1  0.25000000  0.25000000  0.25000000  1
  Gd  Gd7  1  0.75000000  0.75000000  0.75000000  1
  Rh  Rh8  1  0.00000000  0.00000000  -0.00000000  1
  Rh  Rh9  1  0.50000000  0.50000000  0.50000000  1
  O  O10  1  0.08730960  0.29086284  0.95311584  1
  O  O11  1  0.95311584  0.08730960  0.29086284  1
  O  O12  1  0.29086284  0.95311584  0.08730960  1
  O  O13  1  0.41269040  0.54688416  0.20913716  1
  O  O14  1  0.20913716  0.41269040  0.54688416  1
  O  O15  1  0.54688416  0.20913716  0.41269040  1
  O  O16  1  0.91269040  0.70913716  0.04688416  1
  O  O17  1  0.04688416  0.91269040  0.70913716  1
  O  O18  1  0.70913716  0.04688416  0.91269040  1
  O  O19  1  0.58730960  0.45311584  0.79086284  1
  O  O20  1  0.45311584  0.79086284  0.58730960  1
  O  O21  1  0.79086284  0.58730960  0.45311584  1
