# generated using pymatgen
data_Sr2MgV2(Si2O7)2
_symmetry_space_group_name_H-M   'P 1'
_cell_length_a   5.50539162
_cell_length_b   7.16397200
_cell_length_c   7.85869060
_cell_angle_alpha   90.00000000
_cell_angle_beta   109.39975831
_cell_angle_gamma   90.00000000
_symmetry_Int_Tables_number   1
_chemical_formula_structural   Sr2MgV2(Si2O7)2
_chemical_formula_sum   'Sr2 Mg1 V2 Si4 O14'
_cell_volume   292.35273270
_cell_formula_units_Z   1
loop_
 _symmetry_equiv_pos_site_id
 _symmetry_equiv_pos_as_xyz
  1  'x, y, z'
loop_
 _atom_site_type_symbol
 _atom_site_label
 _atom_site_symmetry_multiplicity
 _atom_site_fract_x
 _atom_site_fract_y
 _atom_site_fract_z
 _atom_site_occupancy
  Sr  Sr0  1  0.20438400  0.75000000  0.42037700  1
  Sr  Sr1  1  0.81287500  0.25000000  0.60945100  1
  Mg  Mg2  1  0.20549900  0.25000000  0.36585300  1
  V  V3  1  0.89863000  0.75000000  0.80527900  1
  V  V4  1  0.84439800  0.25000000  0.03968200  1
  Si  Si5  1  0.38998100  0.46924400  0.79835000  1
  Si  Si6  1  0.61841300  0.52102500  0.23677200  1
  Si  Si7  1  0.61841300  0.97897500  0.23677200  1
  Si  Si8  1  0.38998100  0.03075600  0.79835000  1
  O  O9  1  0.63904600  0.75000000  0.25004900  1
  O  O10  1  0.36180400  0.25000000  0.69998600  1
  O  O11  1  0.52235600  0.45386200  0.02123700  1
  O  O12  1  0.52235600  0.04613800  0.02123700  1
  O  O13  1  0.60925900  0.56331500  0.72695000  1
  O  O14  1  0.90885400  0.43787700  0.32314700  1
  O  O15  1  0.43400500  0.04472700  0.34703300  1
  O  O16  1  0.11090200  0.93293100  0.71188700  1
  O  O17  1  0.06229900  0.25000000  0.91782700  1
  O  O18  1  0.02102000  0.75000000  0.02741400  1
  O  O19  1  0.90885400  0.06212200  0.32314700  1
  O  O20  1  0.60925900  0.93668500  0.72695000  1
  O  O21  1  0.11090200  0.56706900  0.71188700  1
  O  O22  1  0.43400500  0.45527300  0.34703300  1
