# generated using pymatgen
data_Sm4Mg(HO2)4
_symmetry_space_group_name_H-M   'P 1'
_cell_length_a   5.77930600
_cell_length_b   11.61778334
_cell_length_c   3.69642000
_cell_angle_alpha   90.00000000
_cell_angle_beta   90.00000000
_cell_angle_gamma   89.98506635
_symmetry_Int_Tables_number   1
_chemical_formula_structural   Sm4Mg(HO2)4
_chemical_formula_sum   'Sm4 Mg1 H4 O8'
_cell_volume   248.18770305
_cell_formula_units_Z   1
loop_
 _symmetry_equiv_pos_site_id
 _symmetry_equiv_pos_as_xyz
  1  'x, y, z'
loop_
 _atom_site_type_symbol
 _atom_site_label
 _atom_site_symmetry_multiplicity
 _atom_site_fract_x
 _atom_site_fract_y
 _atom_site_fract_z
 _atom_site_occupancy
  Sm  Sm0  1  0.07748600  0.80916900  0.25000000  1
  Sm  Sm1  1  0.41074800  0.33728900  0.25000000  1
  Sm  Sm2  1  0.57055300  0.63088900  0.75000000  1
  Sm  Sm3  1  0.93386300  0.17708100  0.75000000  1
  Mg  Mg4  1  0.51518700  0.03875300  0.25000000  1
  H  H5  1  0.19037600  0.55771700  0.25000000  1
  H  H6  1  0.13538300  0.05033300  0.25000000  1
  H  H7  1  0.79031800  0.95098400  0.75000000  1
  H  H8  1  0.83828000  0.41233600  0.75000000  1
  O  O9  1  0.19717800  0.12957300  0.25000000  1
  O  O10  1  0.17805600  0.32586100  0.75000000  1
  O  O11  1  0.25006300  0.73844600  0.75000000  1
  O  O12  1  0.35456300  0.53848600  0.25000000  1
  O  O13  1  0.66831200  0.41770000  0.75000000  1
  O  O14  1  0.69532700  0.19307700  0.25000000  1
  O  O15  1  0.77935500  0.68807800  0.25000000  1
  O  O16  1  0.96495000  0.95661200  0.75000000  1
