# generated using pymatgen
data_W3(SeS2)2
_symmetry_space_group_name_H-M   'P 1'
_cell_length_a   3.22530369
_cell_length_b   3.22525429
_cell_length_c   28.50950404
_cell_angle_alpha   90.00261877
_cell_angle_beta   89.99900997
_cell_angle_gamma   120.00147447
_symmetry_Int_Tables_number   1
_chemical_formula_structural   W3(SeS2)2
_chemical_formula_sum   'W3 Se2 S4'
_cell_volume   256.83157552
_cell_formula_units_Z   1
loop_
 _symmetry_equiv_pos_site_id
 _symmetry_equiv_pos_as_xyz
  1  'x, y, z'
loop_
 _atom_site_type_symbol
 _atom_site_label
 _atom_site_symmetry_multiplicity
 _atom_site_fract_x
 _atom_site_fract_y
 _atom_site_fract_z
 _atom_site_occupancy
  W  W0  1  -0.00000286  0.00000250  0.11685963  1
  W  W1  1  -0.00010343  0.00001387  0.57882249  1
  W  W2  1  0.33332881  0.66667288  0.34529874  1
  Se  Se3  1  0.33333480  0.66658941  0.51928500  1
  Se  Se4  1  0.33344150  0.66671333  0.63827240  1
  S  S5  1  -0.00001287  0.00002326  0.39952593  1
  S  S6  1  0.33334639  0.66665095  0.06263696  1
  S  S7  1  0.33331702  0.66668703  0.17107899  1
  S  S8  1  0.00001563  -0.00001822  0.29105886  1
