# generated using pymatgen
data_MgFe10O9F11
_symmetry_space_group_name_H-M   'P 1'
_cell_length_a   4.93568601
_cell_length_b   4.89215044
_cell_length_c   15.50119962
_cell_angle_alpha   89.83776129
_cell_angle_beta   89.92171195
_cell_angle_gamma   96.34723272
_symmetry_Int_Tables_number   1
_chemical_formula_structural   MgFe10O9F11
_chemical_formula_sum   'Mg1 Fe10 O9 F11'
_cell_volume   371.99741772
_cell_formula_units_Z   1
loop_
 _symmetry_equiv_pos_site_id
 _symmetry_equiv_pos_as_xyz
  1  'x, y, z'
loop_
 _atom_site_type_symbol
 _atom_site_label
 _atom_site_symmetry_multiplicity
 _atom_site_fract_x
 _atom_site_fract_y
 _atom_site_fract_z
 _atom_site_occupancy
  Mg  Mg0  1  0.52112500  0.01958000  0.79697200  1
  Fe  Fe1  1  0.99613300  0.99167900  0.00684900  1
  Fe  Fe2  1  0.99398100  0.99218300  0.20410100  1
  Fe  Fe3  1  0.98984300  0.98600300  0.40360700  1
  Fe  Fe4  1  0.03416900  0.00032400  0.60256700  1
  Fe  Fe5  1  0.03220800  0.03116500  0.79584300  1
  Fe  Fe6  1  0.49609200  0.49012500  0.10607500  1
  Fe  Fe7  1  0.49103000  0.47212800  0.48889400  1
  Fe  Fe8  1  0.49167100  0.49387700  0.29897800  1
  Fe  Fe9  1  0.43437400  0.52470700  0.69099400  1
  Fe  Fe10  1  0.48306500  0.50103400  0.91541100  1
  O  O11  1  0.25604000  0.84250100  0.70664600  1
  O  O12  1  0.27170700  0.29291500  0.01313700  1
  O  O13  1  0.29244400  0.29115400  0.20412300  1
  O  O14  1  0.29037400  0.28511000  0.39637600  1
  O  O15  1  0.30096900  0.33230000  0.59223900  1
  O  O16  1  0.32561700  0.34574500  0.80116800  1
  O  O17  1  0.71148100  0.68882300  0.00925900  1
  O  O18  1  0.69473100  0.69106300  0.20396800  1
  O  O19  1  0.69437000  0.68648400  0.39998200  1
  F  F20  1  0.18655100  0.80386000  0.10692600  1
  F  F21  1  0.17890300  0.79932500  0.30235400  1
  F  F22  1  0.20031400  0.79642100  0.49370900  1
  F  F23  1  0.23395300  0.84961400  0.89889400  1
  F  F24  1  0.71835300  0.69047900  0.60078500  1
  F  F25  1  0.73031200  0.70494300  0.79407700  1
  F  F26  1  0.79491400  0.17499000  0.10689400  1
  F  F27  1  0.79307000  0.18248700  0.49634500  1
  F  F28  1  0.80632600  0.17645100  0.30284500  1
  F  F29  1  0.77996500  0.15203300  0.89663200  1
  F  F30  1  0.77591400  0.19660800  0.70501700  1
