# generated using pymatgen
data_Tm2ZnS4
_symmetry_space_group_name_H-M   'P 1'
_cell_length_a   6.25277137
_cell_length_b   7.74662770
_cell_length_c   13.30612194
_cell_angle_alpha   90.00000000
_cell_angle_beta   90.00000000
_cell_angle_gamma   90.00000000
_symmetry_Int_Tables_number   1
_chemical_formula_structural   Tm2ZnS4
_chemical_formula_sum   'Tm8 Zn4 S16'
_cell_volume   644.52049609
_cell_formula_units_Z   4
loop_
 _symmetry_equiv_pos_site_id
 _symmetry_equiv_pos_as_xyz
  1  'x, y, z'
loop_
 _atom_site_type_symbol
 _atom_site_label
 _atom_site_symmetry_multiplicity
 _atom_site_fract_x
 _atom_site_fract_y
 _atom_site_fract_z
 _atom_site_occupancy
  Tm  Tm0  1  0.50373942  0.75000000  0.76537833  1
  Tm  Tm1  1  0.00373942  0.25000000  0.73462167  1
  Tm  Tm2  1  0.49626058  0.25000000  0.23462167  1
  Tm  Tm3  1  0.99626058  0.75000000  0.26537833  1
  Tm  Tm4  1  0.50000000  0.50000000  0.50000000  1
  Tm  Tm5  1  0.00000000  0.50000000  -0.00000000  1
  Tm  Tm6  1  0.50000000  0.00000000  0.50000000  1
  Tm  Tm7  1  0.00000000  -0.00000000  -0.00000000  1
  Zn  Zn8  1  0.08801071  0.75000000  0.59213112  1
  Zn  Zn9  1  0.58801071  0.25000000  0.90786888  1
  Zn  Zn10  1  0.91198929  0.25000000  0.40786888  1
  Zn  Zn11  1  0.41198929  0.75000000  0.09213112  1
  S  S12  1  0.24327779  0.51175367  0.16822517  1
  S  S13  1  0.74327779  0.48824633  0.33177483  1
  S  S14  1  0.75672221  0.01175367  0.83177483  1
  S  S15  1  0.25672221  0.98824633  0.66822517  1
  S  S16  1  0.75672221  0.48824633  0.83177483  1
  S  S17  1  0.25672221  0.51175367  0.66822517  1
  S  S18  1  0.24327779  0.98824633  0.16822517  1
  S  S19  1  0.74327779  0.01175367  0.33177483  1
  S  S20  1  0.25610414  0.75000000  0.92926223  1
  S  S21  1  0.75610414  0.25000000  0.57073777  1
  S  S22  1  0.74389586  0.25000000  0.07073777  1
  S  S23  1  0.24389586  0.75000000  0.42926223  1
  S  S24  1  0.77613974  0.75000000  0.08997773  1
  S  S25  1  0.27613974  0.25000000  0.41002227  1
  S  S26  1  0.22386026  0.25000000  0.91002227  1
  S  S27  1  0.72386026  0.75000000  0.58997773  1
