# generated using pymatgen
data_Nd2WO6
_symmetry_space_group_name_H-M   'P 1'
_cell_length_a   5.39616360
_cell_length_b   9.31676412
_cell_length_c   10.19965730
_cell_angle_alpha   90.00000000
_cell_angle_beta   90.00000000
_cell_angle_gamma   90.00000000
_symmetry_Int_Tables_number   1
_chemical_formula_structural   Nd2WO6
_chemical_formula_sum   'Nd8 W4 O24'
_cell_volume   512.78556166
_cell_formula_units_Z   4
loop_
 _symmetry_equiv_pos_site_id
 _symmetry_equiv_pos_as_xyz
  1  'x, y, z'
loop_
 _atom_site_type_symbol
 _atom_site_label
 _atom_site_symmetry_multiplicity
 _atom_site_fract_x
 _atom_site_fract_y
 _atom_site_fract_z
 _atom_site_occupancy
  Nd  Nd0  1  0.47513316  0.60406407  0.53728247  1
  Nd  Nd1  1  0.97513316  0.89593593  0.46271753  1
  Nd  Nd2  1  0.52486684  0.10406407  0.96271753  1
  Nd  Nd3  1  0.02486684  0.39593593  0.03728247  1
  Nd  Nd4  1  0.96931569  0.78101495  0.86913174  1
  Nd  Nd5  1  0.46931569  0.71898505  0.13086826  1
  Nd  Nd6  1  0.03068431  0.28101495  0.63086826  1
  Nd  Nd7  1  0.53068431  0.21898505  0.36913174  1
  W  W8  1  0.45788846  0.99586544  0.64868048  1
  W  W9  1  0.95788846  0.50413456  0.35131952  1
  W  W10  1  0.54211154  0.49586544  0.85131952  1
  W  W11  1  0.04211154  0.00413456  0.14868048  1
  O  O12  1  0.24791371  0.08971504  0.50991752  1
  O  O13  1  0.74791371  0.41028496  0.49008248  1
  O  O14  1  0.75208629  0.58971504  0.99008248  1
  O  O15  1  0.25208629  0.91028496  0.00991752  1
  O  O16  1  0.72041498  0.11032675  0.56465632  1
  O  O17  1  0.22041498  0.38967325  0.43534368  1
  O  O18  1  0.27958502  0.61032675  0.93534368  1
  O  O19  1  0.77958502  0.88967325  0.06465632  1
  O  O20  1  0.56735510  0.85022910  0.52459941  1
  O  O21  1  0.06735510  0.64977090  0.47540059  1
  O  O22  1  0.43264490  0.35022910  0.97540059  1
  O  O23  1  0.93264490  0.14977090  0.02459941  1
  O  O24  1  0.18456141  0.86318938  0.25954020  1
  O  O25  1  0.68456141  0.63681062  0.74045980  1
  O  O26  1  0.81543859  0.36318938  0.24045980  1
  O  O27  1  0.31543859  0.13681062  0.75954020  1
  O  O28  1  0.82952188  0.04981812  0.28607901  1
  O  O29  1  0.32952188  0.45018188  0.71392099  1
  O  O30  1  0.17047812  0.54981812  0.21392099  1
  O  O31  1  0.67047812  0.95018188  0.78607901  1
  O  O32  1  0.30756778  0.13571563  0.17826436  1
  O  O33  1  0.80756778  0.36428437  0.82173564  1
  O  O34  1  0.69243222  0.63571563  0.32173564  1
  O  O35  1  0.19243222  0.86428437  0.67826436  1
