# generated using pymatgen
data_Rb3PS4
_symmetry_space_group_name_H-M   'P 1'
_cell_length_a   9.33089909
_cell_length_b   9.34414820
_cell_length_c   11.04828373
_cell_angle_alpha   90.00000000
_cell_angle_beta   90.00000000
_cell_angle_gamma   90.00000000
_symmetry_Int_Tables_number   1
_chemical_formula_structural   Rb3PS4
_chemical_formula_sum   'Rb12 P4 S16'
_cell_volume   963.29216811
_cell_formula_units_Z   4
loop_
 _symmetry_equiv_pos_site_id
 _symmetry_equiv_pos_as_xyz
  1  'x, y, z'
loop_
 _atom_site_type_symbol
 _atom_site_label
 _atom_site_symmetry_multiplicity
 _atom_site_fract_x
 _atom_site_fract_y
 _atom_site_fract_z
 _atom_site_occupancy
  Rb  Rb0  1  0.15489384  0.08762535  0.75000000  1
  Rb  Rb1  1  0.34510616  0.58762535  0.25000000  1
  Rb  Rb2  1  0.65489384  0.41237465  0.75000000  1
  Rb  Rb3  1  0.84510616  0.91237465  0.25000000  1
  Rb  Rb4  1  0.95815272  0.70568760  0.95934334  1
  Rb  Rb5  1  0.54184728  0.20568760  0.04065666  1
  Rb  Rb6  1  0.45815272  0.79431240  0.54065666  1
  Rb  Rb7  1  0.04184728  0.29431240  0.45934334  1
  Rb  Rb8  1  0.04184728  0.29431240  0.04065666  1
  Rb  Rb9  1  0.45815272  0.79431240  0.95934334  1
  Rb  Rb10  1  0.54184728  0.20568760  0.45934334  1
  Rb  Rb11  1  0.95815272  0.70568760  0.54065666  1
  P  P12  1  0.22382305  0.51964961  0.75000000  1
  P  P13  1  0.27617695  0.01964961  0.25000000  1
  P  P14  1  0.72382305  0.98035039  0.75000000  1
  P  P15  1  0.77617695  0.48035039  0.25000000  1
  S  S16  1  0.20854183  0.73796284  0.75000000  1
  S  S17  1  0.29145817  0.23796284  0.25000000  1
  S  S18  1  0.70854183  0.76203716  0.75000000  1
  S  S19  1  0.79145817  0.26203716  0.25000000  1
  S  S20  1  0.67062165  0.54393487  0.40299621  1
  S  S21  1  0.82937835  0.04393487  0.59700379  1
  S  S22  1  0.17062165  0.95606513  0.09700379  1
  S  S23  1  0.32937835  0.45606513  0.90299621  1
  S  S24  1  0.97776222  0.56913727  0.25000000  1
  S  S25  1  0.52223778  0.06913727  0.75000000  1
  S  S26  1  0.47776222  0.93086273  0.25000000  1
  S  S27  1  0.02223778  0.43086273  0.75000000  1
  S  S28  1  0.67062165  0.54393487  0.09700379  1
  S  S29  1  0.82937835  0.04393487  0.90299621  1
  S  S30  1  0.17062165  0.95606513  0.40299621  1
  S  S31  1  0.32937835  0.45606513  0.59700379  1
