# generated using pymatgen
data_NaV3H6(SO7)2
_symmetry_space_group_name_H-M   'P 1'
_cell_length_a   7.14822658
_cell_length_b   7.13574104
_cell_length_c   12.66426025
_cell_angle_alpha   74.94323778
_cell_angle_beta   92.41282953
_cell_angle_gamma   62.41369991
_symmetry_Int_Tables_number   1
_chemical_formula_structural   NaV3H6(SO7)2
_chemical_formula_sum   'Na2 V6 H12 S4 O28'
_cell_volume   542.83935582
_cell_formula_units_Z   2
loop_
 _symmetry_equiv_pos_site_id
 _symmetry_equiv_pos_as_xyz
  1  'x, y, z'
loop_
 _atom_site_type_symbol
 _atom_site_label
 _atom_site_symmetry_multiplicity
 _atom_site_fract_x
 _atom_site_fract_y
 _atom_site_fract_z
 _atom_site_occupancy
  Na  Na0  1  0.49876300  0.00483200  0.49997400  1
  Na  Na1  1  0.00001200  0.99534300  0.99875100  1
  V  V2  1  0.49957300  0.50028400  0.49969000  1
  V  V3  1  0.99991100  0.00056100  0.49990000  1
  V  V4  1  0.74988200  0.00009800  0.74987500  1
  V  V5  1  0.00033600  0.49939800  0.00039400  1
  V  V6  1  0.49998600  0.99916000  0.00018400  1
  V  V7  1  0.24987600  0.99984900  0.24990800  1
  H  H8  1  0.65787000  0.29847700  0.35742600  1
  H  H9  1  0.15714400  0.29731700  0.85825200  1
  H  H10  1  0.45028500  0.71396800  0.15039900  1
  H  H11  1  0.95332800  0.71437000  0.65145800  1
  H  H12  1  0.86527500  0.29991400  0.15023500  1
  H  H13  1  0.36464300  0.29981100  0.64872600  1
  H  H14  1  0.84204100  0.70138100  0.14259700  1
  H  H15  1  0.34285500  0.70276700  0.64174400  1
  H  H16  1  0.05022200  0.28579700  0.34976500  1
  H  H17  1  0.54714800  0.28565100  0.84893400  1
  H  H18  1  0.63483100  0.70033700  0.34995900  1
  H  H19  1  0.13553900  0.70040900  0.85148200  1
  S  S20  1  0.03525100  0.69081500  0.34474100  1
  S  S21  1  0.53722600  0.68876700  0.84498100  1
  S  S22  1  0.46461800  0.30916400  0.15519100  1
  S  S23  1  0.96274500  0.31128400  0.65499800  1
  O  O24  1  0.90605900  0.60520700  0.30149100  1
  O  O25  1  0.40876900  0.60219500  0.80190100  1
  O  O26  1  0.59387500  0.39478200  0.19842900  1
  O  O27  1  0.09127200  0.39792300  0.69795200  1
  O  O28  1  0.24387400  0.49906500  0.41346700  1
  O  O29  1  0.74599000  0.49778900  0.91378900  1
  O  O30  1  0.91408200  0.82844500  0.41489500  1
  O  O31  1  0.41529200  0.82651800  0.91495100  1
  O  O32  1  0.07728500  0.83071700  0.24907700  1
  O  O33  1  0.57872200  0.82914200  0.74922700  1
  O  O34  1  0.25604000  0.50095300  0.08645200  1
  O  O35  1  0.75394500  0.50219400  0.58620600  1
  O  O36  1  0.58579700  0.17155200  0.08503400  1
  O  O37  1  0.08462800  0.17338300  0.58507500  1
  O  O38  1  0.42252100  0.16928800  0.25085000  1
  O  O39  1  0.92127300  0.17104700  0.75082700  1
  O  O40  1  0.80195000  0.74165400  0.06110300  1
  O  O41  1  0.30155500  0.74230300  0.56048000  1
  O  O42  1  0.11104600  0.12290900  0.37024200  1
  O  O43  1  0.60938400  0.12250100  0.86962300  1
  O  O44  1  0.49259300  0.74020600  0.37023800  1
  O  O45  1  0.99317400  0.74176300  0.87174300  1
  O  O46  1  0.69793500  0.25808200  0.43893400  1
  O  O47  1  0.19839400  0.25759100  0.93953500  1
  O  O48  1  0.38927900  0.87692600  0.12990100  1
  O  O49  1  0.89105900  0.87758100  0.63058400  1
  O  O50  1  0.00754600  0.25979700  0.12991200  1
  O  O51  1  0.50700700  0.25853100  0.62841800  1
