# generated using pymatgen
data_La2MgCo2Sb2(PbO6)2
_symmetry_space_group_name_H-M   'P 1'
_cell_length_a   5.78353703
_cell_length_b   6.49557766
_cell_length_c   8.62654792
_cell_angle_alpha   81.65766816
_cell_angle_beta   92.42313193
_cell_angle_gamma   89.25100552
_symmetry_Int_Tables_number   1
_chemical_formula_structural   La2MgCo2Sb2(PbO6)2
_chemical_formula_sum   'La2 Mg1 Co2 Sb2 Pb2 O12'
_cell_volume   320.30081155
_cell_formula_units_Z   1
loop_
 _symmetry_equiv_pos_site_id
 _symmetry_equiv_pos_as_xyz
  1  'x, y, z'
loop_
 _atom_site_type_symbol
 _atom_site_label
 _atom_site_symmetry_multiplicity
 _atom_site_fract_x
 _atom_site_fract_y
 _atom_site_fract_z
 _atom_site_occupancy
  La  La0  1  0.48897400  0.43279500  0.78925400  1
  La  La1  1  0.01604600  0.08168300  0.22762100  1
  Mg  Mg2  1  0.97726300  0.76271000  0.58359300  1
  Co  Co3  1  0.04428000  0.35212300  0.48412700  1
  Co  Co4  1  0.51982900  0.00073800  0.03130100  1
  Sb  Sb5  1  0.95837100  0.58176900  0.03052800  1
  Sb  Sb6  1  0.51165500  0.99942300  0.49399500  1
  Pb  Pb7  1  0.48439700  0.59957200  0.27785800  1
  Pb  Pb8  1  0.03568600  0.08482900  0.82347800  1
  O  O9  1  0.61903400  0.95117800  0.27175300  1
  O  O10  1  0.09311100  0.47217900  0.67380300  1
  O  O11  1  0.45765900  0.09842300  0.69841400  1
  O  O12  1  0.91202800  0.46133600  0.25711600  1
  O  O13  1  0.22687700  0.83872200  0.44172000  1
  O  O14  1  0.63544300  0.70608100  0.99508400  1
  O  O15  1  0.84897400  0.09284700  0.50570300  1
  O  O16  1  0.27799800  0.22753300  0.99113000  1
  O  O17  1  0.32348500  0.24876100  0.38857500  1
  O  O18  1  0.76650100  0.21326800  0.97289600  1
  O  O19  1  0.64200000  0.71180900  0.58655700  1
  O  O20  1  0.14848400  0.82180500  0.08382600  1
