# generated using pymatgen
data_CaTeO3
_symmetry_space_group_name_H-M   'P 1'
_cell_length_a   5.69158575
_cell_length_b   8.46303137
_cell_length_c   11.34300822
_cell_angle_alpha   69.75331200
_cell_angle_beta   90.00000000
_cell_angle_gamma   90.00000000
_symmetry_Int_Tables_number   1
_chemical_formula_structural   CaTeO3
_chemical_formula_sum   'Ca6 Te6 O18'
_cell_volume   512.61128120
_cell_formula_units_Z   6
loop_
 _symmetry_equiv_pos_site_id
 _symmetry_equiv_pos_as_xyz
  1  'x, y, z'
loop_
 _atom_site_type_symbol
 _atom_site_label
 _atom_site_symmetry_multiplicity
 _atom_site_fract_x
 _atom_site_fract_y
 _atom_site_fract_z
 _atom_site_occupancy
  Ca  Ca0  1  0.81480414  0.29602127  0.05346200  1
  Ca  Ca1  1  0.31480414  0.70397873  0.94653800  1
  Ca  Ca2  1  0.83242876  0.00200676  0.86724894  1
  Ca  Ca3  1  0.25848955  0.97908534  0.61654041  1
  Ca  Ca4  1  0.75848955  0.02091466  0.38345959  1
  Ca  Ca5  1  0.33242876  0.99799324  0.13275106  1
  Te  Te6  1  0.32626864  0.25652363  0.82864955  1
  Te  Te7  1  0.82626864  0.74347637  0.17135045  1
  Te  Te8  1  0.23626332  0.68894741  0.47450824  1
  Te  Te9  1  0.73626332  0.31105259  0.52549176  1
  Te  Te10  1  0.25307745  0.33109314  0.24814722  1
  Te  Te11  1  0.75307745  0.66890686  0.75185278  1
  O  O12  1  0.22769425  0.07572767  0.78299187  1
  O  O13  1  0.72769425  0.92427233  0.21700813  1
  O  O14  1  0.55825151  0.15295811  0.94801376  1
  O  O15  1  0.05825151  0.84704189  0.05198624  1
  O  O16  1  0.64215482  0.52896880  0.90922226  1
  O  O17  1  0.52487492  0.23672648  0.20589170  1
  O  O18  1  0.70709931  0.24266983  0.69884076  1
  O  O19  1  0.20709931  0.75733017  0.30115924  1
  O  O20  1  0.50501244  0.18425191  0.48324932  1
  O  O21  1  0.00501244  0.81574809  0.51675068  1
  O  O22  1  0.97636570  0.17573983  0.50347376  1
  O  O23  1  0.56541206  0.84806113  0.75603204  1
  O  O24  1  0.09170213  0.20924871  0.95167576  1
  O  O25  1  0.59170213  0.79075129  0.04832424  1
  O  O26  1  0.02487492  0.76327352  0.79410830  1
  O  O27  1  0.47636570  0.82426017  0.49652624  1
  O  O28  1  0.06541206  0.15193887  0.24396796  1
  O  O29  1  0.14215482  0.47103120  0.09077774  1
