# generated using pymatgen
data_PbS
_symmetry_space_group_name_H-M   'P 1'
_cell_length_a   4.27501809
_cell_length_b   4.22497401
_cell_length_c   12.02783561
_cell_angle_alpha   90.00000000
_cell_angle_beta   90.00000000
_cell_angle_gamma   90.00000000
_symmetry_Int_Tables_number   1
_chemical_formula_structural   PbS
_chemical_formula_sum   'Pb4 S4'
_cell_volume   217.24484621
_cell_formula_units_Z   4
loop_
 _symmetry_equiv_pos_site_id
 _symmetry_equiv_pos_as_xyz
  1  'x, y, z'
loop_
 _atom_site_type_symbol
 _atom_site_label
 _atom_site_symmetry_multiplicity
 _atom_site_fract_x
 _atom_site_fract_y
 _atom_site_fract_z
 _atom_site_occupancy
  Pb  Pb0  1  0.83509511  0.75000000  0.12865015  1
  Pb  Pb1  1  0.66490489  0.75000000  0.62865015  1
  Pb  Pb2  1  0.16490489  0.25000000  0.87134985  1
  Pb  Pb3  1  0.33509511  0.25000000  0.37134985  1
  S  S4  1  0.89208964  0.75000000  0.35640444  1
  S  S5  1  0.60791036  0.75000000  0.85640444  1
  S  S6  1  0.10791036  0.25000000  0.64359556  1
  S  S7  1  0.39208964  0.25000000  0.14359556  1
