# generated using pymatgen
data_RbSm2Ag3Se5
_symmetry_space_group_name_H-M   'P 1'
_cell_length_a   7.95946184
_cell_length_b   7.95946184
_cell_length_c   17.61860900
_cell_angle_alpha   90.00000000
_cell_angle_beta   90.00000000
_cell_angle_gamma   148.31630185
_symmetry_Int_Tables_number   1
_chemical_formula_structural   RbSm2Ag3Se5
_chemical_formula_sum   'Rb2 Sm4 Ag6 Se10'
_cell_volume   586.25719294
_cell_formula_units_Z   2
loop_
 _symmetry_equiv_pos_site_id
 _symmetry_equiv_pos_as_xyz
  1  'x, y, z'
loop_
 _atom_site_type_symbol
 _atom_site_label
 _atom_site_symmetry_multiplicity
 _atom_site_fract_x
 _atom_site_fract_y
 _atom_site_fract_z
 _atom_site_occupancy
  Rb  Rb0  1  0.43621562  0.56378438  0.25000000  1
  Rb  Rb1  1  0.56378438  0.43621562  0.75000000  1
  Sm  Sm2  1  0.30891834  0.69108166  0.90436577  1
  Sm  Sm3  1  0.30891834  0.69108166  0.59563423  1
  Sm  Sm4  1  0.69108166  0.30891834  0.40436577  1
  Sm  Sm5  1  0.69108166  0.30891834  0.09563423  1
  Ag  Ag6  1  0.08436553  0.91563447  0.96408869  1
  Ag  Ag7  1  0.08436553  0.91563447  0.53591131  1
  Ag  Ag8  1  0.91563447  0.08436553  0.46408869  1
  Ag  Ag9  1  0.16023842  0.83976158  0.25000000  1
  Ag  Ag10  1  0.83976158  0.16023842  0.75000000  1
  Ag  Ag11  1  0.91563447  0.08436553  0.03591131  1
  Se  Se12  1  0.67773374  0.32226626  0.57051179  1
  Se  Se13  1  0.93610530  0.06389470  0.87983506  1
  Se  Se14  1  0.32226626  0.67773374  0.42948821  1
  Se  Se15  1  0.32226626  0.67773374  0.07051179  1
  Se  Se16  1  0.67773374  0.32226626  0.92948821  1
  Se  Se17  1  0.75728522  0.24271478  0.25000000  1
  Se  Se18  1  0.24271478  0.75728522  0.75000000  1
  Se  Se19  1  0.93610530  0.06389470  0.62016494  1
  Se  Se20  1  0.06389470  0.93610530  0.37983506  1
  Se  Se21  1  0.06389470  0.93610530  0.12016494  1
