# generated using pymatgen
data_Sr3(GeAs2)2
_symmetry_space_group_name_H-M   'P 1'
_cell_length_a   18.62297580
_cell_length_b   7.50280879
_cell_length_c   7.67148539
_cell_angle_alpha   68.09333755
_cell_angle_beta   90.00000000
_cell_angle_gamma   90.00000000
_symmetry_Int_Tables_number   1
_chemical_formula_structural   Sr3(GeAs2)2
_chemical_formula_sum   'Sr12 Ge8 As16'
_cell_volume   994.49694540
_cell_formula_units_Z   4
loop_
 _symmetry_equiv_pos_site_id
 _symmetry_equiv_pos_as_xyz
  1  'x, y, z'
loop_
 _atom_site_type_symbol
 _atom_site_label
 _atom_site_symmetry_multiplicity
 _atom_site_fract_x
 _atom_site_fract_y
 _atom_site_fract_z
 _atom_site_occupancy
  Sr  Sr0  1  0.31542214  0.01240264  0.78202323  1
  Sr  Sr1  1  0.81542214  0.48759736  0.21797677  1
  Sr  Sr2  1  0.68457786  0.98759736  0.21797677  1
  Sr  Sr3  1  0.18457786  0.51240264  0.78202323  1
  Sr  Sr4  1  0.44040352  0.99722899  0.26074841  1
  Sr  Sr5  1  0.94040352  0.50277101  0.73925159  1
  Sr  Sr6  1  0.55959648  0.00277101  0.73925159  1
  Sr  Sr7  1  0.05959648  0.49722899  0.26074841  1
  Sr  Sr8  1  0.43792481  0.51141383  0.74487956  1
  Sr  Sr9  1  0.93792481  0.98858617  0.25512044  1
  Sr  Sr10  1  0.56207519  0.48858617  0.25512044  1
  Sr  Sr11  1  0.06207519  0.01141383  0.74487956  1
  Ge  Ge12  1  0.37111253  0.47233684  0.21293464  1
  Ge  Ge13  1  0.87111253  0.02766316  0.78706536  1
  Ge  Ge14  1  0.12888747  0.97233684  0.21293464  1
  Ge  Ge15  1  0.62888747  0.52766316  0.78706536  1
  Ge  Ge16  1  0.23994573  0.08538527  0.31427207  1
  Ge  Ge17  1  0.73994573  0.41461473  0.68572793  1
  Ge  Ge18  1  0.76005427  0.91461473  0.68572793  1
  Ge  Ge19  1  0.26005427  0.58538527  0.31427207  1
  As  As20  1  0.18616589  0.78039329  0.04322286  1
  As  As21  1  0.68616589  0.71960671  0.95677714  1
  As  As22  1  0.81383411  0.21960671  0.95677714  1
  As  As23  1  0.31383411  0.28039329  0.04322286  1
  As  As24  1  0.06116178  0.24582997  0.00915261  1
  As  As25  1  0.56116178  0.25417003  0.99084739  1
  As  As26  1  0.93883822  0.75417003  0.99084739  1
  As  As27  1  0.43883822  0.74582997  0.00915261  1
  As  As28  1  0.06809580  0.76024370  0.49497615  1
  As  As29  1  0.56809580  0.73975630  0.50502385  1
  As  As30  1  0.43190420  0.26024370  0.49497615  1
  As  As31  1  0.93190420  0.23975630  0.50502385  1
  As  As32  1  0.19868475  0.27717799  0.49948044  1
  As  As33  1  0.69868475  0.22282201  0.50051956  1
  As  As34  1  0.80131525  0.72282201  0.50051956  1
  As  As35  1  0.30131525  0.77717799  0.49948044  1
