# generated using pymatgen
data_Sr6Mg(W2O9)2
_symmetry_space_group_name_H-M   'P 1'
_cell_length_a   9.13301747
_cell_length_b   6.91654723
_cell_length_c   7.29046399
_cell_angle_alpha   87.58232852
_cell_angle_beta   77.85978048
_cell_angle_gamma   79.33448443
_symmetry_Int_Tables_number   1
_chemical_formula_structural   Sr6Mg(W2O9)2
_chemical_formula_sum   'Sr6 Mg1 W4 O18'
_cell_volume   442.45096349
_cell_formula_units_Z   1
loop_
 _symmetry_equiv_pos_site_id
 _symmetry_equiv_pos_as_xyz
  1  'x, y, z'
loop_
 _atom_site_type_symbol
 _atom_site_label
 _atom_site_symmetry_multiplicity
 _atom_site_fract_x
 _atom_site_fract_y
 _atom_site_fract_z
 _atom_site_occupancy
  Sr  Sr0  1  0.27731500  0.86688600  0.62824500  1
  Sr  Sr1  1  0.02778700  0.37463400  0.73675000  1
  Sr  Sr2  1  0.52846600  0.73532500  0.14053900  1
  Sr  Sr3  1  0.45471000  0.25388700  0.84407600  1
  Sr  Sr4  1  0.01475500  0.63388800  0.22537000  1
  Sr  Sr5  1  0.76085200  0.05742800  0.44235400  1
  Mg  Mg6  1  0.77458100  0.24847700  0.02717300  1
  W  W7  1  0.84785300  0.84363000  0.84613300  1
  W  W8  1  0.36460300  0.32280600  0.31928400  1
  W  W9  1  0.14139200  0.15357600  0.15554800  1
  W  W10  1  0.64836200  0.64092900  0.66086100  1
  O  O11  1  0.05502900  0.95671500  0.29579100  1
  O  O12  1  0.04824400  0.71288200  0.84188900  1
  O  O13  1  0.63308800  0.91837900  0.79406600  1
  O  O14  1  0.32225800  0.58314800  0.39845300  1
  O  O15  1  0.14729000  0.28117600  0.41886100  1
  O  O16  1  0.25090500  0.40523100  0.10139800  1
  O  O17  1  0.45666200  0.63634700  0.81512500  1
  O  O18  1  0.58062900  0.77751700  0.46141500  1
  O  O19  1  0.78114000  0.93789300  0.10787800  1
  O  O20  1  0.20574100  0.11365500  0.88541200  1
  O  O21  1  0.42929300  0.19004400  0.52167300  1
  O  O22  1  0.86074000  0.71451300  0.56838300  1
  O  O23  1  0.55617200  0.33675900  0.15363700  1
  O  O24  1  0.75648100  0.56905800  0.89273300  1
  O  O25  1  0.68855500  0.38681600  0.58105600  1
  O  O26  1  0.36624400  0.05739200  0.18873400  1
  O  O27  1  0.94174100  0.31962900  0.12610500  1
  O  O28  1  0.87375400  0.11423600  0.77641400  1
