# generated using pymatgen
data_Cs4FeO4
_symmetry_space_group_name_H-M   'P 1'
_cell_length_a   6.91990430
_cell_length_b   10.87469230
_cell_length_c   11.56888767
_cell_angle_alpha   81.13012839
_cell_angle_beta   90.00000000
_cell_angle_gamma   90.00000000
_symmetry_Int_Tables_number   1
_chemical_formula_structural   Cs4FeO4
_chemical_formula_sum   'Cs16 Fe4 O16'
_cell_volume   860.16877377
_cell_formula_units_Z   4
loop_
 _symmetry_equiv_pos_site_id
 _symmetry_equiv_pos_as_xyz
  1  'x, y, z'
loop_
 _atom_site_type_symbol
 _atom_site_label
 _atom_site_symmetry_multiplicity
 _atom_site_fract_x
 _atom_site_fract_y
 _atom_site_fract_z
 _atom_site_occupancy
  Cs  Cs0  1  0.62048433  0.83955897  0.00850072  1
  Cs  Cs1  1  0.12048433  0.16044103  0.49149928  1
  Cs  Cs2  1  0.37951567  0.16044103  0.99149928  1
  Cs  Cs3  1  0.87951567  0.83955897  0.50850072  1
  Cs  Cs4  1  0.41947671  0.93451805  0.32534572  1
  Cs  Cs5  1  0.91947671  0.06548195  0.17465428  1
  Cs  Cs6  1  0.58052329  0.06548195  0.67465428  1
  Cs  Cs7  1  0.08052329  0.93451805  0.82534572  1
  Cs  Cs8  1  0.20700503  0.39074506  0.21239309  1
  Cs  Cs9  1  0.70700503  0.60925494  0.28760691  1
  Cs  Cs10  1  0.79299497  0.60925494  0.78760691  1
  Cs  Cs11  1  0.29299497  0.39074506  0.71239309  1
  Cs  Cs12  1  0.23222434  0.59399014  0.43106071  1
  Cs  Cs13  1  0.73222434  0.40600986  0.06893929  1
  Cs  Cs14  1  0.76777566  0.40600986  0.56893929  1
  Cs  Cs15  1  0.26777566  0.59399014  0.93106071  1
  Fe  Fe16  1  0.12898327  0.75977908  0.14594073  1
  Fe  Fe17  1  0.62898327  0.24022092  0.35405927  1
  Fe  Fe18  1  0.87101673  0.24022092  0.85405927  1
  Fe  Fe19  1  0.37101673  0.75977908  0.64594073  1
  O  O20  1  0.34531897  0.66513064  0.16494060  1
  O  O21  1  0.84531897  0.33486936  0.33505940  1
  O  O22  1  0.65468103  0.33486936  0.83505940  1
  O  O23  1  0.15468103  0.66513064  0.66494060  1
  O  O24  1  0.22383641  0.90592843  0.07909671  1
  O  O25  1  0.72383641  0.09407157  0.42090329  1
  O  O26  1  0.77616359  0.09407157  0.92090329  1
  O  O27  1  0.27616359  0.90592843  0.57909671  1
  O  O28  1  0.99518102  0.80237605  0.26803781  1
  O  O29  1  0.49518102  0.19762395  0.23196219  1
  O  O30  1  0.00481898  0.19762395  0.73196219  1
  O  O31  1  0.50481898  0.80237605  0.76803781  1
  O  O32  1  0.53712219  0.66094588  0.58026259  1
  O  O33  1  0.03712219  0.33905412  0.91973741  1
  O  O34  1  0.46287781  0.33905412  0.41973741  1
  O  O35  1  0.96287781  0.66094588  0.08026259  1
