# generated using pymatgen
data_Mg(SiO2)6
_symmetry_space_group_name_H-M   'P 1'
_cell_length_a   5.05840001
_cell_length_b   8.15096715
_cell_length_c   7.53910448
_cell_angle_alpha   71.45273251
_cell_angle_beta   69.74426298
_cell_angle_gamma   68.94638857
_symmetry_Int_Tables_number   1
_chemical_formula_structural   Mg(SiO2)6
_chemical_formula_sum   'Mg1 Si6 O12'
_cell_volume   265.40798911
_cell_formula_units_Z   1
loop_
 _symmetry_equiv_pos_site_id
 _symmetry_equiv_pos_as_xyz
  1  'x, y, z'
loop_
 _atom_site_type_symbol
 _atom_site_label
 _atom_site_symmetry_multiplicity
 _atom_site_fract_x
 _atom_site_fract_y
 _atom_site_fract_z
 _atom_site_occupancy
  Mg  Mg0  1  0.74196700  0.55177600  0.25231300  1
  Si  Si1  1  0.28277200  0.32948900  0.31599600  1
  Si  Si2  1  0.98475900  0.16850800  0.17721600  1
  Si  Si3  1  0.66615200  0.64331800  0.67892600  1
  Si  Si4  1  0.98568100  0.83054200  0.83321400  1
  Si  Si5  1  0.99829300  0.23184100  0.75253800  1
  Si  Si6  1  0.02900500  0.77809000  0.25752800  1
  O  O7  1  0.72779400  0.42320200  0.75166800  1
  O  O8  1  0.89479700  0.05140700  0.77787100  1
  O  O9  1  0.35957200  0.70119800  0.25543600  1
  O  O10  1  0.88099600  0.98735700  0.26779800  1
  O  O11  1  0.26181700  0.25475800  0.55735600  1
  O  O12  1  0.11097600  0.20179600  0.94148900  1
  O  O13  1  0.31921200  0.74166000  0.72145600  1
  O  O14  1  0.79214800  0.73878200  0.78007200  1
  O  O15  1  0.66732800  0.32687600  0.23645200  1
  O  O16  1  0.25296000  0.15191300  0.26070200  1
  O  O17  1  0.94407700  0.75476500  0.07005900  1
  O  O18  1  0.79969500  0.67736300  0.44226900  1
