# generated using pymatgen
data_Rb2Cd3S4
_symmetry_space_group_name_H-M   'P 1'
_cell_length_a   6.64761019
_cell_length_b   10.62820565
_cell_length_c   14.30973411
_cell_angle_alpha   90.00000000
_cell_angle_beta   90.00000000
_cell_angle_gamma   90.00000000
_symmetry_Int_Tables_number   1
_chemical_formula_structural   Rb2Cd3S4
_chemical_formula_sum   'Rb8 Cd12 S16'
_cell_volume   1011.01374096
_cell_formula_units_Z   4
loop_
 _symmetry_equiv_pos_site_id
 _symmetry_equiv_pos_as_xyz
  1  'x, y, z'
loop_
 _atom_site_type_symbol
 _atom_site_label
 _atom_site_symmetry_multiplicity
 _atom_site_fract_x
 _atom_site_fract_y
 _atom_site_fract_z
 _atom_site_occupancy
  Rb  Rb0  1  0.02300017  0.75000000  0.46553659  1
  Rb  Rb1  1  0.52300017  0.25000000  0.03446341  1
  Rb  Rb2  1  0.97699983  0.25000000  0.53446341  1
  Rb  Rb3  1  0.47699983  0.75000000  0.96553659  1
  Rb  Rb4  1  -0.00000000  -0.00000000  0.00000000  1
  Rb  Rb5  1  0.50000000  0.50000000  0.50000000  1
  Rb  Rb6  1  -0.00000000  0.50000000  0.00000000  1
  Rb  Rb7  1  0.50000000  -0.00000000  0.50000000  1
  Cd  Cd8  1  0.32239635  0.90683570  0.25309622  1
  Cd  Cd9  1  0.82239635  0.09316430  0.24690378  1
  Cd  Cd10  1  0.67760365  0.40683570  0.74690378  1
  Cd  Cd11  1  0.17760365  0.59316430  0.75309622  1
  Cd  Cd12  1  0.67760365  0.09316430  0.74690378  1
  Cd  Cd13  1  0.17760365  0.90683570  0.75309622  1
  Cd  Cd14  1  0.32239635  0.59316430  0.25309622  1
  Cd  Cd15  1  0.82239635  0.40683570  0.24690378  1
  Cd  Cd16  1  0.74032324  0.75000000  0.70732495  1
  Cd  Cd17  1  0.24032324  0.25000000  0.79267505  1
  Cd  Cd18  1  0.25967676  0.25000000  0.29267505  1
  Cd  Cd19  1  0.75967676  0.75000000  0.20732495  1
  S  S20  1  0.60621634  0.96273200  0.14017317  1
  S  S21  1  0.10621634  0.03726800  0.35982683  1
  S  S22  1  0.39378366  0.46273200  0.85982683  1
  S  S23  1  0.89378366  0.53726800  0.64017317  1
  S  S24  1  0.39378366  0.03726800  0.85982683  1
  S  S25  1  0.89378366  0.96273200  0.64017317  1
  S  S26  1  0.60621634  0.53726800  0.14017317  1
  S  S27  1  0.10621634  0.46273200  0.35982683  1
  S  S28  1  0.95467340  0.75000000  0.85650784  1
  S  S29  1  0.45467340  0.25000000  0.64349216  1
  S  S30  1  0.04532660  0.25000000  0.14349216  1
  S  S31  1  0.54532660  0.75000000  0.35650784  1
  S  S32  1  0.88350991  0.25000000  0.84695039  1
  S  S33  1  0.61649009  0.25000000  0.34695039  1
  S  S34  1  0.11649009  0.75000000  0.15304961  1
  S  S35  1  0.38350991  0.75000000  0.65304961  1
