# generated using pymatgen
data_CeSe2
_symmetry_space_group_name_H-M   'P 1'
_cell_length_a   12.50227331
_cell_length_b   19.34979267
_cell_length_c   19.56528589
_cell_angle_alpha   105.28589968
_cell_angle_beta   94.87134386
_cell_angle_gamma   95.98671843
_symmetry_Int_Tables_number   1
_chemical_formula_structural   CeSe2
_chemical_formula_sum   'Ce16 Se32'
_cell_volume   4509.53264368
_cell_formula_units_Z   16
loop_
 _symmetry_equiv_pos_site_id
 _symmetry_equiv_pos_as_xyz
  1  'x, y, z'
loop_
 _atom_site_type_symbol
 _atom_site_label
 _atom_site_symmetry_multiplicity
 _atom_site_fract_x
 _atom_site_fract_y
 _atom_site_fract_z
 _atom_site_occupancy
  Ce  Ce0  1  0.38894026  0.63961267  0.64346277  1
  Ce  Ce1  1  0.61105974  0.36038733  0.35653723  1
  Ce  Ce2  1  0.78000103  0.58723054  0.57131004  1
  Ce  Ce3  1  0.21999897  0.41276946  0.42868996  1
  Ce  Ce4  1  0.58997047  0.85786336  0.35787501  1
  Ce  Ce5  1  0.41002953  0.14213664  0.64212499  1
  Ce  Ce6  1  0.43004679  0.63796740  0.14251669  1
  Ce  Ce7  1  0.56995321  0.36203260  0.85748331  1
  Ce  Ce8  1  0.32879577  0.86632776  0.55837045  1
  Ce  Ce9  1  0.67120423  0.13367224  0.44162955  1
  Ce  Ce10  1  0.95490533  0.76123601  0.43221505  1
  Ce  Ce11  1  0.04509467  0.23876399  0.56778495  1
  Ce  Ce12  1  0.07526171  0.54035138  0.24235924  1
  Ce  Ce13  1  0.92473829  0.45964862  0.75764076  1
  Ce  Ce14  1  0.69617317  0.44096015  0.12449786  1
  Ce  Ce15  1  0.30382683  0.55903985  0.87550214  1
  Se  Se16  1  0.59906229  0.63447738  0.62252565  1
  Se  Se17  1  0.40093771  0.36552262  0.37747435  1
  Se  Se18  1  0.32960747  0.76779387  0.63450183  1
  Se  Se19  1  0.67039253  0.23220613  0.36549817  1
  Se  Se20  1  0.27057050  0.52970097  0.54212462  1
  Se  Se21  1  0.72942950  0.47029903  0.45787538  1
  Se  Se22  1  0.35615631  0.62477779  0.77410189  1
  Se  Se23  1  0.64384369  0.37522221  0.22589811  1
  Se  Se24  1  0.89211573  0.69286629  0.52908660  1
  Se  Se25  1  0.10788427  0.30713371  0.47091340  1
  Se  Se26  1  0.89972470  0.55037237  0.67455415  1
  Se  Se27  1  0.10027530  0.44962763  0.32544585  1
  Se  Se28  1  0.49268940  0.77222959  0.23073951  1
  Se  Se29  1  0.50731060  0.22777041  0.76926049  1
  Se  Se30  1  0.46749153  0.83480348  0.45923993  1
  Se  Se31  1  0.53250847  0.16519652  0.54076007  1
  Se  Se32  1  0.79045108  0.82329598  0.38469774  1
  Se  Se33  1  0.20954892  0.17670402  0.61530226  1
  Se  Se34  1  0.60483365  0.99822545  0.35656011  1
  Se  Se35  1  0.39516635  0.00177455  0.64343989  1
  Se  Se36  1  0.60026460  0.56232672  0.14198011  1
  Se  Se37  1  0.39973540  0.43767328  0.85801989  1
  Se  Se38  1  0.37478730  0.64627671  0.00807863  1
  Se  Se39  1  0.62521270  0.35372329  0.99192137  1
  Se  Se40  1  0.26236685  0.56971655  0.18895958  1
  Se  Se41  1  0.73763315  0.43028345  0.81104042  1
  Se  Se42  1  0.12676258  0.86219421  0.49436605  1
  Se  Se43  1  0.87323742  0.13780579  0.50563395  1
  Se  Se44  1  0.01946916  0.66562935  0.32104752  1
  Se  Se45  1  0.98053084  0.33437065  0.67895248  1
  Se  Se46  1  0.91395426  0.47822216  0.13573428  1
  Se  Se47  1  0.08604574  0.52177784  0.86426572  1
