# generated using pymatgen
data_MgTi3V5O16
_symmetry_space_group_name_H-M   'P 1'
_cell_length_a   5.92048100
_cell_length_b   5.96086003
_cell_length_c   9.42877921
_cell_angle_alpha   89.57410682
_cell_angle_beta   91.25442949
_cell_angle_gamma   120.59526297
_symmetry_Int_Tables_number   1
_chemical_formula_structural   MgTi3V5O16
_chemical_formula_sum   'Mg1 Ti3 V5 O16'
_cell_volume   286.35679475
_cell_formula_units_Z   1
loop_
 _symmetry_equiv_pos_site_id
 _symmetry_equiv_pos_as_xyz
  1  'x, y, z'
loop_
 _atom_site_type_symbol
 _atom_site_label
 _atom_site_symmetry_multiplicity
 _atom_site_fract_x
 _atom_site_fract_y
 _atom_site_fract_z
 _atom_site_occupancy
  Mg  Mg0  1  0.64096900  0.81505000  0.94911600  1
  Ti  Ti1  1  0.13697800  0.80802500  0.20206800  1
  Ti  Ti2  1  0.22074600  0.34123700  0.21031300  1
  Ti  Ti3  1  0.32974900  0.15993600  0.73241800  1
  V  V4  1  0.32166000  0.65995800  0.48760100  1
  V  V5  1  0.67341600  0.88640000  0.24454100  1
  V  V6  1  0.68653300  0.33383200  0.98523200  1
  V  V7  1  0.83561100  0.17168200  0.69270500  1
  V  V8  1  0.83371700  0.65851300  0.69272400  1
  O  O9  1  0.14297300  0.82008900  0.60574200  1
  O  O10  1  0.05641300  0.53230500  0.32433100  1
  O  O11  1  0.36790000  0.69534800  0.10599400  1
  O  O12  1  0.03191200  0.01471100  0.31231500  1
  O  O13  1  0.96870200  0.98104800  0.81392900  1
  O  O14  1  0.14392600  0.31979000  0.60560000  1
  O  O15  1  0.49667600  0.97848200  0.34850600  1
  O  O16  1  0.49534900  0.54000100  0.34066100  1
  O  O17  1  0.35774100  0.17644200  0.10407800  1
  O  O18  1  0.64210200  0.81843200  0.60652900  1
  O  O19  1  0.51187400  0.47592400  0.83963000  1
  O  O20  1  0.51243000  0.02449000  0.83861900  1
  O  O21  1  0.62514300  0.31064200  0.60682700  1
  O  O22  1  0.83602800  0.68323600  0.09149900  1
  O  O23  1  0.93774800  0.46498800  0.82471400  1
  O  O24  1  0.84995600  0.16296800  0.10003100  1
