# generated using pymatgen
data_Hg2GeO4
_symmetry_space_group_name_H-M   'P 1'
_cell_length_a   6.31154228
_cell_length_b   6.31154188
_cell_length_c   6.69235229
_cell_angle_alpha   105.08679071
_cell_angle_beta   105.08677785
_cell_angle_gamma   116.61723549
_symmetry_Int_Tables_number   1
_chemical_formula_structural   Hg2GeO4
_chemical_formula_sum   'Hg4 Ge2 O8'
_cell_volume   207.03065285
_cell_formula_units_Z   2
loop_
 _symmetry_equiv_pos_site_id
 _symmetry_equiv_pos_as_xyz
  1  'x, y, z'
loop_
 _atom_site_type_symbol
 _atom_site_label
 _atom_site_symmetry_multiplicity
 _atom_site_fract_x
 _atom_site_fract_y
 _atom_site_fract_z
 _atom_site_occupancy
  Hg  Hg0  1  0.19644890  0.80355110  0.25000000  1
  Hg  Hg1  1  0.55355110  0.44644890  0.25000000  1
  Hg  Hg2  1  0.80355110  0.19644890  0.75000000  1
  Hg  Hg3  1  0.44644890  0.55355110  0.75000000  1
  Ge  Ge4  1  0.87500000  0.12500000  0.25000000  1
  Ge  Ge5  1  0.12500000  0.87500000  0.75000000  1
  O  O6  1  0.75063938  0.79245524  0.08362590  1
  O  O7  1  0.70882934  0.16701448  0.41637410  1
  O  O8  1  0.20754476  0.24936062  0.41637410  1
  O  O9  1  0.83298552  0.29117066  0.08362590  1
  O  O10  1  0.24936062  0.20754476  0.91637410  1
  O  O11  1  0.29117066  0.83298552  0.58362590  1
  O  O12  1  0.16701448  0.70882934  0.91637410  1
  O  O13  1  0.79245524  0.75063938  0.58362590  1
