# generated using pymatgen
data_CaV2Zn2(SiO5)2
_symmetry_space_group_name_H-M   'P 1'
_cell_length_a   5.58699500
_cell_length_b   7.55301417
_cell_length_c   8.32871607
_cell_angle_alpha   88.54765154
_cell_angle_beta   39.53805173
_cell_angle_gamma   105.54885508
_symmetry_Int_Tables_number   1
_chemical_formula_structural   CaV2Zn2(SiO5)2
_chemical_formula_sum   'Ca1 V2 Zn2 Si2 O10'
_cell_volume   199.51996994
_cell_formula_units_Z   1
loop_
 _symmetry_equiv_pos_site_id
 _symmetry_equiv_pos_as_xyz
  1  'x, y, z'
loop_
 _atom_site_type_symbol
 _atom_site_label
 _atom_site_symmetry_multiplicity
 _atom_site_fract_x
 _atom_site_fract_y
 _atom_site_fract_z
 _atom_site_occupancy
  Ca  Ca0  1  0.21182700  0.38134600  0.21121700  1
  V  V1  1  0.50611500  0.51462400  0.47837200  1
  V  V2  1  0.44921800  0.98831300  0.52776500  1
  Zn  Zn3  1  0.83411000  0.21531100  0.03877200  1
  Zn  Zn4  1  0.58333200  0.80630400  0.75311800  1
  Si  Si5  1  0.53453400  0.21800600  0.82083000  1
  Si  Si6  1  0.44827200  0.78748200  0.18719500  1
  O  O7  1  0.71870500  0.09811200  0.61738700  1
  O  O8  1  0.49905500  0.39244300  0.72276400  1
  O  O9  1  0.20668100  0.88012800  0.42626600  1
  O  O10  1  0.50669000  0.60930000  0.25007000  1
  O  O11  1  0.19588100  0.68322600  0.14694600  1
  O  O12  1  0.89175400  0.97327300  0.89502200  1
  O  O13  1  0.83730800  0.33684300  0.81866000  1
  O  O14  1  0.07092400  0.08542300  0.13955200  1
  O  O15  1  0.41464400  0.73360200  0.61850200  1
  O  O16  1  0.61430100  0.28271900  0.34962900  1
