# generated using pymatgen
data_BaWO4
_symmetry_space_group_name_H-M   'P 1'
_cell_length_a   7.52485782
_cell_length_b   7.52485782
_cell_length_c   7.52485782
_cell_angle_alpha   135.76167170
_cell_angle_beta   135.76167170
_cell_angle_gamma   64.34901045
_symmetry_Int_Tables_number   1
_chemical_formula_structural   BaWO4
_chemical_formula_sum   'Ba2 W2 O8'
_cell_volume   204.52893856
_cell_formula_units_Z   2
loop_
 _symmetry_equiv_pos_site_id
 _symmetry_equiv_pos_as_xyz
  1  'x, y, z'
loop_
 _atom_site_type_symbol
 _atom_site_label
 _atom_site_symmetry_multiplicity
 _atom_site_fract_x
 _atom_site_fract_y
 _atom_site_fract_z
 _atom_site_occupancy
  Ba  Ba0  1  0.25086833  0.75086833  0.50000000  1
  Ba  Ba1  1  0.50086833  0.50086833  0.00000000  1
  W  W2  1  0.75081032  0.25081032  0.50000000  1
  W  W3  1  0.00081032  0.00081032  -0.00000000  1
  O  O4  1  0.15301310  0.04776019  0.35623995  1
  O  O5  1  0.69152024  0.79677315  0.64376005  1
  O  O6  1  0.06007170  0.45490584  0.85611152  1
  O  O7  1  0.54677315  0.40301310  0.60525291  1
  O  O8  1  0.20490584  0.84879432  0.89483414  1
  O  O9  1  0.95396018  0.31007170  0.10516586  1
  O  O10  1  0.79776019  0.94152024  0.39474709  1
  O  O11  1  0.59879432  0.20396018  0.14388848  1
