# generated using pymatgen
data_ZnFeAs2O7
_symmetry_space_group_name_H-M   'P 1'
_cell_length_a   8.57151274
_cell_length_b   7.26418963
_cell_length_c   9.59053405
_cell_angle_alpha   65.23905847
_cell_angle_beta   90.00000000
_cell_angle_gamma   90.00000000
_symmetry_Int_Tables_number   1
_chemical_formula_structural   ZnFeAs2O7
_chemical_formula_sum   'Zn4 Fe4 As8 O28'
_cell_volume   542.25494238
_cell_formula_units_Z   4
loop_
 _symmetry_equiv_pos_site_id
 _symmetry_equiv_pos_as_xyz
  1  'x, y, z'
loop_
 _atom_site_type_symbol
 _atom_site_label
 _atom_site_symmetry_multiplicity
 _atom_site_fract_x
 _atom_site_fract_y
 _atom_site_fract_z
 _atom_site_occupancy
  Zn  Zn0  1  0.06505906  0.73185375  0.88578266  1
  Zn  Zn1  1  0.56505906  0.26814625  0.61421734  1
  Zn  Zn2  1  0.93494094  0.26814625  0.11421734  1
  Zn  Zn3  1  0.43494094  0.73185375  0.38578266  1
  Fe  Fe4  1  0.93870812  0.19876472  0.67056480  1
  Fe  Fe5  1  0.43870812  0.80123528  0.82943520  1
  Fe  Fe6  1  0.06129188  0.80123528  0.32943520  1
  Fe  Fe7  1  0.56129188  0.19876472  0.17056480  1
  As  As8  1  0.76107418  0.54968288  0.76796249  1
  As  As9  1  0.26107418  0.45031712  0.73203751  1
  As  As10  1  0.23892582  0.45031712  0.23203751  1
  As  As11  1  0.73892582  0.54968288  0.26796249  1
  As  As12  1  0.72890678  0.98040455  0.96273387  1
  As  As13  1  0.22890678  0.01959545  0.53726613  1
  As  As14  1  0.27109322  0.01959545  0.03726613  1
  As  As15  1  0.77109322  0.98040455  0.46273387  1
  O  O16  1  0.73916350  0.14029640  0.05052060  1
  O  O17  1  0.23916350  0.85970360  0.44947940  1
  O  O18  1  0.26083650  0.85970360  0.94947940  1
  O  O19  1  0.76083650  0.14029640  0.55052060  1
  O  O20  1  0.59051243  0.60659724  0.82308845  1
  O  O21  1  0.09051243  0.39340276  0.67691155  1
  O  O22  1  0.40948757  0.39340276  0.17691155  1
  O  O23  1  0.90948757  0.60659724  0.32308845  1
  O  O24  1  0.90644546  0.51865538  0.89463374  1
  O  O25  1  0.40644546  0.48134462  0.60536626  1
  O  O26  1  0.09355454  0.48134462  0.10536626  1
  O  O27  1  0.59355454  0.51865538  0.39463374  1
  O  O28  1  0.83137009  0.74571438  0.60040931  1
  O  O29  1  0.33137009  0.25428562  0.89959069  1
  O  O30  1  0.16862991  0.25428562  0.39959069  1
  O  O31  1  0.66862991  0.74571438  0.10040931  1
  O  O32  1  0.92100084  0.02272857  0.33897615  1
  O  O33  1  0.42100084  0.97727143  0.16102385  1
  O  O34  1  0.07899916  0.97727143  0.66102385  1
  O  O35  1  0.57899916  0.02272857  0.83897615  1
  O  O36  1  0.74980195  0.35666050  0.21503284  1
  O  O37  1  0.24980195  0.64333950  0.28496716  1
  O  O38  1  0.25019805  0.64333950  0.78496716  1
  O  O39  1  0.75019805  0.35666050  0.71503284  1
  O  O40  1  0.59850074  0.95443805  0.38713861  1
  O  O41  1  0.09850074  0.04556195  0.11286139  1
  O  O42  1  0.40149926  0.04556195  0.61286139  1
  O  O43  1  0.90149926  0.95443805  0.88713861  1
