# generated using pymatgen
data_Tl2SeO4
_symmetry_space_group_name_H-M   'P 1'
_cell_length_a   6.09941271
_cell_length_b   6.09941271
_cell_length_c   8.26682876
_cell_angle_alpha   90.01266463
_cell_angle_beta   90.01266463
_cell_angle_gamma   116.04875848
_symmetry_Int_Tables_number   1
_chemical_formula_structural   Tl2SeO4
_chemical_formula_sum   'Tl4 Se2 O8'
_cell_volume   276.30877610
_cell_formula_units_Z   2
loop_
 _symmetry_equiv_pos_site_id
 _symmetry_equiv_pos_as_xyz
  1  'x, y, z'
loop_
 _atom_site_type_symbol
 _atom_site_label
 _atom_site_symmetry_multiplicity
 _atom_site_fract_x
 _atom_site_fract_y
 _atom_site_fract_z
 _atom_site_occupancy
  Tl  Tl0  1  0.30602250  0.68649851  0.25669006  1
  Tl  Tl1  1  0.99908112  0.99779736  0.00459770  1
  Tl  Tl2  1  0.68649851  0.30602250  0.75669006  1
  Tl  Tl3  1  0.99779736  0.99908112  0.50459770  1
  Se  Se4  1  0.35787291  0.64346714  0.75732981  1
  Se  Se5  1  0.64346714  0.35787291  0.25732981  1
  O  O6  1  0.66129725  0.74855026  0.75438642  1
  O  O7  1  0.27305607  0.73734617  0.92286197  1
  O  O8  1  0.26616227  0.74063597  0.59635379  1
  O  O9  1  0.24293721  0.33928824  0.75568024  1
  O  O10  1  0.74063597  0.26616227  0.09635379  1
  O  O11  1  0.74855026  0.66129725  0.25438642  1
  O  O12  1  0.73734617  0.27305607  0.42286197  1
  O  O13  1  0.33928824  0.24293721  0.25568024  1
