# generated using pymatgen
data_KFeSO4F
_symmetry_space_group_name_H-M   'P 1'
_cell_length_a   8.10311488
_cell_length_b   8.10311488
_cell_length_c   14.94278737
_cell_angle_alpha   88.61010273
_cell_angle_beta   88.61010273
_cell_angle_gamma   62.79062998
_symmetry_Int_Tables_number   1
_chemical_formula_structural   KFeSO4F
_chemical_formula_sum   'K8 Fe8 S8 O32 F8'
_cell_volume   872.22555650
_cell_formula_units_Z   8
loop_
 _symmetry_equiv_pos_site_id
 _symmetry_equiv_pos_as_xyz
  1  'x, y, z'
loop_
 _atom_site_type_symbol
 _atom_site_label
 _atom_site_symmetry_multiplicity
 _atom_site_fract_x
 _atom_site_fract_y
 _atom_site_fract_z
 _atom_site_occupancy
  K  K0  1  0.76228777  0.50094574  0.05328182  1
  K  K1  1  0.49905426  0.23771223  0.44671818  1
  K  K2  1  0.23771223  0.49905426  0.94671818  1
  K  K3  1  0.50094574  0.76228777  0.55328182  1
  K  K4  1  0.98861941  0.75936836  0.41628824  1
  K  K5  1  0.24063164  0.01138059  0.08371176  1
  K  K6  1  0.01138059  0.24063164  0.58371176  1
  K  K7  1  0.75936836  0.98861941  0.91628824  1
  Fe  Fe8  1  0.12861120  0.37598908  0.24725841  1
  Fe  Fe9  1  0.62401092  0.87138880  0.25274159  1
  Fe  Fe10  1  0.87138880  0.62401092  0.75274159  1
  Fe  Fe11  1  0.37598908  0.12861120  0.74725841  1
  Fe  Fe12  1  0.83196664  0.16803336  0.25000000  1
  Fe  Fe13  1  0.16803336  0.83196664  0.75000000  1
  Fe  Fe14  1  0.42552342  0.57447658  0.25000000  1
  Fe  Fe15  1  0.57447658  0.42552342  0.75000000  1
  S  S16  1  0.76844475  0.50357378  0.38597820  1
  S  S17  1  0.49642622  0.23155525  0.11402180  1
  S  S18  1  0.23155525  0.49642622  0.61402180  1
  S  S19  1  0.50357378  0.76844475  0.88597820  1
  S  S20  1  0.01118572  0.77069253  0.14245100  1
  S  S21  1  0.22930747  0.98881428  0.35754900  1
  S  S22  1  0.98881428  0.22930747  0.85754900  1
  S  S23  1  0.77069253  0.01118572  0.64245100  1
  O  O24  1  0.96875572  0.43095227  0.36759058  1
  O  O25  1  0.56904773  0.03124428  0.13240942  1
  O  O26  1  0.03124428  0.56904773  0.63240942  1
  O  O27  1  0.43095227  0.96875572  0.86759058  1
  O  O28  1  0.29191586  0.32229212  0.12476619  1
  O  O29  1  0.67770788  0.70808414  0.37523381  1
  O  O30  1  0.70808414  0.67770788  0.87523381  1
  O  O31  1  0.32229212  0.29191586  0.62476619  1
  O  O32  1  0.73558719  0.45063524  0.47573558  1
  O  O33  1  0.54936476  0.26441281  0.02426442  1
  O  O34  1  0.26441281  0.54936476  0.52426442  1
  O  O35  1  0.45063524  0.73558719  0.97573558  1
  O  O36  1  0.68585121  0.42526233  0.32007080  1
  O  O37  1  0.57473767  0.31414879  0.17992920  1
  O  O38  1  0.31414879  0.57473767  0.67992920  1
  O  O39  1  0.42526233  0.68585121  0.82007080  1
  O  O40  1  0.02515496  0.06640173  0.34786549  1
  O  O41  1  0.93359827  0.97484504  0.15213451  1
  O  O42  1  0.97484504  0.93359827  0.65213451  1
  O  O43  1  0.06640173  0.02515496  0.84786549  1
  O  O44  1  0.30898080  0.78583605  0.34908589  1
  O  O45  1  0.21416395  0.69101920  0.15091411  1
  O  O46  1  0.69101920  0.21416395  0.65091411  1
  O  O47  1  0.78583605  0.30898080  0.84908589  1
  O  O48  1  0.03799950  0.26997423  0.94464455  1
  O  O49  1  0.73002577  0.96200050  0.55535545  1
  O  O50  1  0.96200050  0.73002577  0.05535545  1
  O  O51  1  0.26997423  0.03799950  0.44464455  1
  O  O52  1  0.93524956  0.69321346  0.21591949  1
  O  O53  1  0.30678654  0.06475044  0.28408051  1
  O  O54  1  0.06475044  0.30678654  0.78408051  1
  O  O55  1  0.69321346  0.93524956  0.71591949  1
  F  F56  1  0.97159377  0.29808637  0.18169972  1
  F  F57  1  0.70191463  0.02840623  0.31830028  1
  F  F58  1  0.02840623  0.70191463  0.81830028  1
  F  F59  1  0.29808637  0.97159377  0.68169972  1
  F  F60  1  0.28871907  0.45434082  0.31340181  1
  F  F61  1  0.54565918  0.71128093  0.18659819  1
  F  F62  1  0.71128093  0.54565918  0.68659819  1
  F  F63  1  0.45434082  0.28871907  0.81340181  1
