# generated using pymatgen
data_Er2Ge2O7
_symmetry_space_group_name_H-M   'P 1'
_cell_length_a   6.75820297
_cell_length_b   6.75820297
_cell_length_c   12.30430649
_cell_angle_alpha   90.00000000
_cell_angle_beta   90.00000000
_cell_angle_gamma   90.00000000
_symmetry_Int_Tables_number   1
_chemical_formula_structural   Er2Ge2O7
_chemical_formula_sum   'Er8 Ge8 O28'
_cell_volume   561.97837246
_cell_formula_units_Z   4
loop_
 _symmetry_equiv_pos_site_id
 _symmetry_equiv_pos_as_xyz
  1  'x, y, z'
loop_
 _atom_site_type_symbol
 _atom_site_label
 _atom_site_symmetry_multiplicity
 _atom_site_fract_x
 _atom_site_fract_y
 _atom_site_fract_z
 _atom_site_occupancy
  Er  Er0  1  0.64548086  0.12604231  0.36453750  1
  Er  Er1  1  0.35451914  0.87395769  0.86453750  1
  Er  Er2  1  0.12604231  0.64548086  0.63546250  1
  Er  Er3  1  0.62604231  0.85451914  0.11453750  1
  Er  Er4  1  0.37395769  0.14548086  0.61453750  1
  Er  Er5  1  0.85451914  0.62604231  0.88546250  1
  Er  Er6  1  0.14548086  0.37395769  0.38546250  1
  Er  Er7  1  0.87395769  0.35451914  0.13546250  1
  Ge  Ge8  1  0.84886880  0.10034933  0.88171926  1
  Ge  Ge9  1  0.15113120  0.89965067  0.38171926  1
  Ge  Ge10  1  0.10034933  0.84886880  0.11828074  1
  Ge  Ge11  1  0.60034933  0.65113120  0.63171926  1
  Ge  Ge12  1  0.39965067  0.34886880  0.13171926  1
  Ge  Ge13  1  0.65113120  0.60034933  0.36828074  1
  Ge  Ge14  1  0.34886880  0.39965067  0.86828074  1
  Ge  Ge15  1  0.89965067  0.15113120  0.61828074  1
  O  O16  1  0.85652170  0.31965419  0.95599417  1
  O  O17  1  0.14347830  0.68034581  0.45599417  1
  O  O18  1  0.31965419  0.85652170  0.04400583  1
  O  O19  1  0.81965419  0.64347830  0.70599417  1
  O  O20  1  0.18034581  0.35652170  0.20599417  1
  O  O21  1  0.64347830  0.81965419  0.29400583  1
  O  O22  1  0.35652170  0.18034581  0.79400583  1
  O  O23  1  0.68034581  0.14347830  0.54400583  1
  O  O24  1  0.66159200  0.93556379  0.92911050  1
  O  O25  1  0.33840800  0.06443621  0.42911050  1
  O  O26  1  0.93556379  0.66159200  0.07088950  1
  O  O27  1  0.43556379  0.83840800  0.67911050  1
  O  O28  1  0.56443621  0.16159200  0.17911050  1
  O  O29  1  0.83840800  0.43556379  0.32088950  1
  O  O30  1  0.16159200  0.56443621  0.82088950  1
  O  O31  1  0.06443621  0.33840800  0.57088950  1
  O  O32  1  0.80403507  0.19596493  0.75000000  1
  O  O33  1  0.30403507  0.30403507  -0.00000000  1
  O  O34  1  0.69596493  0.69596493  0.50000000  1
  O  O35  1  0.19596493  0.80403507  0.25000000  1
  O  O36  1  0.07802173  0.96550248  0.62172511  1
  O  O37  1  0.53449752  0.57802173  0.87172511  1
  O  O38  1  0.46550248  0.42197827  0.37172511  1
  O  O39  1  0.57802173  0.53449752  0.12827489  1
  O  O40  1  0.42197827  0.46550248  0.62827489  1
  O  O41  1  0.92197827  0.03449752  0.12172511  1
  O  O42  1  0.96550248  0.07802173  0.37827489  1
  O  O43  1  0.03449752  0.92197827  0.87827489  1
