# generated using pymatgen
data_Na6Si2Se7
_symmetry_space_group_name_H-M   'P 1'
_cell_length_a   7.15618810
_cell_length_b   7.15618810
_cell_length_c   15.72085764
_cell_angle_alpha   80.22732631
_cell_angle_beta   80.22732631
_cell_angle_gamma   98.03825686
_symmetry_Int_Tables_number   1
_chemical_formula_structural   Na6Si2Se7
_chemical_formula_sum   'Na12 Si4 Se14'
_cell_volume   770.00698811
_cell_formula_units_Z   2
loop_
 _symmetry_equiv_pos_site_id
 _symmetry_equiv_pos_as_xyz
  1  'x, y, z'
loop_
 _atom_site_type_symbol
 _atom_site_label
 _atom_site_symmetry_multiplicity
 _atom_site_fract_x
 _atom_site_fract_y
 _atom_site_fract_z
 _atom_site_occupancy
  Na  Na0  1  0.57915559  0.42084441  0.75000000  1
  Na  Na1  1  0.42084441  0.57915559  0.25000000  1
  Na  Na2  1  0.50000000  0.50000000  -0.00000000  1
  Na  Na3  1  0.50000000  0.50000000  0.50000000  1
  Na  Na4  1  0.26570578  0.97230949  0.92714926  1
  Na  Na5  1  0.02769051  0.73429422  0.57285074  1
  Na  Na6  1  0.73429422  0.02769051  0.07285074  1
  Na  Na7  1  0.97230949  0.26570578  0.42714926  1
  Na  Na8  1  0.50957839  0.95167972  0.64043158  1
  Na  Na9  1  0.04832028  0.49042161  0.85956842  1
  Na  Na10  1  0.49042161  0.04832028  0.35956842  1
  Na  Na11  1  0.95167972  0.50957839  0.14043158  1
  Si  Si12  1  0.76317891  0.92374662  0.86065117  1
  Si  Si13  1  0.07625338  0.23682109  0.63934883  1
  Si  Si14  1  0.92374662  0.76317891  0.36065117  1
  Si  Si15  1  0.23682109  0.07625338  0.13934883  1
  Se  Se16  1  0.03622361  0.96377639  0.75000000  1
  Se  Se17  1  0.96377639  0.03622361  0.25000000  1
  Se  Se18  1  0.69039252  0.20192807  0.89415127  1
  Se  Se19  1  0.79807193  0.30960748  0.60584873  1
  Se  Se20  1  0.30960748  0.79807193  0.10584873  1
  Se  Se21  1  0.20192807  0.69039252  0.39415127  1
  Se  Se22  1  0.86933299  0.74060308  0.96960177  1
  Se  Se23  1  0.25939692  0.13066701  0.53039823  1
  Se  Se24  1  0.13066701  0.25939692  0.03039823  1
  Se  Se25  1  0.74060308  0.86933299  0.46960177  1
  Se  Se26  1  0.50897014  0.75603393  0.82177591  1
  Se  Se27  1  0.24396607  0.49102986  0.67822409  1
  Se  Se28  1  0.49102986  0.24396607  0.17822409  1
  Se  Se29  1  0.75603393  0.50897014  0.32177591  1
