# generated using pymatgen
data_Tm4Zr3O12
_symmetry_space_group_name_H-M   'P 1'
_cell_length_a   6.26353599
_cell_length_b   6.29626026
_cell_length_c   6.44308428
_cell_angle_alpha   99.80927445
_cell_angle_beta   98.87312360
_cell_angle_gamma   99.44959057
_symmetry_Int_Tables_number   1
_chemical_formula_structural   Tm4Zr3O12
_chemical_formula_sum   'Tm4 Zr3 O12'
_cell_volume   242.60392692
_cell_formula_units_Z   1
loop_
 _symmetry_equiv_pos_site_id
 _symmetry_equiv_pos_as_xyz
  1  'x, y, z'
loop_
 _atom_site_type_symbol
 _atom_site_label
 _atom_site_symmetry_multiplicity
 _atom_site_fract_x
 _atom_site_fract_y
 _atom_site_fract_z
 _atom_site_occupancy
  Tm  Tm0  1  0.38915069  0.69891870  0.86508979  1
  Tm  Tm1  1  0.69382541  0.86457993  0.38967197  1
  Tm  Tm2  1  0.61084931  0.30108130  0.13491021  1
  Tm  Tm3  1  0.30617459  0.13542007  0.61032803  1
  Zr  Zr4  1  -0.00000000  0.00000000  -0.00000000  1
  Zr  Zr5  1  0.84960487  0.39538125  0.67357908  1
  Zr  Zr6  1  0.15039513  0.60461875  0.32642092  1
  O  O7  1  0.03257127  0.67706926  0.89097417  1
  O  O8  1  0.68374286  0.93048543  0.06005998  1
  O  O9  1  0.91972914  0.08050957  0.68934328  1
  O  O10  1  0.96742873  0.32293074  0.10902583  1
  O  O11  1  0.31625714  0.06951457  0.93994002  1
  O  O12  1  0.08027086  0.91949043  0.31065672  1
  O  O13  1  0.58423803  0.18631338  0.43202839  1
  O  O14  1  0.17393846  0.42888088  0.57458990  1
  O  O15  1  0.41596897  0.58157002  0.17819963  1
  O  O16  1  0.41576197  0.81368662  0.56797161  1
  O  O17  1  0.82606154  0.57111912  0.42541010  1
  O  O18  1  0.58403103  0.41842998  0.82180037  1
