# generated using pymatgen
data_KMg14SiO16
_symmetry_space_group_name_H-M   'P 1'
_cell_length_a   8.67582010
_cell_length_b   8.48858832
_cell_length_c   4.42349536
_cell_angle_alpha   90.00000000
_cell_angle_beta   90.00000000
_cell_angle_gamma   90.00000000
_symmetry_Int_Tables_number   1
_chemical_formula_structural   KMg14SiO16
_chemical_formula_sum   'K1 Mg14 Si1 O16'
_cell_volume   325.77037345
_cell_formula_units_Z   1
loop_
 _symmetry_equiv_pos_site_id
 _symmetry_equiv_pos_as_xyz
  1  'x, y, z'
loop_
 _atom_site_type_symbol
 _atom_site_label
 _atom_site_symmetry_multiplicity
 _atom_site_fract_x
 _atom_site_fract_y
 _atom_site_fract_z
 _atom_site_occupancy
  K  K0  1  0.00000000  -0.00000000  -0.00000000  1
  Mg  Mg1  1  0.50000000  -0.00000000  -0.00000000  1
  Mg  Mg2  1  0.50000000  0.50000000  -0.00000000  1
  Mg  Mg3  1  0.00000000  0.24805024  0.50000000  1
  Mg  Mg4  1  0.00000000  0.75194976  0.50000000  1
  Mg  Mg5  1  0.50000000  0.24826086  0.50000000  1
  Mg  Mg6  1  0.50000000  0.75173914  0.50000000  1
  Mg  Mg7  1  0.25223251  -0.00000000  0.50000000  1
  Mg  Mg8  1  0.25120461  0.50000000  0.50000000  1
  Mg  Mg9  1  0.74776749  -0.00000000  0.50000000  1
  Mg  Mg10  1  0.74879539  0.50000000  0.50000000  1
  Mg  Mg11  1  0.25630543  0.24779669  0.00000000  1
  Mg  Mg12  1  0.25630543  0.75220331  0.00000000  1
  Mg  Mg13  1  0.74369457  0.24779669  -0.00000000  1
  Mg  Mg14  1  0.74369457  0.75220331  -0.00000000  1
  Si  Si15  1  0.00000000  0.50000000  -0.00000000  1
  O  O16  1  0.27430367  -0.00000000  -0.00000000  1
  O  O17  1  0.24387188  0.50000000  -0.00000000  1
  O  O18  1  0.72569633  -0.00000000  -0.00000000  1
  O  O19  1  0.75612812  0.50000000  -0.00000000  1
  O  O20  1  0.24832244  0.25088717  0.50000000  1
  O  O21  1  0.24832244  0.74911283  0.50000000  1
  O  O22  1  0.75167756  0.25088717  0.50000000  1
  O  O23  1  0.75167756  0.74911283  0.50000000  1
  O  O24  1  0.00000000  -0.00000000  0.50000000  1
  O  O25  1  0.00000000  0.50000000  0.50000000  1
  O  O26  1  0.50000000  -0.00000000  0.50000000  1
  O  O27  1  0.50000000  0.50000000  0.50000000  1
  O  O28  1  0.00000000  0.29015895  -0.00000000  1
  O  O29  1  0.00000000  0.70984105  -0.00000000  1
  O  O30  1  0.50000000  0.25698208  -0.00000000  1
  O  O31  1  0.50000000  0.74301792  -0.00000000  1
