# generated using pymatgen
data_MgAg20(BiO4)4
_symmetry_space_group_name_H-M   'P 1'
_cell_length_a   6.04961236
_cell_length_b   9.05782379
_cell_length_c   13.10699807
_cell_angle_alpha   90.73140497
_cell_angle_beta   91.40155057
_cell_angle_gamma   93.20262495
_symmetry_Int_Tables_number   1
_chemical_formula_structural   MgAg20(BiO4)4
_chemical_formula_sum   'Mg1 Ag20 Bi4 O16'
_cell_volume   716.80720666
_cell_formula_units_Z   1
loop_
 _symmetry_equiv_pos_site_id
 _symmetry_equiv_pos_as_xyz
  1  'x, y, z'
loop_
 _atom_site_type_symbol
 _atom_site_label
 _atom_site_symmetry_multiplicity
 _atom_site_fract_x
 _atom_site_fract_y
 _atom_site_fract_z
 _atom_site_occupancy
  Mg  Mg0  1  0.19395060  0.72626665  0.43671786  1
  Ag  Ag1  1  0.29352168  0.72271223  0.13366900  1
  Ag  Ag2  1  0.66733310  0.77400211  0.63375502  1
  Ag  Ag3  1  0.00432610  0.49176040  0.99338913  1
  Ag  Ag4  1  0.49470499  0.00727071  0.49197629  1
  Ag  Ag5  1  0.00039956  0.12133825  0.66579008  1
  Ag  Ag6  1  0.46327663  0.63674392  0.83228410  1
  Ag  Ag7  1  0.92808063  0.95854963  0.38284745  1
  Ag  Ag8  1  0.53215030  0.35398203  0.15576591  1
  Ag  Ag9  1  0.52118133  0.98579910  0.24268446  1
  Ag  Ag10  1  0.05030964  0.49827075  0.26392637  1
  Ag  Ag11  1  0.44126279  0.01079725  0.74972580  1
  Ag  Ag12  1  0.00760171  0.48294555  0.74301522  1
  Ag  Ag13  1  0.48419351  0.99728864  0.99323719  1
  Ag  Ag14  1  0.04729627  0.44051122  0.46892117  1
  Ag  Ag15  1  0.23074770  0.25457928  0.86456374  1
  Ag  Ag16  1  0.18861513  0.75960835  0.65311429  1
  Ag  Ag17  1  0.79352583  0.71930167  0.13738618  1
  Ag  Ag18  1  0.76493899  0.24966091  0.35013322  1
  Ag  Ag19  1  0.72465455  0.25698516  0.86500019  1
  Ag  Ag20  1  0.29469262  0.24104263  0.35431283  1
  Bi  Bi21  1  0.49531524  0.37897567  0.62165798  1
  Bi  Bi22  1  0.96064400  0.85539474  0.88935051  1
  Bi  Bi23  1  0.63863420  0.61840247  0.38194304  1
  Bi  Bi24  1  0.01403405  0.12815162  0.10627632  1
  O  O25  1  0.10786360  0.36556480  0.11679665  1
  O  O26  1  0.43010166  0.84356215  0.36896992  1
  O  O27  1  0.89610047  0.61318741  0.86671018  1
  O  O28  1  0.55974369  0.14534764  0.62443552  1
  O  O29  1  0.93679327  0.89408179  0.71829812  1
  O  O30  1  0.48357011  0.39293533  0.79761222  1
  O  O31  1  0.96959923  0.12318020  0.92943320  1
  O  O32  1  0.39962195  0.64395396  0.54503600  1
  O  O33  1  0.04316755  0.85195063  0.06886213  1
  O  O34  1  0.54166793  0.37016343  0.44240465  1
  O  O35  1  0.64836905  0.12828650  0.11662196  1
  O  O36  1  0.89184918  0.76967794  0.47278679  1
  O  O37  1  0.32253707  0.85876541  0.87259061  1
  O  O38  1  0.13360407  0.34388373  0.62110063  1
  O  O39  1  0.01944178  0.12383018  0.28039257  1
  O  O40  1  0.53682826  0.58985900  0.20483848  1
