# generated using pymatgen
data_ScVO4
_symmetry_space_group_name_H-M   'P 1'
_cell_length_a   5.70397082
_cell_length_b   5.70397052
_cell_length_c   5.70396998
_cell_angle_alpha   106.80137907
_cell_angle_beta   106.80138166
_cell_angle_gamma   114.95398818
_symmetry_Int_Tables_number   1
_chemical_formula_structural   ScVO4
_chemical_formula_sum   'Sc2 V2 O8'
_cell_volume   141.86916440
_cell_formula_units_Z   2
loop_
 _symmetry_equiv_pos_site_id
 _symmetry_equiv_pos_as_xyz
  1  'x, y, z'
loop_
 _atom_site_type_symbol
 _atom_site_label
 _atom_site_symmetry_multiplicity
 _atom_site_fract_x
 _atom_site_fract_y
 _atom_site_fract_z
 _atom_site_occupancy
  Sc  Sc0  1  0.87500000  0.12500000  0.75000000  1
  Sc  Sc1  1  0.12500000  0.87500000  0.25000000  1
  V  V2  1  0.62500000  0.37500000  0.25000000  1
  V  V3  1  0.37500000  0.62500000  0.75000000  1
  O  O4  1  0.80367317  0.74687508  0.44320291  1
  O  O5  1  0.36047126  0.80367317  0.55679709  1
  O  O6  1  0.74687508  0.80367317  0.94320291  1
  O  O7  1  0.80367317  0.36047126  0.05679709  1
  O  O8  1  0.63952874  0.19632683  0.44320291  1
  O  O9  1  0.19632683  0.25312492  0.55679709  1
  O  O10  1  0.19632683  0.63952874  0.94320291  1
  O  O11  1  0.25312492  0.19632683  0.05679709  1
