# generated using pymatgen
data_Mg14VCdO16
_symmetry_space_group_name_H-M   'P 1'
_cell_length_a   8.61365695
_cell_length_b   8.66645866
_cell_length_c   4.32124931
_cell_angle_alpha   90.00000000
_cell_angle_beta   90.00000000
_cell_angle_gamma   90.00000000
_symmetry_Int_Tables_number   1
_chemical_formula_structural   Mg14VCdO16
_chemical_formula_sum   'Mg14 V1 Cd1 O16'
_cell_volume   322.58083694
_cell_formula_units_Z   1
loop_
 _symmetry_equiv_pos_site_id
 _symmetry_equiv_pos_as_xyz
  1  'x, y, z'
loop_
 _atom_site_type_symbol
 _atom_site_label
 _atom_site_symmetry_multiplicity
 _atom_site_fract_x
 _atom_site_fract_y
 _atom_site_fract_z
 _atom_site_occupancy
  Mg  Mg0  1  0.50000000  -0.00000000  0.00000000  1
  Mg  Mg1  1  0.50000000  0.50000000  0.00000000  1
  Mg  Mg2  1  0.00000000  0.24594736  0.50000000  1
  Mg  Mg3  1  0.00000000  0.75405264  0.50000000  1
  Mg  Mg4  1  0.50000000  0.24936264  0.50000000  1
  Mg  Mg5  1  0.50000000  0.75063736  0.50000000  1
  Mg  Mg6  1  0.25109468  -0.00000000  0.50000000  1
  Mg  Mg7  1  0.25518419  0.50000000  0.50000000  1
  Mg  Mg8  1  0.74890532  -0.00000000  0.50000000  1
  Mg  Mg9  1  0.74481581  0.50000000  0.50000000  1
  Mg  Mg10  1  0.25272895  0.24811106  -0.00000000  1
  Mg  Mg11  1  0.25272895  0.75188894  -0.00000000  1
  Mg  Mg12  1  0.74727105  0.24811106  0.00000000  1
  Mg  Mg13  1  0.74727105  0.75188894  0.00000000  1
  V  V14  1  0.00000000  -0.00000000  0.00000000  1
  Cd  Cd15  1  0.00000000  0.50000000  0.00000000  1
  O  O16  1  0.25598706  -0.00000000  0.00000000  1
  O  O17  1  0.26616513  0.50000000  0.00000000  1
  O  O18  1  0.74401294  -0.00000000  -0.00000000  1
  O  O19  1  0.73383487  0.50000000  -0.00000000  1
  O  O20  1  0.24914171  0.25012643  0.50000000  1
  O  O21  1  0.24914171  0.74987357  0.50000000  1
  O  O22  1  0.75085829  0.25012643  0.50000000  1
  O  O23  1  0.75085829  0.74987357  0.50000000  1
  O  O24  1  0.00000000  -0.00000000  0.50000000  1
  O  O25  1  0.00000000  0.50000000  0.50000000  1
  O  O26  1  0.50000000  -0.00000000  0.50000000  1
  O  O27  1  0.50000000  0.50000000  0.50000000  1
  O  O28  1  0.00000000  0.24131136  0.00000000  1
  O  O29  1  0.00000000  0.75868864  0.00000000  1
  O  O30  1  0.50000000  0.24735431  0.00000000  1
  O  O31  1  0.50000000  0.75264569  0.00000000  1
