# generated using pymatgen
data_CaEr4Zr4O14
_symmetry_space_group_name_H-M   'P 1'
_cell_length_a   3.57022946
_cell_length_b   15.22401611
_cell_length_c   13.07659326
_cell_angle_alpha   30.80166137
_cell_angle_beta   56.71548097
_cell_angle_gamma   61.87566904
_symmetry_Int_Tables_number   1
_chemical_formula_structural   CaEr4Zr4O14
_chemical_formula_sum   'Ca1 Er4 Zr4 O14'
_cell_volume   304.25006003
_cell_formula_units_Z   1
loop_
 _symmetry_equiv_pos_site_id
 _symmetry_equiv_pos_as_xyz
  1  'x, y, z'
loop_
 _atom_site_type_symbol
 _atom_site_label
 _atom_site_symmetry_multiplicity
 _atom_site_fract_x
 _atom_site_fract_y
 _atom_site_fract_z
 _atom_site_occupancy
  Ca  Ca0  1  0.19779100  0.50000000  0.64815600  1
  Er  Er1  1  0.94964400  0.20805100  0.06936600  1
  Er  Er2  1  0.97623700  0.00000000  0.51232900  1
  Er  Er3  1  0.94964400  0.79194900  0.48546700  1
  Er  Er4  1  0.11305700  0.50000000  0.44237900  1
  Zr  Zr5  1  0.01972300  0.00000000  0.98941900  1
  Zr  Zr6  1  0.03097300  0.50000000  0.98576200  1
  Zr  Zr7  1  0.00965700  0.22749800  0.51736900  1
  Zr  Zr8  1  0.00965700  0.77250200  0.97236500  1
  O  O9  1  0.26823100  0.00000000  0.11522800  1
  O  O10  1  0.20364300  0.24209800  0.15727300  1
  O  O11  1  0.23685500  0.00000000  0.63163200  1
  O  O12  1  0.33653200  0.50000000  0.08215900  1
  O  O13  1  0.22960900  0.22929300  0.65547800  1
  O  O14  1  0.22960900  0.77070700  0.11406500  1
  O  O15  1  0.70387100  0.25847600  0.38977000  1
  O  O16  1  0.77060300  0.00000000  0.86448900  1
  O  O17  1  0.82446500  0.50000000  0.33727400  1
  O  O18  1  0.74098600  0.31177900  0.81581500  1
  O  O19  1  0.74098600  0.68822100  0.43937300  1
  O  O20  1  0.20364300  0.75790200  0.64146800  1
  O  O21  1  0.81857100  0.50000000  0.84122500  1
  O  O22  1  0.70387100  0.74152400  0.90672200  1
