# generated using pymatgen
data_AsOsS
_symmetry_space_group_name_H-M   'P 1'
_cell_length_a   5.91743338
_cell_length_b   5.95087106
_cell_length_c   5.99840817
_cell_angle_alpha   68.92219276
_cell_angle_beta   90.00000000
_cell_angle_gamma   90.00000000
_symmetry_Int_Tables_number   1
_chemical_formula_structural   AsOsS
_chemical_formula_sum   'As4 Os4 S4'
_cell_volume   197.09464264
_cell_formula_units_Z   4
loop_
 _symmetry_equiv_pos_site_id
 _symmetry_equiv_pos_as_xyz
  1  'x, y, z'
loop_
 _atom_site_type_symbol
 _atom_site_label
 _atom_site_symmetry_multiplicity
 _atom_site_fract_x
 _atom_site_fract_y
 _atom_site_fract_z
 _atom_site_occupancy
  As  As0  1  0.87274011  0.64914322  0.62614027  1
  As  As1  1  0.12725989  0.35085678  0.37385973  1
  As  As2  1  0.37274011  0.35085678  0.87385973  1
  As  As3  1  0.62725989  0.64914322  0.12614027  1
  Os  Os4  1  0.49489930  0.78307429  0.70406876  1
  Os  Os5  1  0.50510070  0.21692571  0.29593124  1
  Os  Os6  1  0.99489930  0.21692571  0.79593124  1
  Os  Os7  1  0.00510070  0.78307429  0.20406876  1
  S  S8  1  0.12709177  0.84376399  0.81456420  1
  S  S9  1  0.87290823  0.15623601  0.18543580  1
  S  S10  1  0.62709177  0.15623601  0.68543580  1
  S  S11  1  0.37290823  0.84376399  0.31456420  1
