# generated using pymatgen
data_Ca(GaAs)2
_symmetry_space_group_name_H-M   'P 1'
_cell_length_a   8.64378900
_cell_length_b   8.64378900
_cell_length_c   8.64378889
_cell_angle_alpha   26.68408615
_cell_angle_beta   26.68408615
_cell_angle_gamma   26.68408166
_symmetry_Int_Tables_number   1
_chemical_formula_structural   Ca(GaAs)2
_chemical_formula_sum   'Ca1 Ga2 As2'
_cell_volume   114.82741923
_cell_formula_units_Z   1
loop_
 _symmetry_equiv_pos_site_id
 _symmetry_equiv_pos_as_xyz
  1  'x, y, z'
loop_
 _atom_site_type_symbol
 _atom_site_label
 _atom_site_symmetry_multiplicity
 _atom_site_fract_x
 _atom_site_fract_y
 _atom_site_fract_z
 _atom_site_occupancy
  Ca  Ca0  1  0.00000000  0.00000000  0.00000000  1
  Ga  Ga1  1  0.54868983  0.54868983  0.54868983  1
  Ga  Ga2  1  0.45131017  0.45131017  0.45131017  1
  As  As3  1  0.74371968  0.74371968  0.74371968  1
  As  As4  1  0.25628032  0.25628032  0.25628032  1
