# generated using pymatgen
data_SrSnS3
_symmetry_space_group_name_H-M   'P 1'
_cell_length_a   3.89318425
_cell_length_b   8.30673434
_cell_length_c   14.20450190
_cell_angle_alpha   90.00000000
_cell_angle_beta   90.00000000
_cell_angle_gamma   90.00000000
_symmetry_Int_Tables_number   1
_chemical_formula_structural   SrSnS3
_chemical_formula_sum   'Sr4 Sn4 S12'
_cell_volume   459.36858154
_cell_formula_units_Z   4
loop_
 _symmetry_equiv_pos_site_id
 _symmetry_equiv_pos_as_xyz
  1  'x, y, z'
loop_
 _atom_site_type_symbol
 _atom_site_label
 _atom_site_symmetry_multiplicity
 _atom_site_fract_x
 _atom_site_fract_y
 _atom_site_fract_z
 _atom_site_occupancy
  Sr  Sr0  1  0.25000000  0.92144579  0.17634532  1
  Sr  Sr1  1  0.75000000  0.07855421  0.82365468  1
  Sr  Sr2  1  0.75000000  0.57855421  0.67634532  1
  Sr  Sr3  1  0.25000000  0.42144579  0.32365468  1
  Sn  Sn4  1  0.25000000  0.67215771  0.94180441  1
  Sn  Sn5  1  0.75000000  0.32784229  0.05819559  1
  Sn  Sn6  1  0.75000000  0.82784229  0.44180441  1
  Sn  Sn7  1  0.25000000  0.17215771  0.55819559  1
  S  S8  1  0.25000000  0.52721967  0.10432809  1
  S  S9  1  0.75000000  0.47278033  0.89567191  1
  S  S10  1  0.75000000  0.97278033  0.60432809  1
  S  S11  1  0.25000000  0.02721967  0.39567191  1
  S  S12  1  0.25000000  0.65270442  0.50440530  1
  S  S13  1  0.75000000  0.34729558  0.49559470  1
  S  S14  1  0.75000000  0.84729558  0.00440530  1
  S  S15  1  0.25000000  0.15270442  0.99559470  1
  S  S16  1  0.25000000  0.79807352  0.78546545  1
  S  S17  1  0.75000000  0.20192648  0.21453455  1
  S  S18  1  0.75000000  0.70192648  0.28546545  1
  S  S19  1  0.25000000  0.29807352  0.71453455  1
