# generated using pymatgen
data_K3NbSe4
_symmetry_space_group_name_H-M   'P 1'
_cell_length_a   9.69491950
_cell_length_b   9.79604561
_cell_length_c   11.16916529
_cell_angle_alpha   90.00000000
_cell_angle_beta   90.00000000
_cell_angle_gamma   90.00000000
_symmetry_Int_Tables_number   1
_chemical_formula_structural   K3NbSe4
_chemical_formula_sum   'K12 Nb4 Se16'
_cell_volume   1060.75655422
_cell_formula_units_Z   4
loop_
 _symmetry_equiv_pos_site_id
 _symmetry_equiv_pos_as_xyz
  1  'x, y, z'
loop_
 _atom_site_type_symbol
 _atom_site_label
 _atom_site_symmetry_multiplicity
 _atom_site_fract_x
 _atom_site_fract_y
 _atom_site_fract_z
 _atom_site_occupancy
  K  K0  1  0.37129248  0.58469063  0.75000000  1
  K  K1  1  0.12870752  0.08469063  0.25000000  1
  K  K2  1  0.62870752  0.41530937  0.25000000  1
  K  K3  1  0.87129248  0.91530937  0.75000000  1
  K  K4  1  0.94113378  0.70797287  0.45280496  1
  K  K5  1  0.44113378  0.79202713  0.04719504  1
  K  K6  1  0.55886622  0.20797287  0.54719504  1
  K  K7  1  0.05886622  0.29202713  0.95280496  1
  K  K8  1  0.05886622  0.29202713  0.54719504  1
  K  K9  1  0.55886622  0.20797287  0.95280496  1
  K  K10  1  0.44113378  0.79202713  0.45280496  1
  K  K11  1  0.94113378  0.70797287  0.04719504  1
  Nb  Nb12  1  0.21288707  0.51382892  0.25000000  1
  Nb  Nb13  1  0.71288707  0.98617108  0.25000000  1
  Nb  Nb14  1  0.28711293  0.01382892  0.75000000  1
  Nb  Nb15  1  0.78711293  0.48617108  0.75000000  1
  Se  Se16  1  0.33551963  0.44733842  0.42790618  1
  Se  Se17  1  0.66448037  0.55266158  0.92790618  1
  Se  Se18  1  0.83551963  0.05266158  0.07209382  1
  Se  Se19  1  0.16448037  0.94733842  0.57209382  1
  Se  Se20  1  0.01452927  0.58733788  0.75000000  1
  Se  Se21  1  0.51452927  0.91266212  0.75000000  1
  Se  Se22  1  0.48547073  0.08733788  0.25000000  1
  Se  Se23  1  0.98547073  0.41266212  0.25000000  1
  Se  Se24  1  0.81058141  0.24138652  0.75000000  1
  Se  Se25  1  0.31058141  0.25861348  0.75000000  1
  Se  Se26  1  0.68941859  0.74138652  0.25000000  1
  Se  Se27  1  0.18941859  0.75861348  0.25000000  1
  Se  Se28  1  0.66448037  0.55266158  0.57209382  1
  Se  Se29  1  0.16448037  0.94733842  0.92790618  1
  Se  Se30  1  0.83551963  0.05266158  0.42790618  1
  Se  Se31  1  0.33551963  0.44733842  0.07209382  1
