# generated using pymatgen
data_Na9Sc(MoO4)6
_symmetry_space_group_name_H-M   'P 1'
_cell_length_a   10.94931682
_cell_length_b   10.94931681
_cell_length_c   10.94931688
_cell_angle_alpha   88.46367630
_cell_angle_beta   88.46367630
_cell_angle_gamma   88.46367575
_symmetry_Int_Tables_number   1
_chemical_formula_structural   Na9Sc(MoO4)6
_chemical_formula_sum   'Na18 Sc2 Mo12 O48'
_cell_volume   1311.29584752
_cell_formula_units_Z   2
loop_
 _symmetry_equiv_pos_site_id
 _symmetry_equiv_pos_as_xyz
  1  'x, y, z'
loop_
 _atom_site_type_symbol
 _atom_site_label
 _atom_site_symmetry_multiplicity
 _atom_site_fract_x
 _atom_site_fract_y
 _atom_site_fract_z
 _atom_site_occupancy
  Na  Na0  1  0.52412107  0.97106270  0.74094455  1
  Na  Na1  1  0.97106270  0.74094455  0.52412107  1
  Na  Na2  1  0.74094455  0.52412107  0.97106270  1
  Na  Na3  1  0.47587893  0.02893730  0.25905545  1
  Na  Na4  1  0.02893730  0.25905545  0.47587893  1
  Na  Na5  1  0.25905545  0.47587893  0.02893730  1
  Na  Na6  1  0.73435262  0.17878658  0.93767333  1
  Na  Na7  1  0.17878658  0.93767333  0.73435262  1
  Na  Na8  1  0.93767333  0.73435262  0.17878658  1
  Na  Na9  1  0.26564738  0.82121342  0.06232667  1
  Na  Na10  1  0.82121342  0.06232667  0.26564738  1
  Na  Na11  1  0.06232667  0.26564738  0.82121342  1
  Na  Na12  1  0.32572224  0.79351061  0.53295816  1
  Na  Na13  1  0.79351061  0.53295816  0.32572224  1
  Na  Na14  1  0.53295816  0.32572224  0.79351061  1
  Na  Na15  1  0.67427776  0.20648939  0.46704184  1
  Na  Na16  1  0.20648939  0.46704184  0.67427776  1
  Na  Na17  1  0.46704184  0.67427776  0.20648939  1
  Sc  Sc18  1  0.74460347  0.74460347  0.74460347  1
  Sc  Sc19  1  0.25539653  0.25539653  0.25539653  1
  Mo  Mo20  1  0.63687842  0.83181895  0.44602385  1
  Mo  Mo21  1  0.83181895  0.44602385  0.63687842  1
  Mo  Mo22  1  0.44602385  0.63687842  0.83181895  1
  Mo  Mo23  1  0.36312158  0.16818105  0.55397615  1
  Mo  Mo24  1  0.16818105  0.55397615  0.36312158  1
  Mo  Mo25  1  0.55397615  0.36312158  0.16818105  1
  Mo  Mo26  1  0.34197386  0.12334927  0.96000729  1
  Mo  Mo27  1  0.12334927  0.96000729  0.34197386  1
  Mo  Mo28  1  0.96000729  0.34197386  0.12334927  1
  Mo  Mo29  1  0.65802614  0.87665073  0.03999271  1
  Mo  Mo30  1  0.87665073  0.03999271  0.65802614  1
  Mo  Mo31  1  0.03999271  0.65802614  0.87665073  1
  O  O32  1  0.76447291  0.74375679  0.39088105  1
  O  O33  1  0.74375679  0.39088105  0.76447291  1
  O  O34  1  0.39088105  0.76447291  0.74375679  1
  O  O35  1  0.23552709  0.25624321  0.60911895  1
  O  O36  1  0.25624321  0.60911895  0.23552709  1
  O  O37  1  0.60911895  0.23552709  0.25624321  1
  O  O38  1  0.49767159  0.77778259  0.38838280  1
  O  O39  1  0.77778259  0.38838280  0.49767159  1
  O  O40  1  0.38838280  0.49767159  0.77778259  1
  O  O41  1  0.50232841  0.22221741  0.61161720  1
  O  O42  1  0.22221741  0.61161720  0.50232841  1
  O  O43  1  0.61161720  0.50232841  0.22221741  1
  O  O44  1  0.64969643  0.98956477  0.39760937  1
  O  O45  1  0.98956477  0.39760937  0.64969643  1
  O  O46  1  0.39760937  0.64969643  0.98956477  1
  O  O47  1  0.35030357  0.01043523  0.60239063  1
  O  O48  1  0.01043523  0.60239063  0.35030357  1
  O  O49  1  0.60239063  0.35030357  0.01043523  1
  O  O50  1  0.62359961  0.81932803  0.61309569  1
  O  O51  1  0.81932803  0.61309569  0.62359961  1
  O  O52  1  0.61309569  0.62359961  0.81932803  1
  O  O53  1  0.37640039  0.18067197  0.38690431  1
  O  O54  1  0.18067197  0.38690431  0.37640039  1
  O  O55  1  0.38690431  0.37640039  0.18067197  1
  O  O56  1  0.26771600  0.25438411  0.89393403  1
  O  O57  1  0.25438411  0.89393403  0.26771600  1
  O  O58  1  0.89393403  0.26771600  0.25438411  1
  O  O59  1  0.73228400  0.74561589  0.10606597  1
  O  O60  1  0.74561589  0.10606597  0.73228400  1
  O  O61  1  0.10606597  0.73228400  0.74561589  1
  O  O62  1  0.26489724  0.98927135  0.91929456  1
  O  O63  1  0.98927135  0.91929456  0.26489724  1
  O  O64  1  0.91929456  0.26489724  0.98927135  1
  O  O65  1  0.73510276  0.01072865  0.08070544  1
  O  O66  1  0.01072865  0.08070544  0.73510276  1
  O  O67  1  0.08070544  0.73510276  0.01072865  1
  O  O68  1  0.49628046  0.11729624  0.90003781  1
  O  O69  1  0.11729624  0.90003781  0.49628046  1
  O  O70  1  0.90003781  0.49628046  0.11729624  1
  O  O71  1  0.50371954  0.88270376  0.09996219  1
  O  O72  1  0.88270376  0.09996219  0.50371954  1
  O  O73  1  0.09996219  0.50371954  0.88270376  1
  O  O74  1  0.33582118  0.13511812  0.12760526  1
  O  O75  1  0.13511812  0.12760526  0.33582118  1
  O  O76  1  0.12760526  0.33582118  0.13511812  1
  O  O77  1  0.66417882  0.86488188  0.87239474  1
  O  O78  1  0.86488188  0.87239474  0.66417882  1
  O  O79  1  0.87239474  0.66417882  0.86488188  1
