# generated using pymatgen
data_KNaMoWO5
_symmetry_space_group_name_H-M   'P 1'
_cell_length_a   11.56671165
_cell_length_b   11.70885738
_cell_length_c   17.55269884
_cell_angle_alpha   109.21662107
_cell_angle_beta   109.05013500
_cell_angle_gamma   89.98487476
_symmetry_Int_Tables_number   1
_chemical_formula_structural   KNaMoWO5
_chemical_formula_sum   'K16 Na16 Mo16 W16 O80'
_cell_volume   2106.47097638
_cell_formula_units_Z   16
loop_
 _symmetry_equiv_pos_site_id
 _symmetry_equiv_pos_as_xyz
  1  'x, y, z'
loop_
 _atom_site_type_symbol
 _atom_site_label
 _atom_site_symmetry_multiplicity
 _atom_site_fract_x
 _atom_site_fract_y
 _atom_site_fract_z
 _atom_site_occupancy
  K  K0  1  0.30505652  0.06615702  0.10826108  1
  K  K1  1  0.30165557  0.55951158  0.10603272  1
  K  K2  1  0.80532441  0.06130002  0.10973752  1
  K  K3  1  0.80362576  0.56036830  0.10772999  1
  K  K4  1  0.20250912  0.93574915  0.39396002  1
  K  K5  1  0.19232851  0.92956824  0.88254314  1
  K  K6  1  0.70369300  0.43838666  0.39740535  1
  K  K7  1  0.69234491  0.42911605  0.88471945  1
  K  K8  1  0.70221127  0.93497498  0.39482742  1
  K  K9  1  0.05840821  0.29423635  0.10981218  1
  K  K10  1  0.05271055  0.79172061  0.10505620  1
  K  K11  1  0.55380292  0.29149954  0.10783108  1
  K  K12  1  0.55299256  0.79455782  0.10468991  1
  K  K13  1  0.45324981  0.71330502  0.39601130  1
  K  K14  1  0.44006232  0.70567568  0.88262175  1
  K  K15  1  0.94124549  0.70337233  0.88192827  1
  Na  Na16  1  0.29866690  0.07019847  0.60380679  1
  Na  Na17  1  0.30054782  0.56308373  0.60025177  1
  Na  Na18  1  0.80276115  0.06630500  0.60340505  1
  Na  Na19  1  0.79732738  0.56772607  0.60135596  1
  Na  Na20  1  0.20294838  0.43954175  0.40627108  1
  Na  Na21  1  0.19780289  0.43502376  0.89709139  1
  Na  Na22  1  0.69592436  0.93412364  0.89517407  1
  Na  Na23  1  0.05116691  0.28276514  0.60371699  1
  Na  Na24  1  0.04948764  0.78708821  0.60024183  1
  Na  Na25  1  0.54976130  0.28563292  0.60226611  1
  Na  Na26  1  0.55229461  0.78584091  0.60205757  1
  Na  Na27  1  0.45577239  0.21632363  0.40842098  1
  Na  Na28  1  0.44776862  0.21038974  0.89669499  1
  Na  Na29  1  0.95310460  0.21883688  0.40648021  1
  Na  Na30  1  0.94620678  0.21122446  0.89594182  1
  Na  Na31  1  0.95006107  0.71757206  0.40376431  1
  Mo  Mo32  1  0.00581677  0.99848670  0.99619820  1
  Mo  Mo33  1  0.01594511  0.00194306  0.50397004  1
  Mo  Mo34  1  0.00224072  0.49517519  0.99445568  1
  Mo  Mo35  1  0.01509738  0.50255741  0.50222108  1
  Mo  Mo36  1  0.50371115  0.99789311  0.99400019  1
  Mo  Mo37  1  0.51453645  0.00609754  0.50609936  1
  Mo  Mo38  1  0.50458104  0.49558761  0.99506022  1
  Mo  Mo39  1  0.51593773  0.50170023  0.50674887  1
  Mo  Mo40  1  0.25493186  0.24941592  0.99609641  1
  Mo  Mo41  1  0.26470056  0.25478731  0.50605231  1
  Mo  Mo42  1  0.25236100  0.74403959  0.99225471  1
  Mo  Mo43  1  0.26423859  0.74935906  0.50311228  1
  Mo  Mo44  1  0.75564406  0.24358013  0.99361428  1
  Mo  Mo45  1  0.76855107  0.25182403  0.50619206  1
  Mo  Mo46  1  0.75269568  0.74755420  0.99351343  1
  Mo  Mo47  1  0.76473271  0.75272437  0.50568478  1
  W  W48  1  0.09971307  0.10967732  0.25935112  1
  W  W49  1  0.08904277  0.09938757  0.74833918  1
  W  W50  1  0.09644471  0.59421256  0.25631982  1
  W  W51  1  0.08845211  0.58344630  0.73834864  1
  W  W52  1  0.59747555  0.10237140  0.25713943  1
  W  W53  1  0.58616203  0.09008286  0.74678379  1
  W  W54  1  0.59833619  0.59310458  0.24999246  1
  W  W55  1  0.58818293  0.58953998  0.74286934  1
  W  W56  1  0.34745146  0.40332747  0.25990512  1
  W  W57  1  0.33721512  0.39925694  0.74864017  1
  W  W58  1  0.34875101  0.91136839  0.24894477  1
  W  W59  1  0.33749711  0.90646867  0.73933332  1
  W  W60  1  0.85585252  0.40368272  0.25260333  1
  W  W61  1  0.84228252  0.39814649  0.74352686  1
  W  W62  1  0.85283623  0.90771307  0.25126792  1
  W  W63  1  0.83536869  0.91016533  0.74619242  1
  O  O64  1  0.13075304  0.12522118  0.49088856  1
  O  O65  1  0.12350255  0.12235015  0.98603693  1
  O  O66  1  0.12856135  0.61624686  0.48374294  1
  O  O67  1  0.12248433  0.61309698  0.98297027  1
  O  O68  1  0.63354946  0.12611254  0.49550033  1
  O  O69  1  0.62378278  0.11593273  0.98219491  1
  O  O70  1  0.63200725  0.62268745  0.49371907  1
  O  O71  1  0.62239228  0.61803342  0.98490772  1
  O  O72  1  0.13098023  0.37637673  0.00245830  1
  O  O73  1  0.14778157  0.38793088  0.52197484  1
  O  O74  1  0.13312311  0.87461683  0.00408816  1
  O  O75  1  0.14520668  0.87991628  0.51806594  1
  O  O76  1  0.63248033  0.37282539  0.00408272  1
  O  O77  1  0.64750382  0.38426306  0.52269645  1
  O  O78  1  0.63299675  0.87689986  0.00237063  1
  O  O79  1  0.64801748  0.88713939  0.52410747  1
  O  O80  1  0.38237693  0.12374958  0.48968736  1
  O  O81  1  0.37428455  0.11918452  0.98306328  1
  O  O82  1  0.38118515  0.61735013  0.49350422  1
  O  O83  1  0.37089473  0.61302685  0.98375652  1
  O  O84  1  0.88416184  0.12021174  0.48907159  1
  O  O85  1  0.87464549  0.11568127  0.98377640  1
  O  O86  1  0.88438992  0.62259081  0.49238319  1
  O  O87  1  0.87210866  0.61598825  0.98506952  1
  O  O88  1  0.38215012  0.37682181  0.00256167  1
  O  O89  1  0.39703083  0.38618739  0.52112821  1
  O  O90  1  0.38116979  0.87706883  0.00366121  1
  O  O91  1  0.39818827  0.89068951  0.52503659  1
  O  O92  1  0.88463520  0.37561461  0.00528812  1
  O  O93  1  0.89910305  0.38565112  0.52079741  1
  O  O94  1  0.88010310  0.87764338  0.00293478  1
  O  O95  1  0.89722851  0.88560212  0.52058093  1
  O  O96  1  0.07366369  0.08081315  0.13696872  1
  O  O97  1  0.09244798  0.10461983  0.63849432  1
  O  O98  1  0.07005449  0.58423989  0.14002823  1
  O  O99  1  0.09251752  0.61284646  0.63854002  1
  O  O100  1  0.57134244  0.07937896  0.13556588  1
  O  O101  1  0.58695670  0.11030057  0.64186534  1
  O  O102  1  0.57434504  0.58808606  0.13437535  1
  O  O103  1  0.59540807  0.61171631  0.63972201  1
  O  O104  1  0.44769076  0.39170002  0.36784908  1
  O  O105  1  0.43972010  0.39381954  0.85793725  1
  O  O106  1  0.44949204  0.91745447  0.36516419  1
  O  O107  1  0.44222830  0.91536440  0.85496519  1
  O  O108  1  0.95523698  0.39504582  0.36512126  1
  O  O109  1  0.93568761  0.39766516  0.85681904  1
  O  O110  1  0.94863788  0.90005757  0.36501970  1
  O  O111  1  0.94412840  0.91396748  0.85858310  1
  O  O112  1  0.32540060  0.30891423  0.13868086  1
  O  O113  1  0.33930676  0.28234750  0.63978707  1
  O  O114  1  0.32572650  0.79742136  0.13791604  1
  O  O115  1  0.33768871  0.77570393  0.63916375  1
  O  O116  1  0.83050823  0.29572674  0.13705252  1
  O  O117  1  0.85196346  0.27648428  0.63963965  1
  O  O118  1  0.82832770  0.79794777  0.13772211  1
  O  O119  1  0.83777084  0.78515200  0.64232737  1
  O  O120  1  0.20148915  0.22646863  0.36736605  1
  O  O121  1  0.18947458  0.21278234  0.85804838  1
  O  O122  1  0.20841002  0.70509882  0.36678584  1
  O  O123  1  0.18742301  0.69100331  0.85481983  1
  O  O124  1  0.70560930  0.20968676  0.36788477  1
  O  O125  1  0.70256767  0.19561785  0.85674538  1
  O  O126  1  0.69999572  0.70107849  0.36649003  1
  O  O127  1  0.68228068  0.70641231  0.85556805  1
  O  O128  1  0.44280462  0.07926914  0.27301232  1
  O  O129  1  0.41916248  0.07008791  0.75074359  1
  O  O130  1  0.43897758  0.54602984  0.25040280  1
  O  O131  1  0.41859944  0.54014257  0.73066040  1
  O  O132  1  0.94695517  0.07430676  0.27550084  1
  O  O133  1  0.92345149  0.06586421  0.75026623  1
  O  O134  1  0.93883313  0.57011637  0.26973561  1
  O  O135  1  0.91793308  0.54284417  0.72792180  1
  O  O136  1  0.19140938  0.44937186  0.27294180  1
  O  O137  1  0.17190042  0.43196811  0.75174741  1
  O  O138  1  0.18686563  0.95531906  0.24715315  1
  O  O139  1  0.16706913  0.93921194  0.72877383  1
  O  O140  1  0.69561506  0.44981614  0.25375773  1
  O  O141  1  0.67264154  0.43440595  0.73210267  1
  O  O142  1  0.69096653  0.95356501  0.24818434  1
  O  O143  1  0.66692564  0.93419446  0.74703292  1
