# generated using pymatgen
data_KPt2Se3
_symmetry_space_group_name_H-M   'P 1'
_cell_length_a   7.78727467
_cell_length_b   7.78727469
_cell_length_c   7.78727391
_cell_angle_alpha   56.97064746
_cell_angle_beta   56.97064982
_cell_angle_gamma   56.97064863
_symmetry_Int_Tables_number   1
_chemical_formula_structural   KPt2Se3
_chemical_formula_sum   'K2 Pt4 Se6'
_cell_volume   310.59163349
_cell_formula_units_Z   2
loop_
 _symmetry_equiv_pos_site_id
 _symmetry_equiv_pos_as_xyz
  1  'x, y, z'
loop_
 _atom_site_type_symbol
 _atom_site_label
 _atom_site_symmetry_multiplicity
 _atom_site_fract_x
 _atom_site_fract_y
 _atom_site_fract_z
 _atom_site_occupancy
  K  K0  1  0.20044289  0.20044289  0.20044289  1
  K  K1  1  0.79955711  0.79955711  0.79955711  1
  Pt  Pt2  1  -0.00000000  -0.00000000  0.00000000  1
  Pt  Pt3  1  0.50000000  -0.00000000  0.50000000  1
  Pt  Pt4  1  -0.00000000  0.50000000  0.50000000  1
  Pt  Pt5  1  0.50000000  0.50000000  0.00000000  1
  Se  Se6  1  0.76546879  0.76546879  0.27716271  1
  Se  Se7  1  0.23453121  0.72283729  0.23453121  1
  Se  Se8  1  0.76546879  0.27716271  0.76546879  1
  Se  Se9  1  0.27716271  0.76546879  0.76546879  1
  Se  Se10  1  0.23453121  0.23453121  0.72283729  1
  Se  Se11  1  0.72283729  0.23453121  0.23453121  1
