# generated using pymatgen
data_KGdF4
_symmetry_space_group_name_H-M   'P 1'
_cell_length_a   3.64344346
_cell_length_b   6.13430024
_cell_length_c   15.38148563
_cell_angle_alpha   90.00000000
_cell_angle_beta   90.00000000
_cell_angle_gamma   90.00000000
_symmetry_Int_Tables_number   1
_chemical_formula_structural   KGdF4
_chemical_formula_sum   'K4 Gd4 F16'
_cell_volume   343.77583608
_cell_formula_units_Z   4
loop_
 _symmetry_equiv_pos_site_id
 _symmetry_equiv_pos_as_xyz
  1  'x, y, z'
loop_
 _atom_site_type_symbol
 _atom_site_label
 _atom_site_symmetry_multiplicity
 _atom_site_fract_x
 _atom_site_fract_y
 _atom_site_fract_z
 _atom_site_occupancy
  K  K0  1  0.75000000  0.77586332  0.79819064  1
  K  K1  1  0.25000000  0.22413668  0.20180936  1
  K  K2  1  0.25000000  0.72413668  0.29819064  1
  K  K3  1  0.75000000  0.27586332  0.70180936  1
  Gd  Gd4  1  0.75000000  0.24890560  0.44011530  1
  Gd  Gd5  1  0.25000000  0.75109440  0.55988470  1
  Gd  Gd6  1  0.25000000  0.25109440  0.94011530  1
  Gd  Gd7  1  0.75000000  0.74890560  0.05988470  1
  F  F8  1  0.75000000  0.89406113  0.63301551  1
  F  F9  1  0.25000000  0.10593887  0.36698449  1
  F  F10  1  0.25000000  0.60593887  0.13301551  1
  F  F11  1  0.75000000  0.39406113  0.86698449  1
  F  F12  1  0.75000000  0.86441433  0.46316478  1
  F  F13  1  0.25000000  0.13558567  0.53683522  1
  F  F14  1  0.25000000  0.63558567  0.96316478  1
  F  F15  1  0.75000000  0.36441433  0.03683522  1
  F  F16  1  0.75000000  0.99568211  0.94223071  1
  F  F17  1  0.25000000  0.00431789  0.05776929  1
  F  F18  1  0.25000000  0.50431789  0.44223071  1
  F  F19  1  0.75000000  0.49568211  0.55776929  1
  F  F20  1  0.75000000  0.90924007  0.19116695  1
  F  F21  1  0.25000000  0.09075993  0.80883305  1
  F  F22  1  0.25000000  0.59075993  0.69116695  1
  F  F23  1  0.75000000  0.40924007  0.30883305  1
