# generated using pymatgen
data_V2Cd(PO5)2
_symmetry_space_group_name_H-M   'P 1'
_cell_length_a   5.17076400
_cell_length_b   7.95844000
_cell_length_c   17.20972482
_cell_angle_alpha   90.00000000
_cell_angle_beta   92.75674520
_cell_angle_gamma   90.00000000
_symmetry_Int_Tables_number   1
_chemical_formula_structural   V2Cd(PO5)2
_chemical_formula_sum   'V8 Cd4 P8 O40'
_cell_volume   707.38150839
_cell_formula_units_Z   4
loop_
 _symmetry_equiv_pos_site_id
 _symmetry_equiv_pos_as_xyz
  1  'x, y, z'
loop_
 _atom_site_type_symbol
 _atom_site_label
 _atom_site_symmetry_multiplicity
 _atom_site_fract_x
 _atom_site_fract_y
 _atom_site_fract_z
 _atom_site_occupancy
  V  V0  1  0.46003851  0.46579707  0.85197862  1
  V  V1  1  0.53996049  0.96579707  0.64802038  1
  V  V2  1  0.15721554  0.87493193  0.06857554  1
  V  V3  1  0.46004051  0.03420193  0.35197962  1
  V  V4  1  0.15721454  0.62506707  0.56857454  1
  V  V5  1  0.84278546  0.12506807  0.93142446  1
  V  V6  1  0.84278546  0.37493193  0.43142446  1
  V  V7  1  0.53996049  0.53420193  0.14802038  1
  Cd  Cd8  1  0.09272254  0.27749380  0.68361327  1
  Cd  Cd9  1  0.90727746  0.77749280  0.81638573  1
  Cd  Cd10  1  0.90727746  0.72250720  0.31638673  1
  Cd  Cd11  1  0.09272254  0.22250620  0.18361327  1
  P  P12  1  0.33652773  0.06302584  0.81537869  1
  P  P13  1  0.66347227  0.56302584  0.68462131  1
  P  P14  1  0.66347127  0.93697516  0.18462131  1
  P  P15  1  0.33652773  0.43697516  0.31537869  1
  P  P16  1  0.35970812  0.23242316  0.51571876  1
  P  P17  1  0.64029188  0.73242316  0.98428124  1
  P  P18  1  0.64029088  0.76757684  0.48428224  1
  P  P19  1  0.35971012  0.26757684  0.01571776  1
  O  O20  1  0.32608285  0.39286523  0.94974178  1
  O  O21  1  0.67391715  0.89286523  0.55025822  1
  O  O22  1  0.67391915  0.60713477  0.05025822  1
  O  O23  1  0.32608185  0.10713477  0.44974178  1
  O  O24  1  0.67332169  0.64372967  0.90498614  1
  O  O25  1  0.32667831  0.14372967  0.59501386  1
  O  O26  1  0.32667731  0.35627033  0.09501386  1
  O  O27  1  0.67332169  0.85627033  0.40498614  1
  O  O28  1  0.69920114  0.47910251  0.76412459  1
  O  O29  1  0.30079886  0.97910251  0.73587541  1
  O  O30  1  0.30079786  0.52089849  0.23587641  1
  O  O31  1  0.69920114  0.02089749  0.26412459  1
  O  O32  1  0.32543294  0.25450514  0.80031208  1
  O  O33  1  0.67456706  0.75450514  0.69968792  1
  O  O34  1  0.41198432  0.50764975  0.64212703  1
  O  O35  1  0.32543194  0.24549486  0.30031108  1
  O  O36  1  0.23261982  0.59299048  0.81667438  1
  O  O37  1  0.76738018  0.09299048  0.68332462  1
  O  O38  1  0.76738018  0.40701052  0.18332462  1
  O  O39  1  0.23261982  0.90701052  0.31667538  1
  O  O40  1  0.20605221  0.69356759  0.11041747  1
  O  O41  1  0.79394679  0.19356759  0.38958253  1
  O  O42  1  0.79394679  0.30643241  0.88958353  1
  O  O43  1  0.20605321  0.80643241  0.61041747  1
  O  O44  1  0.86359981  0.86362989  0.98857246  1
  O  O45  1  0.13639919  0.36362989  0.51142754  1
  O  O46  1  0.13639919  0.13636911  0.01142754  1
  O  O47  1  0.86359981  0.63636911  0.48857246  1
  O  O48  1  0.90261337  0.98760686  0.13966475  1
  O  O49  1  0.09738763  0.48760686  0.36033525  1
  O  O50  1  0.09738663  0.01239214  0.86033525  1
  O  O51  1  0.90261337  0.51239214  0.63966375  1
  O  O52  1  0.38227580  0.82264786  0.98441168  1
  O  O53  1  0.61772520  0.32264686  0.51558832  1
  O  O54  1  0.61772520  0.17735314  0.01558832  1
  O  O55  1  0.38227580  0.67735314  0.48441268  1
  O  O56  1  0.41198332  0.99234925  0.14212703  1
  O  O57  1  0.58801568  0.49234925  0.35787297  1
  O  O58  1  0.58801568  0.00765075  0.85787297  1
  O  O59  1  0.67456906  0.74549486  0.19968892  1
