# generated using pymatgen
data_Sr3(AlAs2)2
_symmetry_space_group_name_H-M   'P 1'
_cell_length_a   8.57156430
_cell_length_b   8.57156430
_cell_length_c   6.84447362
_cell_angle_alpha   89.55883983
_cell_angle_beta   89.55883983
_cell_angle_gamma   75.30685915
_symmetry_Int_Tables_number   1
_chemical_formula_structural   Sr3(AlAs2)2
_chemical_formula_sum   'Sr6 Al4 As8'
_cell_volume   486.40724632
_cell_formula_units_Z   2
loop_
 _symmetry_equiv_pos_site_id
 _symmetry_equiv_pos_as_xyz
  1  'x, y, z'
loop_
 _atom_site_type_symbol
 _atom_site_label
 _atom_site_symmetry_multiplicity
 _atom_site_fract_x
 _atom_site_fract_y
 _atom_site_fract_z
 _atom_site_occupancy
  Sr  Sr0  1  0.00700458  0.74812861  0.53828907  1
  Sr  Sr1  1  0.25187139  0.99299542  0.96171093  1
  Sr  Sr2  1  0.99299542  0.25187139  0.46171093  1
  Sr  Sr3  1  0.74812861  0.00700458  0.03828907  1
  Sr  Sr4  1  0.40183042  0.59816958  0.25000000  1
  Sr  Sr5  1  0.59816958  0.40183042  0.75000000  1
  Al  Al6  1  0.82815881  0.58165913  0.08145104  1
  Al  Al7  1  0.41834087  0.17184119  0.41854896  1
  Al  Al8  1  0.17184119  0.41834087  0.91854896  1
  Al  Al9  1  0.58165913  0.82815881  0.58145104  1
  As  As10  1  0.05894702  0.70739470  0.02439087  1
  As  As11  1  0.29260530  0.94105298  0.47560913  1
  As  As12  1  0.94105298  0.29260530  0.97560913  1
  As  As13  1  0.70739470  0.05894702  0.52439087  1
  As  As14  1  0.74102011  0.57758204  0.42512922  1
  As  As15  1  0.42241796  0.25897989  0.07487078  1
  As  As16  1  0.25897989  0.42241796  0.57487078  1
  As  As17  1  0.57758204  0.74102011  0.92512922  1
