# generated using pymatgen
data_NaVN2
_symmetry_space_group_name_H-M   'P 1'
_cell_length_a   6.57047500
_cell_length_b   11.78339065
_cell_length_c   6.80067678
_cell_angle_alpha   90.00000000
_cell_angle_beta   90.00000000
_cell_angle_gamma   26.27334560
_symmetry_Int_Tables_number   1
_chemical_formula_structural   NaVN2
_chemical_formula_sum   'Na4 V4 N8'
_cell_volume   233.06854205
_cell_formula_units_Z   4
loop_
 _symmetry_equiv_pos_site_id
 _symmetry_equiv_pos_as_xyz
  1  'x, y, z'
loop_
 _atom_site_type_symbol
 _atom_site_label
 _atom_site_symmetry_multiplicity
 _atom_site_fract_x
 _atom_site_fract_y
 _atom_site_fract_z
 _atom_site_occupancy
  Na  Na0  1  -0.00000000  0.17685069  0.57051703  1
  Na  Na1  1  0.00000000  0.82314931  0.42948297  1
  Na  Na2  1  0.00000000  0.32314931  0.07051703  1
  Na  Na3  1  -0.00000000  0.67685069  0.92948297  1
  V  V4  1  -0.00000000  0.42922043  0.64395659  1
  V  V5  1  0.00000000  0.57077957  0.35604341  1
  V  V6  1  0.00000000  0.07077957  0.14395659  1
  V  V7  1  -0.00000000  0.92922043  0.85604341  1
  N  N8  1  0.00000000  0.08203243  0.88145658  1
  N  N9  1  -0.00000000  0.91796757  0.11854342  1
  N  N10  1  -0.00000000  0.41796757  0.38145658  1
  N  N11  1  0.00000000  0.58203243  0.61854342  1
  N  N12  1  0.50000000  0.61205417  0.75000000  1
  N  N13  1  0.50000000  0.88794583  0.25000000  1
  N  N14  1  0.50000000  0.38794583  0.25000000  1
  N  N15  1  0.50000000  0.11205417  0.75000000  1
