# generated using pymatgen
data_KAsO3
_symmetry_space_group_name_H-M   'P 1'
_cell_length_a   4.59178162
_cell_length_b   5.91365648
_cell_length_c   12.93258938
_cell_angle_alpha   90.01812788
_cell_angle_beta   89.99684129
_cell_angle_gamma   90.00160279
_symmetry_Int_Tables_number   1
_chemical_formula_structural   KAsO3
_chemical_formula_sum   'K4 As4 O12'
_cell_volume   351.17434775
_cell_formula_units_Z   4
loop_
 _symmetry_equiv_pos_site_id
 _symmetry_equiv_pos_as_xyz
  1  'x, y, z'
loop_
 _atom_site_type_symbol
 _atom_site_label
 _atom_site_symmetry_multiplicity
 _atom_site_fract_x
 _atom_site_fract_y
 _atom_site_fract_z
 _atom_site_occupancy
  K  K0  1  0.78334315  0.31828943  0.64150687  1
  K  K1  1  0.21673515  0.81841873  0.85851797  1
  K  K2  1  0.71678046  0.68185406  0.14147506  1
  K  K3  1  0.28328313  0.18160995  0.35852334  1
  As  As4  1  0.33243212  0.80965798  0.57806796  1
  As  As5  1  0.66762113  0.30977608  0.92194329  1
  As  As6  1  0.16745378  0.19042534  0.07806485  1
  As  As7  1  0.83232328  0.69008857  0.42190560  1
  O  O8  1  0.26374502  0.62088766  0.66859405  1
  O  O9  1  0.73615675  0.12090275  0.83145358  1
  O  O10  1  0.23612046  0.37919253  0.16860811  1
  O  O11  1  0.76379127  0.87899536  0.33142696  1
  O  O12  1  0.27276536  0.08298144  0.59146483  1
  O  O13  1  0.72728116  0.58304645  0.90843612  1
  O  O14  1  0.22727370  0.91719995  0.09153486  1
  O  O15  1  0.77272919  0.41673302  0.40847399  1
  O  O16  1  0.20821854  0.71987045  0.45401603  1
  O  O17  1  0.79183050  0.22025349  0.04594920  1
  O  O18  1  0.29189028  0.28002987  0.95407460  1
  O  O19  1  0.70822455  0.77978990  0.54596374  1
