# generated using pymatgen
data_Cd3Co2H44Br12(N3O)4
_symmetry_space_group_name_H-M   'P 1'
_cell_length_a   8.90211596
_cell_length_b   8.82651090
_cell_length_c   12.51959554
_cell_angle_alpha   69.43285719
_cell_angle_beta   89.32279367
_cell_angle_gamma   83.14333047
_symmetry_Int_Tables_number   1
_chemical_formula_structural   Cd3Co2H44Br12(N3O)4
_chemical_formula_sum   'Cd3 Co2 H44 Br12 N12 O4'
_cell_volume   913.95372850
_cell_formula_units_Z   1
loop_
 _symmetry_equiv_pos_site_id
 _symmetry_equiv_pos_as_xyz
  1  'x, y, z'
loop_
 _atom_site_type_symbol
 _atom_site_label
 _atom_site_symmetry_multiplicity
 _atom_site_fract_x
 _atom_site_fract_y
 _atom_site_fract_z
 _atom_site_occupancy
  Cd  Cd0  1  0.88028726  0.63852892  0.33871775  1
  Cd  Cd1  1  0.11971274  0.36147108  0.66128225  1
  Cd  Cd2  1  0.50000000  0.50000000  0.50000000  1
  Co  Co3  1  0.70109024  0.82091516  0.79696052  1
  Co  Co4  1  0.29890976  0.17908484  0.20303948  1
  H  H5  1  0.79854667  0.97138839  0.60019822  1
  H  H6  1  0.20145333  0.02861161  0.39980178  1
  H  H7  1  0.87484080  0.78128615  0.64270403  1
  H  H8  1  0.12515920  0.21871385  0.35729597  1
  H  H9  1  0.69953223  0.83155020  0.59269842  1
  H  H10  1  0.30046777  0.16844980  0.40730158  1
  H  H11  1  0.49608628  0.98532983  0.64870521  1
  H  H12  1  0.50391372  0.01467017  0.35129479  1
  H  H13  1  0.41720840  0.85356109  0.75474677  1
  H  H14  1  0.58279160  0.14643891  0.24525323  1
  H  H15  1  0.46296429  0.02125871  0.76590039  1
  H  H16  1  0.53703571  0.97874129  0.23409961  1
  H  H17  1  0.92955940  0.60324032  0.85797830  1
  H  H18  1  0.07044060  0.39675968  0.14202170  1
  H  H19  1  0.98613842  0.78380573  0.81538676  1
  H  H20  1  0.01386158  0.21619427  0.18461324  1
  H  H21  1  0.92033076  0.70875415  0.94280417  1
  H  H22  1  0.07966924  0.29124585  0.05719583  1
  H  H23  1  0.86257284  0.05248371  0.75541865  1
  H  H24  1  0.13742716  0.94751629  0.24458135  1
  H  H25  1  0.68380461  0.12830633  0.74216614  1
  H  H26  1  0.31619539  0.87169367  0.25783386  1
  H  H27  1  0.76377893  0.04211176  0.86997916  1
  H  H28  1  0.23622107  0.95788824  0.13002084  1
  H  H29  1  0.69450638  0.56884715  0.74230204  1
  H  H30  1  0.30549362  0.43115285  0.25769796  1
  H  H31  1  0.68373913  0.51879807  0.88148590  1
  H  H32  1  0.31626087  0.48120193  0.11851410  1
  H  H33  1  0.53355527  0.60491169  0.79948536  1
  H  H34  1  0.46644473  0.39508831  0.20051464  1
  H  H35  1  0.51181815  0.75543206  0.95064497  1
  H  H36  1  0.48818185  0.24456794  0.04935503  1
  H  H37  1  0.67759845  0.67499739  0.01000721  1
  H  H38  1  0.32240155  0.32500261  0.98999279  1
  H  H39  1  0.62577458  0.87108959  0.98097982  1
  H  H40  1  0.37422542  0.12891041  0.01902018  1
  H  H41  1  0.82623925  0.30130379  0.39426363  1
  H  H42  1  0.17376075  0.69869621  0.60573637  1
  H  H43  1  0.25479806  0.87545348  0.95689420  1
  H  H44  1  0.74520194  0.12454652  0.04310580  1
  H  H45  1  0.18792479  0.05730529  0.92414476  1
  H  H46  1  0.81207521  0.94269471  0.07585524  1
  H  H47  1  0.83213511  0.37722858  0.26363622  1
  H  H48  1  0.16786489  0.62277142  0.73636378  1
  Br  Br49  1  0.42341501  0.33164085  0.72960034  1
  Br  Br50  1  0.57658499  0.66835915  0.27039966  1
  Br  Br51  1  0.80778583  0.49399058  0.56726480  1
  Br  Br52  1  0.19221417  0.50600942  0.43273520  1
  Br  Br53  1  0.89872672  0.93229917  0.34989353  1
  Br  Br54  1  0.10127328  0.06770083  0.65010647  1
  Br  Br55  1  0.99931639  0.70142717  0.13030647  1
  Br  Br56  1  0.00068361  0.29857283  0.86969353  1
  Br  Br57  1  0.28305894  0.63553304  0.90570645  1
  Br  Br58  1  0.71694106  0.36446696  0.09429355  1
  Br  Br59  1  0.42220405  0.78428305  0.52994662  1
  Br  Br60  1  0.57779595  0.21571695  0.47005338  1
  N  N61  1  0.77682671  0.85482328  0.64300815  1
  N  N62  1  0.22317329  0.14517672  0.35699185  1
  N  N63  1  0.49930353  0.93003004  0.73551782  1
  N  N64  1  0.50069647  0.06996996  0.26448218  1
  N  N65  1  0.90337709  0.71875519  0.85950958  1
  N  N66  1  0.09662291  0.28124481  0.14049042  1
  N  N67  1  0.75873323  0.03226845  0.79066069  1
  N  N68  1  0.24126677  0.96773155  0.20933931  1
  N  N69  1  0.64783312  0.60712422  0.80485885  1
  N  N70  1  0.35216688  0.39287578  0.19514115  1
  N  N71  1  0.62195422  0.77799083  0.95070271  1
  N  N72  1  0.37804578  0.22200917  0.04929729  1
  O  O73  1  0.88827222  0.36448507  0.33386241  1
  O  O74  1  0.11172778  0.63551493  0.66613759  1
  O  O75  1  0.27003792  0.97679174  0.96795331  1
  O  O76  1  0.72996208  0.02320826  0.03204669  1
