# generated using pymatgen
data_RbSb3Se5
_symmetry_space_group_name_H-M   'P 1'
_cell_length_a   4.08382906
_cell_length_b   12.44218135
_cell_length_c   22.07184659
_cell_angle_alpha   90.00000000
_cell_angle_beta   90.00000000
_cell_angle_gamma   90.00000000
_symmetry_Int_Tables_number   1
_chemical_formula_structural   RbSb3Se5
_chemical_formula_sum   'Rb4 Sb12 Se20'
_cell_volume   1121.50896925
_cell_formula_units_Z   4
loop_
 _symmetry_equiv_pos_site_id
 _symmetry_equiv_pos_as_xyz
  1  'x, y, z'
loop_
 _atom_site_type_symbol
 _atom_site_label
 _atom_site_symmetry_multiplicity
 _atom_site_fract_x
 _atom_site_fract_y
 _atom_site_fract_z
 _atom_site_occupancy
  Rb  Rb0  1  0.25000000  0.67266522  0.59368770  1
  Rb  Rb1  1  0.25000000  0.82733478  0.09368770  1
  Rb  Rb2  1  0.75000000  0.32733478  0.40631230  1
  Rb  Rb3  1  0.75000000  0.17266522  0.90631230  1
  Sb  Sb4  1  0.25000000  0.97113404  0.69872057  1
  Sb  Sb5  1  0.25000000  0.52886596  0.19872057  1
  Sb  Sb6  1  0.75000000  0.02886596  0.30127943  1
  Sb  Sb7  1  0.75000000  0.47113404  0.80127943  1
  Sb  Sb8  1  0.75000000  0.82520326  0.83845996  1
  Sb  Sb9  1  0.75000000  0.67479674  0.33845996  1
  Sb  Sb10  1  0.25000000  0.17479674  0.16154004  1
  Sb  Sb11  1  0.25000000  0.32520326  0.66154004  1
  Sb  Sb12  1  0.75000000  0.11571159  0.55862710  1
  Sb  Sb13  1  0.75000000  0.38428841  0.05862710  1
  Sb  Sb14  1  0.25000000  0.88428841  0.44137290  1
  Sb  Sb15  1  0.25000000  0.61571159  0.94137290  1
  Se  Se16  1  0.75000000  0.82070158  0.70429057  1
  Se  Se17  1  0.75000000  0.67929842  0.20429057  1
  Se  Se18  1  0.25000000  0.17929842  0.29570943  1
  Se  Se19  1  0.25000000  0.32070158  0.79570943  1
  Se  Se20  1  0.75000000  0.15239283  0.68028132  1
  Se  Se21  1  0.75000000  0.34760717  0.18028132  1
  Se  Se22  1  0.25000000  0.84760717  0.31971868  1
  Se  Se23  1  0.25000000  0.65239283  0.81971868  1
  Se  Se24  1  0.25000000  0.97835101  0.83791035  1
  Se  Se25  1  0.25000000  0.52164899  0.33791035  1
  Se  Se26  1  0.75000000  0.02164899  0.16208965  1
  Se  Se27  1  0.75000000  0.47835101  0.66208965  1
  Se  Se28  1  0.75000000  0.77648499  0.96215477  1
  Se  Se29  1  0.75000000  0.72351501  0.46215477  1
  Se  Se30  1  0.25000000  0.22351501  0.03784523  1
  Se  Se31  1  0.25000000  0.27648499  0.53784523  1
  Se  Se32  1  0.25000000  0.95284310  0.57604171  1
  Se  Se33  1  0.25000000  0.54715690  0.07604171  1
  Se  Se34  1  0.75000000  0.04715690  0.42395829  1
  Se  Se35  1  0.75000000  0.45284310  0.92395829  1
