# generated using pymatgen
data_Y4C7
_symmetry_space_group_name_H-M   'P 1'
_cell_length_a   3.70552300
_cell_length_b   12.60303057
_cell_length_c   13.70947855
_cell_angle_alpha   90.00000000
_cell_angle_beta   96.72964334
_cell_angle_gamma   90.00000000
_symmetry_Int_Tables_number   1
_chemical_formula_structural   Y4C7
_chemical_formula_sum   'Y16 C28'
_cell_volume   635.83270290
_cell_formula_units_Z   4
loop_
 _symmetry_equiv_pos_site_id
 _symmetry_equiv_pos_as_xyz
  1  'x, y, z'
loop_
 _atom_site_type_symbol
 _atom_site_label
 _atom_site_symmetry_multiplicity
 _atom_site_fract_x
 _atom_site_fract_y
 _atom_site_fract_z
 _atom_site_occupancy
  Y  Y0  1  0.30616256  0.51507482  0.60767002  1
  Y  Y1  1  0.80616256  0.98492518  0.10767002  1
  Y  Y2  1  0.69383744  0.48492518  0.39232998  1
  Y  Y3  1  0.19383744  0.01507482  0.89232998  1
  Y  Y4  1  0.75745728  0.53918045  0.88145212  1
  Y  Y5  1  0.25745728  0.96081955  0.38145212  1
  Y  Y6  1  0.24254272  0.46081955  0.11854788  1
  Y  Y7  1  0.74254272  0.03918045  0.61854788  1
  Y  Y8  1  0.84212770  0.30435567  0.71060442  1
  Y  Y9  1  0.34212770  0.19564433  0.21060442  1
  Y  Y10  1  0.15787230  0.69564433  0.28939558  1
  Y  Y11  1  0.65787230  0.80435567  0.78939558  1
  Y  Y12  1  0.22831321  0.26277757  0.49263838  1
  Y  Y13  1  0.72831321  0.23722243  0.99263838  1
  Y  Y14  1  0.77168679  0.73722243  0.50736162  1
  Y  Y15  1  0.27168679  0.76277757  0.00736162  1
  C  C16  1  0.65712207  0.14075985  0.82482584  1
  C  C17  1  0.15712207  0.35924015  0.32482584  1
  C  C18  1  0.34287793  0.85924015  0.17517416  1
  C  C19  1  0.84287793  0.64075985  0.67517416  1
  C  C20  1  0.19760756  0.38977407  0.95193939  1
  C  C21  1  0.69760756  0.11022593  0.45193939  1
  C  C22  1  0.80239244  0.61022593  0.04806061  1
  C  C23  1  0.30239244  0.88977407  0.54806061  1
  C  C24  1  0.36011346  0.41670824  0.77134404  1
  C  C25  1  0.86011346  0.08329276  0.27134404  1
  C  C26  1  0.63988654  0.58329276  0.22865596  1
  C  C27  1  0.13988654  0.91670724  0.72865596  1
  C  C28  1  0.27637764  0.17102911  0.65248649  1
  C  C29  1  0.77637764  0.32897089  0.15248649  1
  C  C30  1  0.72362236  0.82897089  0.34751351  1
  C  C31  1  0.22362236  0.67102911  0.84751351  1
  C  C32  1  0.27491823  0.39573376  0.86054507  1
  C  C33  1  0.77491923  0.10426624  0.36054507  1
  C  C34  1  0.72508077  0.60426624  0.13945493  1
  C  C35  1  0.22508077  0.89573376  0.63945493  1
  C  C36  1  0.43922843  0.15157887  0.74343234  1
  C  C37  1  0.93922843  0.34842113  0.24343234  1
  C  C38  1  0.56077157  0.84842113  0.25656766  1
  C  C39  1  0.06077157  0.65157887  0.75656766  1
  C  C40  1  0.24132177  0.61672427  0.44988316  1
  C  C41  1  0.74132177  0.88327573  0.94988316  1
  C  C42  1  0.75867823  0.38327573  0.55011684  1
  C  C43  1  0.25867823  0.11672427  0.05011684  1
