# generated using pymatgen
data_La4MgGa2(FeO6)2
_symmetry_space_group_name_H-M   'P 1'
_cell_length_a   6.04657288
_cell_length_b   5.69877845
_cell_length_c   8.44496211
_cell_angle_alpha   95.81050882
_cell_angle_beta   91.43645181
_cell_angle_gamma   86.06798033
_symmetry_Int_Tables_number   1
_chemical_formula_structural   La4MgGa2(FeO6)2
_chemical_formula_sum   'La4 Mg1 Ga2 Fe2 O12'
_cell_volume   288.77245232
_cell_formula_units_Z   1
loop_
 _symmetry_equiv_pos_site_id
 _symmetry_equiv_pos_as_xyz
  1  'x, y, z'
loop_
 _atom_site_type_symbol
 _atom_site_label
 _atom_site_symmetry_multiplicity
 _atom_site_fract_x
 _atom_site_fract_y
 _atom_site_fract_z
 _atom_site_occupancy
  La  La0  1  0.37587400  0.45929600  0.79776800  1
  La  La1  1  0.92188800  0.05489100  0.73041800  1
  La  La2  1  0.55797200  0.52291700  0.22727500  1
  La  La3  1  0.04725700  0.96547900  0.24377900  1
  Mg  Mg4  1  0.72482100  0.62374400  0.60517200  1
  Ga  Ga5  1  0.98256600  0.46518400  0.03814400  1
  Ga  Ga6  1  0.48325800  0.04382900  0.45751600  1
  Fe  Fe7  1  0.11635700  0.49385200  0.46383600  1
  Fe  Fe8  1  0.51407500  0.97880900  0.99901400  1
  O  O9  1  0.55785300  0.82748300  0.77151800  1
  O  O10  1  0.03039200  0.63262900  0.69241400  1
  O  O11  1  0.44874100  0.11987800  0.23731000  1
  O  O12  1  0.96431900  0.38492900  0.25599500  1
  O  O13  1  0.64156200  0.30079900  0.57885400  1
  O  O14  1  0.16254800  0.20445000  0.93615800  1
  O  O15  1  0.26103600  0.66435300  0.05394100  1
  O  O16  1  0.75534300  0.84153000  0.44161900  1
  O  O17  1  0.30973200  0.74266900  0.40443700  1
  O  O18  1  0.79845300  0.75346900  0.07715300  1
  O  O19  1  0.70112500  0.29607300  0.95407200  1
  O  O20  1  0.20435100  0.18326200  0.55027400  1
