# generated using pymatgen
data_CaFe2P2O9
_symmetry_space_group_name_H-M   'P 1'
_cell_length_a   6.40384638
_cell_length_b   7.28323190
_cell_length_c   14.29132148
_cell_angle_alpha   90.00000000
_cell_angle_beta   90.00000000
_cell_angle_gamma   90.00000000
_symmetry_Int_Tables_number   1
_chemical_formula_structural   CaFe2P2O9
_chemical_formula_sum   'Ca4 Fe8 P8 O36'
_cell_volume   666.55721256
_cell_formula_units_Z   4
loop_
 _symmetry_equiv_pos_site_id
 _symmetry_equiv_pos_as_xyz
  1  'x, y, z'
loop_
 _atom_site_type_symbol
 _atom_site_label
 _atom_site_symmetry_multiplicity
 _atom_site_fract_x
 _atom_site_fract_y
 _atom_site_fract_z
 _atom_site_occupancy
  Ca  Ca0  1  0.25000000  0.89114348  0.78190971  1
  Ca  Ca1  1  0.25000000  0.60885652  0.28190971  1
  Ca  Ca2  1  0.75000000  0.39114348  0.71809029  1
  Ca  Ca3  1  0.75000000  0.10885652  0.21809029  1
  Fe  Fe4  1  0.25000000  0.35469576  0.87983288  1
  Fe  Fe5  1  0.75000000  0.64530424  0.12016712  1
  Fe  Fe6  1  0.75000000  0.85469576  0.62016712  1
  Fe  Fe7  1  0.25000000  0.14530424  0.37983288  1
  Fe  Fe8  1  0.00000000  0.00000000  0.00000000  1
  Fe  Fe9  1  0.00000000  0.50000000  0.50000000  1
  Fe  Fe10  1  0.50000000  0.50000000  0.50000000  1
  Fe  Fe11  1  0.50000000  0.00000000  0.00000000  1
  P  P12  1  0.75000000  0.36831518  0.93017540  1
  P  P13  1  0.25000000  0.63168482  0.06982460  1
  P  P14  1  0.25000000  0.86831518  0.56982460  1
  P  P15  1  0.75000000  0.13168482  0.43017540  1
  P  P16  1  0.25000000  0.38641645  0.68925675  1
  P  P17  1  0.25000000  0.11358355  0.18925675  1
  P  P18  1  0.75000000  0.88641645  0.81074325  1
  P  P19  1  0.75000000  0.61358355  0.31074325  1
  O  O20  1  0.55342720  0.61173887  0.37260531  1
  O  O21  1  0.05342720  0.38826113  0.62739469  1
  O  O22  1  0.44657280  0.11173887  0.12739469  1
  O  O23  1  0.94657280  0.88826113  0.87260531  1
  O  O24  1  0.44657280  0.38826113  0.62739469  1
  O  O25  1  0.94657280  0.61173887  0.37260531  1
  O  O26  1  0.55342720  0.88826113  0.87260531  1
  O  O27  1  0.05342720  0.11173887  0.12739469  1
  O  O28  1  0.75000000  0.32446529  0.47691899  1
  O  O29  1  0.25000000  0.67553471  0.52308101  1
  O  O30  1  0.25000000  0.82446529  0.02308101  1
  O  O31  1  0.75000000  0.17553471  0.97691899  1
  O  O32  1  0.25000000  0.12138964  0.94192217  1
  O  O33  1  0.75000000  0.87861036  0.05807783  1
  O  O34  1  0.75000000  0.62138964  0.55807783  1
  O  O35  1  0.25000000  0.37861036  0.44192217  1
  O  O36  1  0.25000000  0.21407404  0.75159091  1
  O  O37  1  0.75000000  0.78592596  0.24840909  1
  O  O38  1  0.75000000  0.71407404  0.74840909  1
  O  O39  1  0.25000000  0.28592596  0.25159091  1
  O  O40  1  0.93920734  0.11926971  0.36496816  1
  O  O41  1  0.43920734  0.88073029  0.63503184  1
  O  O42  1  0.06079266  0.61926971  0.13503184  1
  O  O43  1  0.56079266  0.38073029  0.86496816  1
  O  O44  1  0.06079266  0.88073029  0.63503184  1
  O  O45  1  0.56079266  0.11926971  0.36496816  1
  O  O46  1  0.93920734  0.38073029  0.86496816  1
  O  O47  1  0.43920734  0.61926971  0.13503184  1
  O  O48  1  0.25000000  0.48947498  0.99390697  1
  O  O49  1  0.75000000  0.04697949  0.74056465  1
  O  O50  1  0.75000000  0.45302051  0.24056465  1
  O  O51  1  0.25000000  0.54697949  0.75943535  1
  O  O52  1  0.25000000  0.01052502  0.49390697  1
  O  O53  1  0.75000000  0.98947498  0.50609303  1
  O  O54  1  0.75000000  0.51052502  0.00609303  1
  O  O55  1  0.25000000  0.95302051  0.25943535  1
