# generated using pymatgen
data_MgHg8(NO4)4
_symmetry_space_group_name_H-M   'P 1'
_cell_length_a   6.11895243
_cell_length_b   7.16290861
_cell_length_c   12.36158937
_cell_angle_alpha   96.61364969
_cell_angle_beta   97.77569941
_cell_angle_gamma   87.45301791
_symmetry_Int_Tables_number   1
_chemical_formula_structural   MgHg8(NO4)4
_chemical_formula_sum   'Mg1 Hg8 N4 O16'
_cell_volume   533.01895207
_cell_formula_units_Z   1
loop_
 _symmetry_equiv_pos_site_id
 _symmetry_equiv_pos_as_xyz
  1  'x, y, z'
loop_
 _atom_site_type_symbol
 _atom_site_label
 _atom_site_symmetry_multiplicity
 _atom_site_fract_x
 _atom_site_fract_y
 _atom_site_fract_z
 _atom_site_occupancy
  Mg  Mg0  1  0.81106500  0.36080300  0.72870200  1
  Hg  Hg1  1  0.47123600  0.79090300  0.25124100  1
  Hg  Hg2  1  0.49699100  0.28636100  0.24288400  1
  Hg  Hg3  1  0.45933800  0.16221300  0.75558700  1
  Hg  Hg4  1  0.51267700  0.72015800  0.77122900  1
  Hg  Hg5  1  0.80331700  0.57445800  0.51684800  1
  Hg  Hg6  1  0.16181100  0.92907200  0.97798500  1
  Hg  Hg7  1  0.14621000  0.53978300  0.40948500  1
  Hg  Hg8  1  0.77947400  0.95434000  0.05139300  1
  N  N9  1  0.96304800  0.99809100  0.61933200  1
  N  N10  1  0.12462400  0.45300900  0.87650300  1
  N  N11  1  0.91032500  0.50753700  0.14619100  1
  N  N12  1  0.05931200  0.05581800  0.35617500  1
  O  O13  1  0.07129300  0.54752700  0.79219300  1
  O  O14  1  0.00618400  0.17306000  0.65380200  1
  O  O15  1  0.90443100  0.37560800  0.20792500  1
  O  O16  1  0.06727200  0.89820000  0.29561300  1
  O  O17  1  0.49891200  0.01487400  0.15620200  1
  O  O18  1  0.46328300  0.55102900  0.33828400  1
  O  O19  1  0.45736400  0.90979300  0.90251000  1
  O  O20  1  0.60542700  0.52863400  0.64689600  1
  O  O21  1  0.72936900  0.58382600  0.10636400  1
  O  O22  1  0.23667800  0.14612400  0.38636600  1
  O  O23  1  0.76591500  0.95319000  0.59091000  1
  O  O24  1  0.29841900  0.47654300  0.93774700  1
  O  O25  1  0.09268800  0.55877100  0.12636600  1
  O  O26  1  0.87889200  0.11759300  0.38563800  1
  O  O27  1  0.98365500  0.32970400  0.88749700  1
  O  O28  1  0.12174200  0.88260700  0.61650700  1
