# generated using pymatgen
data_ZnP2(H4O5)2
_symmetry_space_group_name_H-M   'P 1'
_cell_length_a   9.96137813
_cell_length_b   5.20260489
_cell_length_c   8.58645795
_cell_angle_alpha   55.55805793
_cell_angle_beta   90.00000000
_cell_angle_gamma   90.00000000
_symmetry_Int_Tables_number   1
_chemical_formula_structural   ZnP2(H4O5)2
_chemical_formula_sum   'Zn2 P4 H16 O20'
_cell_volume   366.98655856
_cell_formula_units_Z   2
loop_
 _symmetry_equiv_pos_site_id
 _symmetry_equiv_pos_as_xyz
  1  'x, y, z'
loop_
 _atom_site_type_symbol
 _atom_site_label
 _atom_site_symmetry_multiplicity
 _atom_site_fract_x
 _atom_site_fract_y
 _atom_site_fract_z
 _atom_site_occupancy
  Zn  Zn0  1  -0.00000000  -0.00000000  -0.00000000  1
  Zn  Zn1  1  0.50000000  -0.00000000  0.50000000  1
  P  P2  1  0.21656107  0.90678409  0.33668458  1
  P  P3  1  0.28343893  0.90678409  0.83668458  1
  P  P4  1  0.78343893  0.09321591  0.66331542  1
  P  P5  1  0.71656107  0.09321591  0.16331542  1
  H  H6  1  0.07457135  0.59851938  0.83306036  1
  H  H7  1  0.42542865  0.59851938  0.33306036  1
  H  H8  1  0.92542865  0.40148062  0.16693964  1
  H  H9  1  0.57457135  0.40148062  0.66693964  1
  H  H10  1  0.94890414  0.58294434  0.73002758  1
  H  H11  1  0.55109586  0.58294434  0.23002758  1
  H  H12  1  0.05109586  0.41705566  0.26997242  1
  H  H13  1  0.44890414  0.41705566  0.76997242  1
  H  H14  1  0.10792751  0.54689316  0.60016720  1
  H  H15  1  0.39207249  0.54689316  0.10016720  1
  H  H16  1  0.89207249  0.45310684  0.39983280  1
  H  H17  1  0.60792751  0.45310684  0.89983280  1
  H  H18  1  0.22562351  0.12927654  0.48683541  1
  H  H19  1  0.27437649  0.12927654  0.98683541  1
  H  H20  1  0.77437649  0.87072346  0.51316459  1
  H  H21  1  0.72562351  0.87072346  0.01316459  1
  O  O22  1  0.16837015  0.01872248  0.14100302  1
  O  O23  1  0.33162985  0.01872248  0.64100302  1
  O  O24  1  0.83162985  0.98127752  0.85899698  1
  O  O25  1  0.66837015  0.98127752  0.35899698  1
  O  O26  1  0.36723351  0.86491102  0.36176423  1
  O  O27  1  0.13276649  0.86491102  0.86176423  1
  O  O28  1  0.63276649  0.13508898  0.63823577  1
  O  O29  1  0.86723351  0.13508898  0.13823577  1
  O  O30  1  0.14241725  0.59429572  0.47701892  1
  O  O31  1  0.35758275  0.59429572  0.97701892  1
  O  O32  1  0.85758275  0.40570428  0.52298108  1
  O  O33  1  0.64241725  0.40570428  0.02298108  1
  O  O34  1  0.17180128  0.15191127  0.37883480  1
  O  O35  1  0.32819872  0.15191127  0.87883480  1
  O  O36  1  0.82819872  0.84808873  0.62116520  1
  O  O37  1  0.67180128  0.84808873  0.12116520  1
  O  O38  1  0.03390303  0.47203232  0.79040004  1
  O  O39  1  0.46609697  0.47203232  0.29040004  1
  O  O40  1  0.96609697  0.52796768  0.20959996  1
  O  O41  1  0.53390303  0.52796768  0.70959996  1
