# generated using pymatgen
data_Cs2HgCl4
_symmetry_space_group_name_H-M   'P 1'
_cell_length_a   7.57339496
_cell_length_b   9.94793797
_cell_length_c   13.67243556
_cell_angle_alpha   90.00000000
_cell_angle_beta   90.00000000
_cell_angle_gamma   90.00000000
_symmetry_Int_Tables_number   1
_chemical_formula_structural   Cs2HgCl4
_chemical_formula_sum   'Cs8 Hg4 Cl16'
_cell_volume   1030.07669137
_cell_formula_units_Z   4
loop_
 _symmetry_equiv_pos_site_id
 _symmetry_equiv_pos_as_xyz
  1  'x, y, z'
loop_
 _atom_site_type_symbol
 _atom_site_label
 _atom_site_symmetry_multiplicity
 _atom_site_fract_x
 _atom_site_fract_y
 _atom_site_fract_z
 _atom_site_occupancy
  Cs  Cs0  1  0.25000000  0.61487774  0.42522736  1
  Cs  Cs1  1  0.25000000  0.11487774  0.07477264  1
  Cs  Cs2  1  0.75000000  0.38512226  0.57477264  1
  Cs  Cs3  1  0.75000000  0.88512226  0.92522736  1
  Cs  Cs4  1  0.25000000  0.98433916  0.67731876  1
  Cs  Cs5  1  0.25000000  0.48433916  0.82268124  1
  Cs  Cs6  1  0.75000000  0.01566084  0.32268124  1
  Cs  Cs7  1  0.75000000  0.51566084  0.17731876  1
  Hg  Hg8  1  0.25000000  0.21186091  0.42442960  1
  Hg  Hg9  1  0.25000000  0.71186091  0.07557040  1
  Hg  Hg10  1  0.75000000  0.78813909  0.57557040  1
  Hg  Hg11  1  0.75000000  0.28813909  0.92442960  1
  Cl  Cl12  1  0.25000000  0.96457629  0.41435778  1
  Cl  Cl13  1  0.25000000  0.46457629  0.08564222  1
  Cl  Cl14  1  0.75000000  0.03542371  0.58564222  1
  Cl  Cl15  1  0.75000000  0.53542371  0.91435778  1
  Cl  Cl16  1  0.25000000  0.32120056  0.59307727  1
  Cl  Cl17  1  0.25000000  0.82120056  0.90692273  1
  Cl  Cl18  1  0.75000000  0.67879944  0.40692273  1
  Cl  Cl19  1  0.75000000  0.17879944  0.09307727  1
  Cl  Cl20  1  0.98611135  0.32458442  0.34805744  1
  Cl  Cl21  1  0.51388865  0.82458442  0.15194256  1
  Cl  Cl22  1  0.48611135  0.67541558  0.65194256  1
  Cl  Cl23  1  0.01388865  0.17541558  0.84805744  1
  Cl  Cl24  1  0.01388865  0.67541558  0.65194256  1
  Cl  Cl25  1  0.48611135  0.17541558  0.84805744  1
  Cl  Cl26  1  0.51388865  0.32458442  0.34805744  1
  Cl  Cl27  1  0.98611135  0.82458442  0.15194256  1
