# generated using pymatgen
data_K2Cd3Se4
_symmetry_space_group_name_H-M   'P 1'
_cell_length_a   6.90899886
_cell_length_b   10.70660542
_cell_length_c   14.40546863
_cell_angle_alpha   90.00000000
_cell_angle_beta   90.00000000
_cell_angle_gamma   90.00000000
_symmetry_Int_Tables_number   1
_chemical_formula_structural   K2Cd3Se4
_chemical_formula_sum   'K8 Cd12 Se16'
_cell_volume   1065.60023992
_cell_formula_units_Z   4
loop_
 _symmetry_equiv_pos_site_id
 _symmetry_equiv_pos_as_xyz
  1  'x, y, z'
loop_
 _atom_site_type_symbol
 _atom_site_label
 _atom_site_symmetry_multiplicity
 _atom_site_fract_x
 _atom_site_fract_y
 _atom_site_fract_z
 _atom_site_occupancy
  K  K0  1  0.50000000  -0.00000000  0.50000000  1
  K  K1  1  -0.00000000  0.50000000  -0.00000000  1
  K  K2  1  0.50000000  0.50000000  0.50000000  1
  K  K3  1  -0.00000000  -0.00000000  -0.00000000  1
  K  K4  1  0.01992529  0.75000000  0.53319564  1
  K  K5  1  0.48007471  0.75000000  0.03319564  1
  K  K6  1  0.98007471  0.25000000  0.46680436  1
  K  K7  1  0.51992529  0.25000000  0.96680436  1
  Cd  Cd8  1  0.72796105  0.75000000  0.29689737  1
  Cd  Cd9  1  0.77203895  0.75000000  0.79689737  1
  Cd  Cd10  1  0.27203895  0.25000000  0.70310263  1
  Cd  Cd11  1  0.22796105  0.25000000  0.20310263  1
  Cd  Cd12  1  0.16307281  0.90613407  0.24655253  1
  Cd  Cd13  1  0.33692719  0.59386593  0.74655253  1
  Cd  Cd14  1  0.83692719  0.40613407  0.75344747  1
  Cd  Cd15  1  0.66307281  0.09386593  0.25344747  1
  Cd  Cd16  1  0.83692719  0.09386593  0.75344747  1
  Cd  Cd17  1  0.66307281  0.40613407  0.25344747  1
  Cd  Cd18  1  0.16307281  0.59386593  0.24655253  1
  Cd  Cd19  1  0.33692719  0.90613407  0.74655253  1
  Se  Se20  1  0.93071140  0.75000000  0.13857579  1
  Se  Se21  1  0.56928860  0.75000000  0.63857579  1
  Se  Se22  1  0.06928860  0.25000000  0.86142421  1
  Se  Se23  1  0.43071140  0.25000000  0.36142421  1
  Se  Se24  1  0.37001851  0.75000000  0.35567779  1
  Se  Se25  1  0.12998149  0.75000000  0.85567779  1
  Se  Se26  1  0.62998149  0.25000000  0.64432221  1
  Se  Se27  1  0.87001851  0.25000000  0.14432221  1
  Se  Se28  1  0.88620085  0.96795259  0.36709129  1
  Se  Se29  1  0.61379915  0.53204741  0.86709129  1
  Se  Se30  1  0.11379915  0.46795259  0.63290871  1
  Se  Se31  1  0.38620085  0.03204741  0.13290871  1
  Se  Se32  1  0.11379915  0.03204741  0.63290871  1
  Se  Se33  1  0.38620085  0.46795259  0.13290871  1
  Se  Se34  1  0.88620085  0.53204741  0.36709129  1
  Se  Se35  1  0.61379915  0.96795259  0.86709129  1
