# generated using pymatgen
data_V2OF5
_symmetry_space_group_name_H-M   'P 1'
_cell_length_a   5.09089528
_cell_length_b   13.25015191
_cell_length_c   5.09108959
_cell_angle_alpha   89.99910630
_cell_angle_beta   120.00477079
_cell_angle_gamma   89.99453940
_symmetry_Int_Tables_number   1
_chemical_formula_structural   V2OF5
_chemical_formula_sum   'V6 O3 F15'
_cell_volume   297.39626434
_cell_formula_units_Z   3
loop_
 _symmetry_equiv_pos_site_id
 _symmetry_equiv_pos_as_xyz
  1  'x, y, z'
loop_
 _atom_site_type_symbol
 _atom_site_label
 _atom_site_symmetry_multiplicity
 _atom_site_fract_x
 _atom_site_fract_y
 _atom_site_fract_z
 _atom_site_occupancy
  V  V0  1  0.00087570  0.49796483  0.02228848  1
  V  V1  1  0.97489830  0.00644919  0.96610791  1
  V  V2  1  0.64426701  0.83139270  0.31166566  1
  V  V3  1  0.32448092  0.67305310  0.69171515  1
  V  V4  1  0.70062627  0.33972040  0.34215152  1
  V  V5  1  0.35485664  0.16470385  0.66589354  1
  O  O6  1  0.39654967  0.74994646  0.98177030  1
  O  O7  1  0.91883979  0.41653320  0.27025509  1
  O  O8  1  0.68482755  0.08332703  0.74784865  1
  F  F9  1  0.98158404  0.74695150  0.38058496  1
  F  F10  1  0.33129146  0.41664058  0.07311859  1
  F  F11  1  0.07524774  0.08346841  0.33537655  1
  F  F12  1  0.32820225  0.91933850  0.26328393  1
  F  F13  1  0.26852015  0.58585985  0.33878455  1
  F  F14  1  0.61213361  0.24800427  0.00617704  1
  F  F15  1  0.00635701  0.24791097  0.61646456  1
  F  F16  1  0.72716523  0.91478745  0.05451849  1
  F  F17  1  0.05034174  0.58131197  0.72344390  1
  F  F18  1  0.40357502  0.25273308  0.39852425  1
  F  F19  1  0.59293657  0.75000929  0.59078988  1
  F  F20  1  0.28626873  0.08027440  0.93449271  1
  F  F21  1  0.73231906  0.41357715  0.68502662  1
  F  F22  1  0.94305980  0.91462874  0.66020530  1
  F  F23  1  0.66077675  0.58141209  0.93951138  1
