# generated using pymatgen
data_Cr2CdO4
_symmetry_space_group_name_H-M   'P 1'
_cell_length_a   6.10413593
_cell_length_b   6.10413352
_cell_length_c   6.10413163
_cell_angle_alpha   59.99999919
_cell_angle_beta   60.00001221
_cell_angle_gamma   60.00000670
_symmetry_Int_Tables_number   1
_chemical_formula_structural   Cr2CdO4
_chemical_formula_sum   'Cr4 Cd2 O8'
_cell_volume   160.82633768
_cell_formula_units_Z   2
loop_
 _symmetry_equiv_pos_site_id
 _symmetry_equiv_pos_as_xyz
  1  'x, y, z'
loop_
 _atom_site_type_symbol
 _atom_site_label
 _atom_site_symmetry_multiplicity
 _atom_site_fract_x
 _atom_site_fract_y
 _atom_site_fract_z
 _atom_site_occupancy
  Cr  Cr0  1  0.50000000  0.00000000  0.50000000  1
  Cr  Cr1  1  0.00000000  0.50000000  0.50000000  1
  Cr  Cr2  1  0.50000000  0.50000000  0.00000000  1
  Cr  Cr3  1  0.50000000  0.50000000  0.50000000  1
  Cd  Cd4  1  0.12500000  0.12500000  0.12500000  1
  Cd  Cd5  1  0.87500000  0.87500000  0.87500000  1
  O  O6  1  0.73120550  0.73120650  0.73120850  1
  O  O7  1  0.26879350  0.26879250  0.69362151  1
  O  O8  1  0.26879450  0.69362051  0.26879250  1
  O  O9  1  0.69362051  0.26879350  0.26879250  1
  O  O10  1  0.73120550  0.30637949  0.73120750  1
  O  O11  1  0.30637949  0.73120650  0.73120750  1
  O  O12  1  0.26879450  0.26879350  0.26879150  1
  O  O13  1  0.73120650  0.73120750  0.30637849  1
