# generated using pymatgen
data_V2Cd2O7
_symmetry_space_group_name_H-M   'P 1'
_cell_length_a   5.00667391
_cell_length_b   5.74577252
_cell_length_c   5.74577344
_cell_angle_alpha   104.14855044
_cell_angle_beta   98.00335948
_cell_angle_gamma   98.00335854
_symmetry_Int_Tables_number   1
_chemical_formula_structural   V2Cd2O7
_chemical_formula_sum   'V2 Cd2 O7'
_cell_volume   156.10952652
_cell_formula_units_Z   1
loop_
 _symmetry_equiv_pos_site_id
 _symmetry_equiv_pos_as_xyz
  1  'x, y, z'
loop_
 _atom_site_type_symbol
 _atom_site_label
 _atom_site_symmetry_multiplicity
 _atom_site_fract_x
 _atom_site_fract_y
 _atom_site_fract_z
 _atom_site_occupancy
  V  V0  1  0.90819039  0.22697267  0.22697267  1
  V  V1  1  0.09180961  0.77302733  0.77302733  1
  Cd  Cd2  1  0.50000000  0.30583341  0.69416659  1
  Cd  Cd3  1  0.50000000  0.69416659  0.30583341  1
  O  O4  1  0.28002789  0.91790181  0.60672567  1
  O  O5  1  0.71997211  0.39327433  0.08209819  1
  O  O6  1  0.71997211  0.08209819  0.39327433  1
  O  O7  1  0.28002789  0.60672567  0.91790181  1
  O  O8  1  0.00000000  0.00000000  0.00000000  1
  O  O9  1  0.78800630  0.60400790  0.60400790  1
  O  O10  1  0.21199370  0.39599210  0.39599210  1
