# generated using pymatgen
data_Ba10MgAs6(ClO12)2
_symmetry_space_group_name_H-M   'P 1'
_cell_length_a   11.01435563
_cell_length_b   10.88151151
_cell_length_c   7.79570230
_cell_angle_alpha   88.39603404
_cell_angle_beta   91.79108805
_cell_angle_gamma   117.05474815
_symmetry_Int_Tables_number   1
_chemical_formula_structural   Ba10MgAs6(ClO12)2
_chemical_formula_sum   'Ba10 Mg1 As6 Cl2 O24'
_cell_volume   831.58858041
_cell_formula_units_Z   1
loop_
 _symmetry_equiv_pos_site_id
 _symmetry_equiv_pos_as_xyz
  1  'x, y, z'
loop_
 _atom_site_type_symbol
 _atom_site_label
 _atom_site_symmetry_multiplicity
 _atom_site_fract_x
 _atom_site_fract_y
 _atom_site_fract_z
 _atom_site_occupancy
  Ba  Ba0  1  0.66262219  0.30828792  0.52103235  1
  Ba  Ba1  1  0.33161985  0.66033240  0.50185567  1
  Ba  Ba2  1  0.03590981  0.29044114  0.24373761  1
  Ba  Ba3  1  0.32050763  0.65397476  0.00151562  1
  Ba  Ba4  1  0.76134313  0.76520193  0.23905229  1
  Ba  Ba5  1  0.26327837  0.01516814  0.23641476  1
  Ba  Ba6  1  0.78280619  0.01172904  0.73559545  1
  Ba  Ba7  1  0.99107259  0.73951580  0.73925731  1
  Ba  Ba8  1  0.68682651  0.39061695  0.00594031  1
  Ba  Ba9  1  0.26705701  0.27553754  0.75185250  1
  Mg  Mg10  1  0.57531043  0.07942744  0.92090060  1
  As  As11  1  0.96914560  0.59208551  0.25074185  1
  As  As12  1  0.61720467  0.64270976  0.73218703  1
  As  As13  1  0.33717328  0.94919714  0.75281242  1
  As  As14  1  0.41864904  0.38208082  0.25830439  1
  As  As15  1  0.04172902  0.42821150  0.73683235  1
  As  As16  1  0.61515825  0.00759149  0.25048808  1
  Cl  Cl17  1  0.02409551  0.02609511  0.99575643  1
  Cl  Cl18  1  0.01295724  0.01896856  0.48195404  1
  O  O19  1  0.69138939  0.74820571  0.90498497  1
  O  O20  1  0.32615048  0.47422173  0.25967079  1
  O  O21  1  0.38142027  0.26696729  0.43031741  1
  O  O22  1  0.44213136  0.55253000  0.75641639  1
  O  O23  1  0.12118428  0.38130972  0.56813599  1
  O  O24  1  0.68744211  0.52917975  0.71930541  1
  O  O25  1  0.72086939  0.22032359  0.80037887  1
  O  O26  1  0.14840886  0.61367312  0.73862670  1
  O  O27  1  0.59233960  0.48902642  0.26241490  1
  O  O28  1  0.71522951  0.01783111  0.07985563  1
  O  O29  1  0.11780857  0.38421830  0.92269534  1
  O  O30  1  0.87343721  0.41302275  0.26786683  1
  O  O31  1  0.46551925  0.89727724  0.79432754  1
  O  O32  1  0.90897287  0.63860979  0.06408666  1
  O  O33  1  0.92822907  0.66919637  0.41244889  1
  O  O34  1  0.42711870  0.12564459  0.77944991  1
  O  O35  1  0.37868419  0.28233840  0.07655469  1
  O  O36  1  0.70884546  0.08330123  0.43028581  1
  O  O37  1  0.13942060  0.63433737  0.24534879  1
  O  O38  1  0.22711573  0.88156893  0.92108900  1
  O  O39  1  0.49145076  0.84042494  0.26896937  1
  O  O40  1  0.26066966  0.89806277  0.55596786  1
  O  O41  1  0.65169381  0.75107112  0.55541443  1
  O  O42  1  0.53625252  0.10798483  0.17082379  1
