# generated using pymatgen
data_PbI2
_symmetry_space_group_name_H-M   'P 1'
_cell_length_a   4.62998176
_cell_length_b   4.62998176
_cell_length_c   87.85810896
_cell_angle_alpha   90.00000000
_cell_angle_beta   90.00000000
_cell_angle_gamma   120.00001172
_symmetry_Int_Tables_number   1
_chemical_formula_structural   PbI2
_chemical_formula_sum   'Pb12 I24'
_cell_volume   1631.06396127
_cell_formula_units_Z   12
loop_
 _symmetry_equiv_pos_site_id
 _symmetry_equiv_pos_as_xyz
  1  'x, y, z'
loop_
 _atom_site_type_symbol
 _atom_site_label
 _atom_site_symmetry_multiplicity
 _atom_site_fract_x
 _atom_site_fract_y
 _atom_site_fract_z
 _atom_site_occupancy
  Pb  Pb0  1  0.66666700  0.33333300  0.97976118  1
  Pb  Pb1  1  0.66666700  0.33333300  0.89561400  1
  Pb  Pb2  1  0.66666700  0.33333300  0.81199531  1
  Pb  Pb3  1  0.66666700  0.33333300  0.72889163  1
  Pb  Pb4  1  0.66666700  0.33333300  0.64549364  1
  Pb  Pb5  1  0.66666700  0.33333300  0.56224477  1
  Pb  Pb6  1  0.33333300  0.66666700  0.47879970  1
  Pb  Pb7  1  0.33333300  0.66666700  0.39565667  1
  Pb  Pb8  1  0.66666700  0.33333300  0.31229481  1
  Pb  Pb9  1  0.66666700  0.33333300  0.22932701  1
  Pb  Pb10  1  0.33333300  0.66666700  0.14651807  1
  Pb  Pb11  1  0.33333300  0.66666700  0.06342837  1
  I  I12  1  0.33333300  0.66666700  0.00092600  1
  I  I13  1  0.00000000  -0.00000000  0.95856903  1
  I  I14  1  0.33333300  0.66666700  0.91677392  1
  I  I15  1  0.00000000  -0.00000000  0.87445084  1
  I  I16  1  0.33333300  0.66666700  0.83320456  1
  I  I17  1  -0.00000000  -0.00000000  0.79076515  1
  I  I18  1  0.33333300  0.66666700  0.75005883  1
  I  I19  1  0.00000000  -0.00000000  0.70773860  1
  I  I20  1  0.33333300  0.66666700  0.66669611  1
  I  I21  1  0.00000000  -0.00000000  0.62425879  1
  I  I22  1  0.33333300  0.66666700  0.58342092  1
  I  I23  1  0.00000000  -0.00000000  0.54109321  1
  I  I24  1  0.66666700  0.33333300  0.50002572  1
  I  I25  1  0.00000000  -0.00000000  0.45755011  1
  I  I26  1  0.66666700  0.33333300  0.41678824  1
  I  I27  1  0.00000000  -0.00000000  0.37455705  1
  I  I28  1  0.33333300  0.66666700  0.33346438  1
  I  I29  1  0.00000000  -0.00000000  0.29109536  1
  I  I30  1  0.33333300  0.66666700  0.25053864  1
  I  I31  1  0.00000000  -0.00000000  0.20810193  1
  I  I32  1  0.66666700  0.33333300  0.16774929  1
  I  I33  1  0.00000000  -0.00000000  0.12528763  1
  I  I34  1  0.66666700  0.33333300  0.08462178  1
  I  I35  1  0.00000000  -0.00000000  0.04223779  1
