# generated using pymatgen
data_Pr2SiTeO4
_symmetry_space_group_name_H-M   'P 1'
_cell_length_a   6.36505282
_cell_length_b   7.25511661
_cell_length_c   11.27922861
_cell_angle_alpha   90.00000000
_cell_angle_beta   90.00000000
_cell_angle_gamma   90.00000000
_symmetry_Int_Tables_number   1
_chemical_formula_structural   Pr2SiTeO4
_chemical_formula_sum   'Pr8 Si4 Te4 O16'
_cell_volume   520.86575877
_cell_formula_units_Z   4
loop_
 _symmetry_equiv_pos_site_id
 _symmetry_equiv_pos_as_xyz
  1  'x, y, z'
loop_
 _atom_site_type_symbol
 _atom_site_label
 _atom_site_symmetry_multiplicity
 _atom_site_fract_x
 _atom_site_fract_y
 _atom_site_fract_z
 _atom_site_occupancy
  Pr  Pr0  1  0.38771602  0.75000000  0.50000000  1
  Pr  Pr1  1  0.38771602  0.75000000  -0.00000000  1
  Pr  Pr2  1  0.61228398  0.25000000  0.50000000  1
  Pr  Pr3  1  0.61228398  0.25000000  -0.00000000  1
  Pr  Pr4  1  0.88767161  0.53969550  0.75000000  1
  Pr  Pr5  1  0.88767161  0.96030450  0.25000000  1
  Pr  Pr6  1  0.11232839  0.03969550  0.75000000  1
  Pr  Pr7  1  0.11232839  0.46030450  0.25000000  1
  Si  Si8  1  0.11361159  0.25000000  -0.00000000  1
  Si  Si9  1  0.88638841  0.75000000  -0.00000000  1
  Si  Si10  1  0.88638841  0.75000000  0.50000000  1
  Si  Si11  1  0.11361159  0.25000000  0.50000000  1
  Te  Te12  1  0.59772004  0.92546649  0.75000000  1
  Te  Te13  1  0.59772004  0.57453351  0.25000000  1
  Te  Te14  1  0.40227996  0.42546649  0.75000000  1
  Te  Te15  1  0.40227996  0.07453351  0.25000000  1
  O  O16  1  0.26698877  0.42136917  0.03562107  1
  O  O17  1  0.26698877  0.07863083  0.96437893  1
  O  O18  1  0.73301123  0.92136917  0.46437893  1
  O  O19  1  0.73301123  0.57863083  0.53562107  1
  O  O20  1  0.73301123  0.57863083  0.96437893  1
  O  O21  1  0.73301123  0.92136917  0.03562107  1
  O  O22  1  0.26698877  0.07863083  0.53562107  1
  O  O23  1  0.26698877  0.42136917  0.46437893  1
  O  O24  1  0.04628349  0.72918367  0.11409571  1
  O  O25  1  0.04628349  0.72918367  0.38590429  1
  O  O26  1  0.95371651  0.22918367  0.38590429  1
  O  O27  1  0.95371651  0.27081633  0.61409571  1
  O  O28  1  0.95371651  0.27081633  0.88590429  1
  O  O29  1  0.95371651  0.22918367  0.11409571  1
  O  O30  1  0.04628349  0.77081633  0.61409571  1
  O  O31  1  0.04628349  0.77081633  0.88590429  1
