# generated using pymatgen
data_TiH8(NF3)2
_symmetry_space_group_name_H-M   'P 1'
_cell_length_a   4.62409377
_cell_length_b   5.87826988
_cell_length_c   5.87832803
_cell_angle_alpha   120.00036230
_cell_angle_beta   90.00003503
_cell_angle_gamma   89.99892997
_symmetry_Int_Tables_number   1
_chemical_formula_structural   TiH8(NF3)2
_chemical_formula_sum   'Ti1 H8 N2 F6'
_cell_volume   138.37544057
_cell_formula_units_Z   1
loop_
 _symmetry_equiv_pos_site_id
 _symmetry_equiv_pos_as_xyz
  1  'x, y, z'
loop_
 _atom_site_type_symbol
 _atom_site_label
 _atom_site_symmetry_multiplicity
 _atom_site_fract_x
 _atom_site_fract_y
 _atom_site_fract_z
 _atom_site_occupancy
  Ti  Ti0  1  -0.00000000  -0.00000000  -0.00000000  1
  H  H1  1  0.91214101  0.66660382  0.33330149  1
  H  H2  1  0.08785899  0.33339618  0.66669851  1
  H  H3  1  0.61381131  0.76084814  0.23914511  1
  H  H4  1  0.61381178  0.76084734  0.52170172  1
  H  H5  1  0.61374321  0.47824864  0.23912407  1
  H  H6  1  0.38618869  0.23915186  0.76085489  1
  H  H7  1  0.38618822  0.23915266  0.47829828  1
  H  H8  1  0.38625679  0.52175136  0.76087593  1
  N  N9  1  0.69119072  0.66667137  0.33333558  1
  N  N10  1  0.30880928  0.33332863  0.66666442  1
  F  F11  1  0.23002769  0.84805837  0.69612599  1
  F  F12  1  0.23002610  0.30389345  0.15194703  1
  F  F13  1  0.23002728  0.84805783  0.15193223  1
  F  F14  1  0.76997231  0.15194163  0.30387401  1
  F  F15  1  0.76997390  0.69610655  0.84805297  1
  F  F16  1  0.76997272  0.15194217  0.84806777  1
