# generated using pymatgen
data_VCu3Te3Se
_symmetry_space_group_name_H-M   'P 1'
_cell_length_a   5.82392239
_cell_length_b   5.82392239
_cell_length_c   5.82392239
_cell_angle_alpha   89.01463527
_cell_angle_beta   89.01463527
_cell_angle_gamma   89.01462405
_symmetry_Int_Tables_number   1
_chemical_formula_structural   VCu3Te3Se
_chemical_formula_sum   'V1 Cu3 Te3 Se1'
_cell_volume   197.44957554
_cell_formula_units_Z   1
loop_
 _symmetry_equiv_pos_site_id
 _symmetry_equiv_pos_as_xyz
  1  'x, y, z'
loop_
 _atom_site_type_symbol
 _atom_site_label
 _atom_site_symmetry_multiplicity
 _atom_site_fract_x
 _atom_site_fract_y
 _atom_site_fract_z
 _atom_site_occupancy
  V  V0  1  0.00311279  0.00311279  0.00311279  1
  Cu  Cu1  1  0.00516263  0.49583181  0.00516263  1
  Cu  Cu2  1  0.00516263  0.00516263  0.49583181  1
  Cu  Cu3  1  0.49583181  0.00516263  0.00516263  1
  Te  Te4  1  0.26083584  0.74894218  0.74894218  1
  Te  Te5  1  0.74894218  0.74894218  0.26083584  1
  Te  Te6  1  0.74894218  0.26083584  0.74894218  1
  Se  Se7  1  0.23201095  0.23201095  0.23201095  1
