# generated using pymatgen
data_LiMnF5
_symmetry_space_group_name_H-M   'P 1'
_cell_length_a   7.99368369
_cell_length_b   6.22594681
_cell_length_c   7.18403410
_cell_angle_alpha   89.99928649
_cell_angle_beta   63.41808720
_cell_angle_gamma   90.00004679
_symmetry_Int_Tables_number   1
_chemical_formula_structural   LiMnF5
_chemical_formula_sum   'Li4 Mn4 F20'
_cell_volume   319.74356743
_cell_formula_units_Z   4
loop_
 _symmetry_equiv_pos_site_id
 _symmetry_equiv_pos_as_xyz
  1  'x, y, z'
loop_
 _atom_site_type_symbol
 _atom_site_label
 _atom_site_symmetry_multiplicity
 _atom_site_fract_x
 _atom_site_fract_y
 _atom_site_fract_z
 _atom_site_occupancy
  Li  Li0  1  -0.00008590  0.52280860  0.24978921  1
  Li  Li1  1  0.50008222  0.02280954  0.75021650  1
  Li  Li2  1  0.49993463  0.97719656  0.24977835  1
  Li  Li3  1  0.00006703  0.47719151  0.75021988  1
  Mn  Mn4  1  0.00002948  -0.00000799  0.49999128  1
  Mn  Mn5  1  0.00003624  -0.00001426  -0.00001273  1
  Mn  Mn6  1  0.49997902  0.49998781  0.50000677  1
  Mn  Mn7  1  0.49996589  0.49999856  0.00000979  1
  F  F8  1  0.03764313  0.27673682  0.92700682  1
  F  F9  1  0.24548955  0.95357855  0.89256172  1
  F  F10  1  0.03834964  0.72351879  0.42552261  1
  F  F11  1  0.99611986  0.08381602  0.25199091  1
  F  F12  1  0.25458526  0.54863875  0.61334748  1
  F  F13  1  0.53762209  0.22327022  0.92700974  1
  F  F14  1  0.24540933  0.04864429  0.38665058  1
  F  F15  1  0.50387992  0.58383588  0.74801241  1
  F  F16  1  0.46163883  0.22352590  0.57449307  1
  F  F17  1  0.74544432  0.54642708  0.89256231  1
  F  F18  1  0.25450963  0.45359221  0.10743793  1
  F  F19  1  0.53833373  0.77647078  0.42551849  1
  F  F20  1  0.49609777  0.41618332  0.25199143  1
  F  F21  1  0.75461483  0.95136905  0.61334558  1
  F  F22  1  0.46236837  0.77674521  0.07299010  1
  F  F23  1  0.74538020  0.45136694  0.38666060  1
  F  F24  1  0.00390517  0.91617986  0.74800524  1
  F  F25  1  0.96166564  0.27646741  0.57447226  1
  F  F26  1  0.75454954  0.04640853  0.10743651  1
  F  F27  1  0.96238356  0.72325406  0.07298418  1
