# generated using pymatgen
data_Cs2Th(Si2O5)3
_symmetry_space_group_name_H-M   'P 1'
_cell_length_a   7.21463997
_cell_length_b   13.73908535
_cell_length_c   16.34394297
_cell_angle_alpha   90.00000000
_cell_angle_beta   90.00000000
_cell_angle_gamma   90.00000000
_symmetry_Int_Tables_number   1
_chemical_formula_structural   Cs2Th(Si2O5)3
_chemical_formula_sum   'Cs8 Th4 Si24 O60'
_cell_volume   1620.05337480
_cell_formula_units_Z   4
loop_
 _symmetry_equiv_pos_site_id
 _symmetry_equiv_pos_as_xyz
  1  'x, y, z'
loop_
 _atom_site_type_symbol
 _atom_site_label
 _atom_site_symmetry_multiplicity
 _atom_site_fract_x
 _atom_site_fract_y
 _atom_site_fract_z
 _atom_site_occupancy
  Cs  Cs0  1  0.24426822  0.00008249  0.53125886  1
  Cs  Cs1  1  0.75573178  0.50008249  0.46874114  1
  Cs  Cs2  1  0.24426822  0.50008249  0.96874114  1
  Cs  Cs3  1  0.75573178  0.00008249  0.03125886  1
  Cs  Cs4  1  0.22571666  0.31020724  0.64219966  1
  Cs  Cs5  1  0.77428334  0.81020724  0.35780034  1
  Cs  Cs6  1  0.22571666  0.81020724  0.85780034  1
  Cs  Cs7  1  0.77428334  0.31020724  0.14219966  1
  Th  Th8  1  0.71150822  0.14986359  0.61995735  1
  Th  Th9  1  0.28849178  0.64986359  0.38004265  1
  Th  Th10  1  0.71150822  0.64986359  0.88004265  1
  Th  Th11  1  0.28849178  0.14986359  0.11995735  1
  Si  Si12  1  0.54628462  0.22109228  0.42237311  1
  Si  Si13  1  0.45371538  0.72109228  0.57762689  1
  Si  Si14  1  0.54628462  0.72109228  0.07762689  1
  Si  Si15  1  0.45371538  0.22109228  0.92237311  1
  Si  Si16  1  0.96524431  0.22859129  0.44383591  1
  Si  Si17  1  0.03475569  0.72859129  0.55616409  1
  Si  Si18  1  0.96524431  0.72859129  0.05616409  1
  Si  Si19  1  0.03475569  0.22859129  0.94383591  1
  Si  Si20  1  0.98484196  0.07494002  0.80845647  1
  Si  Si21  1  0.01515804  0.57494002  0.19154353  1
  Si  Si22  1  0.98484196  0.57494002  0.69154353  1
  Si  Si23  1  0.01515804  0.07494002  0.30845647  1
  Si  Si24  1  0.41836149  0.07114843  0.78267711  1
  Si  Si25  1  0.58163851  0.57114843  0.21732289  1
  Si  Si26  1  0.41836149  0.57114843  0.71732289  1
  Si  Si27  1  0.58163851  0.07114843  0.28267711  1
  Si  Si28  1  0.75127050  0.88268434  0.60894800  1
  Si  Si29  1  0.24872950  0.38268434  0.39105200  1
  Si  Si30  1  0.75127050  0.38268434  0.89105200  1
  Si  Si31  1  0.24872950  0.88268434  0.10894800  1
  Si  Si32  1  0.71984941  0.40597711  0.70422223  1
  Si  Si33  1  0.28015059  0.90597711  0.29577777  1
  Si  Si34  1  0.71984941  0.90597711  0.79577777  1
  Si  Si35  1  0.28015059  0.40597711  0.20422223  1
  O  O36  1  0.51117479  0.17814038  0.51166405  1
  O  O37  1  0.48882521  0.67814038  0.48833595  1
  O  O38  1  0.51117479  0.67814038  0.98833595  1
  O  O39  1  0.48882521  0.17814038  0.01166405  1
  O  O40  1  0.43603087  0.32172428  0.40776805  1
  O  O41  1  0.56396913  0.82172428  0.59223195  1
  O  O42  1  0.43603087  0.82172428  0.09223195  1
  O  O43  1  0.56396913  0.32172428  0.90776805  1
  O  O44  1  0.49454087  0.14187854  0.35240337  1
  O  O45  1  0.50545913  0.64187854  0.64759663  1
  O  O46  1  0.49454087  0.64187854  0.14759663  1
  O  O47  1  0.50545913  0.14187854  0.85240337  1
  O  O48  1  0.76084958  0.25511942  0.40904733  1
  O  O49  1  0.23915042  0.75511942  0.59095267  1
  O  O50  1  0.76084958  0.75511942  0.09095267  1
  O  O51  1  0.23915042  0.25511942  0.90904733  1
  O  O52  1  0.95914429  0.18732451  0.53494571  1
  O  O53  1  0.04085571  0.68732451  0.46505529  1
  O  O54  1  0.95914429  0.68732451  0.96505429  1
  O  O55  1  0.04085571  0.18732451  0.03494471  1
  O  O56  1  0.05791072  0.15042081  0.38238978  1
  O  O57  1  0.94208928  0.65042081  0.61761022  1
  O  O58  1  0.05791072  0.65042081  0.11761022  1
  O  O59  1  0.94208928  0.15042081  0.88238978  1
  O  O60  1  0.91464932  0.11517593  0.72274155  1
  O  O61  1  0.08535068  0.61517593  0.27725845  1
  O  O62  1  0.91464932  0.61517593  0.77725845  1
  O  O63  1  0.08535068  0.11517593  0.22274155  1
  O  O64  1  0.20443647  0.04690368  0.80709994  1
  O  O65  1  0.79556353  0.54690368  0.19290006  1
  O  O66  1  0.20443647  0.54690368  0.69290006  1
  O  O67  1  0.79556353  0.04690368  0.30709994  1
  O  O68  1  0.87911760  0.97501974  0.83683842  1
  O  O69  1  0.12088240  0.47501974  0.16316158  1
  O  O70  1  0.87911760  0.47501974  0.66316158  1
  O  O71  1  0.12088240  0.97501974  0.33683842  1
  O  O72  1  0.44108232  0.11724997  0.69370884  1
  O  O73  1  0.55891768  0.61724997  0.30629116  1
  O  O74  1  0.44108232  0.61724997  0.80629116  1
  O  O75  1  0.55891768  0.11724997  0.19370884  1
  O  O76  1  0.72737024  0.99139835  0.57786020  1
  O  O77  1  0.27262976  0.49139835  0.42213980  1
  O  O78  1  0.72737024  0.49139835  0.92213980  1
  O  O79  1  0.27262976  0.99139835  0.07786020  1
  O  O80  1  0.91921155  0.83025393  0.55877669  1
  O  O81  1  0.08078845  0.33025393  0.44122331  1
  O  O82  1  0.91921155  0.33025393  0.94122331  1
  O  O83  1  0.08078845  0.83025393  0.05877669  1
  O  O84  1  0.68679088  0.31323827  0.64824723  1
  O  O85  1  0.31320912  0.81323827  0.35175277  1
  O  O86  1  0.68679088  0.81323827  0.85175277  1
  O  O87  1  0.31320912  0.31323827  0.14824723  1
  O  O88  1  0.79784433  0.37640109  0.79401892  1
  O  O89  1  0.20215567  0.87640109  0.20598108  1
  O  O90  1  0.79784433  0.87640109  0.70598108  1
  O  O91  1  0.20215567  0.37640109  0.29401892  1
  O  O92  1  0.52665606  0.46694730  0.71189560  1
  O  O93  1  0.47334394  0.96694730  0.28810440  1
  O  O94  1  0.52665606  0.96694730  0.78810440  1
  O  O95  1  0.47334394  0.46694730  0.21189560  1
