# generated using pymatgen
data_Rb2Mo3SeO12
_symmetry_space_group_name_H-M   'P 1'
_cell_length_a   7.29654645
_cell_length_b   7.29654645
_cell_length_c   12.03066108
_cell_angle_alpha   90.00000000
_cell_angle_beta   90.00000000
_cell_angle_gamma   119.99999201
_symmetry_Int_Tables_number   1
_chemical_formula_structural   Rb2Mo3SeO12
_chemical_formula_sum   'Rb4 Mo6 Se2 O24'
_cell_volume   554.69578003
_cell_formula_units_Z   2
loop_
 _symmetry_equiv_pos_site_id
 _symmetry_equiv_pos_as_xyz
  1  'x, y, z'
loop_
 _atom_site_type_symbol
 _atom_site_label
 _atom_site_symmetry_multiplicity
 _atom_site_fract_x
 _atom_site_fract_y
 _atom_site_fract_z
 _atom_site_occupancy
  Rb  Rb0  1  0.33333300  0.66666700  0.94836418  1
  Rb  Rb1  1  0.66666700  0.33333300  0.44836418  1
  Rb  Rb2  1  0.66666700  0.33333300  0.06467217  1
  Rb  Rb3  1  0.33333300  0.66666700  0.56467217  1
  Mo  Mo4  1  0.79498014  0.13441213  0.73079046  1
  Mo  Mo5  1  0.86558787  0.66056801  0.73079046  1
  Mo  Mo6  1  0.33943199  0.20501986  0.73079046  1
  Mo  Mo7  1  0.20501986  0.86558787  0.23079046  1
  Mo  Mo8  1  0.13441213  0.33943199  0.23079046  1
  Mo  Mo9  1  0.66056801  0.79498014  0.23079046  1
  Se  Se10  1  -0.00000000  -0.00000000  0.49882166  1
  Se  Se11  1  -0.00000000  -0.00000000  0.99882166  1
  O  O12  1  0.79598599  0.20070453  0.86699267  1
  O  O13  1  0.79929547  0.59528145  0.86699267  1
  O  O14  1  0.40471855  0.20401401  0.86699267  1
  O  O15  1  0.20401401  0.79929547  0.36699267  1
  O  O16  1  0.20070453  0.40471855  0.36699267  1
  O  O17  1  0.59528145  0.79598599  0.36699267  1
  O  O18  1  0.88154593  0.12762969  0.55953557  1
  O  O19  1  0.87237031  0.75391725  0.55953557  1
  O  O20  1  0.24608275  0.11845407  0.55953557  1
  O  O21  1  0.11845407  0.87237031  0.05953557  1
  O  O22  1  0.12762969  0.24608275  0.05953557  1
  O  O23  1  0.75391725  0.88154593  0.05953557  1
  O  O24  1  0.53958639  0.08667929  0.68397871  1
  O  O25  1  0.91332071  0.45290610  0.68397871  1
  O  O26  1  0.54709390  0.46041361  0.68397871  1
  O  O27  1  0.46041361  0.91332071  0.18397871  1
  O  O28  1  0.08667929  0.54709390  0.18397871  1
  O  O29  1  0.45290610  0.53958639  0.18397871  1
  O  O30  1  0.74814679  0.87037694  0.74354125  1
  O  O31  1  0.12962306  0.87777085  0.74354125  1
  O  O32  1  0.12222915  0.25185321  0.74354125  1
  O  O33  1  0.25185321  0.12962306  0.24354125  1
  O  O34  1  0.87037694  0.12222915  0.24354125  1
  O  O35  1  0.87777085  0.74814679  0.24354125  1
