# generated using pymatgen
data_Sr3(GaP2)2
_symmetry_space_group_name_H-M   'P 1'
_cell_length_a   8.35469161
_cell_length_b   8.35469161
_cell_length_c   6.66012932
_cell_angle_alpha   89.68277608
_cell_angle_beta   89.68277608
_cell_angle_gamma   75.44201864
_symmetry_Int_Tables_number   1
_chemical_formula_structural   Sr3(GaP2)2
_chemical_formula_sum   'Sr6 Ga4 P8'
_cell_volume   449.94617475
_cell_formula_units_Z   2
loop_
 _symmetry_equiv_pos_site_id
 _symmetry_equiv_pos_as_xyz
  1  'x, y, z'
loop_
 _atom_site_type_symbol
 _atom_site_label
 _atom_site_symmetry_multiplicity
 _atom_site_fract_x
 _atom_site_fract_y
 _atom_site_fract_z
 _atom_site_occupancy
  Sr  Sr0  1  0.00539725  0.74816768  0.53895360  1
  Sr  Sr1  1  0.25183232  0.99460275  0.96104640  1
  Sr  Sr2  1  0.99460275  0.25183232  0.46104640  1
  Sr  Sr3  1  0.74816768  0.00539725  0.03895360  1
  Sr  Sr4  1  0.39992190  0.60007810  0.25000000  1
  Sr  Sr5  1  0.60007810  0.39992190  0.75000000  1
  Ga  Ga6  1  0.82406630  0.58318903  0.08294827  1
  Ga  Ga7  1  0.41681097  0.17593370  0.41705173  1
  Ga  Ga8  1  0.17593370  0.41681097  0.91705173  1
  Ga  Ga9  1  0.58318903  0.82406630  0.58294827  1
  P  P10  1  0.05723509  0.70324106  0.02312956  1
  P  P11  1  0.29675894  0.94276491  0.47687044  1
  P  P12  1  0.94276491  0.29675894  0.97687044  1
  P  P13  1  0.70324106  0.05723509  0.52312956  1
  P  P14  1  0.74009055  0.57665449  0.42448454  1
  P  P15  1  0.42334551  0.25990945  0.07551546  1
  P  P16  1  0.25990945  0.42334551  0.57551546  1
  P  P17  1  0.57665449  0.74009055  0.92448454  1
