# generated using pymatgen
data_BaNaZrBiO6
_symmetry_space_group_name_H-M   'P 1'
_cell_length_a   8.47201129
_cell_length_b   8.35866948
_cell_length_c   8.44311052
_cell_angle_alpha   90.00000000
_cell_angle_beta   90.00000000
_cell_angle_gamma   90.00000000
_symmetry_Int_Tables_number   1
_chemical_formula_structural   BaNaZrBiO6
_chemical_formula_sum   'Ba4 Na4 Zr4 Bi4 O24'
_cell_volume   597.89669487
_cell_formula_units_Z   4
loop_
 _symmetry_equiv_pos_site_id
 _symmetry_equiv_pos_as_xyz
  1  'x, y, z'
loop_
 _atom_site_type_symbol
 _atom_site_label
 _atom_site_symmetry_multiplicity
 _atom_site_fract_x
 _atom_site_fract_y
 _atom_site_fract_z
 _atom_site_occupancy
  Ba  Ba0  1  -0.00000000  0.00000000  0.00000000  1
  Ba  Ba1  1  0.50000000  0.50000000  0.50000000  1
  Ba  Ba2  1  -0.00000000  0.50000000  0.50000000  1
  Ba  Ba3  1  0.50000000  0.00000000  -0.00000000  1
  Na  Na4  1  0.50000000  0.00000000  0.50000000  1
  Na  Na5  1  0.50000000  0.50000000  0.00000000  1
  Na  Na6  1  0.00000000  0.50000000  0.00000000  1
  Na  Na7  1  0.00000000  0.00000000  0.50000000  1
  Zr  Zr8  1  0.25000000  0.25000000  0.25000000  1
  Zr  Zr9  1  0.75000000  0.75000000  0.25000000  1
  Zr  Zr10  1  0.75000000  0.25000000  0.75000000  1
  Zr  Zr11  1  0.25000000  0.75000000  0.75000000  1
  Bi  Bi12  1  0.75000000  0.75000000  0.75000000  1
  Bi  Bi13  1  0.25000000  0.25000000  0.75000000  1
  Bi  Bi14  1  0.25000000  0.75000000  0.25000000  1
  Bi  Bi15  1  0.75000000  0.25000000  0.25000000  1
  O  O16  1  0.00177946  0.22580126  0.27642328  1
  O  O17  1  0.99822054  0.77419874  0.27642328  1
  O  O18  1  0.99822054  0.22580126  0.72357672  1
  O  O19  1  0.00177946  0.77419874  0.72357672  1
  O  O20  1  0.26769384  0.00201993  0.22444418  1
  O  O21  1  0.26769384  0.99798007  0.77555582  1
  O  O22  1  0.73230616  0.99798007  0.22444418  1
  O  O23  1  0.73230616  0.00201993  0.77555582  1
  O  O24  1  0.22247070  0.26552236  0.00192639  1
  O  O25  1  0.77752930  0.26552236  0.99807361  1
  O  O26  1  0.22247070  0.73447764  0.99807361  1
  O  O27  1  0.77752930  0.73447764  0.00192639  1
  O  O28  1  0.49822054  0.27419874  0.22357672  1
  O  O29  1  0.50177946  0.72580126  0.22357672  1
  O  O30  1  0.50177946  0.27419874  0.77642328  1
  O  O31  1  0.49822054  0.72580126  0.77642328  1
  O  O32  1  0.23230616  0.49798007  0.27555582  1
  O  O33  1  0.23230616  0.50201993  0.72444418  1
  O  O34  1  0.76769384  0.50201993  0.27555582  1
  O  O35  1  0.76769384  0.49798007  0.72444418  1
  O  O36  1  0.27752930  0.23447764  0.49807361  1
  O  O37  1  0.72247070  0.23447764  0.50192639  1
  O  O38  1  0.27752930  0.76552236  0.50192639  1
  O  O39  1  0.72247070  0.76552236  0.49807361  1
