# generated using pymatgen
data_Sm2MgMo2(I4O15)2
_symmetry_space_group_name_H-M   'P 1'
_cell_length_a   7.24213031
_cell_length_b   7.21007863
_cell_length_c   14.29088142
_cell_angle_alpha   91.96046844
_cell_angle_beta   88.62056418
_cell_angle_gamma   114.85524816
_symmetry_Int_Tables_number   1
_chemical_formula_structural   Sm2MgMo2(I4O15)2
_chemical_formula_sum   'Sm2 Mg1 Mo2 I8 O30'
_cell_volume   676.66219622
_cell_formula_units_Z   1
loop_
 _symmetry_equiv_pos_site_id
 _symmetry_equiv_pos_as_xyz
  1  'x, y, z'
loop_
 _atom_site_type_symbol
 _atom_site_label
 _atom_site_symmetry_multiplicity
 _atom_site_fract_x
 _atom_site_fract_y
 _atom_site_fract_z
 _atom_site_occupancy
  Sm  Sm0  1  0.08619706  0.42205452  0.44038044  1
  Sm  Sm1  1  0.88546768  0.56289737  0.95313430  1
  Mg  Mg2  1  0.21724419  0.43228983  0.85515692  1
  Mo  Mo3  1  0.58507926  0.77305567  0.27875110  1
  Mo  Mo4  1  0.45528647  0.24658259  0.76496325  1
  I  I5  1  0.49581377  0.74814250  0.03764891  1
  I  I6  1  0.48953782  0.24438676  0.51920290  1
  I  I7  1  0.74681818  0.28557424  0.19812555  1
  I  I8  1  0.26791307  0.72843534  0.68144307  1
  I  I9  1  0.15463031  0.92717322  0.31687488  1
  I  I10  1  0.83427445  0.03341331  0.79754064  1
  I  I11  1  0.76234657  0.86676414  0.54123642  1
  I  I12  1  0.22610690  0.12354882  0.05347336  1
  O  O13  1  0.37565795  0.68047984  0.15243094  1
  O  O14  1  0.60783077  0.29200665  0.63873116  1
  O  O15  1  0.25938337  0.61594734  0.96818965  1
  O  O16  1  0.72570101  0.36335309  0.45371523  1
  O  O17  1  0.57197434  0.53276074  0.01820466  1
  O  O18  1  0.40946746  0.45510307  0.52321749  1
  O  O19  1  0.74070042  0.02277425  0.18037466  1
  O  O20  1  0.24295172  0.97715825  0.68610150  1
  O  O21  1  0.88679380  0.38914610  0.08987481  1
  O  O22  1  0.07877188  0.59200175  0.59369576  1
  O  O23  1  0.95181676  0.38495404  0.28195645  1
  O  O24  1  0.12249508  0.62956071  0.79186705  1
  O  O25  1  0.42773653  0.97897453  0.29863458  1
  O  O26  1  0.57028338  0.01269946  0.79021126  1
  O  O27  1  0.21296062  0.16722813  0.38149877  1
  O  O28  1  0.77193011  0.82182817  0.87485073  1
  O  O29  1  0.10019789  0.75931511  0.41713833  1
  O  O30  1  0.92608728  0.25199529  0.88980734  1
  O  O31  1  0.52589756  0.90276648  0.53752779  1
  O  O32  1  0.44997781  0.06651680  0.03777351  1
  O  O33  1  0.75063678  0.81508820  0.66892854  1
  O  O34  1  0.22977002  0.15936653  0.17947783  1
  O  O35  1  0.95150429  0.13237072  0.54463510  1
  O  O36  1  0.02204149  0.86561971  0.03798145  1
  O  O37  1  0.76804944  0.91241405  0.36825969  1
  O  O38  1  0.27570162  0.16540191  0.86434687  1
  O  O39  1  0.38018199  0.59172035  0.34227332  1
  O  O40  1  0.67359861  0.41849649  0.82459960  1
  O  O41  1  0.71191034  0.63382893  0.22460182  1
  O  O42  1  0.33979293  0.41295303  0.72899537  1
