# generated using pymatgen
data_K2Se2O7
_symmetry_space_group_name_H-M   'P 1'
_cell_length_a   7.44079372
_cell_length_b   7.44079372
_cell_length_c   7.49041844
_cell_angle_alpha   87.06398487
_cell_angle_beta   87.06398487
_cell_angle_gamma   60.89663196
_symmetry_Int_Tables_number   1
_chemical_formula_structural   K2Se2O7
_chemical_formula_sum   'K4 Se4 O14'
_cell_volume   361.71017137
_cell_formula_units_Z   2
loop_
 _symmetry_equiv_pos_site_id
 _symmetry_equiv_pos_as_xyz
  1  'x, y, z'
loop_
 _atom_site_type_symbol
 _atom_site_label
 _atom_site_symmetry_multiplicity
 _atom_site_fract_x
 _atom_site_fract_y
 _atom_site_fract_z
 _atom_site_occupancy
  K  K0  1  0.79356785  0.49904665  0.63520701  1
  K  K1  1  0.50095335  0.20643215  0.86479299  1
  K  K2  1  0.20643215  0.50095335  0.36479299  1
  K  K3  1  0.49904665  0.79356785  0.13520701  1
  Se  Se4  1  0.28526940  0.92680255  0.62885406  1
  Se  Se5  1  0.07319745  0.71473060  0.87114594  1
  Se  Se6  1  0.71473060  0.07319745  0.37114594  1
  Se  Se7  1  0.92680255  0.28526940  0.12885406  1
  O  O8  1  0.35424530  0.75516584  0.47611345  1
  O  O9  1  0.24483416  0.64575470  0.02388655  1
  O  O10  1  0.64575470  0.24483416  0.52388655  1
  O  O11  1  0.75516584  0.35424530  0.97611345  1
  O  O12  1  0.46466858  0.85893669  0.77397420  1
  O  O13  1  0.14106331  0.53533142  0.72602580  1
  O  O14  1  0.53533142  0.14106331  0.22602580  1
  O  O15  1  0.85893669  0.46466858  0.27397420  1
  O  O16  1  0.18699329  0.16392781  0.55678167  1
  O  O17  1  0.83607219  0.81300671  0.94321833  1
  O  O18  1  0.81300671  0.83607219  0.44321833  1
  O  O19  1  0.16392781  0.18699329  0.05678167  1
  O  O20  1  0.06477723  0.93522277  0.75000000  1
  O  O21  1  0.93522277  0.06477723  0.25000000  1
