# generated using pymatgen
data_Li2Lu5B3O13
_symmetry_space_group_name_H-M   'P 1'
_cell_length_a   3.45158066
_cell_length_b   9.97280293
_cell_length_c   15.52711269
_cell_angle_alpha   74.69051858
_cell_angle_beta   90.00000000
_cell_angle_gamma   90.00000000
_symmetry_Int_Tables_number   1
_chemical_formula_structural   Li2Lu5B3O13
_chemical_formula_sum   'Li4 Lu10 B6 O26'
_cell_volume   515.50678688
_cell_formula_units_Z   2
loop_
 _symmetry_equiv_pos_site_id
 _symmetry_equiv_pos_as_xyz
  1  'x, y, z'
loop_
 _atom_site_type_symbol
 _atom_site_label
 _atom_site_symmetry_multiplicity
 _atom_site_fract_x
 _atom_site_fract_y
 _atom_site_fract_z
 _atom_site_occupancy
  Li  Li0  1  0.25000000  0.38598594  0.05275388  1
  Li  Li1  1  0.75000000  0.61401406  0.94724612  1
  Li  Li2  1  0.25000000  0.74830055  0.75456013  1
  Li  Li3  1  0.75000000  0.25169945  0.24543987  1
  Lu  Lu4  1  0.25000000  0.85572964  0.00137336  1
  Lu  Lu5  1  0.75000000  0.14427036  0.99862664  1
  Lu  Lu6  1  0.25000000  0.36110431  0.56350753  1
  Lu  Lu7  1  0.75000000  0.63889569  0.43649247  1
  Lu  Lu8  1  0.25000000  0.47845534  0.30309534  1
  Lu  Lu9  1  0.75000000  0.52154466  0.69690466  1
  Lu  Lu10  1  0.25000000  0.18816991  0.79380865  1
  Lu  Lu11  1  0.75000000  0.81183009  0.20619135  1
  Lu  Lu12  1  0.25000000  0.96333073  0.37002765  1
  Lu  Lu13  1  0.75000000  0.03666927  0.62997235  1
  B  B14  1  0.25000000  0.78908427  0.57565600  1
  B  B15  1  0.75000000  0.21091573  0.42434400  1
  B  B16  1  0.25000000  0.09329571  0.18216425  1
  B  B17  1  0.75000000  0.90670429  0.81783575  1
  B  B18  1  0.25000000  0.58914998  0.11112700  1
  B  B19  1  0.75000000  0.41085002  0.88887300  1
  O  O20  1  0.25000000  0.45671966  0.16409333  1
  O  O21  1  0.75000000  0.54328034  0.83590667  1
  O  O22  1  0.25000000  0.15440909  0.25144284  1
  O  O23  1  0.75000000  0.84559091  0.74855716  1
  O  O24  1  0.25000000  0.51252563  0.43233543  1
  O  O25  1  0.75000000  0.48747437  0.56766457  1
  O  O26  1  0.25000000  0.70516843  0.14784013  1
  O  O27  1  0.75000000  0.29483157  0.85215987  1
  O  O28  1  0.25000000  0.76617208  0.49137079  1
  O  O29  1  0.75000000  0.23382792  0.50862921  1
  O  O30  1  0.25000000  0.62107454  0.01909357  1
  O  O31  1  0.75000000  0.37892546  0.98090643  1
  O  O32  1  0.25000000  0.15099516  0.65561656  1
  O  O33  1  0.75000000  0.84900484  0.34438344  1
  O  O34  1  0.25000000  0.07952165  0.93675854  1
  O  O35  1  0.75000000  0.92047835  0.06324146  1
  O  O36  1  0.25000000  0.16790616  0.09434468  1
  O  O37  1  0.75000000  0.83209384  0.90565532  1
  O  O38  1  0.25000000  0.94845330  0.20784113  1
  O  O39  1  0.75000000  0.05154670  0.79215887  1
  O  O40  1  0.25000000  0.39101158  0.70470803  1
  O  O41  1  0.75000000  0.60898842  0.29529197  1
  O  O42  1  0.25000000  0.92272951  0.58465593  1
  O  O43  1  0.75000000  0.07727049  0.41534407  1
  O  O44  1  0.25000000  0.67764175  0.65183871  1
  O  O45  1  0.75000000  0.32235825  0.34816129  1
