# generated using pymatgen
data_Ba2Zn3F10
_symmetry_space_group_name_H-M   'P 1'
_cell_length_a   9.82342304
_cell_length_b   9.82342304
_cell_length_c   7.87280616
_cell_angle_alpha   69.47014535
_cell_angle_beta   69.47014535
_cell_angle_gamma   35.62946966
_symmetry_Int_Tables_number   1
_chemical_formula_structural   Ba2Zn3F10
_chemical_formula_sum   'Ba4 Zn6 F20'
_cell_volume   411.45014331
_cell_formula_units_Z   2
loop_
 _symmetry_equiv_pos_site_id
 _symmetry_equiv_pos_as_xyz
  1  'x, y, z'
loop_
 _atom_site_type_symbol
 _atom_site_label
 _atom_site_symmetry_multiplicity
 _atom_site_fract_x
 _atom_site_fract_y
 _atom_site_fract_z
 _atom_site_occupancy
  Ba  Ba0  1  0.61487577  0.61487577  0.27990101  1
  Ba  Ba1  1  0.38512423  0.38512423  0.72009899  1
  Ba  Ba2  1  0.71925326  0.71925326  0.68673723  1
  Ba  Ba3  1  0.28074674  0.28074674  0.31326277  1
  Zn  Zn4  1  0.74244032  0.25755968  0.00000000  1
  Zn  Zn5  1  0.25755968  0.74244032  0.00000000  1
  Zn  Zn6  1  0.82391327  0.82391327  0.01983639  1
  Zn  Zn7  1  0.17608673  0.17608673  0.98016361  1
  Zn  Zn8  1  0.92592969  0.92592969  0.45278577  1
  Zn  Zn9  1  0.07407031  0.07407031  0.54721423  1
  F  F10  1  0.86564751  0.86564751  0.74622793  1
  F  F11  1  0.13435249  0.13435249  0.25377207  1
  F  F12  1  0.62434549  0.15182456  0.02888501  1
  F  F13  1  0.37565451  0.84817544  0.97111499  1
  F  F14  1  0.84817544  0.37565451  0.97111499  1
  F  F15  1  0.15182456  0.62434549  0.02888501  1
  F  F16  1  0.77558840  0.22441160  0.50000000  1
  F  F17  1  0.22441160  0.77558840  0.50000000  1
  F  F18  1  0.97961182  0.97961182  0.18102912  1
  F  F19  1  0.02038818  0.02038818  0.81897088  1
  F  F20  1  0.48319163  0.48319163  0.18803950  1
  F  F21  1  0.51680837  0.51680837  0.81196050  1
  F  F22  1  0.76348655  0.76348655  0.28468315  1
  F  F23  1  0.23651345  0.23651345  0.71531685  1
  F  F24  1  0.50000000  -0.00000000  0.00000000  1
  F  F25  1  0.00000000  0.50000000  0.00000000  1
  F  F26  1  0.61019376  0.09041111  0.47568593  1
  F  F27  1  0.38980624  0.90958889  0.52431407  1
  F  F28  1  0.90958889  0.38980624  0.52431407  1
  F  F29  1  0.09041111  0.61019376  0.47568593  1
