# generated using pymatgen
data_ZrTl2S3
_symmetry_space_group_name_H-M   'P 1'
_cell_length_a   3.80010290
_cell_length_b   7.96579703
_cell_length_c   10.42059052
_cell_angle_alpha   97.43989008
_cell_angle_beta   90.00000000
_cell_angle_gamma   90.00000000
_symmetry_Int_Tables_number   1
_chemical_formula_structural   ZrTl2S3
_chemical_formula_sum   'Zr2 Tl4 S6'
_cell_volume   312.78450494
_cell_formula_units_Z   2
loop_
 _symmetry_equiv_pos_site_id
 _symmetry_equiv_pos_as_xyz
  1  'x, y, z'
loop_
 _atom_site_type_symbol
 _atom_site_label
 _atom_site_symmetry_multiplicity
 _atom_site_fract_x
 _atom_site_fract_y
 _atom_site_fract_z
 _atom_site_occupancy
  Zr  Zr0  1  0.75000000  0.58722303  0.66325791  1
  Zr  Zr1  1  0.25000000  0.41277697  0.33674209  1
  Tl  Tl2  1  0.75000000  0.94009243  0.33855981  1
  Tl  Tl3  1  0.25000000  0.05990757  0.66144019  1
  Tl  Tl4  1  0.75000000  0.25073496  0.00355236  1
  Tl  Tl5  1  0.25000000  0.74926504  0.99644764  1
  S  S6  1  0.75000000  0.86164294  0.80529423  1
  S  S7  1  0.25000000  0.13835706  0.19470577  1
  S  S8  1  0.75000000  0.54272389  0.21601874  1
  S  S9  1  0.25000000  0.45727611  0.78398126  1
  S  S10  1  0.75000000  0.31272549  0.48379974  1
  S  S11  1  0.25000000  0.68727451  0.51620026  1
