# generated using pymatgen
data_KTm2Cl7
_symmetry_space_group_name_H-M   'P 1'
_cell_length_a   6.81577749
_cell_length_b   12.40650375
_cell_length_c   12.82490364
_cell_angle_alpha   90.00000000
_cell_angle_beta   90.34889730
_cell_angle_gamma   90.00000000
_symmetry_Int_Tables_number   1
_chemical_formula_structural   KTm2Cl7
_chemical_formula_sum   'K4 Tm8 Cl28'
_cell_volume   1084.45334707
_cell_formula_units_Z   4
loop_
 _symmetry_equiv_pos_site_id
 _symmetry_equiv_pos_as_xyz
  1  'x, y, z'
loop_
 _atom_site_type_symbol
 _atom_site_label
 _atom_site_symmetry_multiplicity
 _atom_site_fract_x
 _atom_site_fract_y
 _atom_site_fract_z
 _atom_site_occupancy
  K  K0  1  0.22262186  0.79687854  0.03605146  1
  K  K1  1  0.77737814  0.20312146  0.96394854  1
  K  K2  1  0.77737814  0.29687854  0.46394854  1
  K  K3  1  0.22262186  0.70312146  0.53605146  1
  Tm  Tm4  1  0.22920753  0.46254136  0.23872611  1
  Tm  Tm5  1  0.77079247  0.53745864  0.76127389  1
  Tm  Tm6  1  0.77079247  0.96254136  0.26127389  1
  Tm  Tm7  1  0.22920753  0.03745864  0.73872611  1
  Tm  Tm8  1  0.27256405  0.16009814  0.24855465  1
  Tm  Tm9  1  0.72743595  0.83990186  0.75144535  1
  Tm  Tm10  1  0.72743595  0.66009814  0.25144535  1
  Tm  Tm11  1  0.27256405  0.33990186  0.74855465  1
  Cl  Cl12  1  0.04991926  0.02874492  0.13122446  1
  Cl  Cl13  1  0.95008074  0.97125508  0.86877554  1
  Cl  Cl14  1  0.95008074  0.52874492  0.36877554  1
  Cl  Cl15  1  0.04991926  0.47125508  0.63122446  1
  Cl  Cl16  1  0.25326404  0.31373433  0.39573317  1
  Cl  Cl17  1  0.74673596  0.68626567  0.60426683  1
  Cl  Cl18  1  0.74673596  0.81373433  0.10426683  1
  Cl  Cl19  1  0.25326404  0.18626567  0.89573317  1
  Cl  Cl20  1  0.49108156  0.32069837  0.17456668  1
  Cl  Cl21  1  0.50891844  0.67930163  0.82543332  1
  Cl  Cl22  1  0.50891844  0.82069837  0.32543332  1
  Cl  Cl23  1  0.49108156  0.17930163  0.67456668  1
  Cl  Cl24  1  0.01972516  0.07380321  0.38024650  1
  Cl  Cl25  1  0.98027484  0.92619679  0.61975350  1
  Cl  Cl26  1  0.98027484  0.57380321  0.11975350  1
  Cl  Cl27  1  0.01972516  0.42619679  0.88024650  1
  Cl  Cl28  1  0.53063298  0.05629830  0.12720695  1
  Cl  Cl29  1  0.46936702  0.94370170  0.87279305  1
  Cl  Cl30  1  0.46936702  0.55629830  0.37279305  1
  Cl  Cl31  1  0.53063298  0.44370170  0.62720695  1
  Cl  Cl32  1  0.00473860  0.29852846  0.17478173  1
  Cl  Cl33  1  0.99526140  0.70147154  0.82521827  1
  Cl  Cl34  1  0.99526140  0.79852846  0.32521827  1
  Cl  Cl35  1  0.00473860  0.20147154  0.67478173  1
  Cl  Cl36  1  0.54001460  0.08738314  0.37983817  1
  Cl  Cl37  1  0.45998540  0.91261686  0.62016183  1
  Cl  Cl38  1  0.45998540  0.58738314  0.12016183  1
  Cl  Cl39  1  0.54001460  0.41261686  0.87983817  1
