# generated using pymatgen
data_K4MgV6O16
_symmetry_space_group_name_H-M   'P 1'
_cell_length_a   5.39585890
_cell_length_b   9.11668908
_cell_length_c   9.15079512
_cell_angle_alpha   86.47665426
_cell_angle_beta   90.79860087
_cell_angle_gamma   88.75219702
_symmetry_Int_Tables_number   1
_chemical_formula_structural   K4MgV6O16
_chemical_formula_sum   'K4 Mg1 V6 O16'
_cell_volume   449.13924272
_cell_formula_units_Z   1
loop_
 _symmetry_equiv_pos_site_id
 _symmetry_equiv_pos_as_xyz
  1  'x, y, z'
loop_
 _atom_site_type_symbol
 _atom_site_label
 _atom_site_symmetry_multiplicity
 _atom_site_fract_x
 _atom_site_fract_y
 _atom_site_fract_z
 _atom_site_occupancy
  K  K0  1  0.15998500  0.69810300  0.14738700  1
  K  K1  1  0.15094600  0.75193600  0.58708800  1
  K  K2  1  0.18441000  0.15444700  0.29340300  1
  K  K3  1  0.20190900  0.35844900  0.81820500  1
  Mg  Mg4  1  0.14821200  0.96071500  0.84498200  1
  V  V5  1  0.62741800  0.86971000  0.36642200  1
  V  V6  1  0.68191100  0.38917900  0.13956900  1
  V  V7  1  0.63134300  0.10997300  0.64843900  1
  V  V8  1  0.61918500  0.65693500  0.85576900  1
  V  V9  1  0.62700000  0.02724500  0.01537700  1
  V  V10  1  0.66205000  0.48980400  0.51095000  1
  O  O11  1  0.96769600  0.49208500  0.53156800  1
  O  O12  1  0.95762800  0.99681200  0.01433700  1
  O  O13  1  0.54492600  0.52988500  0.00907100  1
  O  O14  1  0.50539700  0.98705700  0.50163900  1
  O  O15  1  0.92133800  0.70217600  0.85405100  1
  O  O16  1  0.93537000  0.04413100  0.68078100  1
  O  O17  1  0.93541600  0.88293300  0.35672500  1
  O  O18  1  0.99054100  0.39430100  0.12430400  1
  O  O19  1  0.53476800  0.57154300  0.69660600  1
  O  O20  1  0.58899600  0.42013600  0.31626000  1
  O  O21  1  0.56968100  0.22027300  0.09509600  1
  O  O22  1  0.49524400  0.92139700  0.19280100  1
  O  O23  1  0.45325600  0.09147200  0.82508600  1
  O  O24  1  0.43138500  0.80904800  0.88073600  1
  O  O25  1  0.56300800  0.29721500  0.58982400  1
  O  O26  1  0.54962800  0.68732300  0.41781000  1
