# generated using pymatgen
data_Rb3Sc2Br9
_symmetry_space_group_name_H-M   'P 1'
_cell_length_a   7.58650009
_cell_length_b   7.58643934
_cell_length_c   19.28791997
_cell_angle_alpha   89.99973110
_cell_angle_beta   90.00074460
_cell_angle_gamma   120.00002397
_symmetry_Int_Tables_number   1
_chemical_formula_structural   Rb3Sc2Br9
_chemical_formula_sum   'Rb6 Sc4 Br18'
_cell_volume   961.38065623
_cell_formula_units_Z   2
loop_
 _symmetry_equiv_pos_site_id
 _symmetry_equiv_pos_as_xyz
  1  'x, y, z'
loop_
 _atom_site_type_symbol
 _atom_site_label
 _atom_site_symmetry_multiplicity
 _atom_site_fract_x
 _atom_site_fract_y
 _atom_site_fract_z
 _atom_site_occupancy
  Rb  Rb0  1  0.33333319  0.66666854  0.06853645  1
  Rb  Rb1  1  0.66666906  0.33333492  0.93146625  1
  Rb  Rb2  1  0.66666701  0.33333370  0.56853242  1
  Rb  Rb3  1  0.33333511  0.66666866  0.43146974  1
  Rb  Rb4  1  0.00000183  0.00000232  0.25000459  1
  Rb  Rb5  1  0.00000290  0.00000226  0.74999780  1
  Sc  Sc6  1  0.33332803  0.66666085  0.65586187  1
  Sc  Sc7  1  0.66666697  0.33333868  0.34413543  1
  Sc  Sc8  1  0.66667460  0.33333100  0.15586536  1
  Sc  Sc9  1  0.33333123  0.66667319  0.84413488  1
  Br  Br10  1  0.16698833  0.33398889  0.58731654  1
  Br  Br11  1  0.83301284  0.66602019  0.41267114  1
  Br  Br12  1  0.66600787  0.83300586  0.58731393  1
  Br  Br13  1  0.83301764  0.66600788  0.08731839  1
  Br  Br14  1  0.33398576  0.16699770  0.41268106  1
  Br  Br15  1  0.16699358  0.33400826  0.91268880  1
  Br  Br16  1  0.16699450  0.83300591  0.58733818  1
  Br  Br17  1  0.33401405  0.16699809  0.08732112  1
  Br  Br18  1  0.83299598  0.16698733  0.41266634  1
  Br  Br19  1  0.66598974  0.83301239  0.91268243  1
  Br  Br20  1  0.83301061  0.16699580  0.08732483  1
  Br  Br21  1  0.16700396  0.83301246  0.91268061  1
  Br  Br22  1  0.50732329  0.01469371  0.24999348  1
  Br  Br23  1  0.49263001  0.98526935  0.75000933  1
  Br  Br24  1  0.98528499  0.49262386  0.24999415  1
  Br  Br25  1  0.01473353  0.50736067  0.74999726  1
  Br  Br26  1  0.50737490  0.49263346  0.25000805  1
  Br  Br27  1  0.49262846  0.50736508  0.74999356  1
