# generated using pymatgen
data_La2Be2GeO7
_symmetry_space_group_name_H-M   'P 1'
_cell_length_a   7.67910542
_cell_length_b   7.67910542
_cell_length_c   4.95593186
_cell_angle_alpha   90.00000000
_cell_angle_beta   90.00000000
_cell_angle_gamma   90.00000000
_symmetry_Int_Tables_number   1
_chemical_formula_structural   La2Be2GeO7
_chemical_formula_sum   'La4 Be4 Ge2 O14'
_cell_volume   292.24466109
_cell_formula_units_Z   2
loop_
 _symmetry_equiv_pos_site_id
 _symmetry_equiv_pos_as_xyz
  1  'x, y, z'
loop_
 _atom_site_type_symbol
 _atom_site_label
 _atom_site_symmetry_multiplicity
 _atom_site_fract_x
 _atom_site_fract_y
 _atom_site_fract_z
 _atom_site_occupancy
  La  La0  1  0.66062832  0.83937168  0.50206566  1
  La  La1  1  0.16062832  0.66062832  0.49793434  1
  La  La2  1  0.83937168  0.33937168  0.49793434  1
  La  La3  1  0.33937168  0.16062832  0.50206566  1
  Be  Be4  1  0.36652398  0.86652398  0.03895659  1
  Be  Be5  1  0.86652398  0.63347602  0.96104341  1
  Be  Be6  1  0.63347602  0.13347602  0.03895659  1
  Be  Be7  1  0.13347602  0.36652398  0.96104341  1
  Ge  Ge8  1  0.50000000  0.50000000  -0.00000000  1
  Ge  Ge9  1  -0.00000000  0.00000000  -0.00000000  1
  O  O10  1  0.92253859  0.82647150  0.80194546  1
  O  O11  1  0.17352850  0.92253859  0.19805454  1
  O  O12  1  0.57746141  0.32647150  0.19805454  1
  O  O13  1  0.42253859  0.67352850  0.19805454  1
  O  O14  1  0.32647150  0.42253859  0.80194546  1
  O  O15  1  0.67352850  0.57746141  0.80194546  1
  O  O16  1  -0.00000000  0.50000000  0.83470744  1
  O  O17  1  0.50000000  0.00000000  0.16529256  1
  O  O18  1  0.14247075  0.35752925  0.28086374  1
  O  O19  1  0.64247075  0.14247075  0.71913626  1
  O  O20  1  0.35752925  0.85752925  0.71913626  1
  O  O21  1  0.85752925  0.64247075  0.28086374  1
  O  O22  1  0.07746141  0.17352850  0.80194546  1
  O  O23  1  0.82647150  0.07746141  0.19805454  1
