# generated using pymatgen
data_Rb2Si2Se5
_symmetry_space_group_name_H-M   'P 1'
_cell_length_a   11.36337386
_cell_length_b   11.36337386
_cell_length_c   9.43158437
_cell_angle_alpha   79.35271038
_cell_angle_beta   79.35271038
_cell_angle_gamma   90.10388925
_symmetry_Int_Tables_number   1
_chemical_formula_structural   Rb2Si2Se5
_chemical_formula_sum   'Rb8 Si8 Se20'
_cell_volume   1175.47564983
_cell_formula_units_Z   4
loop_
 _symmetry_equiv_pos_site_id
 _symmetry_equiv_pos_as_xyz
  1  'x, y, z'
loop_
 _atom_site_type_symbol
 _atom_site_label
 _atom_site_symmetry_multiplicity
 _atom_site_fract_x
 _atom_site_fract_y
 _atom_site_fract_z
 _atom_site_occupancy
  Rb  Rb0  1  0.28988076  0.02148421  0.62166603  1
  Rb  Rb1  1  0.71011924  0.97851579  0.37833397  1
  Rb  Rb2  1  0.97851579  0.71011924  0.87833397  1
  Rb  Rb3  1  0.02148421  0.28988076  0.12166603  1
  Rb  Rb4  1  0.55669829  0.70905731  0.87534584  1
  Rb  Rb5  1  0.44330171  0.29094269  0.12465416  1
  Rb  Rb6  1  0.29094269  0.44330171  0.62465416  1
  Rb  Rb7  1  0.70905731  0.55669829  0.37534584  1
  Si  Si8  1  0.63880096  0.23080955  0.61514940  1
  Si  Si9  1  0.36119904  0.76919045  0.38485060  1
  Si  Si10  1  0.76919045  0.36119904  0.88485060  1
  Si  Si11  1  0.23080955  0.63880096  0.11514940  1
  Si  Si12  1  0.76639764  0.02792271  0.89899427  1
  Si  Si13  1  0.23360236  0.97207729  0.10100573  1
  Si  Si14  1  0.97207729  0.23360236  0.60100573  1
  Si  Si15  1  0.02792271  0.76639764  0.39899427  1
  Se  Se16  1  0.74421650  0.17680130  0.03887029  1
  Se  Se17  1  0.25578350  0.82319870  0.96112971  1
  Se  Se18  1  0.82319870  0.25578350  0.46112971  1
  Se  Se19  1  0.17680130  0.74421650  0.53887029  1
  Se  Se20  1  0.61458950  0.04507892  0.76321150  1
  Se  Se21  1  0.38541050  0.95492108  0.23678850  1
  Se  Se22  1  0.95492108  0.38541050  0.73678850  1
  Se  Se23  1  0.04507892  0.61458950  0.26321150  1
  Se  Se24  1  0.61774144  0.38225856  0.75000000  1
  Se  Se25  1  0.38225856  0.61774144  0.25000000  1
  Se  Se26  1  0.49470314  0.74609178  0.52607854  1
  Se  Se27  1  0.50529686  0.25390822  0.47392146  1
  Se  Se28  1  0.25390822  0.50529686  0.97392146  1
  Se  Se29  1  0.74609178  0.49470314  0.02607854  1
  Se  Se30  1  0.74245487  0.85568979  0.04931785  1
  Se  Se31  1  0.25754513  0.14431021  0.95068215  1
  Se  Se32  1  0.14431021  0.25754513  0.45068215  1
  Se  Se33  1  0.85568979  0.74245487  0.54931785  1
  Se  Se34  1  0.95270865  0.04729135  0.75000000  1
  Se  Se35  1  0.04729135  0.95270865  0.25000000  1
