# generated using pymatgen
data_BaSnS3
_symmetry_space_group_name_H-M   'P 1'
_cell_length_a   3.96018971
_cell_length_b   8.60846534
_cell_length_c   14.69781739
_cell_angle_alpha   90.00000000
_cell_angle_beta   90.00000000
_cell_angle_gamma   90.00000000
_symmetry_Int_Tables_number   1
_chemical_formula_structural   BaSnS3
_chemical_formula_sum   'Ba4 Sn4 S12'
_cell_volume   501.06558342
_cell_formula_units_Z   4
loop_
 _symmetry_equiv_pos_site_id
 _symmetry_equiv_pos_as_xyz
  1  'x, y, z'
loop_
 _atom_site_type_symbol
 _atom_site_label
 _atom_site_symmetry_multiplicity
 _atom_site_fract_x
 _atom_site_fract_y
 _atom_site_fract_z
 _atom_site_occupancy
  Ba  Ba0  1  0.75000000  0.57653227  0.67388059  1
  Ba  Ba1  1  0.25000000  0.92346773  0.17388059  1
  Ba  Ba2  1  0.25000000  0.42346773  0.32611941  1
  Ba  Ba3  1  0.75000000  0.07653227  0.82611941  1
  Sn  Sn4  1  0.25000000  0.66721826  0.94358828  1
  Sn  Sn5  1  0.75000000  0.33278174  0.05641172  1
  Sn  Sn6  1  0.25000000  0.16721826  0.55641172  1
  Sn  Sn7  1  0.75000000  0.83278174  0.44358828  1
  S  S8  1  0.25000000  0.66328565  0.50234926  1
  S  S9  1  0.75000000  0.83671435  0.00234926  1
  S  S10  1  0.25000000  0.02750484  0.40019758  1
  S  S11  1  0.75000000  0.47249516  0.90019758  1
  S  S12  1  0.25000000  0.52750484  0.09980242  1
  S  S13  1  0.25000000  0.28743218  0.70785123  1
  S  S14  1  0.75000000  0.21256782  0.20785123  1
  S  S15  1  0.25000000  0.78743218  0.79214877  1
  S  S16  1  0.75000000  0.71256782  0.29214877  1
  S  S17  1  0.75000000  0.33671435  0.49765074  1
  S  S18  1  0.25000000  0.16328565  0.99765074  1
  S  S19  1  0.75000000  0.97249516  0.59980242  1
