# generated using pymatgen
data_Rb2ErCl5
_symmetry_space_group_name_H-M   'P 1'
_cell_length_a   7.30615709
_cell_length_b   9.35916127
_cell_length_c   14.71353561
_cell_angle_alpha   90.00000000
_cell_angle_beta   90.00000000
_cell_angle_gamma   90.00000000
_symmetry_Int_Tables_number   1
_chemical_formula_structural   Rb2ErCl5
_chemical_formula_sum   'Rb8 Er4 Cl20'
_cell_volume   1006.10424458
_cell_formula_units_Z   4
loop_
 _symmetry_equiv_pos_site_id
 _symmetry_equiv_pos_as_xyz
  1  'x, y, z'
loop_
 _atom_site_type_symbol
 _atom_site_label
 _atom_site_symmetry_multiplicity
 _atom_site_fract_x
 _atom_site_fract_y
 _atom_site_fract_z
 _atom_site_occupancy
  Rb  Rb0  1  0.25000000  0.67000744  0.91542414  1
  Rb  Rb1  1  0.75000000  0.32999256  0.08457586  1
  Rb  Rb2  1  0.75000000  0.82999256  0.41542414  1
  Rb  Rb3  1  0.25000000  0.17000744  0.58457586  1
  Rb  Rb4  1  0.25000000  0.96850700  0.20883818  1
  Rb  Rb5  1  0.75000000  0.03149300  0.79116182  1
  Rb  Rb6  1  0.75000000  0.53149300  0.70883818  1
  Rb  Rb7  1  0.25000000  0.46850700  0.29116182  1
  Er  Er8  1  0.25000000  0.68825323  0.56293945  1
  Er  Er9  1  0.75000000  0.31174677  0.43706055  1
  Er  Er10  1  0.75000000  0.81174677  0.06293945  1
  Er  Er11  1  0.25000000  0.18825323  0.93706055  1
  Cl  Cl12  1  0.25000000  0.53369423  0.70657726  1
  Cl  Cl13  1  0.75000000  0.46630577  0.29342274  1
  Cl  Cl14  1  0.75000000  0.96630577  0.20657726  1
  Cl  Cl15  1  0.25000000  0.03369423  0.79342274  1
  Cl  Cl16  1  0.50873231  0.84993596  0.61251189  1
  Cl  Cl17  1  0.49126769  0.15006404  0.38748811  1
  Cl  Cl18  1  0.49126769  0.65006404  0.11251189  1
  Cl  Cl19  1  0.00873231  0.15006404  0.38748811  1
  Cl  Cl20  1  0.50873231  0.34993596  0.88748811  1
  Cl  Cl21  1  0.99126769  0.84993596  0.61251189  1
  Cl  Cl22  1  0.99126769  0.34993596  0.88748811  1
  Cl  Cl23  1  0.00873231  0.65006404  0.11251189  1
  Cl  Cl24  1  0.25000000  0.78165348  0.39542052  1
  Cl  Cl25  1  0.75000000  0.21834652  0.60457948  1
  Cl  Cl26  1  0.75000000  0.71834652  0.89542052  1
  Cl  Cl27  1  0.25000000  0.28165348  0.10457948  1
  Cl  Cl28  1  -0.00000000  0.50000000  0.50000000  1
  Cl  Cl29  1  -0.00000000  -0.00000000  0.00000000  1
  Cl  Cl30  1  0.50000000  0.50000000  0.50000000  1
  Cl  Cl31  1  0.50000000  -0.00000000  0.00000000  1
