# generated using pymatgen
data_Sr2YNbO6
_symmetry_space_group_name_H-M   'P 1'
_cell_length_a   8.36970220
_cell_length_b   8.36970220
_cell_length_c   8.36970220
_cell_angle_alpha   90.00000000
_cell_angle_beta   90.00000000
_cell_angle_gamma   90.00000000
_symmetry_Int_Tables_number   1
_chemical_formula_structural   Sr2YNbO6
_chemical_formula_sum   'Sr8 Y4 Nb4 O24'
_cell_volume   586.31366639
_cell_formula_units_Z   4
loop_
 _symmetry_equiv_pos_site_id
 _symmetry_equiv_pos_as_xyz
  1  'x, y, z'
loop_
 _atom_site_type_symbol
 _atom_site_label
 _atom_site_symmetry_multiplicity
 _atom_site_fract_x
 _atom_site_fract_y
 _atom_site_fract_z
 _atom_site_occupancy
  Sr  Sr0  1  0.50000000  0.50000000  0.50000000  1
  Sr  Sr1  1  -0.00000000  0.00000000  0.00000000  1
  Sr  Sr2  1  -0.00000000  0.00000000  0.50000000  1
  Sr  Sr3  1  -0.00000000  0.50000000  0.00000000  1
  Sr  Sr4  1  0.50000000  0.00000000  0.00000000  1
  Sr  Sr5  1  0.50000000  0.50000000  0.00000000  1
  Sr  Sr6  1  0.50000000  0.00000000  0.50000000  1
  Sr  Sr7  1  -0.00000000  0.50000000  0.50000000  1
  Y  Y8  1  0.25000000  0.25000000  0.25000000  1
  Y  Y9  1  0.25000000  0.75000000  0.75000000  1
  Y  Y10  1  0.75000000  0.25000000  0.75000000  1
  Y  Y11  1  0.75000000  0.75000000  0.25000000  1
  Nb  Nb12  1  0.75000000  0.75000000  0.75000000  1
  Nb  Nb13  1  0.75000000  0.25000000  0.25000000  1
  Nb  Nb14  1  0.25000000  0.75000000  0.25000000  1
  Nb  Nb15  1  0.25000000  0.25000000  0.75000000  1
  O  O16  1  0.21671035  0.29037123  0.51375378  1
  O  O17  1  0.21671035  0.70962877  0.48624622  1
  O  O18  1  0.78328965  0.29037123  0.48624622  1
  O  O19  1  0.78328965  0.70962877  0.51375378  1
  O  O20  1  0.29037123  0.51375378  0.21671035  1
  O  O21  1  0.70962877  0.48624622  0.21671035  1
  O  O22  1  0.29037123  0.48624622  0.78328965  1
  O  O23  1  0.70962877  0.51375378  0.78328965  1
  O  O24  1  0.51375378  0.21671035  0.29037123  1
  O  O25  1  0.48624622  0.21671035  0.70962877  1
  O  O26  1  0.48624622  0.78328965  0.29037123  1
  O  O27  1  0.51375378  0.78328965  0.70962877  1
  O  O28  1  0.28328965  0.20962877  0.98624622  1
  O  O29  1  0.28328965  0.79037123  0.01375378  1
  O  O30  1  0.71671035  0.20962877  0.01375378  1
  O  O31  1  0.71671035  0.79037123  0.98624622  1
  O  O32  1  0.20962877  0.98624622  0.28328965  1
  O  O33  1  0.79037123  0.01375378  0.28328965  1
  O  O34  1  0.20962877  0.01375378  0.71671035  1
  O  O35  1  0.79037123  0.98624622  0.71671035  1
  O  O36  1  0.98624622  0.28328965  0.20962877  1
  O  O37  1  0.01375378  0.28328965  0.79037123  1
  O  O38  1  0.01375378  0.71671035  0.20962877  1
  O  O39  1  0.98624622  0.71671035  0.79037123  1
