# generated using pymatgen
data_TeSe
_symmetry_space_group_name_H-M   'P 1'
_cell_length_a   4.53209586
_cell_length_b   4.60011036
_cell_length_c   10.89717285
_cell_angle_alpha   90.65321593
_cell_angle_beta   91.26672635
_cell_angle_gamma   57.94406022
_symmetry_Int_Tables_number   1
_chemical_formula_structural   TeSe
_chemical_formula_sum   'Te3 Se3'
_cell_volume   192.49977990
_cell_formula_units_Z   3
loop_
 _symmetry_equiv_pos_site_id
 _symmetry_equiv_pos_as_xyz
  1  'x, y, z'
loop_
 _atom_site_type_symbol
 _atom_site_label
 _atom_site_symmetry_multiplicity
 _atom_site_fract_x
 _atom_site_fract_y
 _atom_site_fract_z
 _atom_site_occupancy
  Te  Te0  1  0.26845084  0.98778757  0.99658745  1
  Te  Te1  1  0.74831833  0.24992026  0.17519089  1
  Te  Te2  1  0.74670235  0.24344158  0.66157666  1
  Se  Se3  1  0.00433843  0.76718732  0.34190776  1
  Se  Se4  1  0.01111988  0.76532657  0.82818801  1
  Se  Se5  1  0.22107218  0.98633471  0.49644922  1
