# generated using pymatgen
data_V2CoO6
_symmetry_space_group_name_H-M   'P 1'
_cell_length_a   3.47091556
_cell_length_b   4.94347883
_cell_length_c   6.60738513
_cell_angle_alpha   109.53976047
_cell_angle_beta   90.00324701
_cell_angle_gamma   110.55081219
_symmetry_Int_Tables_number   1
_chemical_formula_structural   V2CoO6
_chemical_formula_sum   'V2 Co1 O6'
_cell_volume   99.15331682
_cell_formula_units_Z   1
loop_
 _symmetry_equiv_pos_site_id
 _symmetry_equiv_pos_as_xyz
  1  'x, y, z'
loop_
 _atom_site_type_symbol
 _atom_site_label
 _atom_site_symmetry_multiplicity
 _atom_site_fract_x
 _atom_site_fract_y
 _atom_site_fract_z
 _atom_site_occupancy
  V  V0  1  0.79084977  0.60681923  0.33889189  1
  V  V1  1  0.18414236  0.39318758  0.66110491  1
  Co  Co2  1  0.98712703  0.00003578  0.00000918  1
  O  O3  1  0.67981569  0.38455306  0.56451857  1
  O  O4  1  0.02561522  0.07643118  0.73126446  1
  O  O5  1  0.94929401  0.92352223  0.26873782  1
  O  O6  1  0.29524205  0.61551747  0.43548645  1
  O  O7  1  0.33885500  0.70258798  0.89292864  1
  O  O8  1  0.63605687  0.29734448  0.10706007  1
