# generated using pymatgen
data_Nd9Ga5S21
_symmetry_space_group_name_H-M   'P 1'
_cell_length_a   11.72159162
_cell_length_b   11.72159231
_cell_length_c   11.72159257
_cell_angle_alpha   94.87433083
_cell_angle_beta   94.87433046
_cell_angle_gamma   94.87433088
_symmetry_Int_Tables_number   1
_chemical_formula_structural   Nd9Ga5S21
_chemical_formula_sum   'Nd18 Ga10 S42'
_cell_volume   1591.96027692
_cell_formula_units_Z   2
loop_
 _symmetry_equiv_pos_site_id
 _symmetry_equiv_pos_as_xyz
  1  'x, y, z'
loop_
 _atom_site_type_symbol
 _atom_site_label
 _atom_site_symmetry_multiplicity
 _atom_site_fract_x
 _atom_site_fract_y
 _atom_site_fract_z
 _atom_site_occupancy
  Nd  Nd0  1  0.11446997  0.88427682  0.25790944  1
  Nd  Nd1  1  0.77141660  0.54403146  0.92128646  1
  Nd  Nd2  1  0.44728223  0.22927644  0.60671353  1
  Nd  Nd3  1  0.22927644  0.60671353  0.44728223  1
  Nd  Nd4  1  0.88427682  0.25790944  0.11446997  1
  Nd  Nd5  1  0.54403146  0.92128646  0.77141660  1
  Nd  Nd6  1  0.92128646  0.77141660  0.54403146  1
  Nd  Nd7  1  0.60671353  0.44728223  0.22927644  1
  Nd  Nd8  1  0.25790944  0.11446997  0.88427682  1
  Nd  Nd9  1  0.56398207  0.78921613  0.41432425  1
  Nd  Nd10  1  0.21913200  0.44428221  0.06761781  1
  Nd  Nd11  1  0.89964517  0.12753321  0.75009696  1
  Nd  Nd12  1  0.44428221  0.06761781  0.21913200  1
  Nd  Nd13  1  0.12753321  0.75009696  0.89964517  1
  Nd  Nd14  1  0.78921613  0.41432425  0.56398207  1
  Nd  Nd15  1  0.75009696  0.89964517  0.12753321  1
  Nd  Nd16  1  0.41432425  0.56398207  0.78921613  1
  Nd  Nd17  1  0.06761781  0.21913200  0.44428221  1
  Ga  Ga18  1  0.60929315  0.27694713  0.95113345  1
  Ga  Ga19  1  0.27694713  0.95113345  0.60929315  1
  Ga  Ga20  1  0.95113345  0.60929315  0.27694713  1
  Ga  Ga21  1  0.77263518  0.11514392  0.44930326  1
  Ga  Ga22  1  0.44930326  0.77263518  0.11514392  1
  Ga  Ga23  1  0.11514392  0.44930326  0.77263518  1
  Ga  Ga24  1  0.14584719  0.14584719  0.14584719  1
  Ga  Ga25  1  0.85045174  0.85045174  0.85045174  1
  Ga  Ga26  1  0.35094295  0.35094295  0.35094295  1
  Ga  Ga27  1  0.64689491  0.64689491  0.64689491  1
  S  S28  1  0.54946713  0.45459034  0.98854365  1
  S  S29  1  0.21397542  0.12734578  0.64214588  1
  S  S30  1  0.88968292  0.78922662  0.30496143  1
  S  S31  1  0.78922662  0.30496143  0.88968292  1
  S  S32  1  0.45459034  0.98854365  0.54946713  1
  S  S33  1  0.12734578  0.64214588  0.21397542  1
  S  S34  1  0.64214588  0.21397542  0.12734578  1
  S  S35  1  0.30496143  0.88968292  0.78922662  1
  S  S36  1  0.98854365  0.54946713  0.45459034  1
  S  S37  1  0.93048041  0.03374946  0.51832685  1
  S  S38  1  0.61220212  0.69981314  0.18388925  1
  S  S39  1  0.27669940  0.36754337  0.83632677  1
  S  S40  1  0.69981314  0.18388925  0.61220212  1
  S  S41  1  0.36754337  0.83632677  0.27669940  1
  S  S42  1  0.03374946  0.51832685  0.93048041  1
  S  S43  1  0.83632677  0.27669940  0.36754337  1
  S  S44  1  0.51832685  0.93048041  0.03374946  1
  S  S45  1  0.18388925  0.61220212  0.69981314  1
  S  S46  1  0.49029187  0.15470364  0.82824891  1
  S  S47  1  0.15470364  0.82824891  0.49029187  1
  S  S48  1  0.82824891  0.49029187  0.15470364  1
  S  S49  1  0.99305661  0.32566427  0.65429242  1
  S  S50  1  0.65429242  0.99305661  0.32566427  1
  S  S51  1  0.32566427  0.65429242  0.99305661  1
  S  S52  1  0.59112212  0.44574815  0.69047365  1
  S  S53  1  0.23794747  0.10324672  0.33344738  1
  S  S54  1  0.90583500  0.76298010  0.00720137  1
  S  S55  1  0.76298010  0.00720137  0.90583500  1
  S  S56  1  0.44574815  0.69047365  0.59112212  1
  S  S57  1  0.10324672  0.33344738  0.23794747  1
  S  S58  1  0.33344738  0.23794747  0.10324672  1
  S  S59  1  0.00720137  0.90583500  0.76298010  1
  S  S60  1  0.69047365  0.59112212  0.44574815  1
  S  S61  1  0.71372655  0.84927221  0.62007091  1
  S  S62  1  0.38073011  0.51836413  0.27362139  1
  S  S63  1  0.05632875  0.20494054  0.95944117  1
  S  S64  1  0.51836413  0.27362139  0.38073011  1
  S  S65  1  0.20494054  0.95944117  0.05632875  1
  S  S66  1  0.84927221  0.62007091  0.71372655  1
  S  S67  1  0.95944117  0.05632875  0.20494054  1
  S  S68  1  0.62007091  0.71372655  0.84927221  1
  S  S69  1  0.27362139  0.38073011  0.51836413  1
