# generated using pymatgen
data_NdBN2
_symmetry_space_group_name_H-M   'P 1'
_cell_length_a   7.37908352
_cell_length_b   7.37908352
_cell_length_c   7.37908267
_cell_angle_alpha   110.62673802
_cell_angle_beta   110.62673802
_cell_angle_gamma   110.62674354
_symmetry_Int_Tables_number   1
_chemical_formula_structural   NdBN2
_chemical_formula_sum   'Nd6 B6 N12'
_cell_volume   295.33183283
_cell_formula_units_Z   6
loop_
 _symmetry_equiv_pos_site_id
 _symmetry_equiv_pos_as_xyz
  1  'x, y, z'
loop_
 _atom_site_type_symbol
 _atom_site_label
 _atom_site_symmetry_multiplicity
 _atom_site_fract_x
 _atom_site_fract_y
 _atom_site_fract_z
 _atom_site_occupancy
  Nd  Nd0  1  0.70447262  0.25000000  0.79552738  1
  Nd  Nd1  1  0.79552738  0.70447262  0.25000000  1
  Nd  Nd2  1  0.25000000  0.79552738  0.70447262  1
  Nd  Nd3  1  0.29552738  0.75000000  0.20447262  1
  Nd  Nd4  1  0.20447262  0.29552738  0.75000000  1
  Nd  Nd5  1  0.75000000  0.20447262  0.29552738  1
  B  B6  1  0.86934616  0.63065384  0.75000000  1
  B  B7  1  0.75000000  0.86934616  0.63065384  1
  B  B8  1  0.63065384  0.75000000  0.86934616  1
  B  B9  1  0.25000000  0.13065384  0.36934616  1
  B  B10  1  0.36934616  0.25000000  0.13065384  1
  B  B11  1  0.13065384  0.36934616  0.25000000  1
  N  N12  1  0.75000000  0.62778175  0.87221825  1
  N  N13  1  0.87221825  0.75000000  0.62778175  1
  N  N14  1  0.62778175  0.87221825  0.75000000  1
  N  N15  1  0.37221825  0.12778175  0.25000000  1
  N  N16  1  0.25000000  0.37221825  0.12778175  1
  N  N17  1  0.12778175  0.25000000  0.37221825  1
  N  N18  1  0.75000000  0.99108169  0.50891831  1
  N  N19  1  0.50891831  0.75000000  0.99108169  1
  N  N20  1  0.99108169  0.50891831  0.75000000  1
  N  N21  1  0.00891831  0.49108169  0.25000000  1
  N  N22  1  0.25000000  0.00891831  0.49108169  1
  N  N23  1  0.49108169  0.25000000  0.00891831  1
