# generated using pymatgen
data_UAgF6
_symmetry_space_group_name_H-M   'P 1'
_cell_length_a   5.27436615
_cell_length_b   5.27436615
_cell_length_c   9.07800951
_cell_angle_alpha   90.00000000
_cell_angle_beta   90.00000000
_cell_angle_gamma   90.06644959
_symmetry_Int_Tables_number   1
_chemical_formula_structural   UAgF6
_chemical_formula_sum   'U2 Ag2 F12'
_cell_volume   252.54041615
_cell_formula_units_Z   2
loop_
 _symmetry_equiv_pos_site_id
 _symmetry_equiv_pos_as_xyz
  1  'x, y, z'
loop_
 _atom_site_type_symbol
 _atom_site_label
 _atom_site_symmetry_multiplicity
 _atom_site_fract_x
 _atom_site_fract_y
 _atom_site_fract_z
 _atom_site_occupancy
  U  U0  1  0.00000000  -0.00000000  0.00000000  1
  U  U1  1  0.00000000  -0.00000000  0.50000000  1
  Ag  Ag2  1  0.50000000  0.50000000  0.24958599  1
  Ag  Ag3  1  0.50000000  0.50000000  0.75041401  1
  F  F4  1  0.27959929  0.27959929  0.00000000  1
  F  F5  1  0.72040071  0.72040071  0.00000000  1
  F  F6  1  0.72080905  0.27919095  0.50000000  1
  F  F7  1  0.27919095  0.72080905  0.50000000  1
  F  F8  1  0.20461713  0.20461713  0.34332736  1
  F  F9  1  0.79538287  0.79538287  0.65667264  1
  F  F10  1  0.79538287  0.79538287  0.34332736  1
  F  F11  1  0.79531273  0.20468727  0.84364288  1
  F  F12  1  0.79531273  0.20468727  0.15635712  1
  F  F13  1  0.20461713  0.20461713  0.65667264  1
  F  F14  1  0.20468727  0.79531273  0.15635712  1
  F  F15  1  0.20468727  0.79531273  0.84364288  1
