# generated using pymatgen
data_AgB3O5
_symmetry_space_group_name_H-M   'P 1'
_cell_length_a   3.87359355
_cell_length_b   8.32524391
_cell_length_c   10.33487180
_cell_angle_alpha   90.00000000
_cell_angle_beta   90.00000000
_cell_angle_gamma   90.00000000
_symmetry_Int_Tables_number   1
_chemical_formula_structural   AgB3O5
_chemical_formula_sum   'Ag4 B12 O20'
_cell_volume   333.28526157
_cell_formula_units_Z   4
loop_
 _symmetry_equiv_pos_site_id
 _symmetry_equiv_pos_as_xyz
  1  'x, y, z'
loop_
 _atom_site_type_symbol
 _atom_site_label
 _atom_site_symmetry_multiplicity
 _atom_site_fract_x
 _atom_site_fract_y
 _atom_site_fract_z
 _atom_site_occupancy
  Ag  Ag0  1  0.74601153  0.41133982  0.57751949  1
  Ag  Ag1  1  0.24601153  0.58866018  0.42248051  1
  Ag  Ag2  1  0.24601153  0.91133982  0.92248051  1
  Ag  Ag3  1  0.74601153  0.08866018  0.07751949  1
  B  B4  1  0.08932962  0.24612785  0.33688298  1
  B  B5  1  0.58932962  0.75387215  0.66311702  1
  B  B6  1  0.58932962  0.74612785  0.16311702  1
  B  B7  1  0.08932962  0.25387215  0.83688298  1
  B  B8  1  0.27991374  0.95989611  0.31304383  1
  B  B9  1  0.77991374  0.04010389  0.68695617  1
  B  B10  1  0.77991374  0.45989611  0.18695617  1
  B  B11  1  0.27991374  0.54010389  0.81304383  1
  B  B12  1  0.82135471  0.89831022  0.47120962  1
  B  B13  1  0.32135471  0.10168978  0.52879038  1
  B  B14  1  0.32135471  0.39831022  0.02879038  1
  B  B15  1  0.82135471  0.60168978  0.97120962  1
  O  O16  1  0.18288147  0.24495151  0.46591743  1
  O  O17  1  0.68288147  0.75504849  0.53408257  1
  O  O18  1  0.68288147  0.74495151  0.03408257  1
  O  O19  1  0.18288147  0.25504849  0.96591743  1
  O  O20  1  0.95961155  0.38985117  0.29538291  1
  O  O21  1  0.45961155  0.61014883  0.70461709  1
  O  O22  1  0.45961155  0.88985117  0.20461709  1
  O  O23  1  0.95961155  0.11014883  0.79538291  1
  O  O24  1  0.12820587  0.11132347  0.26469650  1
  O  O25  1  0.62820587  0.88867653  0.73530350  1
  O  O26  1  0.62820587  0.61132347  0.23530350  1
  O  O27  1  0.12820587  0.38867653  0.76469650  1
  O  O28  1  0.03049435  0.85295275  0.36644088  1
  O  O29  1  0.53049435  0.14704725  0.63355912  1
  O  O30  1  0.53049435  0.35295275  0.13355912  1
  O  O31  1  0.03049435  0.64704725  0.86644088  1
  O  O32  1  0.52289616  0.00770900  0.42721131  1
  O  O33  1  0.02289616  0.99229100  0.57278869  1
  O  O34  1  0.02289616  0.50770900  0.07278869  1
  O  O35  1  0.52289616  0.49229100  0.92721131  1
