# generated using pymatgen
data_MgCr2Fe3Ni(PO4)6
_symmetry_space_group_name_H-M   'P 1'
_cell_length_a   8.60066059
_cell_length_b   8.60063920
_cell_length_c   8.60055931
_cell_angle_alpha   60.39369462
_cell_angle_beta   60.39379245
_cell_angle_gamma   60.39363876
_symmetry_Int_Tables_number   1
_chemical_formula_structural   MgCr2Fe3Ni(PO4)6
_chemical_formula_sum   'Mg1 Cr2 Fe3 Ni1 P6 O24'
_cell_volume   453.86223628
_cell_formula_units_Z   1
loop_
 _symmetry_equiv_pos_site_id
 _symmetry_equiv_pos_as_xyz
  1  'x, y, z'
loop_
 _atom_site_type_symbol
 _atom_site_label
 _atom_site_symmetry_multiplicity
 _atom_site_fract_x
 _atom_site_fract_y
 _atom_site_fract_z
 _atom_site_occupancy
  Mg  Mg0  1  0.24477260  0.24478145  0.24477866  1
  Cr  Cr1  1  0.99585697  0.99589857  0.99588065  1
  Cr  Cr2  1  0.50491791  0.50490547  0.50489762  1
  Fe  Fe3  1  0.12694184  0.12695956  0.12696030  1
  Fe  Fe4  1  0.36789900  0.36789951  0.36789674  1
  Fe  Fe5  1  0.64970564  0.64969882  0.64969181  1
  Ni  Ni6  1  0.85441011  0.85441907  0.85443105  1
  P  P7  1  0.04347152  0.74873482  0.45874157  1
  P  P8  1  0.45873365  0.04347172  0.74873674  1
  P  P9  1  0.74873907  0.45873483  0.04347307  1
  P  P10  1  0.25023282  0.55255527  0.94883764  1
  P  P11  1  0.55255268  0.94883634  0.25023163  1
  P  P12  1  0.94884178  0.25022620  0.55255759  1
  O  O13  1  0.11754961  0.31586723  0.48896500  1
  O  O14  1  0.31588089  0.48896210  0.11754524  1
  O  O15  1  0.05350116  0.88783416  0.24962327  1
  O  O16  1  0.48896616  0.11754942  0.31586681  1
  O  O17  1  0.99977546  0.83718302  0.59432389  1
  O  O18  1  0.25408082  0.59723534  0.44323481  1
  O  O19  1  0.24961614  0.05349810  0.88782812  1
  O  O20  1  0.44323833  0.25407683  0.59723037  1
  O  O21  1  0.18631192  0.39065490  0.99882488  1
  O  O22  1  0.59723060  0.44323783  0.25407968  1
  O  O23  1  0.09902762  0.75221488  0.93591304  1
  O  O24  1  0.39065215  0.99882795  0.18630932  1
  O  O25  1  0.59429845  0.99978695  0.83719831  1
  O  O26  1  0.88783375  0.24961908  0.05349875  1
  O  O27  1  0.40971658  0.56636728  0.74960188  1
  O  O28  1  0.83719545  0.59430588  0.99978739  1
  O  O29  1  0.56636632  0.74959846  0.40971823  1
  O  O30  1  0.75222015  0.93590018  0.09903299  1
  O  O31  1  0.74961043  0.40971821  0.56635529  1
  O  O32  1  0.99883081  0.18630433  0.39065532  1
  O  O33  1  0.51846726  0.90456174  0.65206636  1
  O  O34  1  0.93590580  0.09902838  0.75222112  1
  O  O35  1  0.65208460  0.51847033  0.90455264  1
  O  O36  1  0.90456197  0.65207680  0.51845624  1
