# generated using pymatgen
data_NaHfMg14O15
_symmetry_space_group_name_H-M   'P 1'
_cell_length_a   8.61095483
_cell_length_b   8.65011898
_cell_length_c   4.32994133
_cell_angle_alpha   90.00000000
_cell_angle_beta   90.00000000
_cell_angle_gamma   90.00000000
_symmetry_Int_Tables_number   1
_chemical_formula_structural   NaHfMg14O15
_chemical_formula_sum   'Na1 Hf1 Mg14 O15'
_cell_volume   322.51907382
_cell_formula_units_Z   1
loop_
 _symmetry_equiv_pos_site_id
 _symmetry_equiv_pos_as_xyz
  1  'x, y, z'
loop_
 _atom_site_type_symbol
 _atom_site_label
 _atom_site_symmetry_multiplicity
 _atom_site_fract_x
 _atom_site_fract_y
 _atom_site_fract_z
 _atom_site_occupancy
  Na  Na0  1  -0.00006814  0.00000000  -0.00000000  1
  Hf  Hf1  1  0.00759080  0.50000000  -0.00000000  1
  Mg  Mg2  1  0.50030544  0.00000000  -0.00000000  1
  Mg  Mg3  1  0.50067498  0.50000000  -0.00000000  1
  Mg  Mg4  1  0.00080680  0.23572748  0.50000000  1
  Mg  Mg5  1  0.00080680  0.76427252  0.50000000  1
  Mg  Mg6  1  0.49932310  0.24759905  0.50000000  1
  Mg  Mg7  1  0.49932310  0.75240095  0.50000000  1
  Mg  Mg8  1  0.24887618  0.00000000  0.50000000  1
  Mg  Mg9  1  0.25332903  0.50000000  0.50000000  1
  Mg  Mg10  1  0.75137521  0.00000000  0.50000000  1
  Mg  Mg11  1  0.74417985  0.50000000  0.50000000  1
  Mg  Mg12  1  0.25582494  0.24008450  -0.00000000  1
  Mg  Mg13  1  0.25582494  0.75991550  0.00000000  1
  Mg  Mg14  1  0.74484372  0.24287910  -0.00000000  1
  Mg  Mg15  1  0.74484372  0.75712090  -0.00000000  1
  O  O16  1  0.26486595  0.00000000  -0.00000000  1
  O  O17  1  0.73544490  0.00000000  -0.00000000  1
  O  O18  1  0.74575343  0.50000000  -0.00000000  1
  O  O19  1  0.24958174  0.24555001  0.50000000  1
  O  O20  1  0.24958174  0.75444999  0.50000000  1
  O  O21  1  0.75134762  0.25091815  0.50000000  1
  O  O22  1  0.75134762  0.74908185  0.50000000  1
  O  O23  1  0.99921034  0.00000000  0.50000000  1
  O  O24  1  0.99465952  0.50000000  0.50000000  1
  O  O25  1  0.50107124  0.00000000  0.50000000  1
  O  O26  1  0.50018897  0.50000000  0.50000000  1
  O  O27  1  0.99932754  0.26296563  -0.00000000  1
  O  O28  1  0.99932754  0.73703437  -0.00000000  1
  O  O29  1  0.50021568  0.25392645  -0.00000000  1
  O  O30  1  0.50021568  0.74607355  -0.00000000  1
