# generated using pymatgen
data_YMg6AlO8
_symmetry_space_group_name_H-M   'P 1'
_cell_length_a   9.08519757
_cell_length_b   4.43469975
_cell_length_c   4.43469975
_cell_angle_alpha   90.00000000
_cell_angle_beta   90.00000000
_cell_angle_gamma   90.00000000
_symmetry_Int_Tables_number   1
_chemical_formula_structural   YMg6AlO8
_chemical_formula_sum   'Y1 Mg6 Al1 O8'
_cell_volume   178.67460014
_cell_formula_units_Z   1
loop_
 _symmetry_equiv_pos_site_id
 _symmetry_equiv_pos_as_xyz
  1  'x, y, z'
loop_
 _atom_site_type_symbol
 _atom_site_label
 _atom_site_symmetry_multiplicity
 _atom_site_fract_x
 _atom_site_fract_y
 _atom_site_fract_z
 _atom_site_occupancy
  Y  Y0  1  -0.00000000  0.50000000  0.50000000  1
  Mg  Mg1  1  0.50000000  0.00000000  0.00000000  1
  Mg  Mg2  1  0.50000000  0.50000000  0.50000000  1
  Mg  Mg3  1  0.26962884  -0.00000000  0.50000000  1
  Mg  Mg4  1  0.73037116  0.00000000  0.50000000  1
  Mg  Mg5  1  0.26962884  0.50000000  0.00000000  1
  Mg  Mg6  1  0.73037116  0.50000000  -0.00000000  1
  Al  Al7  1  -0.00000000  0.00000000  0.00000000  1
  O  O8  1  0.27568038  -0.00000000  -0.00000000  1
  O  O9  1  0.72431962  0.00000000  0.00000000  1
  O  O10  1  0.26069232  0.50000000  0.50000000  1
  O  O11  1  0.73930768  0.50000000  0.50000000  1
  O  O12  1  -0.00000000  0.00000000  0.50000000  1
  O  O13  1  0.50000000  0.00000000  0.50000000  1
  O  O14  1  -0.00000000  0.50000000  0.00000000  1
  O  O15  1  0.50000000  0.50000000  0.00000000  1
