# generated using pymatgen
data_CeSe2
_symmetry_space_group_name_H-M   'P 1'
_cell_length_a   9.65005656
_cell_length_b   9.65005656
_cell_length_c   19.90535058
_cell_angle_alpha   104.02814856
_cell_angle_beta   104.02814856
_cell_angle_gamma   90.00000000
_symmetry_Int_Tables_number   1
_chemical_formula_structural   CeSe2
_chemical_formula_sum   'Ce8 Se16'
_cell_volume   1741.33941483
_cell_formula_units_Z   8
loop_
 _symmetry_equiv_pos_site_id
 _symmetry_equiv_pos_as_xyz
  1  'x, y, z'
loop_
 _atom_site_type_symbol
 _atom_site_label
 _atom_site_symmetry_multiplicity
 _atom_site_fract_x
 _atom_site_fract_y
 _atom_site_fract_z
 _atom_site_occupancy
  Ce  Ce0  1  0.31015720  0.43225231  0.12043798  1
  Ce  Ce1  1  0.81028078  0.68818567  0.12043798  1
  Ce  Ce2  1  0.43971922  0.31774769  0.37956202  1
  Ce  Ce3  1  0.93984280  0.06181433  0.37956202  1
  Ce  Ce4  1  0.56774769  0.68984280  0.87956202  1
  Ce  Ce5  1  0.31181433  0.18971922  0.87956202  1
  Ce  Ce6  1  0.68225231  0.56028078  0.62043798  1
  Ce  Ce7  1  0.93818567  0.06015720  0.62043798  1
  Se  Se8  1  0.41442954  0.37500000  0.25000000  1
  Se  Se9  1  0.83557046  0.87500000  0.25000000  1
  Se  Se10  1  0.62500000  0.58557046  0.75000000  1
  Se  Se11  1  0.12500000  0.16442954  0.75000000  1
  Se  Se12  1  0.55243304  0.55243304  0.10486608  1
  Se  Se13  1  0.69756696  0.19756696  0.39513392  1
  Se  Se14  1  0.44756696  0.44756696  0.89513392  1
  Se  Se15  1  0.80243304  0.30243304  0.60486608  1
  Se  Se16  1  0.06852943  0.56852943  0.13705885  1
  Se  Se17  1  0.18147057  0.18147057  0.36294115  1
  Se  Se18  1  0.43147057  0.93147057  0.86294115  1
  Se  Se19  1  0.81852943  0.81852943  0.63705885  1
  Se  Se20  1  0.78361438  0.78361438  -0.00000000  1
  Se  Se21  1  0.21638562  0.21638562  0.00000000  1
  Se  Se22  1  0.03361438  0.96638562  0.50000000  1
  Se  Se23  1  0.46638562  0.53361438  0.50000000  1
