# generated using pymatgen
data_Nd2SiS5
_symmetry_space_group_name_H-M   'P 1'
_cell_length_a   12.50470931
_cell_length_b   7.55710935
_cell_length_c   7.80619379
_cell_angle_alpha   78.63159779
_cell_angle_beta   90.00000000
_cell_angle_gamma   90.00000000
_symmetry_Int_Tables_number   1
_chemical_formula_structural   Nd2SiS5
_chemical_formula_sum   'Nd8 Si4 S20'
_cell_volume   723.20778392
_cell_formula_units_Z   4
loop_
 _symmetry_equiv_pos_site_id
 _symmetry_equiv_pos_as_xyz
  1  'x, y, z'
loop_
 _atom_site_type_symbol
 _atom_site_label
 _atom_site_symmetry_multiplicity
 _atom_site_fract_x
 _atom_site_fract_y
 _atom_site_fract_z
 _atom_site_occupancy
  Nd  Nd0  1  0.83523585  0.83849608  0.63191509  1
  Nd  Nd1  1  0.16476415  0.16150392  0.36808491  1
  Nd  Nd2  1  0.33523585  0.16150392  0.86808491  1
  Nd  Nd3  1  0.66476415  0.83849608  0.13191509  1
  Nd  Nd4  1  0.40566548  0.76017829  0.54241114  1
  Nd  Nd5  1  0.59433452  0.23982171  0.45758886  1
  Nd  Nd6  1  0.90566548  0.23982171  0.95758886  1
  Nd  Nd7  1  0.09433452  0.76017829  0.04241114  1
  Si  Si8  1  0.11627838  0.66817383  0.59450947  1
  Si  Si9  1  0.88372162  0.33182617  0.40549053  1
  Si  Si10  1  0.61627838  0.33182617  0.90549053  1
  Si  Si11  1  0.38372162  0.66817383  0.09450947  1
  S  S12  1  0.47057709  0.82645962  0.88533616  1
  S  S13  1  0.52942291  0.17354038  0.11466384  1
  S  S14  1  0.97057709  0.17354038  0.61466384  1
  S  S15  1  0.02942291  0.82645962  0.38533616  1
  S  S16  1  0.20337282  0.87022922  0.69496695  1
  S  S17  1  0.79662718  0.12977078  0.30503305  1
  S  S18  1  0.70337282  0.12977078  0.80503305  1
  S  S19  1  0.29662718  0.87022922  0.19496695  1
  S  S20  1  0.22720351  0.47323980  0.54971949  1
  S  S21  1  0.77279649  0.52676020  0.45028051  1
  S  S22  1  0.72720351  0.52676020  0.95028051  1
  S  S23  1  0.27279649  0.47323980  0.04971949  1
  S  S24  1  0.87903500  0.86327101  0.99707192  1
  S  S25  1  0.12096500  0.13672899  0.00292808  1
  S  S26  1  0.37903500  0.13672899  0.50292808  1
  S  S27  1  0.62096500  0.86327101  0.49707192  1
  S  S28  1  0.49678284  0.42087008  0.71906158  1
  S  S29  1  0.50321716  0.57912992  0.28093842  1
  S  S30  1  0.99678284  0.57912992  0.78093842  1
  S  S31  1  0.00321716  0.42087008  0.21906158  1
