# generated using pymatgen
data_Sr(GaS2)2
_symmetry_space_group_name_H-M   'P 1'
_cell_length_a   6.05379351
_cell_length_b   6.05379351
_cell_length_c   10.56736176
_cell_angle_alpha   90.00000000
_cell_angle_beta   90.00000000
_cell_angle_gamma   120.35967764
_symmetry_Int_Tables_number   1
_chemical_formula_structural   Sr(GaS2)2
_chemical_formula_sum   'Sr2 Ga4 S8'
_cell_volume   334.16960170
_cell_formula_units_Z   2
loop_
 _symmetry_equiv_pos_site_id
 _symmetry_equiv_pos_as_xyz
  1  'x, y, z'
loop_
 _atom_site_type_symbol
 _atom_site_label
 _atom_site_symmetry_multiplicity
 _atom_site_fract_x
 _atom_site_fract_y
 _atom_site_fract_z
 _atom_site_occupancy
  Sr  Sr0  1  0.50000000  0.50000000  0.75000000  1
  Sr  Sr1  1  0.50000000  0.50000000  0.25000000  1
  Ga  Ga2  1  0.76416329  0.23853160  0.50000000  1
  Ga  Ga3  1  0.23583671  0.76146840  0.50000000  1
  Ga  Ga4  1  0.76146840  0.23583671  -0.00000000  1
  Ga  Ga5  1  0.23853160  0.76416329  -0.00000000  1
  S  S6  1  0.35469873  0.18143942  0.50000000  1
  S  S7  1  0.64530127  0.81856058  0.50000000  1
  S  S8  1  0.81856058  0.64530127  -0.00000000  1
  S  S9  1  0.18143942  0.35469873  -0.00000000  1
  S  S10  1  0.50000000  -0.00000000  0.83641555  1
  S  S11  1  -0.00000000  0.50000000  0.66358445  1
  S  S12  1  0.50000000  -0.00000000  0.16358445  1
  S  S13  1  -0.00000000  0.50000000  0.33641555  1
