# generated using pymatgen
data_NaMg14CoO16
_symmetry_space_group_name_H-M   'P 1'
_cell_length_a   8.54015782
_cell_length_b   8.45815510
_cell_length_c   4.30383699
_cell_angle_alpha   90.00000000
_cell_angle_beta   90.00000000
_cell_angle_gamma   90.00000000
_symmetry_Int_Tables_number   1
_chemical_formula_structural   NaMg14CoO16
_chemical_formula_sum   'Na1 Mg14 Co1 O16'
_cell_volume   310.88327256
_cell_formula_units_Z   1
loop_
 _symmetry_equiv_pos_site_id
 _symmetry_equiv_pos_as_xyz
  1  'x, y, z'
loop_
 _atom_site_type_symbol
 _atom_site_label
 _atom_site_symmetry_multiplicity
 _atom_site_fract_x
 _atom_site_fract_y
 _atom_site_fract_z
 _atom_site_occupancy
  Na  Na0  1  0.00000000  0.50000000  0.00000000  1
  Mg  Mg1  1  0.50000000  0.00000000  0.00000000  1
  Mg  Mg2  1  0.50000000  0.50000000  0.00000000  1
  Mg  Mg3  1  0.00000000  0.25348363  0.50000000  1
  Mg  Mg4  1  0.00000000  0.74651637  0.50000000  1
  Mg  Mg5  1  0.50000000  0.25098923  0.50000000  1
  Mg  Mg6  1  0.50000000  0.74901077  0.50000000  1
  Mg  Mg7  1  0.24708220  0.00000000  0.50000000  1
  Mg  Mg8  1  0.24759878  0.50000000  0.50000000  1
  Mg  Mg9  1  0.75291780  0.00000000  0.50000000  1
  Mg  Mg10  1  0.75240122  0.50000000  0.50000000  1
  Mg  Mg11  1  0.25125523  0.25298449  0.00000000  1
  Mg  Mg12  1  0.25125523  0.74701551  0.00000000  1
  Mg  Mg13  1  0.74874477  0.25298449  0.00000000  1
  Mg  Mg14  1  0.74874477  0.74701551  0.00000000  1
  Co  Co15  1  0.00000000  0.00000000  0.00000000  1
  O  O16  1  0.24335447  0.00000000  0.00000000  1
  O  O17  1  0.26267159  0.50000000  0.00000000  1
  O  O18  1  0.75664553  0.00000000  0.00000000  1
  O  O19  1  0.73732841  0.50000000  0.00000000  1
  O  O20  1  0.24833982  0.24850374  0.50000000  1
  O  O21  1  0.24833982  0.75149626  0.50000000  1
  O  O22  1  0.75166018  0.24850374  0.50000000  1
  O  O23  1  0.75166018  0.75149626  0.50000000  1
  O  O24  1  0.00000000  0.00000000  0.50000000  1
  O  O25  1  0.00000000  0.50000000  0.50000000  1
  O  O26  1  0.50000000  0.00000000  0.50000000  1
  O  O27  1  0.50000000  0.50000000  0.50000000  1
  O  O28  1  0.00000000  0.22303475  0.00000000  1
  O  O29  1  0.00000000  0.77696525  0.00000000  1
  O  O30  1  0.50000000  0.24408869  0.00000000  1
  O  O31  1  0.50000000  0.75591131  0.00000000  1
