# generated using pymatgen
data_KAlTe2
_symmetry_space_group_name_H-M   'P 1'
_cell_length_a   8.41485056
_cell_length_b   8.41485056
_cell_length_c   16.58571089
_cell_angle_alpha   82.72581916
_cell_angle_beta   82.72581916
_cell_angle_gamma   90.04033973
_symmetry_Int_Tables_number   1
_chemical_formula_structural   KAlTe2
_chemical_formula_sum   'K8 Al8 Te16'
_cell_volume   1155.43373299
_cell_formula_units_Z   8
loop_
 _symmetry_equiv_pos_site_id
 _symmetry_equiv_pos_as_xyz
  1  'x, y, z'
loop_
 _atom_site_type_symbol
 _atom_site_label
 _atom_site_symmetry_multiplicity
 _atom_site_fract_x
 _atom_site_fract_y
 _atom_site_fract_z
 _atom_site_occupancy
  K  K0  1  0.22071838  0.84768053  0.11007029  1
  K  K1  1  0.84768053  0.22071838  0.61007029  1
  K  K2  1  0.77928162  0.15231947  0.88992971  1
  K  K3  1  0.22060288  0.34614120  0.11660163  1
  K  K4  1  0.65385880  0.77939712  0.38339837  1
  K  K5  1  0.77939712  0.65385880  0.88339837  1
  K  K6  1  0.15231947  0.77928162  0.38992971  1
  K  K7  1  0.34614120  0.22060288  0.61660163  1
  Al  Al8  1  0.91207964  0.29025782  0.33879308  1
  Al  Al9  1  0.08792036  0.70974218  0.66120692  1
  Al  Al10  1  0.29025782  0.91207964  0.83879308  1
  Al  Al11  1  0.70941622  0.58166525  0.16175044  1
  Al  Al12  1  0.41833475  0.29058378  0.33824956  1
  Al  Al13  1  0.29058378  0.41833475  0.83824956  1
  Al  Al14  1  0.58166525  0.70941622  0.66175044  1
  Al  Al15  1  0.70974218  0.08792036  0.16120692  1
  Te  Te16  1  0.35999963  0.73474044  0.56287895  1
  Te  Te17  1  0.26525956  0.64000037  0.93712105  1
  Te  Te18  1  0.64000037  0.26525956  0.43712105  1
  Te  Te19  1  0.73474044  0.35999963  0.06287895  1
  Te  Te20  1  0.57111199  0.94545433  0.75044530  1
  Te  Te21  1  0.05454567  0.42888801  0.74955470  1
  Te  Te22  1  0.42888801  0.05454567  0.24955470  1
  Te  Te23  1  0.94545433  0.57111199  0.25044530  1
  Te  Te24  1  0.26645581  0.14195185  0.93402465  1
  Te  Te25  1  0.85804815  0.73354419  0.56597535  1
  Te  Te26  1  0.73354419  0.85804815  0.06597535  1
  Te  Te27  1  0.14195185  0.26645581  0.43402465  1
  Te  Te28  1  0.05412848  0.94587152  0.75000000  1
  Te  Te29  1  0.94587152  0.05412848  0.25000000  1
  Te  Te30  1  0.57136945  0.42863055  0.75000000  1
  Te  Te31  1  0.42863055  0.57136945  0.25000000  1
