# generated using pymatgen
data_ReBi3O8
_symmetry_space_group_name_H-M   'P 1'
_cell_length_a   9.95865367
_cell_length_b   9.95865367
_cell_length_c   9.95865367
_cell_angle_alpha   109.47122063
_cell_angle_beta   109.47122063
_cell_angle_gamma   109.47122063
_symmetry_Int_Tables_number   1
_chemical_formula_structural   ReBi3O8
_chemical_formula_sum   'Re4 Bi12 O32'
_cell_volume   760.29125939
_cell_formula_units_Z   4
loop_
 _symmetry_equiv_pos_site_id
 _symmetry_equiv_pos_as_xyz
  1  'x, y, z'
loop_
 _atom_site_type_symbol
 _atom_site_label
 _atom_site_symmetry_multiplicity
 _atom_site_fract_x
 _atom_site_fract_y
 _atom_site_fract_z
 _atom_site_occupancy
  Re  Re0  1  0.73925752  0.00000000  0.50000000  1
  Re  Re1  1  0.50000000  0.73925752  0.00000000  1
  Re  Re2  1  -0.00000000  0.50000000  0.73925752  1
  Re  Re3  1  0.76074248  0.76074248  0.76074248  1
  Bi  Bi4  1  0.25286824  0.49017234  0.46662417  1
  Bi  Bi5  1  0.28624406  0.03337583  0.02354716  1
  Bi  Bi6  1  0.76269590  0.47645284  0.00982766  1
  Bi  Bi7  1  0.02354716  0.28624406  0.03337583  1
  Bi  Bi8  1  0.00982766  0.76269590  0.47645284  1
  Bi  Bi9  1  0.46662417  0.25286824  0.49017234  1
  Bi  Bi10  1  0.47645284  0.00982766  0.76269590  1
  Bi  Bi11  1  0.49017234  0.46662417  0.25286824  1
  Bi  Bi12  1  0.03337583  0.02354716  0.28624406  1
  Bi  Bi13  1  0.24713176  0.21375594  0.73730410  1
  Bi  Bi14  1  0.21375594  0.73730410  0.24713176  1
  Bi  Bi15  1  0.73730410  0.24713176  0.21375594  1
  O  O16  1  0.56373518  0.00000000  0.50000000  1
  O  O17  1  0.50000000  0.56373518  -0.00000000  1
  O  O18  1  0.00000000  0.50000000  0.56373518  1
  O  O19  1  0.93626482  0.93626482  0.93626482  1
  O  O20  1  0.68913319  0.80178217  0.37145940  1
  O  O21  1  0.81767479  0.12854060  0.43032277  1
  O  O22  1  0.88735202  0.06967723  0.69821783  1
  O  O23  1  0.43032277  0.81767479  0.12854060  1
  O  O24  1  0.69821783  0.88735202  0.06967723  1
  O  O25  1  0.37145940  0.68913319  0.80178217  1
  O  O26  1  0.06967723  0.69821783  0.88735202  1
  O  O27  1  0.80178217  0.37145940  0.68913319  1
  O  O28  1  0.12854060  0.43032277  0.81767479  1
  O  O29  1  0.81086681  0.68232521  0.61264798  1
  O  O30  1  0.68232521  0.61264798  0.81086681  1
  O  O31  1  0.61264798  0.81086681  0.68232521  1
  O  O32  1  0.05036013  0.00000000  0.50000000  1
  O  O33  1  0.50000000  0.05036013  -0.00000000  1
  O  O34  1  -0.00000000  0.50000000  0.05036013  1
  O  O35  1  0.44963987  0.44963987  0.44963987  1
  O  O36  1  0.25000000  0.27061703  0.52061703  1
  O  O37  1  0.22938297  0.97938297  0.75000000  1
  O  O38  1  0.97938297  0.75000000  0.22938297  1
  O  O39  1  0.75000000  0.22938297  0.97938297  1
  O  O40  1  0.52061703  0.25000000  0.27061703  1
  O  O41  1  0.27061703  0.52061703  0.25000000  1
  O  O42  1  0.75000000  0.47100593  0.22100593  1
  O  O43  1  0.02899407  0.27899407  0.25000000  1
  O  O44  1  0.27899407  0.25000000  0.02899407  1
  O  O45  1  0.25000000  0.02899407  0.27899407  1
  O  O46  1  0.22100593  0.75000000  0.47100593  1
  O  O47  1  0.47100593  0.22100593  0.75000000  1
