# generated using pymatgen
data_MgI8(OF2)12
_symmetry_space_group_name_H-M   'P 1'
_cell_length_a   9.19029727
_cell_length_b   9.54679240
_cell_length_c   10.04779719
_cell_angle_alpha   114.51407472
_cell_angle_beta   88.75250332
_cell_angle_gamma   91.18457558
_symmetry_Int_Tables_number   1
_chemical_formula_structural   MgI8(OF2)12
_chemical_formula_sum   'Mg1 I8 O12 F24'
_cell_volume   801.85097941
_cell_formula_units_Z   1
loop_
 _symmetry_equiv_pos_site_id
 _symmetry_equiv_pos_as_xyz
  1  'x, y, z'
loop_
 _atom_site_type_symbol
 _atom_site_label
 _atom_site_symmetry_multiplicity
 _atom_site_fract_x
 _atom_site_fract_y
 _atom_site_fract_z
 _atom_site_occupancy
  Mg  Mg0  1  0.57934728  0.94653227  0.13415217  1
  I  I1  1  0.73113199  0.55838817  0.90155089  1
  I  I2  1  0.22914358  0.91956282  0.06929268  1
  I  I3  1  0.27135880  0.42538572  0.06695877  1
  I  I4  1  0.77549049  0.09054396  0.96011419  1
  I  I5  1  0.59006154  0.66783962  0.30138740  1
  I  I6  1  0.06284943  0.84349996  0.69874111  1
  I  I7  1  0.41462241  0.33265932  0.68021722  1
  I  I8  1  0.91300538  0.16092989  0.32278988  1
  O  O9  1  0.53703126  0.50118948  0.75937509  1
  O  O10  1  0.07514709  0.96592869  0.20160027  1
  O  O11  1  0.48619600  0.49211725  0.20427067  1
  O  O12  1  0.96086929  0.02092599  0.80881181  1
  O  O13  1  0.61716833  0.72746270  0.14981616  1
  O  O14  1  0.10450695  0.78501744  0.84353765  1
  O  O15  1  0.38030701  0.29814039  0.84382913  1
  O  O16  1  0.88945985  0.20114392  0.14318288  1
  O  O17  1  0.27597969  0.60130324  0.05031331  1
  O  O18  1  0.76562047  0.91694740  0.99118348  1
  O  O19  1  0.71182273  0.39382556  0.93713814  1
  O  O20  1  0.24700635  0.09137808  0.04247901  1
  F  F21  1  0.42602407  0.79205383  0.37520381  1
  F  F22  1  0.43699950  0.34541161  0.49975330  1
  F  F23  1  0.02920565  0.88107547  0.53279222  1
  F  F24  1  0.57895458  0.63158394  0.47092618  1
  F  F25  1  0.81201676  0.34762864  0.41943648  1
  F  F26  1  0.94358055  0.17393564  0.52043363  1
  F  F27  1  0.16349490  0.67335914  0.56271385  1
  F  F28  1  0.69718853  0.84132663  0.42336229  1
  F  F29  1  0.68617992  0.06945576  0.30665802  1
  F  F30  1  0.25177360  0.45712853  0.70867889  1
  F  F31  1  0.23673749  0.95516682  0.71375352  1
  F  F32  1  0.76797785  0.56538303  0.26293498  1
  F  F33  1  0.64668075  0.99556446  0.79343253  1
  F  F34  1  0.16432851  0.50074572  0.24637768  1
  F  F35  1  0.37882827  0.99328839  0.23509907  1
  F  F36  1  0.84490000  0.47059806  0.72906016  1
  F  F37  1  0.59190014  0.14945333  0.08135876  1
  F  F38  1  0.09204226  0.35351266  0.96898938  1
  F  F39  1  0.45429639  0.84026865  0.96952274  1
  F  F40  1  0.90945613  0.62731476  0.00456116  1
  F  F41  1  0.56669099  0.19145303  0.61883094  1
  F  F42  1  0.08144590  0.28723345  0.35754085  1
  F  F43  1  0.29225710  0.16659288  0.57298440  1
  F  F44  1  0.89320027  0.71965070  0.64402023  1
