# generated using pymatgen
data_ScAgS2
_symmetry_space_group_name_H-M   'P 1'
_cell_length_a   7.19901930
_cell_length_b   7.19901930
_cell_length_c   7.19901899
_cell_angle_alpha   30.19988873
_cell_angle_beta   30.19988873
_cell_angle_gamma   30.19988335
_symmetry_Int_Tables_number   1
_chemical_formula_structural   ScAgS2
_chemical_formula_sum   'Sc1 Ag1 S2'
_cell_volume   83.64565513
_cell_formula_units_Z   1
loop_
 _symmetry_equiv_pos_site_id
 _symmetry_equiv_pos_as_xyz
  1  'x, y, z'
loop_
 _atom_site_type_symbol
 _atom_site_label
 _atom_site_symmetry_multiplicity
 _atom_site_fract_x
 _atom_site_fract_y
 _atom_site_fract_z
 _atom_site_occupancy
  Sc  Sc0  1  0.99989033  0.99989033  0.99989033  1
  Ag  Ag1  1  0.84944659  0.84944659  0.84944659  1
  S  S2  1  0.73193656  0.73193656  0.73193656  1
  S  S3  1  0.25972552  0.25972552  0.25972552  1
