# generated using pymatgen
data_MgO
_symmetry_space_group_name_H-M   'P 1'
_cell_length_a   11.30418178
_cell_length_b   11.30418178
_cell_length_c   11.30418178
_cell_angle_alpha   158.77332520
_cell_angle_beta   148.77993003
_cell_angle_gamma   38.06255685
_symmetry_Int_Tables_number   1
_chemical_formula_structural   MgO
_chemical_formula_sum   'Mg12 O12'
_cell_volume   270.70964618
_cell_formula_units_Z   12
loop_
 _symmetry_equiv_pos_site_id
 _symmetry_equiv_pos_as_xyz
  1  'x, y, z'
loop_
 _atom_site_type_symbol
 _atom_site_label
 _atom_site_symmetry_multiplicity
 _atom_site_fract_x
 _atom_site_fract_y
 _atom_site_fract_z
 _atom_site_occupancy
  Mg  Mg0  1  0.88028907  0.54750093  0.33279013  1
  Mg  Mg1  1  0.11971093  0.45249907  0.66720987  1
  Mg  Mg2  1  0.78528920  0.95249907  0.83279013  1
  Mg  Mg3  1  0.21471080  0.04750093  0.16720987  1
  Mg  Mg4  1  0.04388280  0.70947095  0.33441286  1
  Mg  Mg5  1  0.95611720  0.29052905  0.66558714  1
  Mg  Mg6  1  0.62494191  0.79052905  0.83441286  1
  Mg  Mg7  1  0.37505809  0.20947095  0.16558714  1
  Mg  Mg8  1  0.79323136  0.12829069  0.66494067  1
  Mg  Mg9  1  0.20676864  0.87170931  0.33505933  1
  Mg  Mg10  1  0.53665098  0.37170931  0.16494067  1
  Mg  Mg11  1  0.46334902  0.62829069  0.83505933  1
  O  O12  1  0.79385343  0.62834842  0.16550400  1
  O  O13  1  0.20614657  0.37165158  0.83449600  1
  O  O14  1  0.53715458  0.87165158  0.66550400  1
  O  O15  1  0.46284542  0.12834842  0.33449600  1
  O  O16  1  0.87629354  0.04755475  0.82873879  1
  O  O17  1  0.12370646  0.95244525  0.17126121  1
  O  O18  1  0.78118404  0.45244525  0.32873879  1
  O  O19  1  0.21881596  0.54755475  0.67126121  1
  O  O20  1  0.04369537  0.20941163  0.83428174  1
  O  O21  1  0.95630463  0.79058837  0.16571826  1
  O  O22  1  0.62487011  0.29058837  0.33428174  1
  O  O23  1  0.37512989  0.70941163  0.66571826  1
