# generated using pymatgen
data_RbAl(H2N)4
_symmetry_space_group_name_H-M   'P 1'
_cell_length_a   5.26676612
_cell_length_b   7.24689368
_cell_length_c   7.24689368
_cell_angle_alpha   90.00000000
_cell_angle_beta   90.00000000
_cell_angle_gamma   90.00000000
_symmetry_Int_Tables_number   1
_chemical_formula_structural   RbAl(H2N)4
_chemical_formula_sum   'Rb2 Al2 H16 N8'
_cell_volume   276.59722122
_cell_formula_units_Z   2
loop_
 _symmetry_equiv_pos_site_id
 _symmetry_equiv_pos_as_xyz
  1  'x, y, z'
loop_
 _atom_site_type_symbol
 _atom_site_label
 _atom_site_symmetry_multiplicity
 _atom_site_fract_x
 _atom_site_fract_y
 _atom_site_fract_z
 _atom_site_occupancy
  Rb  Rb0  1  0.23013224  0.75000000  0.75000000  1
  Rb  Rb1  1  0.76986776  0.25000000  0.25000000  1
  Al  Al2  1  -0.00000000  0.25000000  0.75000000  1
  Al  Al3  1  -0.00000000  0.75000000  0.25000000  1
  H  H4  1  0.39905287  0.56830861  0.21494761  1
  H  H5  1  0.39905287  0.93169139  0.28505239  1
  H  H6  1  0.39905287  0.21494761  0.93169139  1
  H  H7  1  0.39905287  0.28505239  0.56830861  1
  H  H8  1  0.60094713  0.43169139  0.78505239  1
  H  H9  1  0.60094713  0.06830861  0.71494761  1
  H  H10  1  0.60094713  0.78505239  0.06830861  1
  H  H11  1  0.60094713  0.71494761  0.43169139  1
  H  H12  1  0.19609940  0.46512063  0.07757962  1
  H  H13  1  0.19609940  0.03487937  0.42242038  1
  H  H14  1  0.19609940  0.07757962  0.03487937  1
  H  H15  1  0.19609940  0.42242038  0.46512063  1
  H  H16  1  0.80390060  0.53487937  0.92242038  1
  H  H17  1  0.80390060  0.96512063  0.57757962  1
  H  H18  1  0.80390060  0.92242038  0.96512063  1
  H  H19  1  0.80390060  0.57757962  0.53487937  1
  N  N20  1  0.22690012  0.58088237  0.15311970  1
  N  N21  1  0.22690012  0.91911763  0.34688030  1
  N  N22  1  0.22690012  0.15311970  0.91911763  1
  N  N23  1  0.22690012  0.34688030  0.58088237  1
  N  N24  1  0.77309988  0.41911763  0.84688030  1
  N  N25  1  0.77309988  0.08088237  0.65311970  1
  N  N26  1  0.77309988  0.84688030  0.08088237  1
  N  N27  1  0.77309988  0.65311970  0.41911763  1
