# generated using pymatgen
data_SiC
_symmetry_space_group_name_H-M   'P 1'
_cell_length_a   3.09819891
_cell_length_b   3.09819891
_cell_length_c   63.19012418
_cell_angle_alpha   88.59525935
_cell_angle_beta   88.59525935
_cell_angle_gamma   60.00001942
_symmetry_Int_Tables_number   1
_chemical_formula_structural   SiC
_chemical_formula_sum   'Si25 C25'
_cell_volume   525.07875642
_cell_formula_units_Z   25
loop_
 _symmetry_equiv_pos_site_id
 _symmetry_equiv_pos_as_xyz
  1  'x, y, z'
loop_
 _atom_site_type_symbol
 _atom_site_label
 _atom_site_symmetry_multiplicity
 _atom_site_fract_x
 _atom_site_fract_y
 _atom_site_fract_z
 _atom_site_occupancy
  Si  Si0  1  0.00001862  0.00001862  0.99994413  1
  Si  Si1  1  0.96002876  0.96002876  0.11991372  1
  Si  Si2  1  0.90686889  0.90686889  0.27939333  1
  Si  Si3  1  0.88005358  0.88005358  0.35983926  1
  Si  Si4  1  0.85317850  0.85317850  0.44046451  1
  Si  Si5  1  0.79996385  0.79996385  0.60010844  1
  Si  Si6  1  0.74668433  0.74668433  0.75994700  1
  Si  Si7  1  0.72002414  0.72002414  0.83992759  1
  Si  Si8  1  0.69334724  0.69334724  0.91995829  1
  Si  Si9  1  0.64001655  0.64001655  0.07995034  1
  Si  Si10  1  0.61340864  0.61340864  0.15977407  1
  Si  Si11  1  0.58683761  0.58683761  0.23948716  1
  Si  Si12  1  0.53326653  0.53326653  0.40020041  1
  Si  Si13  1  0.49320257  0.49320257  0.52039230  1
  Si  Si14  1  0.44000664  0.44000664  0.67998007  1
  Si  Si15  1  0.40001229  0.40001229  0.79996314  1
  Si  Si16  1  0.34669002  0.34669002  0.95992993  1
  Si  Si17  1  0.32001676  0.32001676  0.03994973  1
  Si  Si18  1  0.26678909  0.26678909  0.19963272  1
  Si  Si19  1  0.22681683  0.22681683  0.31954951  1
  Si  Si20  1  0.17317916  0.17317916  0.48046253  1
  Si  Si21  1  0.14659036  0.14659036  0.56022893  1
  Si  Si22  1  0.11999921  0.11999921  0.64000236  1
  Si  Si23  1  0.09333772  0.09333772  0.71998685  1
  Si  Si24  1  0.04002039  0.04002039  0.87993882  1
  C  C25  1  0.98996612  0.98996612  0.03010164  1
  C  C26  1  0.95000769  0.95000769  0.14997692  1
  C  C27  1  0.89683438  0.89683438  0.30949686  1
  C  C28  1  0.86995736  0.86995736  0.39012791  1
  C  C29  1  0.84314444  0.84314444  0.47056667  1
  C  C30  1  0.78993956  0.78993956  0.63018133  1
  C  C31  1  0.73666966  0.73666966  0.78999101  1
  C  C32  1  0.70999535  0.70999535  0.87001395  1
  C  C33  1  0.68333046  0.68333046  0.95000863  1
  C  C34  1  0.63001717  0.63001717  0.10994850  1
  C  C35  1  0.60342838  0.60342838  0.18971486  1
  C  C36  1  0.57683111  0.57683111  0.26950668  1
  C  C37  1  0.52315638  0.52315638  0.43053087  1
  C  C38  1  0.48318821  0.48318821  0.55043537  1
  C  C39  1  0.42997695  0.42997695  0.71006916  1
  C  C40  1  0.38995667  0.38995667  0.83012999  1
  C  C41  1  0.33667493  0.33667493  0.98997520  1
  C  C42  1  0.30999947  0.30999947  0.07000159  1
  C  C43  1  0.25677148  0.25677148  0.22968557  1
  C  C44  1  0.21671047  0.21671047  0.34986858  1
  C  C45  1  0.16318161  0.16318161  0.51045517  1
  C  C46  1  0.13660031  0.13660031  0.59019906  1
  C  C47  1  0.11000220  0.11000220  0.66999339  1
  C  C48  1  0.08333314  0.08333314  0.75000057  1
  C  C49  1  0.02996822  0.02996822  0.91009535  1
