# generated using pymatgen
data_RbBa2Br5
_symmetry_space_group_name_H-M   'P 1'
_cell_length_a   8.71412027
_cell_length_b   9.83945789
_cell_length_c   13.98936911
_cell_angle_alpha   89.90564131
_cell_angle_beta   90.00000000
_cell_angle_gamma   90.00000000
_symmetry_Int_Tables_number   1
_chemical_formula_structural   RbBa2Br5
_chemical_formula_sum   'Rb4 Ba8 Br20'
_cell_volume   1199.47792931
_cell_formula_units_Z   4
loop_
 _symmetry_equiv_pos_site_id
 _symmetry_equiv_pos_as_xyz
  1  'x, y, z'
loop_
 _atom_site_type_symbol
 _atom_site_label
 _atom_site_symmetry_multiplicity
 _atom_site_fract_x
 _atom_site_fract_y
 _atom_site_fract_z
 _atom_site_occupancy
  Rb  Rb0  1  0.46279759  0.49344162  0.82944010  1
  Rb  Rb1  1  0.53720241  0.50655838  0.17055990  1
  Rb  Rb2  1  0.96279759  0.50655838  0.67055990  1
  Rb  Rb3  1  0.03720241  0.49344162  0.32944010  1
  Ba  Ba4  1  0.47487148  0.00030311  0.82271080  1
  Ba  Ba5  1  0.52512852  0.99969689  0.17728920  1
  Ba  Ba6  1  0.97487148  0.99969689  0.67728920  1
  Ba  Ba7  1  0.02512852  0.00030311  0.32271080  1
  Ba  Ba8  1  0.42778573  0.74813303  0.50766903  1
  Ba  Ba9  1  0.57221427  0.25186697  0.49233097  1
  Ba  Ba10  1  0.92778573  0.25186697  0.99233097  1
  Ba  Ba11  1  0.07221427  0.74813303  0.00766903  1
  Br  Br12  1  0.33189471  0.45983696  0.59391024  1
  Br  Br13  1  0.66810529  0.54016304  0.40608976  1
  Br  Br14  1  0.83189471  0.54016304  0.90608976  1
  Br  Br15  1  0.16810529  0.45983696  0.09391024  1
  Br  Br16  1  0.67015931  0.78098929  0.68546771  1
  Br  Br17  1  0.32984069  0.21901071  0.31453229  1
  Br  Br18  1  0.17015931  0.21901071  0.81453229  1
  Br  Br19  1  0.82984069  0.78098929  0.18546771  1
  Br  Br20  1  0.19705716  0.76747841  0.78159424  1
  Br  Br21  1  0.80294284  0.23252159  0.21840576  1
  Br  Br22  1  0.69705716  0.23252159  0.71840576  1
  Br  Br23  1  0.30294284  0.76747841  0.28159424  1
  Br  Br24  1  0.04357738  0.77652765  0.50227955  1
  Br  Br25  1  0.95642262  0.22347235  0.49772045  1
  Br  Br26  1  0.54357738  0.22347235  0.99772045  1
  Br  Br27  1  0.45642262  0.77652765  0.00227955  1
  Br  Br28  1  0.83718188  0.95966134  0.90065587  1
  Br  Br29  1  0.16281812  0.04033866  0.09934413  1
  Br  Br30  1  0.33718188  0.04033866  0.59934413  1
  Br  Br31  1  0.66281812  0.95966134  0.40065587  1
