# generated using pymatgen
data_ZnNiAs2O7
_symmetry_space_group_name_H-M   'P 1'
_cell_length_a   8.50574070
_cell_length_b   7.17274175
_cell_length_c   9.54368293
_cell_angle_alpha   65.93942461
_cell_angle_beta   90.00000000
_cell_angle_gamma   90.00000000
_symmetry_Int_Tables_number   1
_chemical_formula_structural   ZnNiAs2O7
_chemical_formula_sum   'Zn4 Ni4 As8 O28'
_cell_volume   531.66586704
_cell_formula_units_Z   4
loop_
 _symmetry_equiv_pos_site_id
 _symmetry_equiv_pos_as_xyz
  1  'x, y, z'
loop_
 _atom_site_type_symbol
 _atom_site_label
 _atom_site_symmetry_multiplicity
 _atom_site_fract_x
 _atom_site_fract_y
 _atom_site_fract_z
 _atom_site_occupancy
  Zn  Zn0  1  0.06513377  0.73474755  0.88654330  1
  Zn  Zn1  1  0.56513377  0.26525245  0.61345670  1
  Zn  Zn2  1  0.93486623  0.26525245  0.11345670  1
  Zn  Zn3  1  0.43486623  0.73474755  0.38654330  1
  Ni  Ni4  1  0.93378329  0.19092746  0.67832758  1
  Ni  Ni5  1  0.43378329  0.80907254  0.82167242  1
  Ni  Ni6  1  0.06621671  0.80907254  0.32167242  1
  Ni  Ni7  1  0.56621671  0.19092746  0.17832758  1
  As  As8  1  0.76093491  0.54971232  0.76611839  1
  As  As9  1  0.26093491  0.45028768  0.73388161  1
  As  As10  1  0.23906509  0.45028768  0.23388161  1
  As  As11  1  0.73906509  0.54971232  0.26611839  1
  As  As12  1  0.72405837  0.97537681  0.96352036  1
  As  As13  1  0.22405837  0.02462319  0.53647964  1
  As  As14  1  0.27594163  0.02462319  0.03647964  1
  As  As15  1  0.77594163  0.97537681  0.46352036  1
  O  O16  1  0.73948195  0.13056296  0.05703101  1
  O  O17  1  0.23948195  0.86943704  0.44296899  1
  O  O18  1  0.26051805  0.86943704  0.94296899  1
  O  O19  1  0.76051805  0.13056296  0.55703101  1
  O  O20  1  0.58635134  0.61253756  0.81117093  1
  O  O21  1  0.08635134  0.38746244  0.68882907  1
  O  O22  1  0.41364866  0.38746244  0.18882907  1
  O  O23  1  0.91364866  0.61253756  0.31117093  1
  O  O24  1  0.90263710  0.52201484  0.89682227  1
  O  O25  1  0.40263710  0.47798516  0.60317773  1
  O  O26  1  0.09736290  0.47798516  0.10317773  1
  O  O27  1  0.59736290  0.52201484  0.39682227  1
  O  O28  1  0.83378203  0.73458809  0.59397242  1
  O  O29  1  0.33378203  0.26541191  0.90602758  1
  O  O30  1  0.16621797  0.26541191  0.40602758  1
  O  O31  1  0.66621797  0.73458809  0.09397242  1
  O  O32  1  0.92886770  0.02063885  0.34170817  1
  O  O33  1  0.42886770  0.97936115  0.15829183  1
  O  O34  1  0.07113230  0.97936115  0.65829183  1
  O  O35  1  0.57113230  0.02063885  0.84170817  1
  O  O36  1  0.74690341  0.34536625  0.22032868  1
  O  O37  1  0.24690341  0.65463375  0.27967132  1
  O  O38  1  0.25309659  0.65463375  0.77967132  1
  O  O39  1  0.75309659  0.34536625  0.72032868  1
  O  O40  1  0.60163860  0.95558414  0.38492124  1
  O  O41  1  0.10163860  0.04441586  0.11507876  1
  O  O42  1  0.39836140  0.04441586  0.61507876  1
  O  O43  1  0.89836140  0.95558414  0.88492124  1
