# generated using pymatgen
data_RbNaMg14O15
_symmetry_space_group_name_H-M   'P 1'
_cell_length_a   8.49508257
_cell_length_b   8.84798040
_cell_length_c   4.40500952
_cell_angle_alpha   90.00000000
_cell_angle_beta   90.00000000
_cell_angle_gamma   90.00000000
_symmetry_Int_Tables_number   1
_chemical_formula_structural   RbNaMg14O15
_chemical_formula_sum   'Rb1 Na1 Mg14 O15'
_cell_volume   331.09956312
_cell_formula_units_Z   1
loop_
 _symmetry_equiv_pos_site_id
 _symmetry_equiv_pos_as_xyz
  1  'x, y, z'
loop_
 _atom_site_type_symbol
 _atom_site_label
 _atom_site_symmetry_multiplicity
 _atom_site_fract_x
 _atom_site_fract_y
 _atom_site_fract_z
 _atom_site_occupancy
  Rb  Rb0  1  0.09954343  0.50000000  0.00000000  1
  Na  Na1  1  0.98776835  0.00000000  0.00000000  1
  Mg  Mg2  1  0.50001589  0.00000000  0.00000000  1
  Mg  Mg3  1  0.52090118  0.50000000  0.00000000  1
  Mg  Mg4  1  0.99332936  0.24199852  0.50000000  1
  Mg  Mg5  1  0.99332936  0.75800148  0.50000000  1
  Mg  Mg6  1  0.49682989  0.25229211  0.50000000  1
  Mg  Mg7  1  0.49682989  0.74770789  0.50000000  1
  Mg  Mg8  1  0.24207750  0.00000000  0.50000000  1
  Mg  Mg9  1  0.25125013  0.50000000  0.50000000  1
  Mg  Mg10  1  0.74927188  0.00000000  0.50000000  1
  Mg  Mg11  1  0.76598785  0.50000000  0.50000000  1
  Mg  Mg12  1  0.23986431  0.21623604  -0.00000000  1
  Mg  Mg13  1  0.23986431  0.78376396  0.00000000  1
  Mg  Mg14  1  0.76000850  0.25392934  0.00000000  1
  Mg  Mg15  1  0.76000850  0.74607066  -0.00000000  1
  O  O16  1  0.26514358  0.00000000  0.00000000  1
  O  O17  1  0.72744816  0.00000000  0.00000000  1
  O  O18  1  0.74609110  0.50000000  0.00000000  1
  O  O19  1  0.24535228  0.26058942  0.50000000  1
  O  O20  1  0.24535228  0.73941058  0.50000000  1
  O  O21  1  0.74357684  0.25190678  0.50000000  1
  O  O22  1  0.74357684  0.74809322  0.50000000  1
  O  O23  1  0.00087168  0.00000000  0.50000000  1
  O  O24  1  0.00030133  0.50000000  0.50000000  1
  O  O25  1  0.49075485  0.00000000  0.50000000  1
  O  O26  1  0.48515612  0.50000000  0.50000000  1
  O  O27  1  0.00040875  0.24234086  -0.00000000  1
  O  O28  1  0.00040875  0.75765914  0.00000000  1
  O  O29  1  0.47933857  0.26704852  -0.00000000  1
  O  O30  1  0.47933857  0.73295148  -0.00000000  1
