# generated using pymatgen
data_NaMg6BO7
_symmetry_space_group_name_H-M   'P 1'
_cell_length_a   7.98596443
_cell_length_b   4.46381240
_cell_length_c   4.46381240
_cell_angle_alpha   90.00000000
_cell_angle_beta   90.00000000
_cell_angle_gamma   90.00000000
_symmetry_Int_Tables_number   1
_chemical_formula_structural   NaMg6BO7
_chemical_formula_sum   'Na1 Mg6 B1 O7'
_cell_volume   159.12530169
_cell_formula_units_Z   1
loop_
 _symmetry_equiv_pos_site_id
 _symmetry_equiv_pos_as_xyz
  1  'x, y, z'
loop_
 _atom_site_type_symbol
 _atom_site_label
 _atom_site_symmetry_multiplicity
 _atom_site_fract_x
 _atom_site_fract_y
 _atom_site_fract_z
 _atom_site_occupancy
  Na  Na0  1  0.00240125  0.00000000  0.00000000  1
  Mg  Mg1  1  0.00269055  0.50000000  0.50000000  1
  Mg  Mg2  1  0.49683837  0.50000000  0.50000000  1
  Mg  Mg3  1  0.25443766  0.00000000  0.50000000  1
  Mg  Mg4  1  0.74450523  0.00000000  0.50000000  1
  Mg  Mg5  1  0.25443766  0.50000000  -0.00000000  1
  Mg  Mg6  1  0.74450523  0.50000000  -0.00000000  1
  B  B7  1  0.50096728  -0.00000000  0.00000000  1
  O  O8  1  0.32669626  0.00000000  0.00000000  1
  O  O9  1  0.67618504  0.00000000  0.00000000  1
  O  O10  1  0.74930956  0.50000000  0.50000000  1
  O  O11  1  0.99898762  -0.00000000  0.50000000  1
  O  O12  1  0.49952535  0.00000000  0.50000000  1
  O  O13  1  0.99898762  0.50000000  0.00000000  1
  O  O14  1  0.49952535  0.50000000  0.00000000  1
