# generated using pymatgen
data_Ba2MgAl2(Fe4O7)2
_symmetry_space_group_name_H-M   'P 1'
_cell_length_a   5.97288555
_cell_length_b   6.50925663
_cell_length_c   10.98571382
_cell_angle_alpha   91.31141776
_cell_angle_beta   96.48138193
_cell_angle_gamma   121.81206829
_symmetry_Int_Tables_number   1
_chemical_formula_structural   Ba2MgAl2(Fe4O7)2
_chemical_formula_sum   'Ba2 Mg1 Al2 Fe8 O14'
_cell_volume   358.91294229
_cell_formula_units_Z   1
loop_
 _symmetry_equiv_pos_site_id
 _symmetry_equiv_pos_as_xyz
  1  'x, y, z'
loop_
 _atom_site_type_symbol
 _atom_site_label
 _atom_site_symmetry_multiplicity
 _atom_site_fract_x
 _atom_site_fract_y
 _atom_site_fract_z
 _atom_site_occupancy
  Ba  Ba0  1  0.72328725  0.35052998  0.43863107  1
  Ba  Ba1  1  0.37465219  0.69454709  0.97298841  1
  Mg  Mg2  1  0.27478634  0.10444874  0.68774224  1
  Al  Al3  1  0.67841553  0.32338313  0.90341362  1
  Al  Al4  1  0.43291810  0.71857236  0.31360050  1
  Fe  Fe5  1  0.92490350  0.21127058  0.18297125  1
  Fe  Fe6  1  0.53928426  0.89164200  0.64377777  1
  Fe  Fe7  1  0.13428204  0.40100932  0.68205112  1
  Fe  Fe8  1  0.89042948  0.68627199  0.17393198  1
  Fe  Fe9  1  0.37999435  0.17654540  0.17257161  1
  Fe  Fe10  1  0.83075084  0.64977978  0.71515907  1
  Fe  Fe11  1  0.98525338  0.95747598  0.44590025  1
  Fe  Fe12  1  0.01367994  0.01995729  0.92432315  1
  O  O13  1  0.87928262  0.21980320  0.00458520  1
  O  O14  1  0.60492457  0.85866685  0.46755564  1
  O  O15  1  0.22798032  0.28310136  0.54432503  1
  O  O16  1  0.88302923  0.67636394  0.99572300  1
  O  O17  1  0.40284402  0.21587281  0.99987863  1
  O  O18  1  0.10989926  0.77005309  0.57945086  1
  O  O19  1  0.91116106  0.99090651  0.73312438  1
  O  O20  1  0.08109262  0.02214528  0.27683478  1
  O  O21  1  0.55257959  0.53472537  0.26072836  1
  O  O22  1  0.95674026  0.46236576  0.79849467  1
  O  O23  1  0.48271823  0.01455801  0.79683519  1
  O  O24  1  0.53942098  0.97378208  0.22405881  1
  O  O25  1  0.49241252  0.44466884  0.78570209  1
  O  O26  1  0.07869854  0.53505727  0.28114032  1
