# generated using pymatgen
data_La2MgSe4
_symmetry_space_group_name_H-M   'P 1'
_cell_length_a   13.82095670
_cell_length_b   8.29482245
_cell_length_c   13.76135041
_cell_angle_alpha   90.00000000
_cell_angle_beta   90.00000000
_cell_angle_gamma   90.00000000
_symmetry_Int_Tables_number   1
_chemical_formula_structural   La2MgSe4
_chemical_formula_sum   'La16 Mg8 Se32'
_cell_volume   1577.63398938
_cell_formula_units_Z   8
loop_
 _symmetry_equiv_pos_site_id
 _symmetry_equiv_pos_as_xyz
  1  'x, y, z'
loop_
 _atom_site_type_symbol
 _atom_site_label
 _atom_site_symmetry_multiplicity
 _atom_site_fract_x
 _atom_site_fract_y
 _atom_site_fract_z
 _atom_site_occupancy
  La  La0  1  0.10891462  0.88654480  0.68516695  1
  La  La1  1  0.89108538  0.11345520  0.18516695  1
  La  La2  1  0.39108538  0.88654480  0.18516695  1
  La  La3  1  0.60891462  0.11345520  0.68516695  1
  La  La4  1  0.12664168  0.38501807  0.32548072  1
  La  La5  1  0.87335832  0.61498193  0.82548072  1
  La  La6  1  0.37335832  0.38501807  0.82548072  1
  La  La7  1  0.62664168  0.61498193  0.32548072  1
  La  La8  1  0.13510975  0.63140653  0.99386537  1
  La  La9  1  0.86489025  0.36859347  0.49386537  1
  La  La10  1  0.36489025  0.63140653  0.49386537  1
  La  La11  1  0.63510975  0.36859347  0.99386537  1
  La  La12  1  0.13571926  0.13102325  0.99278958  1
  La  La13  1  0.86428074  0.86897675  0.49278958  1
  La  La14  1  0.36428074  0.13102325  0.49278958  1
  La  La15  1  0.63571926  0.86897675  0.99278958  1
  Mg  Mg16  1  0.11186830  0.38508327  0.69358515  1
  Mg  Mg17  1  0.88813170  0.61491673  0.19358515  1
  Mg  Mg18  1  0.38813170  0.38508327  0.19358515  1
  Mg  Mg19  1  0.61186830  0.61491673  0.69358515  1
  Mg  Mg20  1  0.12596220  0.88015772  0.32017770  1
  Mg  Mg21  1  0.87403780  0.11984228  0.82017770  1
  Mg  Mg22  1  0.37403780  0.88015772  0.82017770  1
  Mg  Mg23  1  0.62596220  0.11984228  0.32017770  1
  Se  Se24  1  0.00989747  0.88350713  0.88014537  1
  Se  Se25  1  0.99010253  0.11649287  0.38014537  1
  Se  Se26  1  0.49010253  0.88350713  0.38014537  1
  Se  Se27  1  0.50989747  0.11649287  0.88014537  1
  Se  Se28  1  0.02683629  0.38470193  0.12888225  1
  Se  Se29  1  0.97316371  0.61529807  0.62888225  1
  Se  Se30  1  0.47316371  0.38470193  0.62888225  1
  Se  Se31  1  0.52683629  0.61529807  0.12888225  1
  Se  Se32  1  0.02640956  0.37314574  0.86687467  1
  Se  Se33  1  0.97359044  0.62685426  0.36687467  1
  Se  Se34  1  0.47359044  0.37314574  0.36687467  1
  Se  Se35  1  0.52640956  0.62685426  0.86687467  1
  Se  Se36  1  0.04841298  0.87449118  0.14085823  1
  Se  Se37  1  0.95158702  0.12550882  0.64085823  1
  Se  Se38  1  0.45158702  0.87449118  0.64085823  1
  Se  Se39  1  0.54841298  0.12550882  0.14085823  1
  Se  Se40  1  0.20894435  0.88193360  0.49494871  1
  Se  Se41  1  0.79105565  0.11806640  0.99494871  1
  Se  Se42  1  0.29105565  0.88193360  0.99494871  1
  Se  Se43  1  0.70894435  0.11806640  0.49494871  1
  Se  Se44  1  0.21001493  0.38189213  0.52474788  1
  Se  Se45  1  0.78998507  0.61810787  0.02474788  1
  Se  Se46  1  0.28998507  0.38189213  0.02474788  1
  Se  Se47  1  0.71001493  0.61810787  0.52474788  1
  Se  Se48  1  0.23131001  0.13707958  0.77272068  1
  Se  Se49  1  0.76868999  0.86292042  0.27272068  1
  Se  Se50  1  0.26868999  0.13707958  0.27272068  1
  Se  Se51  1  0.73131001  0.86292042  0.77272068  1
  Se  Se52  1  0.23457217  0.63974272  0.77675774  1
  Se  Se53  1  0.76542783  0.36025728  0.27675774  1
  Se  Se54  1  0.26542783  0.63974272  0.27675774  1
  Se  Se55  1  0.73457217  0.36025728  0.77675774  1
