# generated using pymatgen
data_MgAs4(PO4)4
_symmetry_space_group_name_H-M   'P 1'
_cell_length_a   5.07007700
_cell_length_b   8.70166985
_cell_length_c   8.66192484
_cell_angle_alpha   81.42399779
_cell_angle_beta   90.00000000
_cell_angle_gamma   90.00000000
_symmetry_Int_Tables_number   1
_chemical_formula_structural   MgAs4(PO4)4
_chemical_formula_sum   'Mg1 As4 P4 O16'
_cell_volume   377.87515437
_cell_formula_units_Z   1
loop_
 _symmetry_equiv_pos_site_id
 _symmetry_equiv_pos_as_xyz
  1  'x, y, z'
loop_
 _atom_site_type_symbol
 _atom_site_label
 _atom_site_symmetry_multiplicity
 _atom_site_fract_x
 _atom_site_fract_y
 _atom_site_fract_z
 _atom_site_occupancy
  Mg  Mg0  1  0.75000000  0.49883000  0.78062100  1
  As  As1  1  0.25000000  0.69477800  0.69853500  1
  As  As2  1  0.75000000  0.32205100  0.32271200  1
  As  As3  1  0.75000000  0.20486800  0.82538900  1
  As  As4  1  0.25000000  0.84263900  0.19785600  1
  P  P5  1  0.25000000  0.33732900  0.60825100  1
  P  P6  1  0.75000000  0.66360100  0.37883100  1
  P  P7  1  0.75000000  0.80387000  0.85712400  1
  P  P8  1  0.25000000  0.19685500  0.13875000  1
  O  O9  1  0.25000000  0.40126200  0.43694000  1
  O  O10  1  0.75000000  0.59322200  0.54984400  1
  O  O11  1  0.75000000  0.84719600  0.01772000  1
  O  O12  1  0.25000000  0.16728000  0.97335400  1
  O  O13  1  0.25000000  0.47803100  0.71666300  1
  O  O14  1  0.75000000  0.53928900  0.26391900  1
  O  O15  1  0.75000000  0.90759000  0.70455700  1
  O  O16  1  0.25000000  0.03762200  0.26081600  1
  O  O17  1  0.99980200  0.29218200  0.17299600  1
  O  O18  1  0.50980200  0.67132800  0.85227500  1
  O  O19  1  0.99738500  0.77086700  0.34657400  1
  O  O20  1  0.49792100  0.23913300  0.65507100  1
  O  O21  1  0.99019800  0.67132800  0.85227500  1
  O  O22  1  0.50019800  0.29218200  0.17299600  1
  O  O23  1  0.00207900  0.23913300  0.65507100  1
  O  O24  1  0.50261500  0.77086700  0.34657400  1
