# generated using pymatgen
data_Zn(BH4)2
_symmetry_space_group_name_H-M   'P 1'
_cell_length_a   6.90283104
_cell_length_b   6.90283104
_cell_length_c   7.72389825
_cell_angle_alpha   116.54168444
_cell_angle_beta   116.54168444
_cell_angle_gamma   90.00000000
_symmetry_Int_Tables_number   1
_chemical_formula_structural   Zn(BH4)2
_chemical_formula_sum   'Zn2 B4 H16'
_cell_volume   285.23486633
_cell_formula_units_Z   2
loop_
 _symmetry_equiv_pos_site_id
 _symmetry_equiv_pos_as_xyz
  1  'x, y, z'
loop_
 _atom_site_type_symbol
 _atom_site_label
 _atom_site_symmetry_multiplicity
 _atom_site_fract_x
 _atom_site_fract_y
 _atom_site_fract_z
 _atom_site_occupancy
  Zn  Zn0  1  0.75000000  0.25000000  0.50000000  1
  Zn  Zn1  1  -0.00000000  0.00000000  -0.00000000  1
  B  B2  1  0.87500000  0.06422305  0.25000000  1
  B  B3  1  0.37500000  0.18577695  0.25000000  1
  B  B4  1  0.93577695  0.12500000  0.75000000  1
  B  B5  1  0.81422305  0.62500000  0.75000000  1
  H  H6  1  0.29509273  0.99408953  0.08890220  1
  H  H7  1  0.79380947  0.09481367  0.08890220  1
  H  H8  1  0.95619053  0.25591047  0.41109780  1
  H  H9  1  0.45490727  0.15518633  0.41109780  1
  H  H10  1  0.00591047  0.70490727  0.91109780  1
  H  H11  1  0.90518633  0.20619053  0.91109780  1
  H  H12  1  0.74408953  0.04380947  0.58890220  1
  H  H13  1  0.84481367  0.54509273  0.58890220  1
  H  H14  1  0.24822425  0.30152574  0.27724764  1
  H  H15  1  0.02902439  0.97572190  0.27724764  1
  H  H16  1  0.72097561  0.94847426  0.22275236  1
  H  H17  1  0.50177575  0.27427810  0.22275236  1
  H  H18  1  0.69847426  0.75177575  0.72275236  1
  H  H19  1  0.02427810  0.97097561  0.72275236  1
  H  H20  1  0.05152574  0.27902439  0.77724764  1
  H  H21  1  0.72572190  0.49822425  0.77724764  1
