# generated using pymatgen
data_PrTa7O19
_symmetry_space_group_name_H-M   'P 1'
_cell_length_a   6.24563291
_cell_length_b   6.24562383
_cell_length_c   20.01693679
_cell_angle_alpha   90.00006912
_cell_angle_beta   89.99989342
_cell_angle_gamma   119.99974016
_symmetry_Int_Tables_number   1
_chemical_formula_structural   PrTa7O19
_chemical_formula_sum   'Pr2 Ta14 O38'
_cell_volume   676.21011806
_cell_formula_units_Z   2
loop_
 _symmetry_equiv_pos_site_id
 _symmetry_equiv_pos_as_xyz
  1  'x, y, z'
loop_
 _atom_site_type_symbol
 _atom_site_label
 _atom_site_symmetry_multiplicity
 _atom_site_fract_x
 _atom_site_fract_y
 _atom_site_fract_z
 _atom_site_occupancy
  Pr  Pr0  1  0.00000139  -0.00000050  0.99999214  1
  Pr  Pr1  1  0.00000011  -0.00000196  0.50000604  1
  Ta  Ta2  1  0.69178034  0.02647933  0.15614076  1
  Ta  Ta3  1  0.97351849  0.66530345  0.15613947  1
  Ta  Ta4  1  0.69177616  0.02647951  0.34386282  1
  Ta  Ta5  1  0.69179291  0.66530175  0.65613791  1
  Ta  Ta6  1  0.33469486  0.30821456  0.15613912  1
  Ta  Ta7  1  0.97352008  0.66529819  0.34386286  1
  Ta  Ta8  1  0.97351022  0.30820612  0.65613653  1
  Ta  Ta9  1  0.69178696  0.66530365  0.84386299  1
  Ta  Ta10  1  0.33470043  0.30822038  0.34386330  1
  Ta  Ta11  1  0.97351915  0.30822108  0.84386203  1
  Ta  Ta12  1  0.33469748  0.02649135  0.65613697  1
  Ta  Ta13  1  0.33469798  0.02648945  0.84386211  1
  Ta  Ta14  1  0.66666725  0.33333357  0.00000426  1
  Ta  Ta15  1  0.66666629  0.33333376  0.49999959  1
  O  O16  1  0.75283730  0.04250730  0.24999116  1
  O  O17  1  0.95749108  0.71032986  0.24999146  1
  O  O18  1  0.75291688  0.71040000  0.75000851  1
  O  O19  1  0.28966991  0.24716086  0.24999152  1
  O  O20  1  0.95748471  0.24708397  0.75000755  1
  O  O21  1  0.28960021  0.04251567  0.75000746  1
  O  O22  1  0.08721615  0.42032606  0.15360850  1
  O  O23  1  0.57967859  0.66688957  0.15360850  1
  O  O24  1  0.08722060  0.42032788  0.34637628  1
  O  O25  1  0.08721981  0.66689143  0.65362766  1
  O  O26  1  0.33310784  0.91278736  0.15360835  1
  O  O27  1  0.57967676  0.66688911  0.34637611  1
  O  O28  1  0.57967432  0.91277959  0.65362725  1
  O  O29  1  0.08721973  0.66689545  0.84638699  1
  O  O30  1  0.33310537  0.91278287  0.34637620  1
  O  O31  1  0.57967135  0.91278050  0.84638714  1
  O  O32  1  0.33310816  0.42032301  0.65362758  1
  O  O33  1  0.33310832  0.42032507  0.84638689  1
  O  O34  1  0.66666631  0.33333301  0.16778552  1
  O  O35  1  0.66666643  0.33333161  0.33220081  1
  O  O36  1  0.66666558  0.33333028  0.66784844  1
  O  O37  1  0.66666660  0.33333512  0.83216198  1
  O  O38  1  -0.00000101  0.00000012  0.13201566  1
  O  O39  1  -0.00000141  -0.00000116  0.36797144  1
  O  O40  1  -0.00000028  -0.00000154  0.63200688  1
  O  O41  1  0.00000092  0.00000246  0.86800181  1
  O  O42  1  0.71099115  0.09752460  0.05712072  1
  O  O43  1  0.90247390  0.61346500  0.05712056  1
  O  O44  1  0.71099743  0.09753247  0.44287512  1
  O  O45  1  0.71094369  0.61343749  0.55712834  1
  O  O46  1  0.38653364  0.28900898  0.05712053  1
  O  O47  1  0.90246646  0.61346168  0.44287462  1
  O  O48  1  0.90249348  0.28905373  0.55712826  1
  O  O49  1  0.71094084  0.61343635  0.94287830  1
  O  O50  1  0.38653510  0.28900251  0.44287531  1
  O  O51  1  0.90249587  0.28905734  0.94287806  1
  O  O52  1  0.38656534  0.09750758  0.55712825  1
  O  O53  1  0.38656571  0.09750611  0.94287836  1
