# generated using pymatgen
data_TmSbO4
_symmetry_space_group_name_H-M   'P 1'
_cell_length_a   5.26955737
_cell_length_b   7.41324044
_cell_length_c   7.52833592
_cell_angle_alpha   81.54679541
_cell_angle_beta   90.00000000
_cell_angle_gamma   90.00000000
_symmetry_Int_Tables_number   1
_chemical_formula_structural   TmSbO4
_chemical_formula_sum   'Tm4 Sb4 O16'
_cell_volume   290.89572081
_cell_formula_units_Z   4
loop_
 _symmetry_equiv_pos_site_id
 _symmetry_equiv_pos_as_xyz
  1  'x, y, z'
loop_
 _atom_site_type_symbol
 _atom_site_label
 _atom_site_symmetry_multiplicity
 _atom_site_fract_x
 _atom_site_fract_y
 _atom_site_fract_z
 _atom_site_occupancy
  Tm  Tm0  1  0.72590318  0.61372623  0.14423438  1
  Tm  Tm1  1  0.27409682  0.38627377  0.85576562  1
  Tm  Tm2  1  0.77409682  0.11372623  0.14423438  1
  Tm  Tm3  1  0.22590318  0.88627377  0.85576562  1
  Sb  Sb4  1  0.76860609  0.19180686  0.66395880  1
  Sb  Sb5  1  0.23139391  0.80819314  0.33604120  1
  Sb  Sb6  1  0.26860609  0.30819314  0.33604120  1
  Sb  Sb7  1  0.73139391  0.69180686  0.66395880  1
  O  O8  1  0.90485262  0.69045810  0.43109845  1
  O  O9  1  0.09514738  0.30954190  0.56890155  1
  O  O10  1  0.38674926  0.56258855  0.32844833  1
  O  O11  1  0.61325074  0.43741145  0.67155167  1
  O  O12  1  0.11325074  0.06258855  0.32844833  1
  O  O13  1  0.88674926  0.93741145  0.67155167  1
  O  O14  1  0.59514738  0.19045810  0.43109845  1
  O  O15  1  0.40485262  0.80954190  0.56890155  1
  O  O16  1  0.97562045  0.17547336  0.88911766  1
  O  O17  1  0.02437955  0.82452664  0.11088234  1
  O  O18  1  0.47562045  0.32452664  0.11088234  1
  O  O19  1  0.52437955  0.67547336  0.88911766  1
  O  O20  1  0.51510210  0.88361046  0.17814784  1
  O  O21  1  0.48489790  0.11638954  0.82185216  1
  O  O22  1  0.98489790  0.38361046  0.17814784  1
  O  O23  1  0.01510210  0.61638954  0.82185216  1
