# generated using pymatgen
data_K7Ta(SO4)6
_symmetry_space_group_name_H-M   'P 1'
_cell_length_a   9.29280711
_cell_length_b   9.29280711
_cell_length_c   9.29280718
_cell_angle_alpha   109.62425734
_cell_angle_beta   109.62425736
_cell_angle_gamma   109.62425199
_symmetry_Int_Tables_number   1
_chemical_formula_structural   K7Ta(SO4)6
_chemical_formula_sum   'K7 Ta1 S6 O24'
_cell_volume   614.23358417
_cell_formula_units_Z   1
loop_
 _symmetry_equiv_pos_site_id
 _symmetry_equiv_pos_as_xyz
  1  'x, y, z'
loop_
 _atom_site_type_symbol
 _atom_site_label
 _atom_site_symmetry_multiplicity
 _atom_site_fract_x
 _atom_site_fract_y
 _atom_site_fract_z
 _atom_site_occupancy
  K  K0  1  0.50000000  0.50000000  0.50000000  1
  K  K1  1  0.66449862  0.16403285  0.32118840  1
  K  K2  1  0.32118840  0.66449862  0.16403285  1
  K  K3  1  0.16403285  0.32118840  0.66449862  1
  K  K4  1  0.33550138  0.83596715  0.67881160  1
  K  K5  1  0.67881160  0.33550138  0.83596715  1
  K  K6  1  0.83596715  0.67881160  0.33550138  1
  Ta  Ta7  1  0.00000000  0.00000000  0.00000000  1
  S  S8  1  0.25627834  0.03256213  0.38384320  1
  S  S9  1  0.38384320  0.25627834  0.03256213  1
  S  S10  1  0.03256213  0.38384320  0.25627834  1
  S  S11  1  0.74372166  0.96743787  0.61615680  1
  S  S12  1  0.61615680  0.74372166  0.96743787  1
  S  S13  1  0.96743787  0.61615680  0.74372166  1
  O  O14  1  0.09271202  0.57262981  0.83321277  1
  O  O15  1  0.83321277  0.09271202  0.57262981  1
  O  O16  1  0.57262981  0.83321277  0.09271202  1
  O  O17  1  0.90728798  0.42737019  0.16678723  1
  O  O18  1  0.16678723  0.90728798  0.42737019  1
  O  O19  1  0.42737019  0.16678723  0.90728798  1
  O  O20  1  0.01426482  0.68909040  0.63986483  1
  O  O21  1  0.63986483  0.01426482  0.68909040  1
  O  O22  1  0.68909040  0.63986483  0.01426482  1
  O  O23  1  0.98573518  0.31090960  0.36013517  1
  O  O24  1  0.36013517  0.98573518  0.31090960  1
  O  O25  1  0.31090960  0.36013517  0.98573518  1
  O  O26  1  0.02568748  0.23608807  0.10620409  1
  O  O27  1  0.10620409  0.02568748  0.23608807  1
  O  O28  1  0.53039880  0.35758217  0.21496149  1
  O  O29  1  0.35758217  0.21496149  0.53039880  1
  O  O30  1  0.21496149  0.53039880  0.35758217  1
  O  O31  1  0.46960120  0.64241783  0.78503851  1
  O  O32  1  0.64241783  0.78503851  0.46960120  1
  O  O33  1  0.78503851  0.46960120  0.64241783  1
  O  O34  1  0.76391193  0.89379591  0.97431252  1
  O  O35  1  0.89379591  0.97431252  0.76391193  1
  O  O36  1  0.97431252  0.76391193  0.89379591  1
  O  O37  1  0.23608807  0.10620409  0.02568748  1
