# generated using pymatgen
data_Mg14VCrO16
_symmetry_space_group_name_H-M   'P 1'
_cell_length_a   8.48762465
_cell_length_b   8.67858692
_cell_length_c   4.27479059
_cell_angle_alpha   90.00000000
_cell_angle_beta   90.00000000
_cell_angle_gamma   90.00000000
_symmetry_Int_Tables_number   1
_chemical_formula_structural   Mg14VCrO16
_chemical_formula_sum   'Mg14 V1 Cr1 O16'
_cell_volume   314.88358959
_cell_formula_units_Z   1
loop_
 _symmetry_equiv_pos_site_id
 _symmetry_equiv_pos_as_xyz
  1  'x, y, z'
loop_
 _atom_site_type_symbol
 _atom_site_label
 _atom_site_symmetry_multiplicity
 _atom_site_fract_x
 _atom_site_fract_y
 _atom_site_fract_z
 _atom_site_occupancy
  Mg  Mg0  1  0.50000000  0.00000000  -0.00000000  1
  Mg  Mg1  1  0.50000000  0.50000000  -0.00000000  1
  Mg  Mg2  1  -0.00000000  0.24798059  0.50000000  1
  Mg  Mg3  1  -0.00000000  0.75201941  0.50000000  1
  Mg  Mg4  1  0.50000000  0.24950729  0.50000000  1
  Mg  Mg5  1  0.50000000  0.75049271  0.50000000  1
  Mg  Mg6  1  0.25079855  0.00000000  0.50000000  1
  Mg  Mg7  1  0.25099296  0.50000000  0.50000000  1
  Mg  Mg8  1  0.74920145  0.00000000  0.50000000  1
  Mg  Mg9  1  0.74900704  0.50000000  0.50000000  1
  Mg  Mg10  1  0.24977973  0.24854467  -0.00000000  1
  Mg  Mg11  1  0.24977973  0.75145533  -0.00000000  1
  Mg  Mg12  1  0.75022027  0.24854467  -0.00000000  1
  Mg  Mg13  1  0.75022027  0.75145533  -0.00000000  1
  V  V14  1  -0.00000000  0.00000000  -0.00000000  1
  Cr  Cr15  1  -0.00000000  0.50000000  -0.00000000  1
  O  O16  1  0.25721719  0.00000000  -0.00000000  1
  O  O17  1  0.25091149  0.50000000  0.00000000  1
  O  O18  1  0.74278281  0.00000000  -0.00000000  1
  O  O19  1  0.74908851  0.50000000  0.00000000  1
  O  O20  1  0.24980747  0.25048224  0.50000000  1
  O  O21  1  0.24980747  0.74951776  0.50000000  1
  O  O22  1  0.75019253  0.25048224  0.50000000  1
  O  O23  1  0.75019253  0.74951776  0.50000000  1
  O  O24  1  -0.00000000  0.00000000  0.50000000  1
  O  O25  1  -0.00000000  0.50000000  0.50000000  1
  O  O26  1  0.50000000  0.00000000  0.50000000  1
  O  O27  1  0.50000000  0.50000000  0.50000000  1
  O  O28  1  -0.00000000  0.24372289  -0.00000000  1
  O  O29  1  -0.00000000  0.75627711  -0.00000000  1
  O  O30  1  0.50000000  0.25151228  -0.00000000  1
  O  O31  1  0.50000000  0.74848772  0.00000000  1
