# generated using pymatgen
data_BaSm2O4
_symmetry_space_group_name_H-M   'P 1'
_cell_length_a   3.56136252
_cell_length_b   10.58691307
_cell_length_c   12.38337403
_cell_angle_alpha   90.00000000
_cell_angle_beta   90.00000000
_cell_angle_gamma   90.00000000
_symmetry_Int_Tables_number   1
_chemical_formula_structural   BaSm2O4
_chemical_formula_sum   'Ba4 Sm8 O16'
_cell_volume   466.90069625
_cell_formula_units_Z   4
loop_
 _symmetry_equiv_pos_site_id
 _symmetry_equiv_pos_as_xyz
  1  'x, y, z'
loop_
 _atom_site_type_symbol
 _atom_site_label
 _atom_site_symmetry_multiplicity
 _atom_site_fract_x
 _atom_site_fract_y
 _atom_site_fract_z
 _atom_site_occupancy
  Ba  Ba0  1  0.75000000  0.25203536  0.85168138  1
  Ba  Ba1  1  0.25000000  0.74796464  0.14831862  1
  Ba  Ba2  1  0.75000000  0.75203536  0.64831862  1
  Ba  Ba3  1  0.25000000  0.24796464  0.35168138  1
  Sm  Sm4  1  0.25000000  0.57706852  0.38882890  1
  Sm  Sm5  1  0.75000000  0.42293148  0.61117110  1
  Sm  Sm6  1  0.25000000  0.07706852  0.11117110  1
  Sm  Sm7  1  0.75000000  0.92293148  0.88882890  1
  Sm  Sm8  1  0.75000000  0.92323055  0.38897129  1
  Sm  Sm9  1  0.25000000  0.07676945  0.61102871  1
  Sm  Sm10  1  0.75000000  0.42323055  0.11102871  1
  Sm  Sm11  1  0.25000000  0.57676945  0.88897129  1
  O  O12  1  0.25000000  0.57067905  0.57554932  1
  O  O13  1  0.75000000  0.42932095  0.42445068  1
  O  O14  1  0.25000000  0.07067905  0.92445068  1
  O  O15  1  0.75000000  0.92932095  0.07554932  1
  O  O16  1  0.25000000  0.48278407  0.21744829  1
  O  O17  1  0.75000000  0.51721593  0.78255171  1
  O  O18  1  0.25000000  0.98278407  0.28255171  1
  O  O19  1  0.75000000  0.01721593  0.71744829  1
  O  O20  1  0.25000000  0.88041055  0.51834590  1
  O  O21  1  0.75000000  0.11958945  0.48165410  1
  O  O22  1  0.25000000  0.38041055  0.98165410  1
  O  O23  1  0.75000000  0.61958945  0.01834590  1
  O  O24  1  0.75000000  0.71055876  0.33409164  1
  O  O25  1  0.25000000  0.28944124  0.66590836  1
  O  O26  1  0.75000000  0.21055876  0.16590836  1
  O  O27  1  0.25000000  0.78944124  0.83409164  1
