# generated using pymatgen
data_HfO2
_symmetry_space_group_name_H-M   'P 1'
_cell_length_a   4.89088365
_cell_length_b   5.08031940
_cell_length_c   5.16486745
_cell_angle_alpha   90.00000000
_cell_angle_beta   90.00000000
_cell_angle_gamma   90.00000000
_symmetry_Int_Tables_number   1
_chemical_formula_structural   HfO2
_chemical_formula_sum   'Hf4 O8'
_cell_volume   128.33275838
_cell_formula_units_Z   4
loop_
 _symmetry_equiv_pos_site_id
 _symmetry_equiv_pos_as_xyz
  1  'x, y, z'
loop_
 _atom_site_type_symbol
 _atom_site_label
 _atom_site_symmetry_multiplicity
 _atom_site_fract_x
 _atom_site_fract_y
 _atom_site_fract_z
 _atom_site_occupancy
  Hf  Hf0  1  0.72793206  0.27740918  0.28179958  1
  Hf  Hf1  1  0.27206794  0.77740918  0.21820042  1
  Hf  Hf2  1  0.72793206  0.72259082  0.71820042  1
  Hf  Hf3  1  0.27206794  0.22259082  0.78179958  1
  O  O4  1  0.42437501  0.50000000  0.50000000  1
  O  O5  1  0.57562499  -0.00000000  0.00000000  1
  O  O6  1  0.51094555  0.50000000  0.00000000  1
  O  O7  1  0.48905445  -0.00000000  0.50000000  1
  O  O8  1  0.89546538  0.31318468  0.66364878  1
  O  O9  1  0.10453462  0.81318468  0.83635122  1
  O  O10  1  0.89546538  0.68681532  0.33635122  1
  O  O11  1  0.10453462  0.18681532  0.16364878  1
