# generated using pymatgen
data_K2MgFe4P6(O4F3)4
_symmetry_space_group_name_H-M   'P 1'
_cell_length_a   7.64795834
_cell_length_b   7.62986902
_cell_length_c   10.94539319
_cell_angle_alpha   101.40410507
_cell_angle_beta   110.55447958
_cell_angle_gamma   90.35378766
_symmetry_Int_Tables_number   1
_chemical_formula_structural   K2MgFe4P6(O4F3)4
_chemical_formula_sum   'K2 Mg1 Fe4 P6 O16 F12'
_cell_volume   584.23676143
_cell_formula_units_Z   1
loop_
 _symmetry_equiv_pos_site_id
 _symmetry_equiv_pos_as_xyz
  1  'x, y, z'
loop_
 _atom_site_type_symbol
 _atom_site_label
 _atom_site_symmetry_multiplicity
 _atom_site_fract_x
 _atom_site_fract_y
 _atom_site_fract_z
 _atom_site_occupancy
  K  K0  1  0.75213549  0.06481760  0.80748834  1
  K  K1  1  0.24866979  0.93695700  0.18884728  1
  Mg  Mg2  1  0.00056448  0.49967162  0.49842462  1
  Fe  Fe3  1  0.63255297  0.32343294  0.31722917  1
  Fe  Fe4  1  0.36820130  0.68044553  0.67849766  1
  Fe  Fe5  1  0.49833295  0.50249261  0.99911776  1
  Fe  Fe6  1  0.00244958  0.00099724  0.49891709  1
  P  P7  1  0.65329778  0.74631312  0.50527694  1
  P  P8  1  0.34785741  0.25637756  0.48956967  1
  P  P9  1  0.29153359  0.09074933  0.81589669  1
  P  P10  1  0.71203706  0.91226327  0.18303888  1
  P  P11  1  0.05833904  0.57432374  0.83217926  1
  P  P12  1  0.93924287  0.42806418  0.16460698  1
  O  O13  1  0.73274561  0.57279320  0.45763653  1
  O  O14  1  0.26739263  0.42865507  0.53773570  1
  O  O15  1  0.78573366  0.91371513  0.53906796  1
  O  O16  1  0.21906745  0.08681983  0.45867562  1
  O  O17  1  0.60243549  0.07181220  0.20490331  1
  O  O18  1  0.40393836  0.93236971  0.79754839  1
  O  O19  1  0.41913220  0.26130526  0.88585215  1
  O  O20  1  0.58124732  0.74408325  0.11196598  1
  O  O21  1  0.87991255  0.88946352  0.30375141  1
  O  O22  1  0.12459516  0.11044062  0.69355273  1
  O  O23  1  0.91122045  0.41115616  0.29020260  1
  O  O24  1  0.08739110  0.58706568  0.70626461  1
  O  O25  1  0.77618210  0.43892256  0.04231533  1
  O  O26  1  0.22055656  0.56707437  0.95601511  1
  O  O27  1  0.41718326  0.26114258  0.37720056  1
  O  O28  1  0.57853536  0.74230374  0.61515785  1
  F  F29  1  0.88746904  0.24249500  0.47730298  1
  F  F30  1  0.11656765  0.75762645  0.52157024  1
  F  F31  1  0.48570322  0.42404799  0.15428559  1
  F  F32  1  0.50678652  0.58184266  0.84285959  1
  F  F33  1  0.80839696  0.94912840  0.07953673  1
  F  F34  1  0.19270608  0.05617373  0.91870281  1
  F  F35  1  0.90678303  0.41675351  0.80168739  1
  F  F36  1  0.09149340  0.58576133  0.19748442  1
  F  F37  1  0.52678924  0.23969279  0.61651561  1
  F  F38  1  0.47773562  0.76549950  0.37721597  1
  F  F39  1  0.04977612  0.26786745  0.12276834  1
  F  F40  1  0.94623855  0.73541558  0.87063414  1
