# generated using pymatgen
data_SnTe3O8
_symmetry_space_group_name_H-M   'P 1'
_cell_length_a   9.71858496
_cell_length_b   9.71846964
_cell_length_c   9.71853371
_cell_angle_alpha   109.47086103
_cell_angle_beta   109.47143157
_cell_angle_gamma   109.47118030
_symmetry_Int_Tables_number   1
_chemical_formula_structural   SnTe3O8
_chemical_formula_sum   'Sn4 Te12 O32'
_cell_volume   706.61163697
_cell_formula_units_Z   4
loop_
 _symmetry_equiv_pos_site_id
 _symmetry_equiv_pos_as_xyz
  1  'x, y, z'
loop_
 _atom_site_type_symbol
 _atom_site_label
 _atom_site_symmetry_multiplicity
 _atom_site_fract_x
 _atom_site_fract_y
 _atom_site_fract_z
 _atom_site_occupancy
  Sn  Sn0  1  -0.00000047  0.00000113  -0.00000121  1
  Sn  Sn1  1  0.49999985  0.50000090  0.00000084  1
  Sn  Sn2  1  -0.00000176  0.49999828  0.49999643  1
  Sn  Sn3  1  0.50000007  0.00000058  0.50000093  1
  Te  Te4  1  0.70413336  0.25000042  0.95415023  1
  Te  Te5  1  0.54588617  0.79587436  0.75000027  1
  Te  Te6  1  0.04588895  0.29589795  0.75002912  1
  Te  Te7  1  0.24999217  0.45411744  0.20412032  1
  Te  Te8  1  0.20411230  0.24999067  0.45411776  1
  Te  Te9  1  0.75001834  0.04588236  0.29588341  1
  Te  Te10  1  0.29586201  0.75001337  0.04587577  1
  Te  Te11  1  0.45411585  0.20412305  0.24999473  1
  Te  Te12  1  0.24998606  0.95411300  0.70411584  1
  Te  Te13  1  0.79588888  0.75000929  0.54587823  1
  Te  Te14  1  0.75000792  0.54588362  0.79588559  1
  Te  Te15  1  0.95411719  0.70410856  0.24997752  1
  O  O16  1  0.49999944  -0.00000179  0.83253970  1
  O  O17  1  -0.00000136  0.83254228  0.50000160  1
  O  O18  1  0.83253680  0.49999864  -0.00000311  1
  O  O19  1  0.66745881  0.66745766  0.66745795  1
  O  O20  1  0.50000138  0.00000230  0.16746158  1
  O  O21  1  0.00000266  0.16746099  0.50000140  1
  O  O22  1  0.16746112  0.49999927  0.00000131  1
  O  O23  1  0.33254071  0.33253915  0.33253903  1
  O  O24  1  0.46992524  0.70680321  0.04125260  1
  O  O25  1  0.33445285  0.79319971  0.26311977  1
  O  O26  1  0.03008257  0.07133289  0.23688350  1
  O  O27  1  0.42867165  0.45874981  0.16554791  1
  O  O28  1  0.45875347  0.16555218  0.42867033  1
  O  O29  1  0.04124952  0.46992118  0.70680549  1
  O  O30  1  0.79319880  0.26311548  0.33445056  1
  O  O31  1  0.23688918  0.03008583  0.07133363  1
  O  O32  1  0.83444711  0.57133311  0.54124692  1
  O  O33  1  0.92866505  0.76311073  0.96991261  1
  O  O34  1  0.73687881  0.66554908  0.20680184  1
  O  O35  1  0.29319271  0.95874392  0.53007530  1
  O  O36  1  0.76311266  0.96991398  0.92866473  1
  O  O37  1  0.20680245  0.73688076  0.66555094  1
  O  O38  1  0.95874988  0.53007698  0.29319158  1
  O  O39  1  0.54125070  0.83444886  0.57132761  1
  O  O40  1  0.57132888  0.54124948  0.83444685  1
  O  O41  1  0.96991428  0.92866655  0.76311075  1
  O  O42  1  0.66554930  0.20680104  0.73687885  1
  O  O43  1  0.53007127  0.29319703  0.95874669  1
  O  O44  1  0.16554980  0.42866634  0.45874943  1
  O  O45  1  0.07133460  0.23688441  0.03008261  1
  O  O46  1  0.26311917  0.33445194  0.79319861  1
  O  O47  1  0.70680359  0.04125202  0.46992567  1
