# generated using pymatgen
data_Cs4GeTe6
_symmetry_space_group_name_H-M   'P 1'
_cell_length_a   8.09434431
_cell_length_b   14.36632620
_cell_length_c   18.10775324
_cell_angle_alpha   90.00000000
_cell_angle_beta   101.44709497
_cell_angle_gamma   90.00000000
_symmetry_Int_Tables_number   1
_chemical_formula_structural   Cs4GeTe6
_chemical_formula_sum   'Cs16 Ge4 Te24'
_cell_volume   2063.79267248
_cell_formula_units_Z   4
loop_
 _symmetry_equiv_pos_site_id
 _symmetry_equiv_pos_as_xyz
  1  'x, y, z'
loop_
 _atom_site_type_symbol
 _atom_site_label
 _atom_site_symmetry_multiplicity
 _atom_site_fract_x
 _atom_site_fract_y
 _atom_site_fract_z
 _atom_site_occupancy
  Cs  Cs0  1  0.95766263  0.05951557  0.79990090  1
  Cs  Cs1  1  0.45766263  0.44048443  0.29990090  1
  Cs  Cs2  1  0.04233737  0.94048443  0.20009910  1
  Cs  Cs3  1  0.54233737  0.55951557  0.70009910  1
  Cs  Cs4  1  0.19414838  0.39385754  0.50269016  1
  Cs  Cs5  1  0.69414838  0.10614246  0.00269016  1
  Cs  Cs6  1  0.80585162  0.60614246  0.49730984  1
  Cs  Cs7  1  0.30585162  0.89385754  0.99730984  1
  Cs  Cs8  1  0.51310070  0.09005879  0.60003837  1
  Cs  Cs9  1  0.01310070  0.40994121  0.10003837  1
  Cs  Cs10  1  0.48689930  0.90994121  0.39996163  1
  Cs  Cs11  1  0.98689930  0.59005879  0.89996163  1
  Cs  Cs12  1  0.35273843  0.32544383  0.87353816  1
  Cs  Cs13  1  0.85273843  0.17455617  0.37353816  1
  Cs  Cs14  1  0.64726157  0.67455617  0.12646184  1
  Cs  Cs15  1  0.14726157  0.82544383  0.62646184  1
  Ge  Ge16  1  0.89352425  0.35330860  0.65309851  1
  Ge  Ge17  1  0.39352425  0.14669140  0.15309851  1
  Ge  Ge18  1  0.10647575  0.64669140  0.34690149  1
  Ge  Ge19  1  0.60647575  0.85330860  0.84690149  1
  Te  Te20  1  0.44868790  0.00600706  0.80426224  1
  Te  Te21  1  0.94868790  0.49399294  0.30426224  1
  Te  Te22  1  0.55131210  0.99399294  0.19573776  1
  Te  Te23  1  0.05131210  0.50600706  0.69573776  1
  Te  Te24  1  0.68460154  0.34271383  0.52495016  1
  Te  Te25  1  0.18460154  0.15728617  0.02495016  1
  Te  Te26  1  0.31539846  0.65728617  0.47504984  1
  Te  Te27  1  0.81539846  0.84271383  0.97504984  1
  Te  Te28  1  0.68690146  0.29935264  0.74277767  1
  Te  Te29  1  0.18690146  0.20064736  0.24277767  1
  Te  Te30  1  0.31309854  0.70064736  0.25722233  1
  Te  Te31  1  0.81309854  0.79935264  0.75722233  1
  Te  Te32  1  0.14150964  0.22733371  0.66560921  1
  Te  Te33  1  0.64150964  0.27266629  0.16560921  1
  Te  Te34  1  0.85849036  0.77266629  0.33439079  1
  Te  Te35  1  0.35849036  0.72733371  0.83439079  1
  Te  Te36  1  0.88113240  0.29601155  0.88750687  1
  Te  Te37  1  0.38113240  0.20398845  0.38750687  1
  Te  Te38  1  0.11886760  0.70398845  0.11249313  1
  Te  Te39  1  0.61886760  0.79601155  0.61249313  1
  Te  Te40  1  0.00013356  0.07501142  0.57948842  1
  Te  Te41  1  0.50013356  0.42498858  0.07948842  1
  Te  Te42  1  0.99986644  0.92498858  0.42051158  1
  Te  Te43  1  0.49986644  0.57501142  0.92051158  1
