# generated using pymatgen
data_VOF2
_symmetry_space_group_name_H-M   'P 1'
_cell_length_a   5.07246795
_cell_length_b   5.27293010
_cell_length_c   7.29201456
_cell_angle_alpha   93.93895692
_cell_angle_beta   90.00035048
_cell_angle_gamma   90.00025450
_symmetry_Int_Tables_number   1
_chemical_formula_structural   VOF2
_chemical_formula_sum   'V4 O4 F8'
_cell_volume   194.57711056
_cell_formula_units_Z   4
loop_
 _symmetry_equiv_pos_site_id
 _symmetry_equiv_pos_as_xyz
  1  'x, y, z'
loop_
 _atom_site_type_symbol
 _atom_site_label
 _atom_site_symmetry_multiplicity
 _atom_site_fract_x
 _atom_site_fract_y
 _atom_site_fract_z
 _atom_site_occupancy
  V  V0  1  0.47961977  0.50035977  0.53616757  1
  V  V1  1  0.52076219  0.50029235  0.03633116  1
  V  V2  1  0.02060895  0.99945727  0.96370970  1
  V  V3  1  0.97955058  0.99982158  0.46381237  1
  O  O4  1  0.59067728  0.50067932  0.25469818  1
  O  O5  1  0.09040305  0.99934192  0.74535156  1
  O  O6  1  0.90931284  0.00053563  0.24551242  1
  O  O7  1  0.40925895  0.49965570  0.75447231  1
  F  F8  1  0.69255691  0.18806793  0.94970553  1
  F  F9  1  0.17765650  0.68269467  0.45025690  1
  F  F10  1  0.67770604  0.81746672  0.54966251  1
  F  F11  1  0.19271180  0.31175374  0.05029528  1
  F  F12  1  0.82001266  0.68451010  0.95001697  1
  F  F13  1  0.30962110  0.18593731  0.44986613  1
  F  F14  1  0.80961728  0.31418184  0.55009425  1
  F  F15  1  0.31992612  0.81524515  0.05004616  1
