# generated using pymatgen
data_TeBr4
_symmetry_space_group_name_H-M   'P 1'
_cell_length_a   10.64692159
_cell_length_b   10.64692159
_cell_length_c   15.72011598
_cell_angle_alpha   95.16206691
_cell_angle_beta   106.20821704
_cell_angle_gamma   117.06641613
_symmetry_Int_Tables_number   1
_chemical_formula_structural   TeBr4
_chemical_formula_sum   'Te8 Br32'
_cell_volume   1473.87543410
_cell_formula_units_Z   8
loop_
 _symmetry_equiv_pos_site_id
 _symmetry_equiv_pos_as_xyz
  1  'x, y, z'
loop_
 _atom_site_type_symbol
 _atom_site_label
 _atom_site_symmetry_multiplicity
 _atom_site_fract_x
 _atom_site_fract_y
 _atom_site_fract_z
 _atom_site_occupancy
  Te  Te0  1  0.15360425  0.76736674  0.38951559  1
  Te  Te1  1  0.84639575  0.23263326  0.61048441  1
  Te  Te2  1  0.87785014  0.76408966  0.11048441  1
  Te  Te3  1  0.12214986  0.23591034  0.88951559  1
  Te  Te4  1  0.79794355  0.33711286  0.18249080  1
  Te  Te5  1  0.20205645  0.66288714  0.81750920  1
  Te  Te6  1  0.65462206  0.61545276  0.31750920  1
  Te  Te7  1  0.34537794  0.38454824  0.68249080  1
  Br  Br8  1  0.18629371  0.87317044  0.54907803  1
  Br  Br9  1  0.81370629  0.12682956  0.45092197  1
  Br  Br10  1  0.82409242  0.63721469  0.95092197  1
  Br  Br11  1  0.17590758  0.36278531  0.04907803  1
  Br  Br12  1  0.36751945  0.99308658  0.37580516  1
  Br  Br13  1  0.63248055  0.00691342  0.62419484  1
  Br  Br14  1  0.11728043  0.99171329  0.12419484  1
  Br  Br15  1  0.88271957  0.00828671  0.87580516  1
  Br  Br16  1  0.56785437  0.12144706  0.19192323  1
  Br  Br17  1  0.43214563  0.87855294  0.80807677  1
  Br  Br18  1  0.42952382  0.37593013  0.30807677  1
  Br  Br19  1  0.57047618  0.62406987  0.69192323  1
  Br  Br20  1  0.61550991  0.48997099  0.12446736  1
  Br  Br21  1  0.38449009  0.51002901  0.87553264  1
  Br  Br22  1  0.86550463  0.49104155  0.37553264  1
  Br  Br23  1  0.13449537  0.50895845  0.62446736  1
  Br  Br24  1  0.70495676  0.86648299  0.06259834  1
  Br  Br25  1  0.29504324  0.13351701  0.93740166  1
  Br  Br26  1  0.30388365  0.64235842  0.43740166  1
  Br  Br27  1  0.69611635  0.35764158  0.56259834  1
  Br  Br28  1  0.73940721  0.23699765  0.01535091  1
  Br  Br29  1  0.26059279  0.76300235  0.98464909  1
  Br  Br30  1  0.72164674  0.72405631  0.48464909  1
  Br  Br31  1  0.27835326  0.27594369  0.51535091  1
  Br  Br32  1  0.93545947  0.87889379  0.31345518  1
  Br  Br33  1  0.06454053  0.12110621  0.68654482  1
  Br  Br34  1  0.06544061  0.62200329  0.18654482  1
  Br  Br35  1  0.93455939  0.37799671  0.81345518  1
  Br  Br36  1  0.97936199  0.24874467  0.24659987  1
  Br  Br37  1  0.02063801  0.75125533  0.75340013  1
  Br  Br38  1  0.50214379  0.73276111  0.25340013  1
  Br  Br39  1  0.49785621  0.26723889  0.74659987  1
