# generated using pymatgen
data_Ni3Se4(ClO5)2
_symmetry_space_group_name_H-M   'P 1'
_cell_length_a   7.23528464
_cell_length_b   7.78823138
_cell_length_c   11.46333254
_cell_angle_alpha   82.41710395
_cell_angle_beta   73.47417446
_cell_angle_gamma   62.26377813
_symmetry_Int_Tables_number   1
_chemical_formula_structural   Ni3Se4(ClO5)2
_chemical_formula_sum   'Ni6 Se8 Cl4 O20'
_cell_volume   548.12090908
_cell_formula_units_Z   2
loop_
 _symmetry_equiv_pos_site_id
 _symmetry_equiv_pos_as_xyz
  1  'x, y, z'
loop_
 _atom_site_type_symbol
 _atom_site_label
 _atom_site_symmetry_multiplicity
 _atom_site_fract_x
 _atom_site_fract_y
 _atom_site_fract_z
 _atom_site_occupancy
  Ni  Ni0  1  0.50007619  0.00010980  0.50007062  1
  Ni  Ni1  1  0.37429396  0.25323418  0.75007415  1
  Ni  Ni2  1  0.62577173  0.74678316  0.74994813  1
  Ni  Ni3  1  0.50005858  0.00010296  0.00007333  1
  Ni  Ni4  1  0.37432502  0.25320754  0.25008631  1
  Ni  Ni5  1  0.62578267  0.74679174  0.24996656  1
  Se  Se6  1  0.98981029  0.32370151  0.11033043  1
  Se  Se7  1  0.98979633  0.32368876  0.61030716  1
  Se  Se8  1  0.31244189  0.67610271  0.11064981  1
  Se  Se9  1  0.31247559  0.67609196  0.61062343  1
  Se  Se10  1  0.01038509  0.67614221  0.38964493  1
  Se  Se11  1  0.01028675  0.67630206  0.88960117  1
  Se  Se12  1  0.68777010  0.32382236  0.38925614  1
  Se  Se13  1  0.68772700  0.32380394  0.88926984  1
  Cl  Cl14  1  0.29773260  0.00046948  0.37105085  1
  Cl  Cl15  1  0.29769969  0.00048380  0.87105372  1
  Cl  Cl16  1  0.70244275  -0.00041698  0.12895827  1
  Cl  Cl17  1  0.70242408  -0.00041030  0.62896934  1
  O  O18  1  0.88789206  0.22401176  0.24953334  1
  O  O19  1  0.88785396  0.22400971  0.74953188  1
  O  O20  1  0.11167789  0.77588627  0.25027335  1
  O  O21  1  0.11157885  0.77592371  0.75021228  1
  O  O22  1  0.90759917  0.55484830  0.14419269  1
  O  O23  1  0.90753358  0.55483790  0.64412933  1
  O  O24  1  0.46292697  0.44513611  0.14422361  1
  O  O25  1  0.46292246  0.44514986  0.64419753  1
  O  O26  1  0.09235038  0.44507695  0.35575649  1
  O  O27  1  0.09229613  0.44516462  0.85573046  1
  O  O28  1  0.53726153  0.55482780  0.35580488  1
  O  O29  1  0.53721381  0.55482495  0.85578986  1
  O  O30  1  0.25196162  0.21863002  0.11700168  1
  O  O31  1  0.25191939  0.21864466  0.61700402  1
  O  O32  1  0.46916070  0.78164572  0.11679127  1
  O  O33  1  0.46914197  0.78166107  0.61677415  1
  O  O34  1  0.74816205  0.78125271  0.38320493  1
  O  O35  1  0.74810015  0.78129967  0.88318284  1
  O  O36  1  0.53059861  0.21857829  0.38336921  1
  O  O37  1  0.53054642  0.21858100  0.88336402  1
