# generated using pymatgen
data_MgTi3V5O16
_symmetry_space_group_name_H-M   'P 1'
_cell_length_a   5.86044668
_cell_length_b   6.01693032
_cell_length_c   9.78367247
_cell_angle_alpha   90.39021929
_cell_angle_beta   81.68465143
_cell_angle_gamma   120.67267461
_symmetry_Int_Tables_number   1
_chemical_formula_structural   MgTi3V5O16
_chemical_formula_sum   'Mg1 Ti3 V5 O16'
_cell_volume   292.69538072
_cell_formula_units_Z   1
loop_
 _symmetry_equiv_pos_site_id
 _symmetry_equiv_pos_as_xyz
  1  'x, y, z'
loop_
 _atom_site_type_symbol
 _atom_site_label
 _atom_site_symmetry_multiplicity
 _atom_site_fract_x
 _atom_site_fract_y
 _atom_site_fract_z
 _atom_site_occupancy
  Mg  Mg0  1  0.18733300  0.09378100  0.94899400  1
  Ti  Ti1  1  0.22978500  0.84271700  0.22180700  1
  Ti  Ti2  1  0.29679300  0.38855500  0.22078600  1
  Ti  Ti3  1  0.26884200  0.13174500  0.65527200  1
  V  V4  1  0.33691900  0.66545800  0.49121200  1
  V  V5  1  0.75223200  0.90785600  0.22032600  1
  V  V6  1  0.83637500  0.41573600  0.01140100  1
  V  V7  1  0.73896300  0.11676100  0.71209900  1
  V  V8  1  0.73644300  0.61849700  0.71332200  1
  O  O9  1  0.11955300  0.80703000  0.58714500  1
  O  O10  1  0.09320700  0.54176400  0.32805500  1
  O  O11  1  0.45871500  0.73540200  0.10930700  1
  O  O12  1  0.07458800  0.04047900  0.30857400  1
  O  O13  1  0.92161000  0.96004200  0.80120700  1
  O  O14  1  0.11940100  0.30646800  0.58777000  1
  O  O15  1  0.54289400  0.99209000  0.33088400  1
  O  O16  1  0.55149800  0.56174900  0.33072400  1
  O  O17  1  0.45688000  0.23097900  0.09492200  1
  O  O18  1  0.62541900  0.80994400  0.60112400  1
  O  O19  1  0.41406900  0.42357800  0.81140100  1
  O  O20  1  0.41519400  0.99135700  0.81048200  1
  O  O21  1  0.64147400  0.31861400  0.59373900  1
  O  O22  1  0.97309600  0.75664000  0.09281200  1
  O  O23  1  0.88264200  0.44077400  0.81949600  1
  O  O24  1  0.98232800  0.22509700  0.09143200  1
