# generated using pymatgen
data_PbS
_symmetry_space_group_name_H-M   'P 1'
_cell_length_a   4.22532421
_cell_length_b   4.22532332
_cell_length_c   4.22691943
_cell_angle_alpha   60.01247293
_cell_angle_beta   60.01248960
_cell_angle_gamma   59.99999600
_symmetry_Int_Tables_number   1
_chemical_formula_structural   PbS
_chemical_formula_sum   'Pb1 S1'
_cell_volume   53.37167701
_cell_formula_units_Z   1
loop_
 _symmetry_equiv_pos_site_id
 _symmetry_equiv_pos_as_xyz
  1  'x, y, z'
loop_
 _atom_site_type_symbol
 _atom_site_label
 _atom_site_symmetry_multiplicity
 _atom_site_fract_x
 _atom_site_fract_y
 _atom_site_fract_z
 _atom_site_occupancy
  Pb  Pb0  1  0.98056578  0.98056578  0.05830465  1
  S  S1  1  0.47503422  0.47503422  0.57489535  1
