# generated using pymatgen
data_Zr(CuCl3)2
_symmetry_space_group_name_H-M   'P 1'
_cell_length_a   11.35578116
_cell_length_b   10.99052115
_cell_length_c   6.05785421
_cell_angle_alpha   90.19196004
_cell_angle_beta   90.67373892
_cell_angle_gamma   120.31682265
_symmetry_Int_Tables_number   1
_chemical_formula_structural   Zr(CuCl3)2
_chemical_formula_sum   'Zr3 Cu6 Cl18'
_cell_volume   652.58070483
_cell_formula_units_Z   3
loop_
 _symmetry_equiv_pos_site_id
 _symmetry_equiv_pos_as_xyz
  1  'x, y, z'
loop_
 _atom_site_type_symbol
 _atom_site_label
 _atom_site_symmetry_multiplicity
 _atom_site_fract_x
 _atom_site_fract_y
 _atom_site_fract_z
 _atom_site_occupancy
  Zr  Zr0  1  0.33567882  0.66727892  0.02299448  1
  Zr  Zr1  1  0.99847776  0.00092946  0.49227512  1
  Zr  Zr2  1  0.66226527  0.32890653  0.98865070  1
  Cu  Cu3  1  0.40018292  0.79730780  0.58385892  1
  Cu  Cu4  1  0.08523337  0.18754826  0.89958967  1
  Cu  Cu5  1  0.24994084  0.49567020  0.42697926  1
  Cu  Cu6  1  0.75970577  0.51586998  0.58272756  1
  Cu  Cu7  1  0.90544635  0.81299903  0.09348088  1
  Cu  Cu8  1  0.75924430  0.24970058  0.57459397  1
  Cl  Cl9  1  0.10923888  0.90215952  0.26309019  1
  Cl  Cl10  1  0.22506803  0.76654088  0.78139840  1
  Cl  Cl11  1  0.12481109  0.56874036  0.25013405  1
  Cl  Cl12  1  0.10687688  0.22381351  0.27256076  1
  Cl  Cl13  1  0.21762209  0.43981320  0.78747168  1
  Cl  Cl14  1  0.44794500  0.88568921  0.24670945  1
  Cl  Cl15  1  0.20240128  0.09919829  0.74071152  1
  Cl  Cl16  1  0.44109047  0.55698195  0.25088702  1
  Cl  Cl17  1  0.53945105  0.75478455  0.78328421  1
  Cl  Cl18  1  0.47743974  0.23663467  0.23169022  1
  Cl  Cl19  1  0.56251405  0.43817370  0.75250388  1
  Cl  Cl20  1  0.78824233  0.89997456  0.25755186  1
  Cl  Cl21  1  0.56306637  0.11658162  0.74779596  1
  Cl  Cl22  1  0.78528388  0.56089489  0.21736442  1
  Cl  Cl23  1  0.88640840  0.77962298  0.72171129  1
  Cl  Cl24  1  0.89326694  0.45045673  0.76591983  1
  Cl  Cl25  1  0.78587990  0.23527171  0.21472760  1
  Cl  Cl26  1  0.88351523  0.10475690  0.72393911  1
