# generated using pymatgen
data_Ca2Mg5Si8(HO12)2
_symmetry_space_group_name_H-M   'P 1'
_cell_length_a   10.27285573
_cell_length_b   10.27285573
_cell_length_c   5.27978827
_cell_angle_alpha   82.99877532
_cell_angle_beta   82.99877532
_cell_angle_gamma   122.68455319
_symmetry_Int_Tables_number   1
_chemical_formula_structural   Ca2Mg5Si8(HO12)2
_chemical_formula_sum   'Ca2 Mg5 Si8 H2 O24'
_cell_volume   453.55781834
_cell_formula_units_Z   1
loop_
 _symmetry_equiv_pos_site_id
 _symmetry_equiv_pos_as_xyz
  1  'x, y, z'
loop_
 _atom_site_type_symbol
 _atom_site_label
 _atom_site_symmetry_multiplicity
 _atom_site_fract_x
 _atom_site_fract_y
 _atom_site_fract_z
 _atom_site_occupancy
  Ca  Ca0  1  0.72184502  0.27815498  0.50000000  1
  Ca  Ca1  1  0.27815498  0.72184502  0.50000000  1
  Mg  Mg2  1  0.91201586  0.08798414  0.50000000  1
  Mg  Mg3  1  0.08798414  0.91201586  0.50000000  1
  Mg  Mg4  1  0.82339417  0.17660583  0.00000000  1
  Mg  Mg5  1  0.17660583  0.82339417  0.00000000  1
  Mg  Mg6  1  -0.00000000  0.00000000  0.00000000  1
  Si  Si7  1  0.19534015  0.36385939  0.70389593  1
  Si  Si8  1  0.36385939  0.19534015  0.70389593  1
  Si  Si9  1  0.80465985  0.63614061  0.29610407  1
  Si  Si10  1  0.63614061  0.80465985  0.29610407  1
  Si  Si11  1  0.11630083  0.45941070  0.19613079  1
  Si  Si12  1  0.45941070  0.11630083  0.19613079  1
  Si  Si13  1  0.88369917  0.54058930  0.80386921  1
  Si  Si14  1  0.54058930  0.88369917  0.80386921  1
  H  H15  1  0.21142419  0.21142419  0.23355160  1
  H  H16  1  0.78857581  0.78857581  0.76644840  1
  O  O17  1  0.02508462  0.19735360  0.78267023  1
  O  O18  1  0.19735360  0.02508462  0.78267023  1
  O  O19  1  0.97491538  0.80264640  0.21732977  1
  O  O20  1  0.80264640  0.97491538  0.21732977  1
  O  O21  1  0.94672674  0.28979285  0.27605928  1
  O  O22  1  0.28979285  0.94672674  0.27605928  1
  O  O23  1  0.05327326  0.71020715  0.72394072  1
  O  O24  1  0.71020715  0.05327326  0.72394072  1
  O  O25  1  0.11040506  0.11040506  0.28449774  1
  O  O26  1  0.88959494  0.88959494  0.71550226  1
  O  O27  1  0.11675782  0.61372856  0.20804117  1
  O  O28  1  0.61372856  0.11675782  0.20804117  1
  O  O29  1  0.88324218  0.38627144  0.79195883  1
  O  O30  1  0.38627144  0.88324218  0.79195883  1
  O  O31  1  0.21114484  0.48065509  0.90041817  1
  O  O32  1  0.48065509  0.21114484  0.90041817  1
  O  O33  1  0.78885516  0.51934491  0.09958183  1
  O  O34  1  0.51934491  0.78885516  0.09958183  1
  O  O35  1  0.22459374  0.46174016  0.41080638  1
  O  O36  1  0.46174016  0.22459374  0.41080638  1
  O  O37  1  0.77540626  0.53825984  0.58919362  1
  O  O38  1  0.53825984  0.77540626  0.58919362  1
  O  O39  1  0.33647714  0.33647714  0.70995430  1
  O  O40  1  0.66352286  0.66352286  0.29004570  1
