# generated using pymatgen
data_SiC
_symmetry_space_group_name_H-M   'P 1'
_cell_length_a   3.07596352
_cell_length_b   3.07596352
_cell_length_c   42.83310360
_cell_angle_alpha   87.94223710
_cell_angle_beta   87.94223710
_cell_angle_gamma   59.99962663
_symmetry_Int_Tables_number   1
_chemical_formula_structural   SiC
_chemical_formula_sum   'Si17 C17'
_cell_volume   350.66892973
_cell_formula_units_Z   17
loop_
 _symmetry_equiv_pos_site_id
 _symmetry_equiv_pos_as_xyz
  1  'x, y, z'
loop_
 _atom_site_type_symbol
 _atom_site_label
 _atom_site_symmetry_multiplicity
 _atom_site_fract_x
 _atom_site_fract_y
 _atom_site_fract_z
 _atom_site_occupancy
  Si  Si0  1  0.99991963  0.99991963  0.00026676  1
  Si  Si1  1  0.94111806  0.94111806  0.17663225  1
  Si  Si2  1  0.86276918  0.86276918  0.41167229  1
  Si  Si3  1  0.78433023  0.78433023  0.64699563  1
  Si  Si4  1  0.70582510  0.70582510  0.88255774  1
  Si  Si5  1  0.62739888  0.62739888  0.11782095  1
  Si  Si6  1  0.58819961  0.58819961  0.23538745  1
  Si  Si7  1  0.54903231  0.54903231  0.35290042  1
  Si  Si8  1  0.50984883  0.50984883  0.47044328  1
  Si  Si9  1  0.47060748  0.47060748  0.58811002  1
  Si  Si10  1  0.43136456  0.43136456  0.70588099  1
  Si  Si11  1  0.39212556  0.39212556  0.82367187  1
  Si  Si12  1  0.35287496  0.35287496  0.94140508  1
  Si  Si13  1  0.31364807  0.31364807  0.05909661  1
  Si  Si14  1  0.23527174  0.23527174  0.29415107  1
  Si  Si15  1  0.15691409  0.15691409  0.52927274  1
  Si  Si16  1  0.07839679  0.07839679  0.76478558  1
  C  C17  1  0.98515500  0.98515500  0.04452330  1
  C  C18  1  0.92637952  0.92637952  0.22085008  1
  C  C19  1  0.84804819  0.84804819  0.45587769  1
  C  C20  1  0.76957236  0.76957236  0.69127478  1
  C  C21  1  0.69106448  0.69106448  0.92682207  1
  C  C22  1  0.61268533  0.61268533  0.16191643  1
  C  C23  1  0.57351962  0.57351962  0.27944468  1
  C  C24  1  0.53434811  0.53434811  0.39695756  1
  C  C25  1  0.49516378  0.49516378  0.51453174  1
  C  C26  1  0.45592851  0.45592851  0.63223191  1
  C  C27  1  0.41666108  0.41666108  0.75002170  1
  C  C28  1  0.37739399  0.37739399  0.86780629  1
  C  C29  1  0.33815909  0.33815909  0.98552465  1
  C  C30  1  0.29893170  0.29893170  0.10321334  1
  C  C31  1  0.22054651  0.22054651  0.33835634  1
  C  C32  1  0.14215491  0.14215491  0.57352303  1
  C  C33  1  0.06364372  0.06364372  0.80907269  1
