# generated using pymatgen
data_Ba3Ga3P5
_symmetry_space_group_name_H-M   'P 1'
_cell_length_a   12.89080224
_cell_length_b   12.89080224
_cell_length_c   12.89080270
_cell_angle_alpha   69.73494669
_cell_angle_beta   69.73494669
_cell_angle_gamma   69.73494694
_symmetry_Int_Tables_number   1
_chemical_formula_structural   Ba3Ga3P5
_chemical_formula_sum   'Ba18 Ga18 P30'
_cell_volume   1821.66953596
_cell_formula_units_Z   6
loop_
 _symmetry_equiv_pos_site_id
 _symmetry_equiv_pos_as_xyz
  1  'x, y, z'
loop_
 _atom_site_type_symbol
 _atom_site_label
 _atom_site_symmetry_multiplicity
 _atom_site_fract_x
 _atom_site_fract_y
 _atom_site_fract_z
 _atom_site_occupancy
  Ba  Ba0  1  0.14013272  0.22653631  0.64968146  1
  Ba  Ba1  1  0.64968146  0.14013272  0.22653631  1
  Ba  Ba2  1  0.22653631  0.64968146  0.14013272  1
  Ba  Ba3  1  0.14968146  0.72653631  0.64013272  1
  Ba  Ba4  1  0.64013272  0.14968146  0.72653631  1
  Ba  Ba5  1  0.72653631  0.64013272  0.14968146  1
  Ba  Ba6  1  0.85986728  0.77346369  0.35031854  1
  Ba  Ba7  1  0.35031854  0.85986728  0.77346369  1
  Ba  Ba8  1  0.77346369  0.35031854  0.85986728  1
  Ba  Ba9  1  0.85031854  0.27346369  0.35986728  1
  Ba  Ba10  1  0.35986728  0.85031854  0.27346369  1
  Ba  Ba11  1  0.27346369  0.35986728  0.85031854  1
  Ba  Ba12  1  0.39883627  0.39883627  0.39883627  1
  Ba  Ba13  1  0.89883627  0.89883627  0.89883627  1
  Ba  Ba14  1  0.60116373  0.60116373  0.60116373  1
  Ba  Ba15  1  0.10116373  0.10116373  0.10116373  1
  Ba  Ba16  1  0.25000000  0.25000000  0.25000000  1
  Ba  Ba17  1  0.75000000  0.75000000  0.75000000  1
  Ga  Ga18  1  0.08276722  0.57512270  0.48849777  1
  Ga  Ga19  1  0.48849777  0.08276722  0.57512270  1
  Ga  Ga20  1  0.57512270  0.48849777  0.08276722  1
  Ga  Ga21  1  0.98849777  0.07512270  0.58276722  1
  Ga  Ga22  1  0.58276722  0.98849777  0.07512270  1
  Ga  Ga23  1  0.07512270  0.58276722  0.98849777  1
  Ga  Ga24  1  0.91723278  0.42487730  0.51150223  1
  Ga  Ga25  1  0.51150223  0.91723278  0.42487730  1
  Ga  Ga26  1  0.42487730  0.51150223  0.91723278  1
  Ga  Ga27  1  0.01150223  0.92487730  0.41723278  1
  Ga  Ga28  1  0.41723278  0.01150223  0.92487730  1
  Ga  Ga29  1  0.92487730  0.41723278  0.01150223  1
  Ga  Ga30  1  0.97919875  0.52080125  0.25000000  1
  Ga  Ga31  1  0.25000000  0.97919875  0.52080125  1
  Ga  Ga32  1  0.52080125  0.25000000  0.97919875  1
  Ga  Ga33  1  0.75000000  0.02080125  0.47919875  1
  Ga  Ga34  1  0.47919875  0.75000000  0.02080125  1
  Ga  Ga35  1  0.02080125  0.47919875  0.75000000  1
  P  P36  1  0.10767895  0.44855733  0.37689631  1
  P  P37  1  0.37689631  0.10767895  0.44855733  1
  P  P38  1  0.44855733  0.37689631  0.10767895  1
  P  P39  1  0.87689631  0.94855733  0.60767895  1
  P  P40  1  0.60767895  0.87689631  0.94855733  1
  P  P41  1  0.94855733  0.60767895  0.87689631  1
  P  P42  1  0.89232105  0.55144267  0.62310369  1
  P  P43  1  0.62310369  0.89232105  0.55144267  1
  P  P44  1  0.55144267  0.62310369  0.89232105  1
  P  P45  1  0.12310369  0.05144267  0.39232105  1
  P  P46  1  0.39232105  0.12310369  0.05144267  1
  P  P47  1  0.05144267  0.39232105  0.12310369  1
  P  P48  1  0.20261530  0.47235369  0.61380120  1
  P  P49  1  0.61380120  0.20261530  0.47235369  1
  P  P50  1  0.47235369  0.61380120  0.20261530  1
  P  P51  1  0.11380120  0.97235369  0.70261530  1
  P  P52  1  0.70261530  0.11380120  0.97235369  1
  P  P53  1  0.97235369  0.70261530  0.11380120  1
  P  P54  1  0.79738470  0.52764631  0.38619880  1
  P  P55  1  0.38619880  0.79738470  0.52764631  1
  P  P56  1  0.52764631  0.38619880  0.79738470  1
  P  P57  1  0.88619880  0.02764631  0.29738470  1
  P  P58  1  0.29738470  0.88619880  0.02764631  1
  P  P59  1  0.02764631  0.29738470  0.88619880  1
  P  P60  1  0.62224157  0.87775843  0.25000000  1
  P  P61  1  0.25000000  0.62224157  0.87775843  1
  P  P62  1  0.87775843  0.25000000  0.62224157  1
  P  P63  1  0.75000000  0.37775843  0.12224157  1
  P  P64  1  0.12224157  0.75000000  0.37775843  1
  P  P65  1  0.37775843  0.12224157  0.75000000  1
