# generated using pymatgen
data_ZrTl2PbS4
_symmetry_space_group_name_H-M   'P 1'
_cell_length_a   8.80685475
_cell_length_b   8.80685475
_cell_length_c   6.82756924
_cell_angle_alpha   73.33512626
_cell_angle_beta   73.33512626
_cell_angle_gamma   56.03083919
_symmetry_Int_Tables_number   1
_chemical_formula_structural   ZrTl2PbS4
_chemical_formula_sum   'Zr2 Tl4 Pb2 S8'
_cell_volume   415.36038080
_cell_formula_units_Z   2
loop_
 _symmetry_equiv_pos_site_id
 _symmetry_equiv_pos_as_xyz
  1  'x, y, z'
loop_
 _atom_site_type_symbol
 _atom_site_label
 _atom_site_symmetry_multiplicity
 _atom_site_fract_x
 _atom_site_fract_y
 _atom_site_fract_z
 _atom_site_occupancy
  Zr  Zr0  1  0.12262425  0.87737575  0.75000000  1
  Zr  Zr1  1  0.87737575  0.12262425  0.25000000  1
  Tl  Tl2  1  0.12372082  0.37673155  0.73473643  1
  Tl  Tl3  1  0.62326845  0.87627918  0.76526357  1
  Tl  Tl4  1  0.87627918  0.62326845  0.26526357  1
  Tl  Tl5  1  0.37673155  0.12372082  0.23473643  1
  Pb  Pb6  1  0.62436546  0.37563454  0.75000000  1
  Pb  Pb7  1  0.37563454  0.62436546  0.25000000  1
  S  S8  1  0.00727341  0.80070584  0.50203118  1
  S  S9  1  0.19929416  0.99272559  0.99796882  1
  S  S10  1  0.99272559  0.19929416  0.49796882  1
  S  S11  1  0.80070584  0.00727441  0.00203118  1
  S  S12  1  0.23300489  0.55512399  0.96350987  1
  S  S13  1  0.44487601  0.76699511  0.53649013  1
  S  S14  1  0.76699511  0.44487601  0.03649013  1
  S  S15  1  0.55512399  0.23300489  0.46350987  1
