# generated using pymatgen
data_NaSn2F5
_symmetry_space_group_name_H-M   'P 1'
_cell_length_a   8.94123872
_cell_length_b   8.94123872
_cell_length_c   13.51341043
_cell_angle_alpha   90.00000000
_cell_angle_beta   90.00000000
_cell_angle_gamma   90.00000000
_symmetry_Int_Tables_number   1
_chemical_formula_structural   NaSn2F5
_chemical_formula_sum   'Na8 Sn16 F40'
_cell_volume   1080.33972983
_cell_formula_units_Z   8
loop_
 _symmetry_equiv_pos_site_id
 _symmetry_equiv_pos_as_xyz
  1  'x, y, z'
loop_
 _atom_site_type_symbol
 _atom_site_label
 _atom_site_symmetry_multiplicity
 _atom_site_fract_x
 _atom_site_fract_y
 _atom_site_fract_z
 _atom_site_occupancy
  Na  Na0  1  0.50000000  -0.00000000  0.75000000  1
  Na  Na1  1  0.50000000  -0.00000000  0.25000000  1
  Na  Na2  1  -0.00000000  0.50000000  0.75000000  1
  Na  Na3  1  -0.00000000  0.50000000  0.25000000  1
  Na  Na4  1  0.50000000  -0.00000000  0.00000000  1
  Na  Na5  1  0.50000000  -0.00000000  0.50000000  1
  Na  Na6  1  -0.00000000  0.50000000  0.50000000  1
  Na  Na7  1  -0.00000000  0.50000000  0.00000000  1
  Sn  Sn8  1  0.67825174  0.66252186  0.86757240  1
  Sn  Sn9  1  0.83747814  0.17825174  0.36757240  1
  Sn  Sn10  1  0.32174826  0.66252186  0.63242760  1
  Sn  Sn11  1  0.32174826  0.33747814  0.86757240  1
  Sn  Sn12  1  0.16252186  0.82174826  0.36757240  1
  Sn  Sn13  1  0.83747814  0.82174826  0.13242760  1
  Sn  Sn14  1  0.16252186  0.17825174  0.13242760  1
  Sn  Sn15  1  0.67825174  0.33747814  0.63242760  1
  Sn  Sn16  1  0.33747814  0.67825174  0.13242760  1
  Sn  Sn17  1  0.66252186  0.32174826  0.13242760  1
  Sn  Sn18  1  0.17825174  0.83747814  0.86757240  1
  Sn  Sn19  1  0.17825174  0.16252186  0.63242760  1
  Sn  Sn20  1  0.82174826  0.83747814  0.63242760  1
  Sn  Sn21  1  0.66252186  0.67825174  0.36757240  1
  Sn  Sn22  1  0.33747814  0.32174826  0.36757240  1
  Sn  Sn23  1  0.82174826  0.16252186  0.86757240  1
  F  F24  1  0.80884148  0.30884148  0.00000000  1
  F  F25  1  0.84936677  0.40868567  0.38545151  1
  F  F26  1  0.09131433  0.65063323  0.61454849  1
  F  F27  1  0.09131433  0.34936677  0.88545151  1
  F  F28  1  0.90868567  0.65063323  0.88545151  1
  F  F29  1  0.84936677  0.59131433  0.11454849  1
  F  F30  1  0.15063323  0.40868567  0.11454849  1
  F  F31  1  0.90868567  0.34936677  0.61454849  1
  F  F32  1  0.30884148  0.80884148  0.50000000  1
  F  F33  1  0.69115852  0.80884148  0.00000000  1
  F  F34  1  0.30884148  0.19115852  0.00000000  1
  F  F35  1  0.69115852  0.19115852  0.50000000  1
  F  F36  1  0.19115852  0.69115852  0.00000000  1
  F  F37  1  0.80884148  0.69115852  0.50000000  1
  F  F38  1  0.19115852  0.30884148  0.50000000  1
  F  F39  1  0.15063323  0.59131433  0.38545151  1
  F  F40  1  0.36945169  0.78517476  0.29942944  1
  F  F41  1  0.36945169  0.21482524  0.20057056  1
  F  F42  1  0.63054831  0.78517476  0.20057056  1
  F  F43  1  0.71482524  0.86945169  0.79942944  1
  F  F44  1  0.28517476  0.13054831  0.79942944  1
  F  F45  1  0.28517476  0.86945169  0.70057056  1
  F  F46  1  0.63054831  0.21482524  0.29942944  1
  F  F47  1  0.34936677  0.90868567  0.11454849  1
  F  F48  1  0.78517476  0.36945169  0.79942944  1
  F  F49  1  0.13054831  0.28517476  0.29942944  1
  F  F50  1  0.86945169  0.71482524  0.29942944  1
  F  F51  1  0.78517476  0.63054831  0.70057056  1
  F  F52  1  0.21482524  0.36945169  0.70057056  1
  F  F53  1  0.21482524  0.63054831  0.79942944  1
  F  F54  1  0.86945169  0.28517476  0.20057056  1
  F  F55  1  0.13054831  0.71482524  0.20057056  1
  F  F56  1  0.59131433  0.15063323  0.88545151  1
  F  F57  1  0.34936677  0.09131433  0.38545151  1
  F  F58  1  0.65063323  0.90868567  0.38545151  1
  F  F59  1  0.59131433  0.84936677  0.61454849  1
  F  F60  1  0.40868567  0.15063323  0.61454849  1
  F  F61  1  0.40868567  0.84936677  0.88545151  1
  F  F62  1  0.65063323  0.09131433  0.11454849  1
  F  F63  1  0.71482524  0.13054831  0.70057056  1
