# generated using pymatgen
data_K2Mn3(AsO4)3
_symmetry_space_group_name_H-M   'P 1'
_cell_length_a   8.98048224
_cell_length_b   8.98048224
_cell_length_c   6.99739580
_cell_angle_alpha   74.05094913
_cell_angle_beta   74.05094913
_cell_angle_gamma   93.05908543
_symmetry_Int_Tables_number   1
_chemical_formula_structural   K2Mn3(AsO4)3
_chemical_formula_sum   'K4 Mn6 As6 O24'
_cell_volume   516.62942584
_cell_formula_units_Z   2
loop_
 _symmetry_equiv_pos_site_id
 _symmetry_equiv_pos_as_xyz
  1  'x, y, z'
loop_
 _atom_site_type_symbol
 _atom_site_label
 _atom_site_symmetry_multiplicity
 _atom_site_fract_x
 _atom_site_fract_y
 _atom_site_fract_z
 _atom_site_occupancy
  K  K0  1  0.01083521  0.98916479  0.25000000  1
  K  K1  1  0.98916479  0.01083521  0.75000000  1
  K  K2  1  0.50000000  0.50000000  0.50000000  1
  K  K3  1  0.50000000  0.50000000  -0.00000000  1
  Mn  Mn4  1  0.93843352  0.61885047  0.63103910  1
  Mn  Mn5  1  0.38114953  0.06156648  0.86896090  1
  Mn  Mn6  1  0.06156648  0.38114953  0.36896090  1
  Mn  Mn7  1  0.61885047  0.93843352  0.13103910  1
  Mn  Mn8  1  0.74032799  0.25967201  0.25000000  1
  Mn  Mn9  1  0.25967201  0.74032799  0.75000000  1
  As  As10  1  0.12272017  0.35337203  0.87890912  1
  As  As11  1  0.64662797  0.87727983  0.62109088  1
  As  As12  1  0.87727983  0.64662797  0.12109088  1
  As  As13  1  0.35337203  0.12272017  0.37890912  1
  As  As14  1  0.72128131  0.27871869  0.75000000  1
  As  As15  1  0.27871869  0.72128131  0.25000000  1
  O  O16  1  0.99025909  0.31948003  0.12057746  1
  O  O17  1  0.68051997  0.00974091  0.37942254  1
  O  O18  1  0.00974091  0.68051997  0.87942254  1
  O  O19  1  0.31948003  0.99025909  0.62057746  1
  O  O20  1  0.19064215  0.18074393  0.87293332  1
  O  O21  1  0.81925607  0.80935785  0.62706668  1
  O  O22  1  0.80935785  0.81925607  0.12706668  1
  O  O23  1  0.18074393  0.19064215  0.37293332  1
  O  O24  1  0.83570624  0.24611578  0.52792737  1
  O  O25  1  0.75388422  0.16429376  0.97207263  1
  O  O26  1  0.16429376  0.75388422  0.47207263  1
  O  O27  1  0.24611578  0.83570624  0.02792737  1
  O  O28  1  0.26563944  0.49849894  0.83496974  1
  O  O29  1  0.50150106  0.73436056  0.66503026  1
  O  O30  1  0.73436056  0.50150106  0.16503026  1
  O  O31  1  0.49849894  0.26563944  0.33496974  1
  O  O32  1  0.03318175  0.40654026  0.68741015  1
  O  O33  1  0.59345974  0.96681825  0.81258985  1
  O  O34  1  0.96681825  0.59345974  0.31258985  1
  O  O35  1  0.40654026  0.03318175  0.18741015  1
  O  O36  1  0.52661684  0.25566268  0.77639761  1
  O  O37  1  0.74433732  0.47338316  0.72360239  1
  O  O38  1  0.47338316  0.74433732  0.22360239  1
  O  O39  1  0.25566268  0.52661684  0.27639761  1
