# generated using pymatgen
data_Tb6PbSe10
_symmetry_space_group_name_H-M   'P 1'
_cell_length_a   7.62691100
_cell_length_b   7.63384137
_cell_length_c   31.52433241
_cell_angle_alpha   94.68461168
_cell_angle_beta   94.51583840
_cell_angle_gamma   109.56858810
_symmetry_Int_Tables_number   1
_chemical_formula_structural   Tb6PbSe10
_chemical_formula_sum   'Tb24 Pb4 Se40'
_cell_volume   1712.60597403
_cell_formula_units_Z   4
loop_
 _symmetry_equiv_pos_site_id
 _symmetry_equiv_pos_as_xyz
  1  'x, y, z'
loop_
 _atom_site_type_symbol
 _atom_site_label
 _atom_site_symmetry_multiplicity
 _atom_site_fract_x
 _atom_site_fract_y
 _atom_site_fract_z
 _atom_site_occupancy
  Tb  Tb0  1  0.17589100  0.80125100  0.02212900  1
  Tb  Tb1  1  0.57225500  0.20699200  0.22497100  1
  Tb  Tb2  1  0.99731300  0.36911900  0.12586900  1
  Tb  Tb3  1  0.53118200  0.40357900  0.07422700  1
  Tb  Tb4  1  0.97139700  0.61165600  0.43063600  1
  Tb  Tb5  1  0.39595600  0.76707900  0.32705700  1
  Tb  Tb6  1  0.93032800  0.80239000  0.27537800  1
  Tb  Tb7  1  0.17503000  0.92317900  0.14993400  1
  Tb  Tb8  1  0.37059000  0.99130200  0.62569800  1
  Tb  Tb9  1  0.80818800  0.16735500  0.52790900  1
  Tb  Tb10  1  0.32140100  0.19816800  0.47621500  1
  Tb  Tb11  1  0.99493200  0.12037500  0.37623800  1
  Tb  Tb12  1  0.57414000  0.32300500  0.35115700  1
  Tb  Tb13  1  0.77491600  0.40287400  0.82590300  1
  Tb  Tb14  1  0.19490400  0.56792900  0.72470100  1
  Tb  Tb15  1  0.73363100  0.60037900  0.67085200  1
  Tb  Tb16  1  0.39749400  0.54151500  0.57268100  1
  Tb  Tb17  1  0.59721100  0.97802100  0.92164200  1
  Tb  Tb18  1  0.36937500  0.12465100  0.75284200  1
  Tb  Tb19  1  0.81042600  0.92442900  0.77900400  1
  Tb  Tb20  1  0.92155900  0.17763000  0.64906800  1
  Tb  Tb21  1  0.19983300  0.32295100  0.96955900  1
  Tb  Tb22  1  0.78068300  0.53826700  0.94659400  1
  Tb  Tb23  1  0.32375600  0.57049600  0.85120000  1
  Pb  Pb24  1  0.59929500  0.72509000  0.17293300  1
  Pb  Pb25  1  0.72865900  0.97092100  0.04813400  1
  Pb  Pb26  1  0.12987000  0.37714200  0.24948900  1
  Pb  Pb27  1  0.52620200  0.76997500  0.45383700  1
  Se  Se28  1  0.32617200  0.69213600  0.09827600  1
  Se  Se29  1  0.24525700  0.09313600  0.30286600  1
  Se  Se30  1  0.92031900  0.41982000  0.02568800  1
  Se  Se31  1  0.33594200  0.32837400  0.16797100  1
  Se  Se32  1  0.90060700  0.04284900  0.20026400  1
  Se  Se33  1  0.63887400  0.48208200  0.50267800  1
  Se  Se34  1  0.15424900  0.14716500  0.07225900  1
  Se  Se35  1  0.14260300  0.48684300  0.49997100  1
  Se  Se36  1  0.74676900  0.74150900  0.36895700  1
  Se  Se37  1  0.61084800  0.12606000  0.13030100  1
  Se  Se38  1  0.29671000  0.43247500  0.39809000  1
  Se  Se39  1  0.85953700  0.69040800  0.09888100  1
  Se  Se40  1  0.55321700  0.54312000  0.27433400  1
  Se  Se41  1  0.31078300  0.82965000  0.23016600  1
  Se  Se42  1  0.72152800  0.23291000  0.42702200  1
  Se  Se43  1  0.90090800  0.54576500  0.19914200  1
  Se  Se44  1  0.00994600  0.51848600  0.33069900  1
  Se  Se45  1  0.15165900  0.15860600  0.57423000  1
  Se  Se46  1  0.69651500  0.84814600  0.60161200  1
  Se  Se47  1  0.94727600  0.95039900  0.46911600  1
  Se  Se48  1  0.29617100  0.94579900  0.39897200  1
  Se  Se49  1  0.72911700  0.09374100  0.30056700  1
  Se  Se50  1  0.42012400  0.92774600  0.53115600  1
  Se  Se51  1  0.54656400  0.54446000  0.77219400  1
  Se  Se52  1  0.10111500  0.25418700  0.79859000  1
  Se  Se53  1  0.34883000  0.33976000  0.67393900  1
  Se  Se54  1  0.11137500  0.60537400  0.63227200  1
  Se  Se55  1  0.52650100  0.01807800  0.82662700  1
  Se  Se56  1  0.68949000  0.32890600  0.60235700  1
  Se  Se57  1  0.80818700  0.31525900  0.72722000  1
  Se  Se58  1  0.94406500  0.93937300  0.96987100  1
  Se  Se59  1  0.49452400  0.63019200  0.99878200  1
  Se  Se60  1  0.03481900  0.90329300  0.70027500  1
  Se  Se61  1  0.73610200  0.74443000  0.86931800  1
  Se  Se62  1  0.10181800  0.73565300  0.79794900  1
  Se  Se63  1  0.53329600  0.89897200  0.70223200  1
  Se  Se64  1  0.21678900  0.70723500  0.92884200  1
  Se  Se65  1  0.45195300  0.30016100  0.89870900  1
  Se  Se66  1  0.49547500  0.14684900  0.99685900  1
  Se  Se67  1  0.93754800  0.30787500  0.89989100  1
