# generated using pymatgen
data_Cs3GaO3
_symmetry_space_group_name_H-M   'P 1'
_cell_length_a   7.19500460
_cell_length_b   7.19500460
_cell_length_c   7.24653397
_cell_angle_alpha   81.63623666
_cell_angle_beta   81.63623666
_cell_angle_gamma   114.97627377
_symmetry_Int_Tables_number   1
_chemical_formula_structural   Cs3GaO3
_chemical_formula_sum   'Cs6 Ga2 O6'
_cell_volume   327.36734064
_cell_formula_units_Z   2
loop_
 _symmetry_equiv_pos_site_id
 _symmetry_equiv_pos_as_xyz
  1  'x, y, z'
loop_
 _atom_site_type_symbol
 _atom_site_label
 _atom_site_symmetry_multiplicity
 _atom_site_fract_x
 _atom_site_fract_y
 _atom_site_fract_z
 _atom_site_occupancy
  Cs  Cs0  1  0.62880053  0.62880053  0.66202567  1
  Cs  Cs1  1  0.79858463  0.20141537  0.50000000  1
  Cs  Cs2  1  0.20141537  0.79858463  0.50000000  1
  Cs  Cs3  1  0.74059393  0.25940607  -0.00000000  1
  Cs  Cs4  1  0.25940607  0.74059393  -0.00000000  1
  Cs  Cs5  1  0.37119947  0.37119947  0.33797433  1
  Ga  Ga6  1  0.84206302  0.84206302  0.14962989  1
  Ga  Ga7  1  0.15793698  0.15793698  0.85037011  1
  O  O8  1  0.90286288  0.90286288  0.87157328  1
  O  O9  1  0.60009422  0.85109068  0.26589415  1
  O  O10  1  0.85109068  0.60009422  0.26589415  1
  O  O11  1  0.14890932  0.39990578  0.73410585  1
  O  O12  1  0.39990578  0.14890932  0.73410585  1
  O  O13  1  0.09713712  0.09713712  0.12842672  1
