# generated using pymatgen
data_Sr2CaZn2Sn2(PO4)4
_symmetry_space_group_name_H-M   'P 1'
_cell_length_a   6.35221538
_cell_length_b   7.96465146
_cell_length_c   9.61924472
_cell_angle_alpha   103.96758536
_cell_angle_beta   112.02237397
_cell_angle_gamma   104.03176079
_symmetry_Int_Tables_number   1
_chemical_formula_structural   Sr2CaZn2Sn2(PO4)4
_chemical_formula_sum   'Sr2 Ca1 Zn2 Sn2 P4 O16'
_cell_volume   406.72832029
_cell_formula_units_Z   1
loop_
 _symmetry_equiv_pos_site_id
 _symmetry_equiv_pos_as_xyz
  1  'x, y, z'
loop_
 _atom_site_type_symbol
 _atom_site_label
 _atom_site_symmetry_multiplicity
 _atom_site_fract_x
 _atom_site_fract_y
 _atom_site_fract_z
 _atom_site_occupancy
  Sr  Sr0  1  0.25522300  0.63090400  0.95040500  1
  Sr  Sr1  1  0.74477700  0.36909600  0.04959500  1
  Ca  Ca2  1  0.00000000  0.00000000  0.00000000  1
  Zn  Zn3  1  0.15781700  0.24840300  0.57932300  1
  Zn  Zn4  1  0.84218300  0.75159700  0.42067700  1
  Sn  Sn5  1  0.52461300  0.82007700  0.51536100  1
  Sn  Sn6  1  0.47538700  0.17992300  0.48463900  1
  P  P7  1  0.32143700  0.41522800  0.20608900  1
  P  P8  1  0.67856300  0.58477200  0.79391100  1
  P  P9  1  0.73775200  0.03292000  0.26245300  1
  P  P10  1  0.26224800  0.96708000  0.73754700  1
  O  O11  1  0.88182300  0.66780400  0.97333300  1
  O  O12  1  0.56299500  0.52631500  0.20664100  1
  O  O13  1  0.65320800  0.75393700  0.74619900  1
  O  O14  1  0.09145200  0.07833100  0.69284400  1
  O  O15  1  0.43700500  0.47368500  0.79335900  1
  O  O16  1  0.18930100  0.79713400  0.57646800  1
  O  O17  1  0.81069900  0.20286600  0.42353200  1
  O  O18  1  0.21253200  0.89032400  0.85936200  1
  O  O19  1  0.34679200  0.24606300  0.25380100  1
  O  O20  1  0.78746800  0.10967600  0.14063800  1
  O  O21  1  0.11817700  0.33219500  0.02666700  1
  O  O22  1  0.23751900  0.54466700  0.30501400  1
  O  O23  1  0.76248100  0.45533300  0.69498600  1
  O  O24  1  0.46827200  0.91126200  0.19877500  1
  O  O25  1  0.90854800  0.92166900  0.30715600  1
  O  O26  1  0.53172800  0.08873800  0.80122500  1
