# generated using pymatgen
data_WCl2
_symmetry_space_group_name_H-M   'P 1'
_cell_length_a   9.32262774
_cell_length_b   9.32262774
_cell_length_c   11.42847886
_cell_angle_alpha   90.00000000
_cell_angle_beta   90.00000000
_cell_angle_gamma   104.23212239
_symmetry_Int_Tables_number   1
_chemical_formula_structural   WCl2
_chemical_formula_sum   'W12 Cl24'
_cell_volume   962.77934311
_cell_formula_units_Z   12
loop_
 _symmetry_equiv_pos_site_id
 _symmetry_equiv_pos_as_xyz
  1  'x, y, z'
loop_
 _atom_site_type_symbol
 _atom_site_label
 _atom_site_symmetry_multiplicity
 _atom_site_fract_x
 _atom_site_fract_y
 _atom_site_fract_z
 _atom_site_occupancy
  W  W0  1  0.12555974  0.87443926  0.00000000  1
  W  W1  1  0.87443926  0.12555974  0.00000000  1
  W  W2  1  0.37444026  0.62556074  0.50000000  1
  W  W3  1  0.62556074  0.37444026  0.50000000  1
  W  W4  1  0.43166977  0.43166977  0.35405891  1
  W  W5  1  0.56833023  0.56833023  0.64594109  1
  W  W6  1  0.06833023  0.06833023  0.85405891  1
  W  W7  1  0.93166977  0.93166977  0.14594109  1
  W  W8  1  0.14567070  0.14567070  0.06843196  1
  W  W9  1  0.85432930  0.85432930  0.93156804  1
  W  W10  1  0.35432930  0.35432930  0.56843196  1
  W  W11  1  0.64567070  0.64567070  0.43156804  1
  Cl  Cl12  1  0.28775840  0.71224160  0.00000000  1
  Cl  Cl13  1  0.71224160  0.28775840  0.00000000  1
  Cl  Cl14  1  0.21224160  0.78775840  0.50000000  1
  Cl  Cl15  1  0.78775840  0.21224160  0.50000000  1
  Cl  Cl16  1  0.19464113  0.95550252  0.20708220  1
  Cl  Cl17  1  0.80535887  0.04449748  0.79291780  1
  Cl  Cl18  1  0.30535887  0.54449748  0.70708220  1
  Cl  Cl19  1  0.45550252  0.69464113  0.29291780  1
  Cl  Cl20  1  0.69464113  0.45550252  0.29291780  1
  Cl  Cl21  1  0.54449748  0.30535887  0.70708220  1
  Cl  Cl22  1  0.04449748  0.80535887  0.79291780  1
  Cl  Cl23  1  0.95550252  0.19464113  0.20708220  1
  Cl  Cl24  1  0.35036706  0.35036706  0.14927270  1
  Cl  Cl25  1  0.64963294  0.64963294  0.85072730  1
  Cl  Cl26  1  0.14963294  0.14963294  0.64927270  1
  Cl  Cl27  1  0.85036706  0.85036706  0.35072730  1
  Cl  Cl28  1  0.67360108  0.91300431  0.07510234  1
  Cl  Cl29  1  0.32639892  0.08699569  0.92489766  1
  Cl  Cl30  1  0.82639892  0.58699569  0.57510234  1
  Cl  Cl31  1  0.41300431  0.17360108  0.42489766  1
  Cl  Cl32  1  0.17360108  0.41300431  0.42489766  1
  Cl  Cl33  1  0.58699569  0.82639892  0.57510234  1
  Cl  Cl34  1  0.08699569  0.32639892  0.92489766  1
  Cl  Cl35  1  0.91300431  0.67360108  0.07510234  1
