# generated using pymatgen
data_CaLa2Fe2(TeO6)2
_symmetry_space_group_name_H-M   'P 1'
_cell_length_a   5.43445335
_cell_length_b   5.45768615
_cell_length_c   10.98035504
_cell_angle_alpha   90.05300497
_cell_angle_beta   89.97100185
_cell_angle_gamma   59.96698698
_symmetry_Int_Tables_number   1
_chemical_formula_structural   CaLa2Fe2(TeO6)2
_chemical_formula_sum   'Ca1 La2 Fe2 Te2 O12'
_cell_volume   281.94630677
_cell_formula_units_Z   1
loop_
 _symmetry_equiv_pos_site_id
 _symmetry_equiv_pos_as_xyz
  1  'x, y, z'
loop_
 _atom_site_type_symbol
 _atom_site_label
 _atom_site_symmetry_multiplicity
 _atom_site_fract_x
 _atom_site_fract_y
 _atom_site_fract_z
 _atom_site_occupancy
  Ca  Ca0  1  0.99902500  0.99778800  0.25002600  1
  La  La1  1  0.99987800  0.99987600  0.53892000  1
  La  La2  1  0.00011400  0.99868900  0.96113500  1
  Fe  Fe3  1  0.33778300  0.32656700  0.74997300  1
  Fe  Fe4  1  0.66521800  0.66401400  0.25007600  1
  Te  Te5  1  0.66686700  0.66721400  0.74993900  1
  Te  Te6  1  0.33324400  0.33310600  0.25002900  1
  O  O7  1  0.97670400  0.37732400  0.65058000  1
  O  O8  1  0.65289900  0.97006500  0.64899400  1
  O  O9  1  0.37698900  0.65728100  0.64822100  1
  O  O10  1  0.62562200  0.03421400  0.14540400  1
  O  O11  1  0.34113900  0.62638400  0.14677100  1
  O  O12  1  0.02498400  0.34651200  0.14831800  1
  O  O13  1  0.03421700  0.62606200  0.35431700  1
  O  O14  1  0.34604800  0.02687700  0.35207200  1
  O  O15  1  0.62724500  0.34229100  0.35311600  1
  O  O16  1  0.37731900  0.97104500  0.85109400  1
  O  O17  1  0.64748800  0.37786100  0.84928800  1
  O  O18  1  0.96721400  0.65682900  0.85172700  1
