# generated using pymatgen
data_BaNdCuTe3
_symmetry_space_group_name_H-M   'P 1'
_cell_length_a   7.84356563
_cell_length_b   7.84356563
_cell_length_c   11.74642434
_cell_angle_alpha   90.00000000
_cell_angle_beta   90.00000000
_cell_angle_gamma   146.64415729
_symmetry_Int_Tables_number   1
_chemical_formula_structural   BaNdCuTe3
_chemical_formula_sum   'Ba2 Nd2 Cu2 Te6'
_cell_volume   397.34417312
_cell_formula_units_Z   2
loop_
 _symmetry_equiv_pos_site_id
 _symmetry_equiv_pos_as_xyz
  1  'x, y, z'
loop_
 _atom_site_type_symbol
 _atom_site_label
 _atom_site_symmetry_multiplicity
 _atom_site_fract_x
 _atom_site_fract_y
 _atom_site_fract_z
 _atom_site_occupancy
  Ba  Ba0  1  0.25195670  0.74804330  0.25000000  1
  Ba  Ba1  1  0.74804330  0.25195670  0.75000000  1
  Nd  Nd2  1  -0.00000000  0.00000000  -0.00000000  1
  Nd  Nd3  1  -0.00000000  0.00000000  0.50000000  1
  Cu  Cu4  1  0.53363303  0.46636697  0.25000000  1
  Cu  Cu5  1  0.46636697  0.53363303  0.75000000  1
  Te  Te6  1  0.63871596  0.36128404  0.06843972  1
  Te  Te7  1  0.36128404  0.63871596  0.93156028  1
  Te  Te8  1  0.36128404  0.63871596  0.56843972  1
  Te  Te9  1  0.63871596  0.36128404  0.43156028  1
  Te  Te10  1  0.93059451  0.06940549  0.25000000  1
  Te  Te11  1  0.06940549  0.93059451  0.75000000  1
