# generated using pymatgen
data_Na3C3S3O13
_symmetry_space_group_name_H-M   'P 1'
_cell_length_a   8.74676706
_cell_length_b   12.68148308
_cell_length_c   12.66809050
_cell_angle_alpha   90.00000000
_cell_angle_beta   90.00000000
_cell_angle_gamma   99.08107719
_symmetry_Int_Tables_number   1
_chemical_formula_structural   Na3C3S3O13
_chemical_formula_sum   'Na12 C12 S12 O52'
_cell_volume   1387.55724763
_cell_formula_units_Z   4
loop_
 _symmetry_equiv_pos_site_id
 _symmetry_equiv_pos_as_xyz
  1  'x, y, z'
loop_
 _atom_site_type_symbol
 _atom_site_label
 _atom_site_symmetry_multiplicity
 _atom_site_fract_x
 _atom_site_fract_y
 _atom_site_fract_z
 _atom_site_occupancy
  Na  Na0  1  0.30944453  0.79052989  0.11827811  1
  Na  Na1  1  0.69055547  0.20947011  0.88172189  1
  Na  Na2  1  0.19055547  0.70947011  0.61827811  1
  Na  Na3  1  0.80944453  0.29052989  0.38172189  1
  Na  Na4  1  0.28157464  0.01759482  0.62479508  1
  Na  Na5  1  0.71842536  0.98240518  0.37520492  1
  Na  Na6  1  0.21842536  0.48240518  0.12479508  1
  Na  Na7  1  0.78157464  0.51759482  0.87520492  1
  Na  Na8  1  0.69735980  0.72070212  0.28262630  1
  Na  Na9  1  0.30264020  0.27929788  0.71737370  1
  Na  Na10  1  0.80264020  0.77929788  0.78262630  1
  Na  Na11  1  0.19735980  0.22070212  0.21737370  1
  C  C12  1  0.97353298  0.96677129  0.10505200  1
  C  C13  1  0.02646702  0.03322871  0.89494800  1
  C  C14  1  0.52646702  0.53322871  0.60505200  1
  C  C15  1  0.47353298  0.46677129  0.39494800  1
  C  C16  1  0.54220309  0.42832459  0.57574313  1
  C  C17  1  0.45779691  0.57167541  0.42425687  1
  C  C18  1  0.95779691  0.07167541  0.07574313  1
  C  C19  1  0.04220309  0.92832459  0.92425687  1
  C  C20  1  0.00323258  0.89285382  0.02746515  1
  C  C21  1  0.99676742  0.10714618  0.97253485  1
  C  C22  1  0.49676742  0.60714618  0.52746515  1
  C  C23  1  0.50323258  0.39285382  0.47253485  1
  S  S24  1  0.32925891  0.64659727  0.34529420  1
  S  S25  1  0.67074109  0.35340273  0.65470580  1
  S  S26  1  0.17074109  0.85340273  0.84529420  1
  S  S27  1  0.82925891  0.14659727  0.15470580  1
  S  S28  1  0.01897569  0.93931946  0.24414811  1
  S  S29  1  0.98102431  0.06068054  0.75585189  1
  S  S30  1  0.48102431  0.56068054  0.74414811  1
  S  S31  1  0.51897569  0.43931946  0.25585189  1
  S  S32  1  0.94112384  0.74803250  0.05274229  1
  S  S33  1  0.05887616  0.25196750  0.94725771  1
  S  S34  1  0.55887616  0.75196750  0.55274229  1
  S  S35  1  0.44112384  0.24803250  0.44725771  1
  O  O36  1  0.06867236  0.87940371  0.58728712  1
  O  O37  1  0.93132764  0.12059629  0.41271288  1
  O  O38  1  0.43132764  0.62059629  0.08728712  1
  O  O39  1  0.56867236  0.37940371  0.91271288  1
  O  O40  1  0.81272352  0.75064593  0.12552696  1
  O  O41  1  0.18727648  0.24935407  0.87447304  1
  O  O42  1  0.68727648  0.74935407  0.62552696  1
  O  O43  1  0.31272352  0.25064593  0.37447304  1
  O  O44  1  0.25084948  0.69633938  0.42872689  1
  O  O45  1  0.74915052  0.30366062  0.57127311  1
  O  O46  1  0.24915052  0.80366062  0.92872689  1
  O  O47  1  0.75084948  0.19633938  0.07127311  1
  O  O48  1  0.61272575  0.61695051  0.80333585  1
  O  O49  1  0.38727425  0.38304949  0.19666415  1
  O  O50  1  0.88727425  0.88304949  0.30333585  1
  O  O51  1  0.11272575  0.11695051  0.69666415  1
  O  O52  1  0.41843040  0.72399519  0.27211803  1
  O  O53  1  0.58156960  0.27600481  0.72788197  1
  O  O54  1  0.08156960  0.77600481  0.77211803  1
  O  O55  1  0.91843040  0.22399519  0.22788197  1
  O  O56  1  0.58045175  0.89629426  0.02194990  1
  O  O57  1  0.41954825  0.10370574  0.97805010  1
  O  O58  1  0.91954825  0.60370574  0.52194990  1
  O  O59  1  0.08045175  0.39629426  0.47805010  1
  O  O60  1  0.14781966  0.88033437  0.23121556  1
  O  O61  1  0.85218034  0.11966563  0.76878444  1
  O  O62  1  0.35218034  0.61966563  0.73121556  1
  O  O63  1  0.64781966  0.38033437  0.26878444  1
  O  O64  1  0.57332279  0.54774069  0.21250060  1
  O  O65  1  0.42667721  0.45225931  0.78749940  1
  O  O66  1  0.92667721  0.95225931  0.71250060  1
  O  O67  1  0.07332279  0.04774069  0.28749940  1
  O  O68  1  0.88657257  0.59908305  0.42751467  1
  O  O69  1  0.11342743  0.40091695  0.57248533  1
  O  O70  1  0.61342743  0.90091695  0.92751467  1
  O  O71  1  0.38657257  0.09908305  0.07248533  1
  O  O72  1  0.45028351  0.98618543  0.46579900  1
  O  O73  1  0.54971649  0.01381457  0.53420100  1
  O  O74  1  0.04971649  0.51381457  0.96579900  1
  O  O75  1  0.95028351  0.48618543  0.03420100  1
  O  O76  1  0.22885962  0.56142179  0.28962369  1
  O  O77  1  0.77114038  0.43857821  0.71037631  1
  O  O78  1  0.27114038  0.93857821  0.78962369  1
  O  O79  1  0.72885962  0.06142179  0.21037631  1
  O  O80  1  0.61280086  0.79275627  0.44785771  1
  O  O81  1  0.38719914  0.20724373  0.55214229  1
  O  O82  1  0.88719914  0.70724373  0.94785771  1
  O  O83  1  0.11280086  0.29275627  0.05214229  1
  O  O84  1  0.06539308  0.69636922  0.09597955  1
  O  O85  1  0.93460692  0.30363078  0.90402045  1
  O  O86  1  0.43460692  0.80363078  0.59597955  1
  O  O87  1  0.56539308  0.19636922  0.40402045  1
