# generated using pymatgen
data_Ba2VN3
_symmetry_space_group_name_H-M   'P 1'
_cell_length_a   6.54012819
_cell_length_b   6.54012819
_cell_length_c   13.05760429
_cell_angle_alpha   90.00000000
_cell_angle_beta   90.00000000
_cell_angle_gamma   126.26939843
_symmetry_Int_Tables_number   1
_chemical_formula_structural   Ba2VN3
_chemical_formula_sum   'Ba8 V4 N12'
_cell_volume   450.30079618
_cell_formula_units_Z   4
loop_
 _symmetry_equiv_pos_site_id
 _symmetry_equiv_pos_as_xyz
  1  'x, y, z'
loop_
 _atom_site_type_symbol
 _atom_site_label
 _atom_site_symmetry_multiplicity
 _atom_site_fract_x
 _atom_site_fract_y
 _atom_site_fract_z
 _atom_site_occupancy
  Ba  Ba0  1  0.85874332  0.14125668  0.42172300  1
  Ba  Ba1  1  0.35874332  0.64125668  0.07827700  1
  Ba  Ba2  1  0.64125668  0.35874332  0.92172300  1
  Ba  Ba3  1  0.14125668  0.85874332  0.57827700  1
  Ba  Ba4  1  0.44390874  0.55609126  0.64518404  1
  Ba  Ba5  1  0.55609126  0.44390874  0.35481596  1
  Ba  Ba6  1  0.05609126  0.94390874  0.14518404  1
  Ba  Ba7  1  0.94390874  0.05609126  0.85481596  1
  V  V8  1  0.75620834  0.24379166  0.66779953  1
  V  V9  1  0.74379166  0.25620834  0.16779953  1
  V  V10  1  0.24379166  0.75620834  0.33220047  1
  V  V11  1  0.25620834  0.74379166  0.83220047  1
  N  N12  1  0.97541061  0.52458939  0.75000000  1
  N  N13  1  0.52458939  0.97541061  0.25000000  1
  N  N14  1  0.02458939  0.47541061  0.25000000  1
  N  N15  1  0.47541061  0.02458939  0.75000000  1
  N  N16  1  0.40467495  0.59532505  0.86615437  1
  N  N17  1  0.59532505  0.40467495  0.13384563  1
  N  N18  1  0.09532505  0.90467495  0.36615437  1
  N  N19  1  0.66708473  0.33291527  0.55774598  1
  N  N20  1  0.16708473  0.83291527  0.94225402  1
  N  N21  1  0.83291527  0.16708473  0.05774598  1
  N  N22  1  0.33291527  0.66708473  0.44225402  1
  N  N23  1  0.90467495  0.09532505  0.63384563  1
