# generated using pymatgen
data_TiO2
_symmetry_space_group_name_H-M   'P 1'
_cell_length_a   7.35998045
_cell_length_b   7.35998045
_cell_length_c   7.35998045
_cell_angle_alpha   92.32913389
_cell_angle_beta   92.32913389
_cell_angle_gamma   156.73970690
_symmetry_Int_Tables_number   1
_chemical_formula_structural   TiO2
_chemical_formula_sum   'Ti4 O8'
_cell_volume   154.21185054
_cell_formula_units_Z   4
loop_
 _symmetry_equiv_pos_site_id
 _symmetry_equiv_pos_as_xyz
  1  'x, y, z'
loop_
 _atom_site_type_symbol
 _atom_site_label
 _atom_site_symmetry_multiplicity
 _atom_site_fract_x
 _atom_site_fract_y
 _atom_site_fract_z
 _atom_site_occupancy
  Ti  Ti0  1  0.64445292  0.17258691  0.81703983  1
  Ti  Ti1  1  0.17258691  0.35554708  0.52813399  1
  Ti  Ti2  1  0.82741309  0.64445292  0.47186601  1
  Ti  Ti3  1  0.35554708  0.82741309  0.18296017  1
  O  O4  1  0.83626247  0.45898473  0.29524720  1
  O  O5  1  0.45898473  0.16373753  0.62272126  1
  O  O6  1  0.54101527  0.83626247  0.37727874  1
  O  O7  1  0.16373753  0.54101527  0.70475280  1
  O  O8  1  0.15660689  0.79096421  0.94757110  1
  O  O9  1  0.79096421  0.84339311  0.63435832  1
  O  O10  1  0.84339311  0.20903579  0.05242890  1
  O  O11  1  0.20903579  0.15660689  0.36564168  1
