# generated using pymatgen
data_Na3GeSe3
_symmetry_space_group_name_H-M   'P 1'
_cell_length_a   11.90035661
_cell_length_b   8.23760870
_cell_length_c   8.37020124
_cell_angle_alpha   60.72083367
_cell_angle_beta   90.00000000
_cell_angle_gamma   90.00000000
_symmetry_Int_Tables_number   1
_chemical_formula_structural   Na3GeSe3
_chemical_formula_sum   'Na12 Ge4 Se12'
_cell_volume   715.70919822
_cell_formula_units_Z   4
loop_
 _symmetry_equiv_pos_site_id
 _symmetry_equiv_pos_as_xyz
  1  'x, y, z'
loop_
 _atom_site_type_symbol
 _atom_site_label
 _atom_site_symmetry_multiplicity
 _atom_site_fract_x
 _atom_site_fract_y
 _atom_site_fract_z
 _atom_site_occupancy
  Na  Na0  1  0.27075969  0.22271206  0.53271193  1
  Na  Na1  1  0.77075969  0.27728794  0.46728807  1
  Na  Na2  1  0.72924031  0.77728794  0.46728807  1
  Na  Na3  1  0.22924031  0.72271206  0.53271193  1
  Na  Na4  1  0.55928363  0.01438463  0.77038583  1
  Na  Na5  1  0.05928363  0.48561537  0.22961417  1
  Na  Na6  1  0.44071637  0.98561537  0.22961417  1
  Na  Na7  1  0.94071637  0.51438463  0.77038583  1
  Na  Na8  1  0.16285049  0.97622493  0.00542704  1
  Na  Na9  1  0.66285049  0.52377507  0.99457296  1
  Na  Na10  1  0.83714951  0.02377507  0.99457296  1
  Na  Na11  1  0.33714951  0.47622493  0.00542704  1
  Ge  Ge12  1  0.99009533  0.96258654  0.65941309  1
  Ge  Ge13  1  0.49009533  0.53741346  0.34058691  1
  Ge  Ge14  1  0.00990467  0.03741346  0.34058691  1
  Ge  Ge15  1  0.50990467  0.46258654  0.65941309  1
  Se  Se16  1  0.38047051  0.22676510  0.83856022  1
  Se  Se17  1  0.88047051  0.27323490  0.16143978  1
  Se  Se18  1  0.61952949  0.77323490  0.16143978  1
  Se  Se19  1  0.11952949  0.72676510  0.83856022  1
  Se  Se20  1  0.46981398  0.73686817  0.66965508  1
  Se  Se21  1  0.96981398  0.76313183  0.33034492  1
  Se  Se22  1  0.53018602  0.26313183  0.33034492  1
  Se  Se23  1  0.03018602  0.23686817  0.66965508  1
  Se  Se24  1  0.69761929  0.36510580  0.74603802  1
  Se  Se25  1  0.19761929  0.13489420  0.25396198  1
  Se  Se26  1  0.30238071  0.63489420  0.25396198  1
  Se  Se27  1  0.80238071  0.86510580  0.74603802  1
