# generated using pymatgen
data_V2Zn2O7
_symmetry_space_group_name_H-M   'P 1'
_cell_length_a   5.57975693
_cell_length_b   5.57975693
_cell_length_c   10.12509854
_cell_angle_alpha   75.73127920
_cell_angle_beta   75.73127920
_cell_angle_gamma   95.80670547
_symmetry_Int_Tables_number   1
_chemical_formula_structural   V2Zn2O7
_chemical_formula_sum   'V4 Zn4 O14'
_cell_volume   291.64928912
_cell_formula_units_Z   2
loop_
 _symmetry_equiv_pos_site_id
 _symmetry_equiv_pos_as_xyz
  1  'x, y, z'
loop_
 _atom_site_type_symbol
 _atom_site_label
 _atom_site_symmetry_multiplicity
 _atom_site_fract_x
 _atom_site_fract_y
 _atom_site_fract_z
 _atom_site_occupancy
  V  V0  1  0.48852449  0.99934216  0.70643442  1
  V  V1  1  0.00065784  0.51147551  0.79356558  1
  V  V2  1  0.51147551  0.00065784  0.29356558  1
  V  V3  1  0.99934216  0.48852449  0.20643442  1
  Zn  Zn4  1  0.60331133  0.75185842  0.02092225  1
  Zn  Zn5  1  0.24814158  0.39668867  0.47907775  1
  Zn  Zn6  1  0.39668867  0.24814158  0.97907775  1
  Zn  Zn7  1  0.75185842  0.60331133  0.52092225  1
  O  O8  1  0.70050830  0.86786880  0.61330798  1
  O  O9  1  0.13213120  0.29949170  0.88669202  1
  O  O10  1  0.29949170  0.13213120  0.38669202  1
  O  O11  1  0.86786880  0.70050830  0.11330798  1
  O  O12  1  0.48406004  0.29497303  0.60548377  1
  O  O13  1  0.70502697  0.51593996  0.89451623  1
  O  O14  1  0.51593996  0.70502697  0.39451623  1
  O  O15  1  0.29497303  0.48406004  0.10548377  1
  O  O16  1  0.81275035  0.18724965  0.25000000  1
  O  O17  1  0.18724965  0.81275035  0.75000000  1
  O  O18  1  0.01485382  0.55542318  0.36215202  1
  O  O19  1  0.44457682  0.98514618  0.13784798  1
  O  O20  1  0.98514618  0.44457682  0.63784798  1
  O  O21  1  0.55542318  0.01485382  0.86215202  1
