# generated using pymatgen
data_NaMnP2NO10
_symmetry_space_group_name_H-M   'P 1'
_cell_length_a   9.14755780
_cell_length_b   9.14755780
_cell_length_c   5.42519236
_cell_angle_alpha   81.90943070
_cell_angle_beta   81.90943070
_cell_angle_gamma   121.66394605
_symmetry_Int_Tables_number   1
_chemical_formula_structural   NaMnP2NO10
_chemical_formula_sum   'Na2 Mn2 P4 N2 O20'
_cell_volume   369.93046828
_cell_formula_units_Z   2
loop_
 _symmetry_equiv_pos_site_id
 _symmetry_equiv_pos_as_xyz
  1  'x, y, z'
loop_
 _atom_site_type_symbol
 _atom_site_label
 _atom_site_symmetry_multiplicity
 _atom_site_fract_x
 _atom_site_fract_y
 _atom_site_fract_z
 _atom_site_occupancy
  Na  Na0  1  0.94493464  0.79785984  0.88414420  1
  Na  Na1  1  0.79785984  0.94493464  0.38414420  1
  Mn  Mn2  1  0.13218367  0.60325072  0.60858023  1
  Mn  Mn3  1  0.60325072  0.13218367  0.10858023  1
  P  P4  1  0.34004473  0.78262760  0.01067496  1
  P  P5  1  0.78262760  0.34004473  0.51067496  1
  P  P6  1  0.19505917  0.94457199  0.25334428  1
  P  P7  1  0.94457199  0.19505917  0.75334428  1
  N  N8  1  0.35809103  0.43867002  0.17594600  1
  N  N9  1  0.43867002  0.35809103  0.67594600  1
  O  O10  1  0.31687948  0.68052560  0.27598487  1
  O  O11  1  0.68052560  0.31687948  0.77598487  1
  O  O12  1  0.31009772  0.68363006  0.80313071  1
  O  O13  1  0.68363006  0.31009772  0.30313071  1
  O  O14  1  0.52049919  0.96145262  0.91763701  1
  O  O15  1  0.96145262  0.52049919  0.41763701  1
  O  O16  1  0.19736448  0.83333144  0.04540040  1
  O  O17  1  0.83333144  0.19736448  0.54540040  1
  O  O18  1  0.16394631  0.83071789  0.51724436  1
  O  O19  1  0.83071789  0.16394631  0.01724436  1
  O  O20  1  0.05277646  0.97148753  0.22365525  1
  O  O21  1  0.97148753  0.05277646  0.72365525  1
  O  O22  1  0.38423084  0.11440604  0.17334789  1
  O  O23  1  0.11440604  0.38423084  0.67334789  1
  O  O24  1  0.97382831  0.54463895  0.88077380  1
  O  O25  1  0.54463895  0.97382831  0.38077380  1
  O  O26  1  0.63136109  0.70448478  0.00769348  1
  O  O27  1  0.70448478  0.63136109  0.50769348  1
  O  O28  1  0.52736982  0.51347499  0.65744156  1
  O  O29  1  0.51347499  0.52736982  0.15744156  1
