# generated using pymatgen
data_Ta4PbO11
_symmetry_space_group_name_H-M   'P 1'
_cell_length_a   12.84926816
_cell_length_b   12.84926816
_cell_length_c   12.84926732
_cell_angle_alpha   28.16040917
_cell_angle_beta   28.16040917
_cell_angle_gamma   28.16040755
_symmetry_Int_Tables_number   1
_chemical_formula_structural   Ta4PbO11
_chemical_formula_sum   'Ta8 Pb2 O22'
_cell_volume   417.43462146
_cell_formula_units_Z   2
loop_
 _symmetry_equiv_pos_site_id
 _symmetry_equiv_pos_as_xyz
  1  'x, y, z'
loop_
 _atom_site_type_symbol
 _atom_site_label
 _atom_site_symmetry_multiplicity
 _atom_site_fract_x
 _atom_site_fract_y
 _atom_site_fract_z
 _atom_site_occupancy
  Ta  Ta0  1  0.00000000  0.63177212  0.36822788  1
  Ta  Ta1  1  0.36822788  -0.00000000  0.63177212  1
  Ta  Ta2  1  0.63177212  0.36822788  -0.00000000  1
  Ta  Ta3  1  0.85696755  0.14303245  0.50000000  1
  Ta  Ta4  1  0.50000000  0.85696755  0.14303245  1
  Ta  Ta5  1  0.14303245  0.50000000  0.85696755  1
  Ta  Ta6  1  0.74950995  0.74950995  0.74950995  1
  Ta  Ta7  1  0.25049005  0.25049005  0.25049005  1
  Pb  Pb8  1  0.08182269  0.08182269  0.08182269  1
  Pb  Pb9  1  0.91817731  0.91817731  0.91817731  1
  O  O10  1  0.52529099  0.30508511  0.01299514  1
  O  O11  1  0.01299514  0.52529099  0.30508511  1
  O  O12  1  0.30508511  0.01299514  0.52529099  1
  O  O13  1  0.50168513  0.83233616  0.01083653  1
  O  O14  1  0.01083653  0.50168513  0.83233616  1
  O  O15  1  0.83233616  0.01083653  0.50168513  1
  O  O16  1  0.98700486  0.69491489  0.47470901  1
  O  O17  1  0.47470901  0.98700486  0.69491489  1
  O  O18  1  0.69491489  0.47470901  0.98700486  1
  O  O19  1  0.98916347  0.16766384  0.49831487  1
  O  O20  1  0.49831487  0.98916347  0.16766384  1
  O  O21  1  0.16766384  0.49831487  0.98916347  1
  O  O22  1  -0.00000000  0.24925491  0.75074509  1
  O  O23  1  0.75074509  0.00000000  0.24925491  1
  O  O24  1  0.24925491  0.75074509  -0.00000000  1
  O  O25  1  0.25589962  0.74410038  0.50000000  1
  O  O26  1  0.50000000  0.25589962  0.74410038  1
  O  O27  1  0.74410038  0.50000000  0.25589962  1
  O  O28  1  0.15611620  0.15611620  0.15611620  1
  O  O29  1  0.65653269  0.65653269  0.65653269  1
  O  O30  1  0.84388380  0.84388380  0.84388380  1
  O  O31  1  0.34346731  0.34346731  0.34346731  1
