# generated using pymatgen
data_Ta2ZnO6
_symmetry_space_group_name_H-M   'P 1'
_cell_length_a   4.70869443
_cell_length_b   5.07072060
_cell_length_c   17.12862714
_cell_angle_alpha   90.00000000
_cell_angle_beta   90.00000000
_cell_angle_gamma   90.00000000
_symmetry_Int_Tables_number   1
_chemical_formula_structural   Ta2ZnO6
_chemical_formula_sum   'Ta8 Zn4 O24'
_cell_volume   408.97121791
_cell_formula_units_Z   4
loop_
 _symmetry_equiv_pos_site_id
 _symmetry_equiv_pos_as_xyz
  1  'x, y, z'
loop_
 _atom_site_type_symbol
 _atom_site_label
 _atom_site_symmetry_multiplicity
 _atom_site_fract_x
 _atom_site_fract_y
 _atom_site_fract_z
 _atom_site_occupancy
  Ta  Ta0  1  0.50000000  0.75000000  0.94430991  1
  Ta  Ta1  1  0.00000000  0.25000000  0.55569009  1
  Ta  Ta2  1  0.50000000  0.25000000  0.05569009  1
  Ta  Ta3  1  0.00000000  0.75000000  0.44430991  1
  Ta  Ta4  1  0.00000000  0.25000000  0.21967933  1
  Ta  Ta5  1  0.50000000  0.75000000  0.28032067  1
  Ta  Ta6  1  0.00000000  0.75000000  0.78032067  1
  Ta  Ta7  1  0.50000000  0.25000000  0.71967933  1
  Zn  Zn8  1  0.00000000  0.75000000  0.10295985  1
  Zn  Zn9  1  0.50000000  0.25000000  0.39704015  1
  Zn  Zn10  1  0.00000000  0.25000000  0.89704015  1
  Zn  Zn11  1  0.50000000  0.75000000  0.60295985  1
  O  O12  1  0.76134766  0.42602792  0.78955147  1
  O  O13  1  0.26134766  0.57397208  0.71044853  1
  O  O14  1  0.73865234  0.92602792  0.71044853  1
  O  O15  1  0.23865234  0.07397208  0.78955147  1
  O  O16  1  0.23865234  0.57397208  0.21044853  1
  O  O17  1  0.73865234  0.42602792  0.28955147  1
  O  O18  1  0.26134766  0.07397208  0.28955147  1
  O  O19  1  0.76134766  0.92602792  0.21044853  1
  O  O20  1  0.76995950  0.90128090  0.87130533  1
  O  O21  1  0.26995950  0.09871910  0.62869467  1
  O  O22  1  0.73004050  0.40128090  0.62869467  1
  O  O23  1  0.23004050  0.59871910  0.87130533  1
  O  O24  1  0.78107891  0.42779731  0.46451425  1
  O  O25  1  0.28107891  0.57220269  0.03548575  1
  O  O26  1  0.71892109  0.92779731  0.03548575  1
  O  O27  1  0.21892109  0.07220269  0.46451425  1
  O  O28  1  0.21892109  0.57220269  0.53548575  1
  O  O29  1  0.71892109  0.42779731  0.96451425  1
  O  O30  1  0.28107891  0.07220269  0.96451425  1
  O  O31  1  0.78107891  0.92779731  0.53548575  1
  O  O32  1  0.76995950  0.40128090  0.12869467  1
  O  O33  1  0.26995950  0.59871910  0.37130533  1
  O  O34  1  0.73004050  0.90128090  0.37130533  1
  O  O35  1  0.23004050  0.09871910  0.12869467  1
