# generated using pymatgen
data_CaFe6(OF2)4
_symmetry_space_group_name_H-M   'P 1'
_cell_length_a   9.00859571
_cell_length_b   6.31496011
_cell_length_c   6.10775924
_cell_angle_alpha   64.93917496
_cell_angle_beta   60.10769099
_cell_angle_gamma   63.01675192
_symmetry_Int_Tables_number   1
_chemical_formula_structural   CaFe6(OF2)4
_chemical_formula_sum   'Ca1 Fe6 O4 F8'
_cell_volume   259.53012455
_cell_formula_units_Z   1
loop_
 _symmetry_equiv_pos_site_id
 _symmetry_equiv_pos_as_xyz
  1  'x, y, z'
loop_
 _atom_site_type_symbol
 _atom_site_label
 _atom_site_symmetry_multiplicity
 _atom_site_fract_x
 _atom_site_fract_y
 _atom_site_fract_z
 _atom_site_occupancy
  Ca  Ca0  1  0.09718000  0.93080600  0.40708100  1
  Fe  Fe1  1  0.81209500  0.54973200  0.64443500  1
  Fe  Fe2  1  0.64157500  0.36226400  0.28755400  1
  Fe  Fe3  1  0.36002500  0.71955000  0.69762300  1
  Fe  Fe4  1  0.20423700  0.34753000  0.38596300  1
  Fe  Fe5  1  0.54056400  0.98452400  0.01610000  1
  Fe  Fe6  1  0.97453800  0.96957000  0.01489100  1
  O  O7  1  0.34021500  0.00033500  0.37528600  1
  O  O8  1  0.66680900  0.63473100  0.96028400  1
  O  O9  1  0.99397300  0.23348000  0.64514400  1
  O  O10  1  0.00453300  0.67345800  0.36300100  1
  F  F11  1  0.63925300  0.09865000  0.62168400  1
  F  F12  1  0.35448300  0.40482700  0.99750200  1
  F  F13  1  0.25613000  0.92282300  0.96148000  1
  F  F14  1  0.92360200  0.22514100  0.18740900  1
  F  F15  1  0.64084400  0.58139400  0.51178600  1
  F  F16  1  0.08661500  0.71663100  0.81601900  1
  F  F17  1  0.34377800  0.46826400  0.44314900  1
  F  F18  1  0.69455100  0.09295700  0.10111400  1
