# generated using pymatgen
data_BaVAsO6
_symmetry_space_group_name_H-M   'P 1'
_cell_length_a   10.24374460
_cell_length_b   5.76072895
_cell_length_c   8.94090436
_cell_angle_alpha   89.16834160
_cell_angle_beta   90.00000000
_cell_angle_gamma   90.00000000
_symmetry_Int_Tables_number   1
_chemical_formula_structural   BaVAsO6
_chemical_formula_sum   'Ba4 V4 As4 O24'
_cell_volume   527.56002570
_cell_formula_units_Z   4
loop_
 _symmetry_equiv_pos_site_id
 _symmetry_equiv_pos_as_xyz
  1  'x, y, z'
loop_
 _atom_site_type_symbol
 _atom_site_label
 _atom_site_symmetry_multiplicity
 _atom_site_fract_x
 _atom_site_fract_y
 _atom_site_fract_z
 _atom_site_occupancy
  Ba  Ba0  1  0.69553472  0.35666557  0.58829207  1
  Ba  Ba1  1  0.19553472  0.64333443  0.91170793  1
  Ba  Ba2  1  0.30446528  0.64333443  0.41170793  1
  Ba  Ba3  1  0.80446528  0.35666557  0.08829207  1
  V  V4  1  0.09152398  0.15076933  0.58553566  1
  V  V5  1  0.59152398  0.84923067  0.91446434  1
  V  V6  1  0.90847602  0.84923067  0.41446434  1
  V  V7  1  0.40847602  0.15076933  0.08553566  1
  As  As8  1  0.11500670  0.15306659  0.21924922  1
  As  As9  1  0.61500670  0.84693341  0.28075078  1
  As  As10  1  0.88499330  0.84693341  0.78075078  1
  As  As11  1  0.38499330  0.15306659  0.71924922  1
  O  O12  1  0.07795176  0.39381561  0.12301978  1
  O  O13  1  0.57795176  0.60618439  0.37698022  1
  O  O14  1  0.92204824  0.60618439  0.87698022  1
  O  O15  1  0.42204824  0.39381561  0.62301978  1
  O  O16  1  0.27215602  0.97453635  0.64063705  1
  O  O17  1  0.77215602  0.02546365  0.85936295  1
  O  O18  1  0.72784398  0.02546365  0.35936295  1
  O  O19  1  0.22784398  0.97453635  0.14063705  1
  O  O20  1  0.03242363  0.98970225  0.76592841  1
  O  O21  1  0.53242363  0.01029775  0.73407159  1
  O  O22  1  0.96757637  0.01029775  0.23407159  1
  O  O23  1  0.46757637  0.98970225  0.26592841  1
  O  O24  1  0.35997253  0.39582116  0.15879797  1
  O  O25  1  0.85997253  0.60417884  0.34120203  1
  O  O26  1  0.64002747  0.60417884  0.84120203  1
  O  O27  1  0.14002747  0.39582116  0.65879797  1
  O  O28  1  0.56230013  0.18935084  0.02075246  1
  O  O29  1  0.06230013  0.81064916  0.47924754  1
  O  O30  1  0.43769987  0.81064916  0.97924754  1
  O  O31  1  0.93769987  0.18935084  0.52075246  1
  O  O32  1  0.32312030  0.21200643  0.89365961  1
  O  O33  1  0.82312030  0.78799357  0.60634039  1
  O  O34  1  0.67687970  0.78799357  0.10634039  1
  O  O35  1  0.17687970  0.21200643  0.39365961  1
