# generated using pymatgen
data_Sr(BS2)2
_symmetry_space_group_name_H-M   'P 1'
_cell_length_a   8.84988972
_cell_length_b   8.84988973
_cell_length_c   8.84988962
_cell_angle_alpha   58.72104899
_cell_angle_beta   58.72104893
_cell_angle_gamma   58.72104481
_symmetry_Int_Tables_number   1
_chemical_formula_structural   Sr(BS2)2
_chemical_formula_sum   'Sr3 B6 S12'
_cell_volume   475.79421013
_cell_formula_units_Z   3
loop_
 _symmetry_equiv_pos_site_id
 _symmetry_equiv_pos_as_xyz
  1  'x, y, z'
loop_
 _atom_site_type_symbol
 _atom_site_label
 _atom_site_symmetry_multiplicity
 _atom_site_fract_x
 _atom_site_fract_y
 _atom_site_fract_z
 _atom_site_occupancy
  Sr  Sr0  1  0.19325264  0.19325264  0.19325264  1
  Sr  Sr1  1  0.80674736  0.80674736  0.80674736  1
  Sr  Sr2  1  -0.00000000  -0.00000000  0.00000000  1
  B  B3  1  0.63473297  0.23583955  0.38650803  1
  B  B4  1  0.23583955  0.38650803  0.63473297  1
  B  B5  1  0.38650803  0.63473297  0.23583955  1
  B  B6  1  0.61349197  0.36526703  0.76416045  1
  B  B7  1  0.36526703  0.76416045  0.61349197  1
  B  B8  1  0.76416045  0.61349197  0.36526703  1
  S  S9  1  0.14398557  0.95222530  0.62614774  1
  S  S10  1  0.04777470  0.37385226  0.85601443  1
  S  S11  1  0.37385226  0.85601443  0.04777470  1
  S  S12  1  0.38880308  0.55017659  0.81474860  1
  S  S13  1  0.81474860  0.38880308  0.55017659  1
  S  S14  1  0.55017659  0.81474860  0.38880308  1
  S  S15  1  0.61119692  0.44982341  0.18525140  1
  S  S16  1  0.18525140  0.61119692  0.44982341  1
  S  S17  1  0.44982341  0.18525140  0.61119692  1
  S  S18  1  0.62614774  0.14398557  0.95222530  1
  S  S19  1  0.85601443  0.04777470  0.37385226  1
  S  S20  1  0.95222530  0.62614774  0.14398557  1
