# generated using pymatgen
data_Tl2Ge2S5
_symmetry_space_group_name_H-M   'P 1'
_cell_length_a   10.74349190
_cell_length_b   10.74349190
_cell_length_c   8.87620830
_cell_angle_alpha   78.32415421
_cell_angle_beta   78.32415421
_cell_angle_gamma   89.95818480
_symmetry_Int_Tables_number   1
_chemical_formula_structural   Tl2Ge2S5
_chemical_formula_sum   'Tl8 Ge8 S20'
_cell_volume   981.69108564
_cell_formula_units_Z   4
loop_
 _symmetry_equiv_pos_site_id
 _symmetry_equiv_pos_as_xyz
  1  'x, y, z'
loop_
 _atom_site_type_symbol
 _atom_site_label
 _atom_site_symmetry_multiplicity
 _atom_site_fract_x
 _atom_site_fract_y
 _atom_site_fract_z
 _atom_site_occupancy
  Tl  Tl0  1  0.20287899  0.07290346  0.89264321  1
  Tl  Tl1  1  0.92709654  0.79712101  0.60735679  1
  Tl  Tl2  1  0.79712101  0.92709654  0.10735679  1
  Tl  Tl3  1  0.07290346  0.20287899  0.39264321  1
  Tl  Tl4  1  0.54350074  0.79869145  0.60936740  1
  Tl  Tl5  1  0.20130855  0.45649926  0.89063260  1
  Tl  Tl6  1  0.45649926  0.20130855  0.39063260  1
  Tl  Tl7  1  0.79869145  0.54350074  0.10936740  1
  Ge  Ge8  1  0.72942041  0.13607242  0.61258182  1
  Ge  Ge9  1  0.86392758  0.27057959  0.88741818  1
  Ge  Ge10  1  0.27057959  0.86392758  0.38741818  1
  Ge  Ge11  1  0.13607242  0.72942041  0.11258182  1
  Ge  Ge12  1  0.47740572  0.73371316  0.09242937  1
  Ge  Ge13  1  0.26628684  0.52259428  0.40757063  1
  Ge  Ge14  1  0.52259428  0.26628684  0.90757063  1
  Ge  Ge15  1  0.73371316  0.47740572  0.59242937  1
  S  S16  1  0.45959314  0.54040686  0.25000000  1
  S  S17  1  0.54040686  0.45959314  0.75000000  1
  S  S18  1  0.11369511  0.88630489  0.25000000  1
  S  S19  1  0.88630489  0.11369511  0.75000000  1
  S  S20  1  0.24352339  -0.00000994  0.53546198  1
  S  S21  1  0.00000994  0.75647661  0.96453802  1
  S  S22  1  0.75647661  0.00000994  0.46453802  1
  S  S23  1  -0.00000994  0.24352339  0.03546198  1
  S  S24  1  0.66137856  0.75897069  0.93673378  1
  S  S25  1  0.24102931  0.33862144  0.56326622  1
  S  S26  1  0.33862144  0.24102931  0.06326622  1
  S  S27  1  0.75897069  0.66137856  0.43673378  1
  S  S28  1  0.67313606  0.24227054  0.05190359  1
  S  S29  1  0.75772946  0.32686394  0.44809641  1
  S  S30  1  0.32686394  0.75772946  0.94809641  1
  S  S31  1  0.24227054  0.67313606  0.55190359  1
  S  S32  1  0.88936253  0.46364513  0.73107218  1
  S  S33  1  0.53635487  0.11063747  0.76892782  1
  S  S34  1  0.11063747  0.53635487  0.26892782  1
  S  S35  1  0.46364513  0.88936253  0.23107218  1
