# generated using pymatgen
data_Zn(AuF4)2
_symmetry_space_group_name_H-M   'P 1'
_cell_length_a   5.41647513
_cell_length_b   5.51887659
_cell_length_c   10.87674815
_cell_angle_alpha   70.29318822
_cell_angle_beta   90.00000000
_cell_angle_gamma   90.00000000
_symmetry_Int_Tables_number   1
_chemical_formula_structural   Zn(AuF4)2
_chemical_formula_sum   'Zn2 Au4 F16'
_cell_volume   306.09395689
_cell_formula_units_Z   2
loop_
 _symmetry_equiv_pos_site_id
 _symmetry_equiv_pos_as_xyz
  1  'x, y, z'
loop_
 _atom_site_type_symbol
 _atom_site_label
 _atom_site_symmetry_multiplicity
 _atom_site_fract_x
 _atom_site_fract_y
 _atom_site_fract_z
 _atom_site_occupancy
  Zn  Zn0  1  0.50000000  0.50000000  0.00000000  1
  Zn  Zn1  1  0.00000000  0.50000000  0.50000000  1
  Au  Au2  1  0.71223360  0.86155578  0.66597829  1
  Au  Au3  1  0.21223360  0.13844422  0.83402171  1
  Au  Au4  1  0.28776640  0.13844422  0.33402171  1
  Au  Au5  1  0.78776640  0.86155578  0.16597829  1
  F  F6  1  0.61467617  0.55969185  0.81259354  1
  F  F7  1  0.11467617  0.44030815  0.68740646  1
  F  F8  1  0.38532383  0.44030815  0.18740646  1
  F  F9  1  0.88532383  0.55969185  0.31259354  1
  F  F10  1  0.68912568  0.16662750  0.02178657  1
  F  F11  1  0.18912568  0.83337250  0.47821343  1
  F  F12  1  0.79932844  0.65872827  0.04776402  1
  F  F13  1  0.29932844  0.34127173  0.45223598  1
  F  F14  1  0.20067156  0.34127173  0.95223598  1
  F  F15  1  0.70067156  0.65872827  0.54776402  1
  F  F16  1  0.78420853  0.05975420  0.28070233  1
  F  F17  1  0.28420853  0.94024580  0.21929767  1
  F  F18  1  0.21579147  0.94024580  0.71929767  1
  F  F19  1  0.71579147  0.05975420  0.78070233  1
  F  F20  1  0.81087432  0.16662750  0.52178657  1
  F  F21  1  0.31087432  0.83337250  0.97821343  1
