# generated using pymatgen
data_KNa2WN3
_symmetry_space_group_name_H-M   'P 1'
_cell_length_a   6.30960548
_cell_length_b   12.18346664
_cell_length_c   12.52177220
_cell_angle_alpha   90.00000000
_cell_angle_beta   90.00000000
_cell_angle_gamma   90.00000000
_symmetry_Int_Tables_number   1
_chemical_formula_structural   KNa2WN3
_chemical_formula_sum   'K8 Na16 W8 N24'
_cell_volume   962.58453992
_cell_formula_units_Z   8
loop_
 _symmetry_equiv_pos_site_id
 _symmetry_equiv_pos_as_xyz
  1  'x, y, z'
loop_
 _atom_site_type_symbol
 _atom_site_label
 _atom_site_symmetry_multiplicity
 _atom_site_fract_x
 _atom_site_fract_y
 _atom_site_fract_z
 _atom_site_occupancy
  K  K0  1  0.37639035  0.24927755  0.69864058  1
  K  K1  1  0.62360965  0.74927755  0.30135942  1
  K  K2  1  0.37639035  0.74927755  0.80135942  1
  K  K3  1  0.62360965  0.24927755  0.19864058  1
  K  K4  1  0.94062755  0.49682493  0.01083638  1
  K  K5  1  0.05937245  0.99682493  0.98916362  1
  K  K6  1  0.05937245  0.49682493  0.51083638  1
  K  K7  1  0.94062755  0.99682493  0.48916362  1
  Na  Na8  1  0.84610242  0.24905368  0.62000540  1
  Na  Na9  1  0.15389758  0.74905368  0.37999460  1
  Na  Na10  1  0.84610242  0.74905368  0.87999460  1
  Na  Na11  1  0.15389758  0.24905368  0.12000540  1
  Na  Na12  1  0.51440136  0.37517546  0.96324301  1
  Na  Na13  1  0.48559864  0.87517546  0.03675699  1
  Na  Na14  1  0.54224538  0.62310273  0.53472333  1
  Na  Na15  1  0.45775462  0.12310273  0.46527667  1
  Na  Na16  1  0.45775462  0.62310273  0.03472333  1
  Na  Na17  1  0.54224538  0.12310273  0.96527667  1
  Na  Na18  1  0.48559864  0.37517546  0.46324301  1
  Na  Na19  1  0.51440136  0.87517546  0.53675699  1
  Na  Na20  1  0.23185988  0.50032366  0.76035795  1
  Na  Na21  1  0.76814012  0.00032366  0.23964205  1
  Na  Na22  1  0.76814012  0.50032366  0.26035795  1
  Na  Na23  1  0.23185988  0.00032366  0.73964205  1
  W  W24  1  0.97564234  0.25052922  0.88129336  1
  W  W25  1  0.02435766  0.75052922  0.11870664  1
  W  W26  1  0.97564234  0.75052922  0.61870664  1
  W  W27  1  0.02435766  0.25052922  0.38129336  1
  W  W28  1  0.72366809  0.49984830  0.74938626  1
  W  W29  1  0.27633191  0.99984830  0.25061374  1
  W  W30  1  0.27633191  0.49984830  0.24938626  1
  W  W31  1  0.72366809  0.99984830  0.75061374  1
  N  N32  1  0.91076530  0.38133053  0.79600940  1
  N  N33  1  0.08923470  0.88133053  0.20399060  1
  N  N34  1  0.90544588  0.61891316  0.70089461  1
  N  N35  1  0.09455412  0.11891316  0.29910539  1
  N  N36  1  0.09455412  0.61891316  0.20089461  1
  N  N37  1  0.90544588  0.11891316  0.79910539  1
  N  N38  1  0.08923470  0.38133053  0.29600940  1
  N  N39  1  0.91076530  0.88133053  0.70399060  1
  N  N40  1  0.82920650  0.25405410  0.00725774  1
  N  N41  1  0.17079350  0.75405410  0.99274226  1
  N  N42  1  0.82920650  0.75405410  0.49274226  1
  N  N43  1  0.17079350  0.25405410  0.50725774  1
  N  N44  1  0.54579489  0.45302685  0.64222449  1
  N  N45  1  0.45420511  0.95302685  0.35777551  1
  N  N46  1  0.56001278  0.54807402  0.86152279  1
  N  N47  1  0.43998722  0.04807402  0.13847721  1
  N  N48  1  0.43998722  0.54807402  0.36152279  1
  N  N49  1  0.56001278  0.04807402  0.63847721  1
  N  N50  1  0.45420511  0.45302685  0.14222449  1
  N  N51  1  0.54579489  0.95302685  0.85777551  1
  N  N52  1  0.25747932  0.24566580  0.91524834  1
  N  N53  1  0.74252068  0.74566580  0.08475166  1
  N  N54  1  0.25747932  0.74566580  0.58475166  1
  N  N55  1  0.74252068  0.24566580  0.41524834  1
