# generated using pymatgen
data_KMg14BO15
_symmetry_space_group_name_H-M   'P 1'
_cell_length_a   8.51268470
_cell_length_b   8.64875326
_cell_length_c   4.41511091
_cell_angle_alpha   90.00000000
_cell_angle_beta   90.00000000
_cell_angle_gamma   90.00000000
_symmetry_Int_Tables_number   1
_chemical_formula_structural   KMg14BO15
_chemical_formula_sum   'K1 Mg14 B1 O15'
_cell_volume   325.05860932
_cell_formula_units_Z   1
loop_
 _symmetry_equiv_pos_site_id
 _symmetry_equiv_pos_as_xyz
  1  'x, y, z'
loop_
 _atom_site_type_symbol
 _atom_site_label
 _atom_site_symmetry_multiplicity
 _atom_site_fract_x
 _atom_site_fract_y
 _atom_site_fract_z
 _atom_site_occupancy
  K  K0  1  0.00156473  -0.00000000  0.00000000  1
  Mg  Mg1  1  0.00278530  0.50000000  0.00000000  1
  Mg  Mg2  1  0.50171547  -0.00000000  0.00000000  1
  Mg  Mg3  1  0.00088543  0.25180538  0.50000000  1
  Mg  Mg4  1  0.00088543  0.74819462  0.50000000  1
  Mg  Mg5  1  0.50198261  0.25235632  0.50000000  1
  Mg  Mg6  1  0.50198261  0.74764368  0.50000000  1
  Mg  Mg7  1  0.25273306  -0.00000000  0.50000000  1
  Mg  Mg8  1  0.26719913  0.50000000  0.50000000  1
  Mg  Mg9  1  0.75045551  -0.00000000  0.50000000  1
  Mg  Mg10  1  0.74122528  0.50000000  0.50000000  1
  Mg  Mg11  1  0.25966189  0.24265230  0.00000000  1
  Mg  Mg12  1  0.25966189  0.75734770  -0.00000000  1
  Mg  Mg13  1  0.74462977  0.24139923  -0.00000000  1
  Mg  Mg14  1  0.74462977  0.75860077  0.00000000  1
  B  B15  1  0.51855856  0.50000000  0.00000000  1
  O  O16  1  0.27609996  -0.00000000  0.00000000  1
  O  O17  1  0.72716502  -0.00000000  0.00000000  1
  O  O18  1  0.68537862  0.50000000  0.00000000  1
  O  O19  1  0.25212597  0.25677019  0.50000000  1
  O  O20  1  0.25212597  0.74322981  0.50000000  1
  O  O21  1  0.75080334  0.25356178  0.50000000  1
  O  O22  1  0.75080334  0.74643822  0.50000000  1
  O  O23  1  0.00380479  -0.00000000  0.50000000  1
  O  O24  1  0.99521593  0.50000000  0.50000000  1
  O  O25  1  0.50076047  -0.00000000  0.50000000  1
  O  O26  1  0.50318374  0.50000000  0.50000000  1
  O  O27  1  0.99926862  0.27990102  0.00000000  1
  O  O28  1  0.99926862  0.72009898  0.00000000  1
  O  O29  1  0.50171958  0.25376120  0.00000000  1
  O  O30  1  0.50171958  0.74623880  0.00000000  1
