# generated using pymatgen
data_Sm6Ge3Se14
_symmetry_space_group_name_H-M   'P 1'
_cell_length_a   10.54014072
_cell_length_b   10.54004070
_cell_length_c   6.06624936
_cell_angle_alpha   89.99953133
_cell_angle_beta   89.99886769
_cell_angle_gamma   119.99939614
_symmetry_Int_Tables_number   1
_chemical_formula_structural   Sm6Ge3Se14
_chemical_formula_sum   'Sm6 Ge3 Se14'
_cell_volume   583.63621128
_cell_formula_units_Z   1
loop_
 _symmetry_equiv_pos_site_id
 _symmetry_equiv_pos_as_xyz
  1  'x, y, z'
loop_
 _atom_site_type_symbol
 _atom_site_label
 _atom_site_symmetry_multiplicity
 _atom_site_fract_x
 _atom_site_fract_y
 _atom_site_fract_z
 _atom_site_occupancy
  Sm  Sm0  1  0.30947373  0.10577793  0.75398663  1
  Sm  Sm1  1  0.79630288  0.69052202  0.75398907  1
  Sm  Sm2  1  0.89421540  0.20369479  0.75397450  1
  Sm  Sm3  1  0.02530310  0.56136054  0.24835801  1
  Sm  Sm4  1  0.53605754  0.97470395  0.24834678  1
  Sm  Sm5  1  0.43864014  0.46394826  0.24834361  1
  Ge  Ge6  1  0.00000740  -0.00000948  0.17025519  1
  Ge  Ge7  1  0.33333534  0.66667125  0.66376224  1
  Ge  Ge8  1  0.66666487  0.33333680  0.51976484  1
  Se  Se9  1  0.00000396  -0.00000121  0.55309196  1
  Se  Se10  1  0.33333360  0.66668273  0.04667276  1
  Se  Se11  1  0.14978312  0.23421735  0.00913200  1
  Se  Se12  1  0.08442878  0.85019091  0.00910025  1
  Se  Se13  1  0.76577988  0.91555205  0.00913161  1
  Se  Se14  1  0.18338797  0.43246126  0.50411620  1
  Se  Se15  1  0.24907808  0.81663227  0.50411925  1
  Se  Se16  1  0.56754684  0.75093075  0.50412026  1
  Se  Se17  1  0.41077084  0.17338405  0.28159861  1
  Se  Se18  1  0.76258755  0.58921643  0.28149904  1
  Se  Se19  1  0.82664398  0.23740028  0.28154450  1
  Se  Se20  1  0.92505771  0.49779562  0.77303502  1
  Se  Se21  1  0.57273013  0.07493182  0.77303475  1
  Se  Se22  1  0.50220215  0.42726462  0.77306090  1
