# generated using pymatgen
data_CsPbBr3
_symmetry_space_group_name_H-M   'P 1'
_cell_length_a   8.21692034
_cell_length_b   8.21692034
_cell_length_c   6.03736639
_cell_angle_alpha   90.00000000
_cell_angle_beta   90.00000000
_cell_angle_gamma   89.94723878
_symmetry_Int_Tables_number   1
_chemical_formula_structural   CsPbBr3
_chemical_formula_sum   'Cs2 Pb2 Br6'
_cell_volume   407.62940253
_cell_formula_units_Z   2
loop_
 _symmetry_equiv_pos_site_id
 _symmetry_equiv_pos_as_xyz
  1  'x, y, z'
loop_
 _atom_site_type_symbol
 _atom_site_label
 _atom_site_symmetry_multiplicity
 _atom_site_fract_x
 _atom_site_fract_y
 _atom_site_fract_z
 _atom_site_occupancy
  Cs  Cs0  1  0.49434902  0.50565098  0.50000000  1
  Cs  Cs1  1  -0.00315409  0.00315409  0.50000000  1
  Pb  Pb2  1  0.99276659  0.50831189  -0.00000000  1
  Pb  Pb3  1  0.49168811  0.00723341  -0.00000000  1
  Br  Br4  1  0.18014383  0.19458378  -0.00000000  1
  Br  Br5  1  0.48619285  0.00699353  0.50000000  1
  Br  Br6  1  0.99300647  0.51380715  0.50000000  1
  Br  Br7  1  0.30648006  0.69351994  -0.00000000  1
  Br  Br8  1  0.68110994  0.31889006  -0.00000000  1
  Br  Br9  1  0.80541622  0.81985617  -0.00000000  1
