# generated using pymatgen
data_RbHfMg14O15
_symmetry_space_group_name_H-M   'P 1'
_cell_length_a   12.45126697
_cell_length_b   7.83537486
_cell_length_c   4.17277251
_cell_angle_alpha   90.00000000
_cell_angle_beta   90.00000000
_cell_angle_gamma   90.00000000
_symmetry_Int_Tables_number   1
_chemical_formula_structural   RbHfMg14O15
_chemical_formula_sum   'Rb1 Hf1 Mg14 O15'
_cell_volume   407.09712231
_cell_formula_units_Z   1
loop_
 _symmetry_equiv_pos_site_id
 _symmetry_equiv_pos_as_xyz
  1  'x, y, z'
loop_
 _atom_site_type_symbol
 _atom_site_label
 _atom_site_symmetry_multiplicity
 _atom_site_fract_x
 _atom_site_fract_y
 _atom_site_fract_z
 _atom_site_occupancy
  Rb  Rb0  1  0.06381992  0.00000000  0.00000000  1
  Hf  Hf1  1  0.03870049  0.50000000  0.00000000  1
  Mg  Mg2  1  0.53352710  0.00000000  0.00000000  1
  Mg  Mg3  1  0.54256838  0.50000000  0.00000000  1
  Mg  Mg4  1  0.92415068  0.24674019  0.50000000  1
  Mg  Mg5  1  0.92415068  0.75325981  0.50000000  1
  Mg  Mg6  1  0.48139111  0.26248037  0.50000000  1
  Mg  Mg7  1  0.48139111  0.73751963  0.50000000  1
  Mg  Mg8  1  0.32239440  0.00000000  0.50000000  1
  Mg  Mg9  1  0.23034994  0.50000000  0.50000000  1
  Mg  Mg10  1  0.75170329  0.00000000  0.50000000  1
  Mg  Mg11  1  0.70232536  0.50000000  0.50000000  1
  Mg  Mg12  1  0.31395227  0.26200255  0.00000000  1
  Mg  Mg13  1  0.31395227  0.73799745  -0.00000000  1
  Mg  Mg14  1  0.75990067  0.25790376  0.00000000  1
  Mg  Mg15  1  0.75990067  0.74209624  -0.00000000  1
  O  O16  1  0.21028981  0.50000000  0.00000000  1
  O  O17  1  0.70309213  0.00000000  0.00000000  1
  O  O18  1  0.70268848  0.50000000  0.00000000  1
  O  O19  1  0.31516122  0.27605257  0.50000000  1
  O  O20  1  0.31516122  0.72394743  0.50000000  1
  O  O21  1  0.76201918  0.26145856  0.50000000  1
  O  O22  1  0.76201918  0.73854144  0.50000000  1
  O  O23  1  0.91984444  0.00000000  0.50000000  1
  O  O24  1  0.04789920  0.50000000  0.50000000  1
  O  O25  1  0.49592429  0.00000000  0.50000000  1
  O  O26  1  0.54178540  0.50000000  0.50000000  1
  O  O27  1  0.93285393  0.30786721  0.00000000  1
  O  O28  1  0.93285393  0.69213279  -0.00000000  1
  O  O29  1  0.48211464  0.25991525  0.00000000  1
  O  O30  1  0.48211464  0.74008475  -0.00000000  1
