# generated using pymatgen
data_Na3Tb(PO4)2
_symmetry_space_group_name_H-M   'P 1'
_cell_length_a   5.33994145
_cell_length_b   13.97359080
_cell_length_c   18.59969415
_cell_angle_alpha   90.00000000
_cell_angle_beta   90.00000000
_cell_angle_gamma   90.00000000
_symmetry_Int_Tables_number   1
_chemical_formula_structural   Na3Tb(PO4)2
_chemical_formula_sum   'Na24 Tb8 P16 O64'
_cell_volume   1387.87489300
_cell_formula_units_Z   8
loop_
 _symmetry_equiv_pos_site_id
 _symmetry_equiv_pos_as_xyz
  1  'x, y, z'
loop_
 _atom_site_type_symbol
 _atom_site_label
 _atom_site_symmetry_multiplicity
 _atom_site_fract_x
 _atom_site_fract_y
 _atom_site_fract_z
 _atom_site_occupancy
  Na  Na0  1  0.99189317  0.21753047  0.99158778  1
  Na  Na1  1  0.00810683  0.78246953  0.49158778  1
  Na  Na2  1  0.00810683  0.71753047  0.99158778  1
  Na  Na3  1  0.99189317  0.28246953  0.49158778  1
  Na  Na4  1  0.99176741  0.95240226  0.64935430  1
  Na  Na5  1  0.00823259  0.04759774  0.14935430  1
  Na  Na6  1  0.00823259  0.45240226  0.64935430  1
  Na  Na7  1  0.99176741  0.54759774  0.14935430  1
  Na  Na8  1  0.99663046  0.86098855  0.82781670  1
  Na  Na9  1  0.00336954  0.13901145  0.32781670  1
  Na  Na10  1  0.00336954  0.36098855  0.82781670  1
  Na  Na11  1  0.99663046  0.63901145  0.32781670  1
  Na  Na12  1  0.48006113  0.79699234  0.72911913  1
  Na  Na13  1  0.51993887  0.20300766  0.22911913  1
  Na  Na14  1  0.51993887  0.29699234  0.72911913  1
  Na  Na15  1  0.48006113  0.70300766  0.22911913  1
  Na  Na16  1  0.53737952  0.96903937  0.88824402  1
  Na  Na17  1  0.46262048  0.03096063  0.38824402  1
  Na  Na18  1  0.46262048  0.46903937  0.88824402  1
  Na  Na19  1  0.53737952  0.53096063  0.38824402  1
  Na  Na20  1  0.50007533  0.88841139  0.54926323  1
  Na  Na21  1  0.49992467  0.11158861  0.04926323  1
  Na  Na22  1  0.49992467  0.38841139  0.54926323  1
  Na  Na23  1  0.50007533  0.61158861  0.04926323  1
  Tb  Tb24  1  0.92988790  0.61129330  0.80406222  1
  Tb  Tb25  1  0.07011210  0.38870670  0.30406222  1
  Tb  Tb26  1  0.07011210  0.11129330  0.80406222  1
  Tb  Tb27  1  0.92988790  0.88870670  0.30406222  1
  Tb  Tb28  1  0.55406119  0.63845990  0.57293857  1
  Tb  Tb29  1  0.44593881  0.36154010  0.07293857  1
  Tb  Tb30  1  0.44593881  0.13845990  0.57293857  1
  Tb  Tb31  1  0.55406119  0.86154010  0.07293857  1
  P  P32  1  0.97057098  0.47562482  0.98063578  1
  P  P33  1  0.02942902  0.52437518  0.48063578  1
  P  P34  1  0.02942902  0.97562482  0.98063578  1
  P  P35  1  0.97057098  0.02437518  0.48063578  1
  P  P36  1  0.99349660  0.22341665  0.65270613  1
  P  P37  1  0.00650340  0.77658335  0.15270613  1
  P  P38  1  0.00650340  0.72341665  0.65270613  1
  P  P39  1  0.99349660  0.27658335  0.15270613  1
  P  P40  1  0.48101584  0.52597543  0.72485784  1
  P  P41  1  0.51898416  0.47402457  0.22485784  1
  P  P42  1  0.51898416  0.02597543  0.72485784  1
  P  P43  1  0.48101584  0.97402457  0.22485784  1
  P  P44  1  0.46206309  0.72695188  0.89653863  1
  P  P45  1  0.53793691  0.27304812  0.39653863  1
  P  P46  1  0.53793691  0.22695188  0.89653863  1
  P  P47  1  0.46206309  0.77304812  0.39653863  1
  O  O48  1  0.57366705  0.80816149  0.85094532  1
  O  O49  1  0.42633295  0.19183851  0.35094532  1
  O  O50  1  0.42633295  0.30816149  0.85094532  1
  O  O51  1  0.57366705  0.69183851  0.35094532  1
  O  O52  1  0.69901724  0.47169820  0.76309389  1
  O  O53  1  0.30098276  0.52830180  0.26309389  1
  O  O54  1  0.30098276  0.97169820  0.76309389  1
  O  O55  1  0.69901724  0.02830180  0.26309389  1
  O  O56  1  0.87746391  0.88174068  0.99399329  1
  O  O57  1  0.12253609  0.11825932  0.49399329  1
  O  O58  1  0.12253609  0.38174068  0.99399329  1
  O  O59  1  0.87746391  0.61825932  0.49399329  1
  O  O60  1  0.79144972  0.77666268  0.61194420  1
  O  O61  1  0.20855028  0.22333732  0.11194420  1
  O  O62  1  0.20855028  0.27666268  0.61194420  1
  O  O63  1  0.79144972  0.72333732  0.11194420  1
  O  O64  1  0.68799200  0.45920087  0.99995504  1
  O  O65  1  0.31200800  0.54079913  0.49995504  1
  O  O66  1  0.31200800  0.95920087  0.99995504  1
  O  O67  1  0.68799200  0.04079913  0.49995504  1
  O  O68  1  0.91991677  0.44246487  0.52648988  1
  O  O69  1  0.08008323  0.55753513  0.02648988  1
  O  O70  1  0.08008323  0.94246487  0.52648988  1
  O  O71  1  0.91991677  0.05753513  0.02648988  1
  O  O72  1  0.77083152  0.99945672  0.76165157  1
  O  O73  1  0.22916848  0.00054328  0.26165157  1
  O  O74  1  0.22916848  0.49945672  0.76165157  1
  O  O75  1  0.77083152  0.50054328  0.26165157  1
  O  O76  1  0.61552527  0.63294967  0.88567105  1
  O  O77  1  0.38447473  0.36705033  0.38567105  1
  O  O78  1  0.38447473  0.13294967  0.88567105  1
  O  O79  1  0.61552527  0.86705033  0.38567105  1
  O  O80  1  0.53612789  0.63419208  0.73117775  1
  O  O81  1  0.46387211  0.36580792  0.23117775  1
  O  O82  1  0.46387211  0.13419208  0.73117775  1
  O  O83  1  0.53612789  0.86580792  0.23117775  1
  O  O84  1  0.95269172  0.61512740  0.64764574  1
  O  O85  1  0.04730828  0.38487260  0.14764574  1
  O  O86  1  0.04730828  0.11512740  0.64764574  1
  O  O87  1  0.95269172  0.88487260  0.14764574  1
  O  O88  1  0.81856741  0.20914111  0.87481725  1
  O  O89  1  0.18143259  0.79085889  0.37481725  1
  O  O90  1  0.18143259  0.70914111  0.87481725  1
  O  O91  1  0.81856741  0.29085889  0.37481725  1
  O  O92  1  0.99170733  0.25386184  0.73316359  1
  O  O93  1  0.00829267  0.74613816  0.23316359  1
  O  O94  1  0.00829267  0.75386184  0.73316359  1
  O  O95  1  0.99170733  0.24613816  0.23316359  1
  O  O96  1  0.52773694  0.99733933  0.64390295  1
  O  O97  1  0.47226306  0.00266067  0.14390295  1
  O  O98  1  0.47226306  0.49733933  0.64390295  1
  O  O99  1  0.52773694  0.50266067  0.14390295  1
  O  O100  1  0.00531553  0.99784016  0.89868361  1
  O  O101  1  0.99468447  0.00215984  0.39868361  1
  O  O102  1  0.99468447  0.49784016  0.89868361  1
  O  O103  1  0.00531553  0.50215984  0.39868361  1
  O  O104  1  0.26109797  0.75025611  0.61766436  1
  O  O105  1  0.73890203  0.24974389  0.11766436  1
  O  O106  1  0.73890203  0.25025611  0.61766436  1
  O  O107  1  0.26109797  0.74974389  0.11766436  1
  O  O108  1  0.46714892  0.75020238  0.97867617  1
  O  O109  1  0.53285108  0.24979762  0.47867617  1
  O  O110  1  0.53285108  0.25020238  0.97867617  1
  O  O111  1  0.46714892  0.74979762  0.47867617  1
