# generated using pymatgen
data_Re2Sb4O13
_symmetry_space_group_name_H-M   'P 1'
_cell_length_a   7.72016492
_cell_length_b   9.38029433
_cell_length_c   9.94782483
_cell_angle_alpha   72.78376111
_cell_angle_beta   69.14915574
_cell_angle_gamma   66.84561515
_symmetry_Int_Tables_number   1
_chemical_formula_structural   Re2Sb4O13
_chemical_formula_sum   'Re4 Sb8 O26'
_cell_volume   608.69854796
_cell_formula_units_Z   2
loop_
 _symmetry_equiv_pos_site_id
 _symmetry_equiv_pos_as_xyz
  1  'x, y, z'
loop_
 _atom_site_type_symbol
 _atom_site_label
 _atom_site_symmetry_multiplicity
 _atom_site_fract_x
 _atom_site_fract_y
 _atom_site_fract_z
 _atom_site_occupancy
  Re  Re0  1  0.32103616  0.54595161  0.21955287  1
  Re  Re1  1  0.67896384  0.45404839  0.78044713  1
  Re  Re2  1  0.14938812  0.67263645  0.63147048  1
  Re  Re3  1  0.85061188  0.32736355  0.36852952  1
  Sb  Sb4  1  0.78883474  0.09718239  0.11003468  1
  Sb  Sb5  1  0.21116526  0.90281761  0.88996532  1
  Sb  Sb6  1  0.70104041  0.84408245  0.44265089  1
  Sb  Sb7  1  0.29895959  0.15591755  0.55734911  1
  Sb  Sb8  1  0.79208006  0.73400502  0.04090671  1
  Sb  Sb9  1  0.20791994  0.26599498  0.95909329  1
  Sb  Sb10  1  0.67074743  0.04002286  0.73481672  1
  Sb  Sb11  1  0.32925257  0.95997714  0.26518328  1
  O  O12  1  0.92674514  0.90560824  0.99557860  1
  O  O13  1  0.07325486  0.09439176  0.00442140  1
  O  O14  1  0.57224368  0.99346654  0.59348886  1
  O  O15  1  0.42775632  0.00653346  0.40651114  1
  O  O16  1  0.84873733  0.97740516  0.29469326  1
  O  O17  1  0.15126267  0.02259484  0.70530674  1
  O  O18  1  0.65482131  0.85448978  0.88974914  1
  O  O19  1  0.34517869  0.14551022  0.11025086  1
  O  O20  1  0.62100297  0.86680707  0.19409067  1
  O  O21  1  0.37899703  0.13319293  0.80590933  1
  O  O22  1  0.48706752  0.65289527  0.15018307  1
  O  O23  1  0.51293248  0.34710473  0.84981693  1
  O  O24  1  0.14151869  0.62111151  0.36911957  1
  O  O25  1  0.85848131  0.37888849  0.63088043  1
  O  O26  1  0.43804232  0.34680339  0.27247328  1
  O  O27  1  0.56195768  0.65319661  0.72752672  1
  O  O28  1  0.21263431  0.57044996  0.08458859  1
  O  O29  1  0.78736569  0.42955004  0.91541141  1
  O  O30  1  0.13555457  0.70887543  0.79838250  1
  O  O31  1  0.86444543  0.29112457  0.20161750  1
  O  O32  1  0.93668418  0.80991137  0.58168169  1
  O  O33  1  0.06331582  0.19008863  0.41831831  1
  O  O34  1  0.15503121  0.47943191  0.66634709  1
  O  O35  1  0.84496879  0.52056809  0.33365291  1
  O  O36  1  0.36198871  0.69871809  0.50375032  1
  O  O37  1  0.63801129  0.30128191  0.49624968  1
