# generated using pymatgen
data_NdMn2O5
_symmetry_space_group_name_H-M   'P 1'
_cell_length_a   5.72160062
_cell_length_b   7.49457793
_cell_length_c   8.63264079
_cell_angle_alpha   90.00000000
_cell_angle_beta   90.00000000
_cell_angle_gamma   90.00000000
_symmetry_Int_Tables_number   1
_chemical_formula_structural   NdMn2O5
_chemical_formula_sum   'Nd4 Mn8 O20'
_cell_volume   370.17611201
_cell_formula_units_Z   4
loop_
 _symmetry_equiv_pos_site_id
 _symmetry_equiv_pos_as_xyz
  1  'x, y, z'
loop_
 _atom_site_type_symbol
 _atom_site_label
 _atom_site_symmetry_multiplicity
 _atom_site_fract_x
 _atom_site_fract_y
 _atom_site_fract_z
 _atom_site_occupancy
  Nd  Nd0  1  -0.00000000  0.35872534  0.67248765  1
  Nd  Nd1  1  -0.00000000  0.64127466  0.32751235  1
  Nd  Nd2  1  -0.00000000  0.85872534  0.82751235  1
  Nd  Nd3  1  -0.00000000  0.14127466  0.17248765  1
  Mn  Mn4  1  0.50000000  0.08956823  0.85089154  1
  Mn  Mn5  1  0.50000000  0.91043177  0.14910846  1
  Mn  Mn6  1  0.50000000  0.58956823  0.64910846  1
  Mn  Mn7  1  0.50000000  0.41043177  0.35089154  1
  Mn  Mn8  1  0.25729344  0.50000000  -0.00000000  1
  Mn  Mn9  1  0.74270656  -0.00000000  0.50000000  1
  Mn  Mn10  1  0.74270656  0.50000000  -0.00000000  1
  Mn  Mn11  1  0.25729344  -0.00000000  0.50000000  1
  O  O12  1  0.25065818  0.90162944  0.29400732  1
  O  O13  1  0.25065818  0.09837056  0.70599268  1
  O  O14  1  0.74934182  0.40162944  0.20599268  1
  O  O15  1  0.74934182  0.59837056  0.79400732  1
  O  O16  1  0.74934182  0.09837056  0.70599268  1
  O  O17  1  0.74934182  0.90162944  0.29400732  1
  O  O18  1  0.25065818  0.59837056  0.79400732  1
  O  O19  1  0.25065818  0.40162944  0.20599268  1
  O  O20  1  0.50000000  0.34679705  0.93743574  1
  O  O21  1  0.50000000  0.65320295  0.06256426  1
  O  O22  1  0.50000000  0.84679705  0.56256426  1
  O  O23  1  0.50000000  0.15320295  0.43743574  1
  O  O24  1  0.27810495  -0.00000000  -0.00000000  1
  O  O25  1  0.72189505  0.50000000  0.50000000  1
  O  O26  1  0.72189505  -0.00000000  -0.00000000  1
  O  O27  1  0.27810495  0.50000000  0.50000000  1
  O  O28  1  -0.00000000  0.15717693  0.44847031  1
  O  O29  1  -0.00000000  0.84282307  0.55152969  1
  O  O30  1  -0.00000000  0.65717693  0.05152969  1
  O  O31  1  -0.00000000  0.34282307  0.94847031  1
