# generated using pymatgen
data_SrTh2Se5
_symmetry_space_group_name_H-M   'P 1'
_cell_length_a   7.95262790
_cell_length_b   8.78740642
_cell_length_c   12.65533523
_cell_angle_alpha   90.02803242
_cell_angle_beta   90.00000000
_cell_angle_gamma   90.00000000
_symmetry_Int_Tables_number   1
_chemical_formula_structural   SrTh2Se5
_chemical_formula_sum   'Sr4 Th8 Se20'
_cell_volume   884.39235045
_cell_formula_units_Z   4
loop_
 _symmetry_equiv_pos_site_id
 _symmetry_equiv_pos_as_xyz
  1  'x, y, z'
loop_
 _atom_site_type_symbol
 _atom_site_label
 _atom_site_symmetry_multiplicity
 _atom_site_fract_x
 _atom_site_fract_y
 _atom_site_fract_z
 _atom_site_occupancy
  Sr  Sr0  1  0.96589109  0.50556085  0.82582195  1
  Sr  Sr1  1  0.46589109  0.49443915  0.67417805  1
  Sr  Sr2  1  0.03410891  0.49443915  0.17417805  1
  Sr  Sr3  1  0.53410891  0.50556085  0.32582195  1
  Th  Th4  1  0.57383534  0.25180284  0.00825436  1
  Th  Th5  1  0.92616466  0.25180284  0.50825436  1
  Th  Th6  1  0.42616466  0.74819716  0.99174564  1
  Th  Th7  1  0.07383534  0.74819716  0.49174564  1
  Th  Th8  1  0.51780685  0.00206811  0.32047833  1
  Th  Th9  1  0.01780685  0.99793189  0.17952167  1
  Th  Th10  1  0.48219315  0.99793189  0.67952167  1
  Th  Th11  1  0.98219315  0.00206811  0.82047833  1
  Se  Se12  1  0.83961781  0.95750594  0.60136378  1
  Se  Se13  1  0.82830182  0.77497877  0.31491566  1
  Se  Se14  1  0.67169818  0.77497877  0.81491566  1
  Se  Se15  1  0.17169818  0.22502123  0.68508434  1
  Se  Se16  1  0.54287859  0.22184461  0.50174262  1
  Se  Se17  1  0.04287859  0.77815539  0.99825738  1
  Se  Se18  1  0.45712141  0.77815539  0.49825738  1
  Se  Se19  1  0.95712141  0.22184461  0.00174262  1
  Se  Se20  1  0.19733391  0.76441898  0.71669067  1
  Se  Se21  1  0.69733391  0.23558102  0.78330933  1
  Se  Se22  1  0.80266609  0.23558102  0.28330933  1
  Se  Se23  1  0.66038219  0.95750594  0.10136378  1
  Se  Se24  1  0.82840602  0.54087640  0.58924219  1
  Se  Se25  1  0.32840602  0.45912360  0.91075781  1
  Se  Se26  1  0.17159398  0.45912360  0.41075781  1
  Se  Se27  1  0.67159398  0.54087640  0.08924219  1
  Se  Se28  1  0.30266609  0.76441898  0.21669067  1
  Se  Se29  1  0.33961781  0.04249406  0.89863622  1
  Se  Se30  1  0.16038219  0.04249406  0.39863622  1
  Se  Se31  1  0.32830182  0.22502123  0.18508434  1
