# generated using pymatgen
data_LaTh4OF19
_symmetry_space_group_name_H-M   'P 1'
_cell_length_a   8.19557466
_cell_length_b   7.29070706
_cell_length_c   12.14766283
_cell_angle_alpha   72.51501180
_cell_angle_beta   90.00000000
_cell_angle_gamma   90.00000000
_symmetry_Int_Tables_number   1
_chemical_formula_structural   LaTh4OF19
_chemical_formula_sum   'La2 Th8 O2 F38'
_cell_volume   692.30449454
_cell_formula_units_Z   2
loop_
 _symmetry_equiv_pos_site_id
 _symmetry_equiv_pos_as_xyz
  1  'x, y, z'
loop_
 _atom_site_type_symbol
 _atom_site_label
 _atom_site_symmetry_multiplicity
 _atom_site_fract_x
 _atom_site_fract_y
 _atom_site_fract_z
 _atom_site_occupancy
  La  La0  1  0.25000000  0.30039389  0.38189574  1
  La  La1  1  0.75000000  0.69960611  0.61810426  1
  Th  Th2  1  0.75000000  0.65169913  0.00000112  1
  Th  Th3  1  0.25000000  0.34830087  -0.00000112  1
  Th  Th4  1  0.00038039  0.86398266  0.27495640  1
  Th  Th5  1  0.49961961  0.86398266  0.27495640  1
  Th  Th6  1  -0.00038039  0.13601734  0.72504360  1
  Th  Th7  1  0.50038039  0.13601734  0.72504360  1
  Th  Th8  1  0.75000000  0.31742878  0.38529202  1
  Th  Th9  1  0.25000000  0.68257122  0.61470798  1
  O  O10  1  0.25000000  0.72935756  0.99925086  1
  O  O11  1  0.75000000  0.27064244  0.00074914  1
  F  F12  1  0.25000000  0.98020158  0.33699665  1
  F  F13  1  0.75000000  0.68777885  0.34612795  1
  F  F14  1  0.75000000  0.01979842  0.66300335  1
  F  F15  1  0.25000000  0.31222115  0.65387205  1
  F  F16  1  0.25000000  0.57040962  0.45645377  1
  F  F17  1  0.75000000  0.98947668  0.45426235  1
  F  F18  1  0.75000000  0.42959038  0.54354623  1
  F  F19  1  0.25000000  0.01052332  0.54573765  1
  F  F20  1  0.25000000  0.74848360  0.22316578  1
  F  F21  1  0.75000000  0.02412172  0.21605712  1
  F  F22  1  0.75000000  0.25151640  0.77683422  1
  F  F23  1  0.25000000  0.97587828  0.78394288  1
  F  F24  1  0.91791614  0.77236988  0.11895895  1
  F  F25  1  0.08323026  0.10422055  0.11529009  1
  F  F26  1  0.58208386  0.77236988  0.11895895  1
  F  F27  1  0.41676974  0.10422055  0.11529009  1
  F  F28  1  0.08208386  0.22763012  0.88104105  1
  F  F29  1  0.91676974  0.89577945  0.88470991  1
  F  F30  1  0.41791614  0.22763012  0.88104105  1
  F  F31  1  0.58323026  0.89577945  0.88470991  1
  F  F32  1  0.99331364  0.23025929  0.52013740  1
  F  F33  1  0.50668636  0.23025929  0.52013740  1
  F  F34  1  0.00668636  0.76974071  0.47986260  1
  F  F35  1  0.49331364  0.76974071  0.47986260  1
  F  F36  1  -0.00000000  0.50000000  -0.00000000  1
  F  F37  1  0.50000000  0.50000000  -0.00000000  1
  F  F38  1  0.75000000  0.61177209  0.81955793  1
  F  F39  1  0.25000000  0.56995157  0.81138882  1
  F  F40  1  0.25000000  0.38822791  0.18044207  1
  F  F41  1  0.75000000  0.43004843  0.18861118  1
  F  F42  1  0.00143539  0.51293619  0.32931796  1
  F  F43  1  0.98321434  0.16571854  0.32076744  1
  F  F44  1  0.49856461  0.51293619  0.32931796  1
  F  F45  1  0.51678566  0.16571854  0.32076744  1
  F  F46  1  0.99856461  0.48706381  0.67068204  1
  F  F47  1  0.01678566  0.83428146  0.67923256  1
  F  F48  1  0.50143539  0.48706381  0.67068204  1
  F  F49  1  0.48321434  0.83428146  0.67923256  1
