# generated using pymatgen
data_Tl3AsO4
_symmetry_space_group_name_H-M   'P 1'
_cell_length_a   8.67649018
_cell_length_b   8.67720622
_cell_length_c   5.22018182
_cell_angle_alpha   89.99861594
_cell_angle_beta   89.99865775
_cell_angle_gamma   119.99573475
_symmetry_Int_Tables_number   1
_chemical_formula_structural   Tl3AsO4
_chemical_formula_sum   'Tl6 As2 O8'
_cell_volume   340.37599466
_cell_formula_units_Z   2
loop_
 _symmetry_equiv_pos_site_id
 _symmetry_equiv_pos_as_xyz
  1  'x, y, z'
loop_
 _atom_site_type_symbol
 _atom_site_label
 _atom_site_symmetry_multiplicity
 _atom_site_fract_x
 _atom_site_fract_y
 _atom_site_fract_z
 _atom_site_occupancy
  Tl  Tl0  1  0.72817511  0.08754779  0.00315129  1
  Tl  Tl1  1  0.91243618  0.64062405  0.00314294  1
  Tl  Tl2  1  0.64063882  0.72820100  0.50314048  1
  Tl  Tl3  1  0.27182091  0.91247060  0.50317770  1
  Tl  Tl4  1  0.08756343  0.35938072  0.50317223  1
  Tl  Tl5  1  0.35934645  0.27182410  0.00320125  1
  As  As6  1  0.33334056  0.66667631  0.98401236  1
  As  As7  1  0.66666117  0.33330671  0.48394507  1
  O  O8  1  0.60384173  0.12337580  0.58371016  1
  O  O9  1  0.48054219  0.60385307  0.08374408  1
  O  O10  1  0.12333715  0.51946852  0.08373846  1
  O  O11  1  0.87659348  0.48046943  0.58370714  1
  O  O12  1  0.33335860  0.66672431  0.65344236  1
  O  O13  1  0.39616733  0.87666606  0.08371743  1
  O  O14  1  0.66664857  0.33329329  0.15348192  1
  O  O15  1  0.51952832  0.39611922  0.58371414  1
