# generated using pymatgen
data_KHfMg14O15
_symmetry_space_group_name_H-M   'P 1'
_cell_length_a   8.66891787
_cell_length_b   8.74881754
_cell_length_c   4.42313614
_cell_angle_alpha   90.00000000
_cell_angle_beta   90.00000000
_cell_angle_gamma   90.00000000
_symmetry_Int_Tables_number   1
_chemical_formula_structural   KHfMg14O15
_chemical_formula_sum   'K1 Hf1 Mg14 O15'
_cell_volume   335.46294433
_cell_formula_units_Z   1
loop_
 _symmetry_equiv_pos_site_id
 _symmetry_equiv_pos_as_xyz
  1  'x, y, z'
loop_
 _atom_site_type_symbol
 _atom_site_label
 _atom_site_symmetry_multiplicity
 _atom_site_fract_x
 _atom_site_fract_y
 _atom_site_fract_z
 _atom_site_occupancy
  K  K0  1  0.00054467  0.00000000  -0.00000000  1
  Hf  Hf1  1  0.00895120  0.50000000  -0.00000000  1
  Mg  Mg2  1  0.50074410  0.00000000  -0.00000000  1
  Mg  Mg3  1  0.50186075  0.50000000  -0.00000000  1
  Mg  Mg4  1  0.00048567  0.23870114  0.50000000  1
  Mg  Mg5  1  0.00048567  0.76129886  0.50000000  1
  Mg  Mg6  1  0.49935580  0.24825388  0.50000000  1
  Mg  Mg7  1  0.49935580  0.75174612  0.50000000  1
  Mg  Mg8  1  0.25395644  0.00000000  0.50000000  1
  Mg  Mg9  1  0.25342303  0.50000000  0.50000000  1
  Mg  Mg10  1  0.74670566  0.00000000  0.50000000  1
  Mg  Mg11  1  0.74444763  0.50000000  0.50000000  1
  Mg  Mg12  1  0.25945102  0.24061168  -0.00000000  1
  Mg  Mg13  1  0.25945102  0.75938832  0.00000000  1
  Mg  Mg14  1  0.74181157  0.24500075  -0.00000000  1
  Mg  Mg15  1  0.74181157  0.75499925  -0.00000000  1
  O  O16  1  0.27624507  0.00000000  -0.00000000  1
  O  O17  1  0.72489909  0.00000000  -0.00000000  1
  O  O18  1  0.74537898  0.50000000  -0.00000000  1
  O  O19  1  0.25000269  0.24324694  0.50000000  1
  O  O20  1  0.25000269  0.75675306  0.50000000  1
  O  O21  1  0.75031072  0.25032021  0.50000000  1
  O  O22  1  0.75031072  0.74967979  0.50000000  1
  O  O23  1  0.99793478  0.00000000  0.50000000  1
  O  O24  1  0.99451952  0.50000000  0.50000000  1
  O  O25  1  0.50123020  0.00000000  0.50000000  1
  O  O26  1  0.50062471  0.50000000  0.50000000  1
  O  O27  1  0.99771037  0.27060404  -0.00000000  1
  O  O28  1  0.99771037  0.72939596  -0.00000000  1
  O  O29  1  0.50013924  0.25729851  -0.00000000  1
  O  O30  1  0.50013924  0.74270149  -0.00000000  1
