# generated using pymatgen
data_Sm4Au2O9
_symmetry_space_group_name_H-M   'P 1'
_cell_length_a   6.03827504
_cell_length_b   11.84807131
_cell_length_c   11.86039160
_cell_angle_alpha   90.00000000
_cell_angle_beta   90.00000000
_cell_angle_gamma   90.00000000
_symmetry_Int_Tables_number   1
_chemical_formula_structural   Sm4Au2O9
_chemical_formula_sum   'Sm16 Au8 O36'
_cell_volume   848.51510712
_cell_formula_units_Z   4
loop_
 _symmetry_equiv_pos_site_id
 _symmetry_equiv_pos_as_xyz
  1  'x, y, z'
loop_
 _atom_site_type_symbol
 _atom_site_label
 _atom_site_symmetry_multiplicity
 _atom_site_fract_x
 _atom_site_fract_y
 _atom_site_fract_z
 _atom_site_occupancy
  Sm  Sm0  1  0.25833060  0.98849109  0.08996063  1
  Sm  Sm1  1  0.25833060  0.01150891  0.41003937  1
  Sm  Sm2  1  0.24166940  0.51150891  0.58996063  1
  Sm  Sm3  1  0.24166940  0.48849109  0.91003937  1
  Sm  Sm4  1  0.74166940  0.01150891  0.91003937  1
  Sm  Sm5  1  0.74166940  0.98849109  0.58996063  1
  Sm  Sm6  1  0.75833060  0.48849109  0.41003937  1
  Sm  Sm7  1  0.75833060  0.51150891  0.08996063  1
  Sm  Sm8  1  0.19742433  0.65900099  0.26402690  1
  Sm  Sm9  1  0.19742433  0.34099901  0.23597310  1
  Sm  Sm10  1  0.30257567  0.84099901  0.76402690  1
  Sm  Sm11  1  0.30257567  0.15900099  0.73597310  1
  Sm  Sm12  1  0.80257567  0.34099901  0.73597310  1
  Sm  Sm13  1  0.80257567  0.65900099  0.76402690  1
  Sm  Sm14  1  0.69742433  0.15900099  0.23597310  1
  Sm  Sm15  1  0.69742433  0.84099901  0.26402690  1
  Au  Au16  1  0.41876806  0.72823649  0.01065788  1
  Au  Au17  1  0.41876806  0.27176351  0.48934212  1
  Au  Au18  1  0.08123194  0.77176351  0.51065788  1
  Au  Au19  1  0.08123194  0.22823649  0.98934212  1
  Au  Au20  1  0.58123194  0.27176351  0.98934212  1
  Au  Au21  1  0.58123194  0.72823649  0.51065788  1
  Au  Au22  1  0.91876806  0.22823649  0.48934212  1
  Au  Au23  1  0.91876806  0.77176351  0.01065788  1
  O  O24  1  0.06154179  0.61509149  0.44597170  1
  O  O25  1  0.06154179  0.38490851  0.05402830  1
  O  O26  1  0.43845821  0.88490851  0.94597170  1
  O  O27  1  0.43845821  0.11509149  0.55402830  1
  O  O28  1  0.93845821  0.38490851  0.55402830  1
  O  O29  1  0.93845821  0.61509149  0.94597170  1
  O  O30  1  0.56154179  0.11509149  0.05402830  1
  O  O31  1  0.56154179  0.88490851  0.44597170  1
  O  O32  1  0.06125879  0.83682029  0.35127584  1
  O  O33  1  0.06125879  0.16317971  0.14872416  1
  O  O34  1  0.43874121  0.66317971  0.85127584  1
  O  O35  1  0.43874121  0.33682029  0.64872416  1
  O  O36  1  0.93874121  0.16317971  0.64872416  1
  O  O37  1  0.93874121  0.83682029  0.85127584  1
  O  O38  1  0.37306650  0.80290503  0.15847651  1
  O  O39  1  0.56125879  0.33682029  0.14872416  1
  O  O40  1  0.38579566  0.57636252  0.08876233  1
  O  O41  1  0.38579566  0.42363748  0.41123767  1
  O  O42  1  0.11420434  0.92363748  0.58876233  1
  O  O43  1  0.11420434  0.07636252  0.91123767  1
  O  O44  1  0.61420434  0.42363748  0.91123767  1
  O  O45  1  0.61420434  0.57636252  0.58876233  1
  O  O46  1  0.88579566  0.07636252  0.41123767  1
  O  O47  1  0.88579566  0.92363748  0.08876233  1
  O  O48  1  0.97623993  0.50000000  0.25000000  1
  O  O49  1  0.52376007  -0.00000000  0.75000000  1
  O  O50  1  0.02376007  0.50000000  0.75000000  1
  O  O51  1  0.47623993  -0.00000000  0.25000000  1
  O  O52  1  0.87306650  0.69709497  0.15847651  1
  O  O53  1  0.87306650  0.30290503  0.34152349  1
  O  O54  1  0.62693350  0.80290503  0.65847651  1
  O  O55  1  0.62693350  0.19709497  0.84152349  1
  O  O56  1  0.12693350  0.30290503  0.84152349  1
  O  O57  1  0.12693350  0.69709497  0.65847651  1
  O  O58  1  0.37306650  0.19709497  0.34152349  1
  O  O59  1  0.56125879  0.66317971  0.35127584  1
