# generated using pymatgen
data_Mg14FeSnO16
_symmetry_space_group_name_H-M   'P 1'
_cell_length_a   8.70459022
_cell_length_b   8.67460970
_cell_length_c   4.37350162
_cell_angle_alpha   90.00000000
_cell_angle_beta   90.00000000
_cell_angle_gamma   90.00000000
_symmetry_Int_Tables_number   1
_chemical_formula_structural   Mg14FeSnO16
_chemical_formula_sum   'Mg14 Fe1 Sn1 O16'
_cell_volume   330.23839600
_cell_formula_units_Z   1
loop_
 _symmetry_equiv_pos_site_id
 _symmetry_equiv_pos_as_xyz
  1  'x, y, z'
loop_
 _atom_site_type_symbol
 _atom_site_label
 _atom_site_symmetry_multiplicity
 _atom_site_fract_x
 _atom_site_fract_y
 _atom_site_fract_z
 _atom_site_occupancy
  Mg  Mg0  1  0.50000000  0.00000000  0.00000000  1
  Mg  Mg1  1  0.50000000  0.50000000  0.00000000  1
  Mg  Mg2  1  0.00000000  0.24006927  0.50000000  1
  Mg  Mg3  1  0.00000000  0.75993073  0.50000000  1
  Mg  Mg4  1  0.50000000  0.24785557  0.50000000  1
  Mg  Mg5  1  0.50000000  0.75214443  0.50000000  1
  Mg  Mg6  1  0.25090493  0.00000000  0.50000000  1
  Mg  Mg7  1  0.25938351  0.50000000  0.50000000  1
  Mg  Mg8  1  0.74909507  0.00000000  0.50000000  1
  Mg  Mg9  1  0.74061649  0.50000000  0.50000000  1
  Mg  Mg10  1  0.25615460  0.24484798  0.00000000  1
  Mg  Mg11  1  0.25615460  0.75515202  0.00000000  1
  Mg  Mg12  1  0.74384540  0.24484798  0.00000000  1
  Mg  Mg13  1  0.74384540  0.75515202  0.00000000  1
  Fe  Fe14  1  0.00000000  0.00000000  0.00000000  1
  Sn  Sn15  1  0.00000000  0.50000000  0.00000000  1
  O  O16  1  0.26070025  0.00000000  0.00000000  1
  O  O17  1  0.27144615  0.50000000  0.00000000  1
  O  O18  1  0.73929975  0.00000000  0.00000000  1
  O  O19  1  0.72855385  0.50000000  0.00000000  1
  O  O20  1  0.24919554  0.24958358  0.50000000  1
  O  O21  1  0.24919554  0.75041642  0.50000000  1
  O  O22  1  0.75080446  0.24958358  0.50000000  1
  O  O23  1  0.75080446  0.75041642  0.50000000  1
  O  O24  1  0.00000000  0.00000000  0.50000000  1
  O  O25  1  0.00000000  0.50000000  0.50000000  1
  O  O26  1  0.50000000  0.00000000  0.50000000  1
  O  O27  1  0.50000000  0.50000000  0.50000000  1
  O  O28  1  0.00000000  0.23000984  0.00000000  1
  O  O29  1  0.00000000  0.76999016  0.00000000  1
  O  O30  1  0.50000000  0.24748696  0.00000000  1
  O  O31  1  0.50000000  0.75251304  0.00000000  1
