# generated using pymatgen
data_Na2ZrSi3O10
_symmetry_space_group_name_H-M   'P 1'
_cell_length_a   7.16061397
_cell_length_b   10.29415456
_cell_length_c   13.40324095
_cell_angle_alpha   90.00000000
_cell_angle_beta   90.00000000
_cell_angle_gamma   90.00000000
_symmetry_Int_Tables_number   1
_chemical_formula_structural   Na2ZrSi3O10
_chemical_formula_sum   'Na8 Zr4 Si12 O40'
_cell_volume   987.98595557
_cell_formula_units_Z   4
loop_
 _symmetry_equiv_pos_site_id
 _symmetry_equiv_pos_as_xyz
  1  'x, y, z'
loop_
 _atom_site_type_symbol
 _atom_site_label
 _atom_site_symmetry_multiplicity
 _atom_site_fract_x
 _atom_site_fract_y
 _atom_site_fract_z
 _atom_site_occupancy
  Na  Na0  1  0.25026042  0.41513586  0.08929504  1
  Na  Na1  1  0.24973958  0.58486414  0.58929504  1
  Na  Na2  1  0.74973958  0.91513586  0.41070496  1
  Na  Na3  1  0.75026042  0.08486414  0.91070496  1
  Na  Na4  1  0.18585785  0.26442662  0.35264782  1
  Na  Na5  1  0.31414215  0.73557338  0.85264782  1
  Na  Na6  1  0.81414215  0.76442662  0.14735218  1
  Na  Na7  1  0.68585785  0.23557338  0.64735218  1
  Zr  Zr8  1  0.26262792  0.04276747  0.79658482  1
  Zr  Zr9  1  0.23737208  0.95723253  0.29658482  1
  Zr  Zr10  1  0.73737208  0.54276747  0.70341518  1
  Zr  Zr11  1  0.76262792  0.45723253  0.20341518  1
  Si  Si12  1  0.06965335  0.65196377  0.33365988  1
  Si  Si13  1  0.43034665  0.34803623  0.83365988  1
  Si  Si14  1  0.93034665  0.15196377  0.16634012  1
  Si  Si15  1  0.56965335  0.84803623  0.66634012  1
  Si  Si16  1  0.23334103  0.02469751  0.05320557  1
  Si  Si17  1  0.26665897  0.97530249  0.55320557  1
  Si  Si18  1  0.76665897  0.52469751  0.44679443  1
  Si  Si19  1  0.73334103  0.47530249  0.94679443  1
  Si  Si20  1  0.50680297  0.18413860  0.16997901  1
  Si  Si21  1  0.99319703  0.81586140  0.66997901  1
  Si  Si22  1  0.49319703  0.68413860  0.33002099  1
  Si  Si23  1  0.00680297  0.31586140  0.83002099  1
  O  O24  1  0.24628682  0.07967996  0.64340308  1
  O  O25  1  0.25371318  0.92032004  0.14340308  1
  O  O26  1  0.75371318  0.57967996  0.85659692  1
  O  O27  1  0.74628682  0.42032004  0.35659692  1
  O  O28  1  0.03749193  0.80900965  0.32516593  1
  O  O29  1  0.46250807  0.19099035  0.82516593  1
  O  O30  1  0.96250807  0.30900965  0.17483407  1
  O  O31  1  0.53749193  0.69099035  0.67483407  1
  O  O32  1  0.40630400  0.12565690  0.26922189  1
  O  O33  1  0.09369600  0.87434310  0.76922189  1
  O  O34  1  0.59369600  0.62565690  0.23077811  1
  O  O35  1  0.90630400  0.37434310  0.73077811  1
  O  O36  1  0.37847301  0.14920902  0.07125569  1
  O  O37  1  0.12152699  0.85079098  0.57125569  1
  O  O38  1  0.62152699  0.64920902  0.42874431  1
  O  O39  1  0.87847301  0.35079098  0.92874431  1
  O  O40  1  0.02146310  0.09104285  0.06235511  1
  O  O41  1  0.47853690  0.90895715  0.56235511  1
  O  O42  1  0.97853690  0.59104285  0.43764489  1
  O  O43  1  0.52146310  0.40895715  0.93764489  1
  O  O44  1  0.00550068  0.27548043  0.58273335  1
  O  O45  1  0.49449932  0.72451957  0.08273335  1
  O  O46  1  0.99449932  0.77548043  0.91726665  1
  O  O47  1  0.50550068  0.22451957  0.41726665  1
  O  O48  1  0.23170377  0.03248351  0.44273279  1
  O  O49  1  0.26829623  0.96751649  0.94273279  1
  O  O50  1  0.76829623  0.53248351  0.05726721  1
  O  O51  1  0.73170377  0.46751649  0.55726721  1
  O  O52  1  0.52703033  0.34097954  0.17512493  1
  O  O53  1  0.97296967  0.65902046  0.67512493  1
  O  O54  1  0.47296967  0.84097954  0.32487507  1
  O  O55  1  0.02703033  0.15902046  0.82487507  1
  O  O56  1  0.70937630  0.11368657  0.15105593  1
  O  O57  1  0.79062370  0.88631343  0.65105593  1
  O  O58  1  0.29062370  0.61368657  0.34894407  1
  O  O59  1  0.20937630  0.38631343  0.84894407  1
  O  O60  1  0.01012172  0.08230542  0.26625296  1
  O  O61  1  0.48987828  0.91769458  0.76625296  1
  O  O62  1  0.98987828  0.58230542  0.23374704  1
  O  O63  1  0.51012172  0.41769458  0.73374704  1
