# generated using pymatgen
data_Pr(TmS2)3
_symmetry_space_group_name_H-M   'P 1'
_cell_length_a   3.94853975
_cell_length_b   10.97874707
_cell_length_c   11.23171169
_cell_angle_alpha   71.10809175
_cell_angle_beta   90.00000000
_cell_angle_gamma   90.00000000
_symmetry_Int_Tables_number   1
_chemical_formula_structural   Pr(TmS2)3
_chemical_formula_sum   'Pr2 Tm6 S12'
_cell_volume   460.66642139
_cell_formula_units_Z   2
loop_
 _symmetry_equiv_pos_site_id
 _symmetry_equiv_pos_as_xyz
  1  'x, y, z'
loop_
 _atom_site_type_symbol
 _atom_site_label
 _atom_site_symmetry_multiplicity
 _atom_site_fract_x
 _atom_site_fract_y
 _atom_site_fract_z
 _atom_site_occupancy
  Pr  Pr0  1  0.75000000  0.55006282  0.80384038  1
  Pr  Pr1  1  0.25000000  0.44993718  0.19615962  1
  Tm  Tm2  1  0.75000000  0.17903046  0.99850732  1
  Tm  Tm3  1  0.25000000  0.82096954  0.00149268  1
  Tm  Tm4  1  0.75000000  0.94267208  0.66665731  1
  Tm  Tm5  1  0.25000000  0.05732792  0.33334269  1
  Tm  Tm6  1  0.75000000  0.66170984  0.41222162  1
  Tm  Tm7  1  0.25000000  0.33829016  0.58777838  1
  S  S8  1  0.75000000  0.97763997  0.88820676  1
  S  S9  1  0.25000000  0.02236003  0.11179324  1
  S  S10  1  0.75000000  0.30108458  0.74872283  1
  S  S11  1  0.25000000  0.69891542  0.25127717  1
  S  S12  1  0.75000000  0.89382496  0.44200678  1
  S  S13  1  0.25000000  0.10617504  0.55799322  1
  S  S14  1  0.75000000  0.41829321  0.40850993  1
  S  S15  1  0.25000000  0.58170679  0.59149007  1
  S  S16  1  0.75000000  0.23164041  0.22917573  1
  S  S17  1  0.25000000  0.76835959  0.77082427  1
  S  S18  1  0.75000000  0.62094676  0.03621753  1
  S  S19  1  0.25000000  0.37905324  0.96378247  1
