# generated using pymatgen
data_Pm2MgS4
_symmetry_space_group_name_H-M   'P 1'
_cell_length_a   16.17480023
_cell_length_b   16.17480629
_cell_length_c   16.17480629
_cell_angle_alpha   59.99997521
_cell_angle_beta   60.00001239
_cell_angle_gamma   60.00001239
_symmetry_Int_Tables_number   1
_chemical_formula_structural   Pm2MgS4
_chemical_formula_sum   'Pm32 Mg16 S64'
_cell_volume   2992.27913679
_cell_formula_units_Z   16
loop_
 _symmetry_equiv_pos_site_id
 _symmetry_equiv_pos_as_xyz
  1  'x, y, z'
loop_
 _atom_site_type_symbol
 _atom_site_label
 _atom_site_symmetry_multiplicity
 _atom_site_fract_x
 _atom_site_fract_y
 _atom_site_fract_z
 _atom_site_occupancy
  Pm  Pm0  1  0.31250000  0.06250000  0.31250000  1
  Pm  Pm1  1  0.31250000  0.06250000  0.81250000  1
  Pm  Pm2  1  0.31250000  0.56250000  0.31250000  1
  Pm  Pm3  1  0.31250000  0.56250000  0.81250000  1
  Pm  Pm4  1  0.81250000  0.06250000  0.31250000  1
  Pm  Pm5  1  0.81250000  0.06250000  0.81250000  1
  Pm  Pm6  1  0.81250000  0.56250000  0.31250000  1
  Pm  Pm7  1  0.81250000  0.56250000  0.81250000  1
  Pm  Pm8  1  0.31250000  0.31250000  0.06250000  1
  Pm  Pm9  1  0.31250000  0.31250000  0.56250000  1
  Pm  Pm10  1  0.31250000  0.81250000  0.06250000  1
  Pm  Pm11  1  0.31250000  0.81250000  0.56250000  1
  Pm  Pm12  1  0.81250000  0.31250000  0.06250000  1
  Pm  Pm13  1  0.81250000  0.31250000  0.56250000  1
  Pm  Pm14  1  0.81250000  0.81250000  0.06250000  1
  Pm  Pm15  1  0.81250000  0.81250000  0.56250000  1
  Pm  Pm16  1  0.06250000  0.31250000  0.31250000  1
  Pm  Pm17  1  0.06250000  0.31250000  0.81250000  1
  Pm  Pm18  1  0.06250000  0.81250000  0.31250000  1
  Pm  Pm19  1  0.06250000  0.81250000  0.81250000  1
  Pm  Pm20  1  0.56250000  0.31250000  0.31250000  1
  Pm  Pm21  1  0.56250000  0.31250000  0.81250000  1
  Pm  Pm22  1  0.56250000  0.81250000  0.31250000  1
  Pm  Pm23  1  0.56250000  0.81250000  0.81250000  1
  Pm  Pm24  1  0.31250000  0.31250000  0.31250000  1
  Pm  Pm25  1  0.31250000  0.31250000  0.81250000  1
  Pm  Pm26  1  0.31250000  0.81250000  0.31250000  1
  Pm  Pm27  1  0.31250000  0.81250000  0.81250000  1
  Pm  Pm28  1  0.81250000  0.31250000  0.31250000  1
  Pm  Pm29  1  0.81250000  0.31250000  0.81250000  1
  Pm  Pm30  1  0.81250000  0.81250000  0.31250000  1
  Pm  Pm31  1  0.81250000  0.81250000  0.81250000  1
  Mg  Mg32  1  -0.00000000  -0.00000000  -0.00000000  1
  Mg  Mg33  1  -0.00000000  -0.00000000  0.50000000  1
  Mg  Mg34  1  -0.00000000  0.50000000  -0.00000000  1
  Mg  Mg35  1  -0.00000000  0.50000000  0.50000000  1
  Mg  Mg36  1  0.50000000  -0.00000000  -0.00000000  1
  Mg  Mg37  1  0.50000000  -0.00000000  0.50000000  1
  Mg  Mg38  1  0.50000000  0.50000000  -0.00000000  1
  Mg  Mg39  1  0.50000000  0.50000000  0.50000000  1
  Mg  Mg40  1  0.12500000  0.12500000  0.12500000  1
  Mg  Mg41  1  0.12500000  0.12500000  0.62500000  1
  Mg  Mg42  1  0.12500000  0.62500000  0.12500000  1
  Mg  Mg43  1  0.12500000  0.62500000  0.62500000  1
  Mg  Mg44  1  0.62500000  0.12500000  0.12500000  1
  Mg  Mg45  1  0.62500000  0.12500000  0.62500000  1
  Mg  Mg46  1  0.62500000  0.62500000  0.12500000  1
  Mg  Mg47  1  0.62500000  0.62500000  0.62500000  1
  S  S48  1  0.18887170  0.18887370  0.18887370  1
  S  S49  1  0.18887170  0.18887370  0.68887370  1
  S  S50  1  0.18887170  0.68887370  0.18887370  1
  S  S51  1  0.18887170  0.68887370  0.68887370  1
  S  S52  1  0.68887170  0.18887370  0.18887370  1
  S  S53  1  0.68887170  0.18887370  0.68887370  1
  S  S54  1  0.68887170  0.68887370  0.18887370  1
  S  S55  1  0.68887170  0.68887370  0.68887370  1
  S  S56  1  0.43338189  0.18887370  0.18887370  1
  S  S57  1  0.43338189  0.18887370  0.68887370  1
  S  S58  1  0.43338189  0.68887370  0.18887370  1
  S  S59  1  0.43338189  0.68887370  0.68887370  1
  S  S60  1  0.93338189  0.18887370  0.18887370  1
  S  S61  1  0.93338189  0.18887370  0.68887370  1
  S  S62  1  0.93338189  0.68887370  0.18887370  1
  S  S63  1  0.93338189  0.68887370  0.68887370  1
  S  S64  1  0.18887370  0.43338189  0.18887170  1
  S  S65  1  0.18887370  0.43338189  0.68887170  1
  S  S66  1  0.18887370  0.93338189  0.18887170  1
  S  S67  1  0.18887370  0.93338189  0.68887170  1
  S  S68  1  0.68887370  0.43338189  0.18887170  1
  S  S69  1  0.68887370  0.43338189  0.68887170  1
  S  S70  1  0.68887370  0.93338189  0.18887170  1
  S  S71  1  0.68887370  0.93338189  0.68887170  1
  S  S72  1  0.18887370  0.18887170  0.43338189  1
  S  S73  1  0.18887370  0.18887170  0.93338189  1
  S  S74  1  0.18887370  0.68887170  0.43338189  1
  S  S75  1  0.18887370  0.68887170  0.93338189  1
  S  S76  1  0.68887370  0.18887170  0.43338189  1
  S  S77  1  0.68887370  0.18887170  0.93338189  1
  S  S78  1  0.68887370  0.68887170  0.43338189  1
  S  S79  1  0.68887370  0.68887170  0.93338189  1
  S  S80  1  0.43612630  0.43612830  0.19161811  1
  S  S81  1  0.43612630  0.43612830  0.69161811  1
  S  S82  1  0.43612630  0.93612830  0.19161811  1
  S  S83  1  0.43612630  0.93612830  0.69161811  1
  S  S84  1  0.93612630  0.43612830  0.19161811  1
  S  S85  1  0.93612630  0.43612830  0.69161811  1
  S  S86  1  0.93612630  0.93612830  0.19161811  1
  S  S87  1  0.93612630  0.93612830  0.69161811  1
  S  S88  1  0.43612630  0.19161811  0.43612830  1
  S  S89  1  0.43612630  0.19161811  0.93612830  1
  S  S90  1  0.43612630  0.69161811  0.43612830  1
  S  S91  1  0.43612630  0.69161811  0.93612830  1
  S  S92  1  0.93612630  0.19161811  0.43612830  1
  S  S93  1  0.93612630  0.19161811  0.93612830  1
  S  S94  1  0.93612630  0.69161811  0.43612830  1
  S  S95  1  0.93612630  0.69161811  0.93612830  1
  S  S96  1  0.19161811  0.43612630  0.43612630  1
  S  S97  1  0.19161811  0.43612630  0.93612630  1
  S  S98  1  0.19161811  0.93612630  0.43612630  1
  S  S99  1  0.19161811  0.93612630  0.93612630  1
  S  S100  1  0.69161811  0.43612630  0.43612630  1
  S  S101  1  0.69161811  0.43612630  0.93612630  1
  S  S102  1  0.69161811  0.93612630  0.43612630  1
  S  S103  1  0.69161811  0.93612630  0.93612630  1
  S  S104  1  0.43612830  0.43612630  0.43612630  1
  S  S105  1  0.43612830  0.43612630  0.93612630  1
  S  S106  1  0.43612830  0.93612630  0.43612630  1
  S  S107  1  0.43612830  0.93612630  0.93612630  1
  S  S108  1  0.93612830  0.43612630  0.43612630  1
  S  S109  1  0.93612830  0.43612630  0.93612630  1
  S  S110  1  0.93612830  0.93612630  0.43612630  1
  S  S111  1  0.93612830  0.93612630  0.93612630  1
