# generated using pymatgen
data_Pr2TeO2
_symmetry_space_group_name_H-M   'P 1'
_cell_length_a   4.09310703
_cell_length_b   4.09310783
_cell_length_c   7.13201529
_cell_angle_alpha   106.67561470
_cell_angle_beta   106.67561337
_cell_angle_gamma   90.00000828
_symmetry_Int_Tables_number   1
_chemical_formula_structural   Pr2TeO2
_chemical_formula_sum   'Pr2 Te1 O2'
_cell_volume   109.20536758
_cell_formula_units_Z   1
loop_
 _symmetry_equiv_pos_site_id
 _symmetry_equiv_pos_as_xyz
  1  'x, y, z'
loop_
 _atom_site_type_symbol
 _atom_site_label
 _atom_site_symmetry_multiplicity
 _atom_site_fract_x
 _atom_site_fract_y
 _atom_site_fract_z
 _atom_site_occupancy
  Pr  Pr0  1  0.65957483  0.65957483  0.31915165  1
  Pr  Pr1  1  0.34042517  0.34042517  0.68084835  1
  Te  Te2  1  0.00000000  -0.00000000  -0.00000000  1
  O  O3  1  0.25000000  0.75000000  0.50000000  1
  O  O4  1  0.75000000  0.25000000  0.50000000  1
