# generated using pymatgen
data_Sr6Mg(Te4O11)2
_symmetry_space_group_name_H-M   'P 1'
_cell_length_a   7.95079565
_cell_length_b   9.29975660
_cell_length_c   9.77772335
_cell_angle_alpha   99.60634576
_cell_angle_beta   109.63581072
_cell_angle_gamma   100.11673009
_symmetry_Int_Tables_number   1
_chemical_formula_structural   Sr6Mg(Te4O11)2
_chemical_formula_sum   'Sr6 Mg1 Te8 O22'
_cell_volume   650.13953748
_cell_formula_units_Z   1
loop_
 _symmetry_equiv_pos_site_id
 _symmetry_equiv_pos_as_xyz
  1  'x, y, z'
loop_
 _atom_site_type_symbol
 _atom_site_label
 _atom_site_symmetry_multiplicity
 _atom_site_fract_x
 _atom_site_fract_y
 _atom_site_fract_z
 _atom_site_occupancy
  Sr  Sr0  1  0.28578878  0.03640774  0.13092262  1
  Sr  Sr1  1  0.70814511  0.91543521  0.84416361  1
  Sr  Sr2  1  0.82820294  0.11407454  0.25340461  1
  Sr  Sr3  1  0.18752532  0.92657908  0.70151050  1
  Sr  Sr4  1  0.29707705  0.50510172  0.63106242  1
  Sr  Sr5  1  0.71119325  0.48445361  0.41495831  1
  Mg  Mg6  1  0.80698274  0.00497206  0.52804085  1
  Te  Te7  1  0.09556703  0.39717940  0.21277616  1
  Te  Te8  1  0.96080217  0.63515499  0.83788590  1
  Te  Te9  1  0.05983891  0.26165945  0.81528696  1
  Te  Te10  1  0.96218091  0.77938851  0.24228937  1
  Te  Te11  1  0.45179604  0.70223257  0.04675198  1
  Te  Te12  1  0.58420257  0.30459763  0.97832125  1
  Te  Te13  1  0.45650877  0.76618057  0.43323618  1
  Te  Te14  1  0.51919306  0.16920815  0.56266218  1
  O  O15  1  0.99707558  0.53754527  0.66005163  1
  O  O16  1  0.99827928  0.43351807  0.36429550  1
  O  O17  1  0.39236699  0.54922004  0.39765203  1
  O  O18  1  0.57879541  0.37965140  0.61041373  1
  O  O19  1  0.85512488  0.25714086  0.06304804  1
  O  O20  1  0.18916087  0.79628841  0.90843635  1
  O  O21  1  0.72869062  0.12009541  0.69561672  1
  O  O22  1  0.22845765  0.87079874  0.30779912  1
  O  O23  1  0.37499840  0.79139860  0.59615612  1
  O  O24  1  0.61945883  0.12546586  0.41103282  1
  O  O25  1  0.04737975  0.16370132  0.62257166  1
  O  O26  1  0.94098000  0.91525001  0.40337709  1
  O  O27  1  0.55310997  0.27443793  0.15561698  1
  O  O28  1  0.51242502  0.68301382  0.87428346  1
  O  O29  1  0.54612727  0.91255244  0.12518126  1
  O  O30  1  0.48831129  0.10222676  0.86336449  1
  O  O31  1  0.91330803  0.89887999  0.10057951  1
  O  O32  1  0.07716492  0.08545604  0.88761110  1
  O  O33  1  0.18073718  0.23328176  0.27272189  1
  O  O34  1  0.71730124  0.80681086  0.57218178  1
  O  O35  1  0.66516482  0.64770794  0.18237381  1
  O  O36  1  0.32224436  0.35936226  0.87569600  1
