# generated using pymatgen
data_Cs2TeH6SeO10
_symmetry_space_group_name_H-M   'P 1'
_cell_length_a   7.45157214
_cell_length_b   12.37498092
_cell_length_c   12.79953630
_cell_angle_alpha   68.82344263
_cell_angle_beta   90.00000000
_cell_angle_gamma   90.00000000
_symmetry_Int_Tables_number   1
_chemical_formula_structural   Cs2TeH6SeO10
_chemical_formula_sum   'Cs8 Te4 H24 Se4 O40'
_cell_volume   1100.58182417
_cell_formula_units_Z   4
loop_
 _symmetry_equiv_pos_site_id
 _symmetry_equiv_pos_as_xyz
  1  'x, y, z'
loop_
 _atom_site_type_symbol
 _atom_site_label
 _atom_site_symmetry_multiplicity
 _atom_site_fract_x
 _atom_site_fract_y
 _atom_site_fract_z
 _atom_site_occupancy
  Cs  Cs0  1  0.46723916  0.38866201  0.36534863  1
  Cs  Cs1  1  0.53276084  0.61133799  0.63465137  1
  Cs  Cs2  1  0.96723916  0.11133799  0.63465137  1
  Cs  Cs3  1  0.03276084  0.88866201  0.36534863  1
  Cs  Cs4  1  0.99217412  0.64333997  0.13812484  1
  Cs  Cs5  1  0.00782588  0.35666003  0.86187516  1
  Cs  Cs6  1  0.49217412  0.85666003  0.86187516  1
  Cs  Cs7  1  0.50782588  0.14333997  0.13812484  1
  Te  Te8  1  0.00000000  0.50000000  0.50000000  1
  Te  Te9  1  0.50000000  0.00000000  0.50000000  1
  Te  Te10  1  0.00000000  0.00000000  0.00000000  1
  Te  Te11  1  0.50000000  0.50000000  0.00000000  1
  H  H12  1  0.28893017  0.89991555  0.07766511  1
  H  H13  1  0.71106983  0.10008445  0.92233489  1
  H  H14  1  0.78893017  0.60008445  0.92233489  1
  H  H15  1  0.21106983  0.39991555  0.07766511  1
  H  H16  1  0.79823724  0.66334754  0.38680983  1
  H  H17  1  0.20176276  0.33665246  0.61319017  1
  H  H18  1  0.29823724  0.83665246  0.61319017  1
  H  H19  1  0.70176276  0.16334754  0.38680983  1
  H  H20  1  0.75405402  0.87660646  0.59222584  1
  H  H21  1  0.24594598  0.12339354  0.40777416  1
  H  H22  1  0.25405402  0.62339354  0.40777416  1
  H  H23  1  0.74594598  0.37660646  0.59222584  1
  H  H24  1  0.52011284  0.87346179  0.38723180  1
  H  H25  1  0.47988716  0.12653821  0.61276820  1
  H  H26  1  0.02011284  0.62653821  0.61276820  1
  H  H27  1  0.97988716  0.37346179  0.38723180  1
  H  H28  1  0.46571791  0.60550984  0.12997076  1
  H  H29  1  0.53428209  0.39449016  0.87002924  1
  H  H30  1  0.96571791  0.89449016  0.87002924  1
  H  H31  1  0.03428209  0.10550984  0.12997076  1
  H  H32  1  0.75086233  0.90116454  0.12627633  1
  H  H33  1  0.24913767  0.09883546  0.87372367  1
  H  H34  1  0.25086233  0.59883546  0.87372367  1
  H  H35  1  0.74913767  0.40116454  0.12627633  1
  Se  Se36  1  0.50052903  0.74965716  0.25109632  1
  Se  Se37  1  0.49947097  0.25034284  0.74890368  1
  Se  Se38  1  0.00052903  0.75034284  0.74890368  1
  Se  Se39  1  -0.00052903  0.24965716  0.25109632  1
  O  O40  1  0.78699546  0.77809406  0.71539267  1
  O  O41  1  0.21300454  0.22190594  0.28460733  1
  O  O42  1  0.28699546  0.72190594  0.28460733  1
  O  O43  1  0.71300454  0.27809406  0.71539267  1
  O  O44  1  0.92367396  0.63921561  0.38249435  1
  O  O45  1  0.07632604  0.36078439  0.61750565  1
  O  O46  1  0.42367396  0.86078439  0.61750565  1
  O  O47  1  0.57632604  0.13921561  0.38249435  1
  O  O48  1  0.37967733  0.57796353  0.08480145  1
  O  O49  1  0.62032267  0.42203647  0.91519855  1
  O  O50  1  0.87967733  0.92203647  0.91519855  1
  O  O51  1  0.12032267  0.07796353  0.08480145  1
  O  O52  1  0.88287436  0.89948492  0.13446350  1
  O  O53  1  0.11712564  0.10051508  0.86553650  1
  O  O54  1  0.38287436  0.60051508  0.86553650  1
  O  O55  1  0.61712564  0.39948492  0.13446350  1
  O  O56  1  0.51450947  0.87657888  0.14589948  1
  O  O57  1  0.48549053  0.12342112  0.85410052  1
  O  O58  1  0.01450947  0.62342112  0.85410052  1
  O  O59  1  0.98549053  0.37657888  0.14589948  1
  O  O60  1  0.69477522  0.60899612  0.97260372  1
  O  O61  1  0.30522478  0.39100388  0.02739628  1
  O  O62  1  0.19477522  0.89100388  0.02739628  1
  O  O63  1  0.80522478  0.10899612  0.97260372  1
  O  O64  1  0.58954079  0.64626940  0.21429792  1
  O  O65  1  0.41045921  0.35373060  0.78570208  1
  O  O66  1  0.08954079  0.85373060  0.78570208  1
  O  O67  1  0.91045921  0.14626940  0.21429792  1
  O  O68  1  0.43990559  0.93746597  0.38637821  1
  O  O69  1  0.56009441  0.06253403  0.61362179  1
  O  O70  1  0.93990559  0.56253403  0.61362179  1
  O  O71  1  0.06009441  0.43746597  0.38637821  1
  O  O72  1  0.61341877  0.75482985  0.36175787  1
  O  O73  1  0.38658123  0.24517015  0.63824213  1
  O  O74  1  0.11341877  0.74517015  0.63824213  1
  O  O75  1  0.88658123  0.25482985  0.36175787  1
  O  O76  1  0.73814350  0.93757803  0.51571978  1
  O  O77  1  0.26185650  0.06242197  0.48428022  1
  O  O78  1  0.23814350  0.56242197  0.48428022  1
  O  O79  1  0.76185650  0.43757803  0.51571978  1
