# generated using pymatgen
data_MgZn4(Se2O5)4
_symmetry_space_group_name_H-M   'P 1'
_cell_length_a   6.43904897
_cell_length_b   7.19798710
_cell_length_c   10.29967753
_cell_angle_alpha   90.00000000
_cell_angle_beta   90.00000000
_cell_angle_gamma   87.92909752
_symmetry_Int_Tables_number   1
_chemical_formula_structural   MgZn4(Se2O5)4
_chemical_formula_sum   'Mg1 Zn4 Se8 O20'
_cell_volume   477.05964235
_cell_formula_units_Z   1
loop_
 _symmetry_equiv_pos_site_id
 _symmetry_equiv_pos_as_xyz
  1  'x, y, z'
loop_
 _atom_site_type_symbol
 _atom_site_label
 _atom_site_symmetry_multiplicity
 _atom_site_fract_x
 _atom_site_fract_y
 _atom_site_fract_z
 _atom_site_occupancy
  Mg  Mg0  1  0.75000000  0.50000000  0.73655177  1
  Zn  Zn1  1  0.75000000  0.00000000  0.94455134  1
  Zn  Zn2  1  0.25000000  0.50000000  0.56084391  1
  Zn  Zn3  1  0.25000000  0.00000000  0.04851173  1
  Zn  Zn4  1  0.75000000  0.50000000  0.42639750  1
  Se  Se5  1  0.08596569  0.31914047  0.85965838  1
  Se  Se6  1  0.53876589  0.15366303  0.65881231  1
  Se  Se7  1  0.96123411  0.84633697  0.65881231  1
  Se  Se8  1  0.41403431  0.68085953  0.85965838  1
  Se  Se9  1  0.95527639  0.63278847  0.15516776  1
  Se  Se10  1  0.45588078  0.85912153  0.33952041  1
  Se  Se11  1  0.04411922  0.14087847  0.33952041  1
  Se  Se12  1  0.54472361  0.36721153  0.15516776  1
  O  O13  1  0.75000000  0.00000000  0.58009614  1
  O  O14  1  0.25000000  0.50000000  0.94063136  1
  O  O15  1  0.25000000  0.00000000  0.42869838  1
  O  O16  1  0.75000000  0.50000000  0.06737443  1
  O  O17  1  0.21608766  0.29361257  0.70856336  1
  O  O18  1  0.66854073  0.22913329  0.79207920  1
  O  O19  1  0.83145927  0.77086671  0.79207920  1
  O  O20  1  0.28391234  0.70638743  0.70856336  1
  O  O21  1  0.82721746  0.69636177  0.29507835  1
  O  O22  1  0.33506599  0.80713376  0.19776477  1
  O  O23  1  0.16493401  0.19286624  0.19776477  1
  O  O24  1  0.67278254  0.30363823  0.29507835  1
  O  O25  1  0.05964130  0.34461500  0.42778352  1
  O  O26  1  0.56145326  0.16492395  0.07132212  1
  O  O27  1  0.93854674  0.83507605  0.07132212  1
  O  O28  1  0.44035870  0.65538500  0.42778352  1
  O  O29  1  0.92700907  0.62669847  0.57888049  1
  O  O30  1  0.46081979  0.92440522  0.90166605  1
  O  O31  1  0.03918021  0.07559478  0.90166605  1
  O  O32  1  0.57299093  0.37330153  0.57888049  1
