# generated using pymatgen
data_Tb2TeO2
_symmetry_space_group_name_H-M   'P 1'
_cell_length_a   3.93073194
_cell_length_b   3.93073165
_cell_length_c   6.83839404
_cell_angle_alpha   106.70245310
_cell_angle_beta   106.70245111
_cell_angle_gamma   89.99999694
_symmetry_Int_Tables_number   1
_chemical_formula_structural   Tb2TeO2
_chemical_formula_sum   'Tb2 Te1 O2'
_cell_volume   96.53668043
_cell_formula_units_Z   1
loop_
 _symmetry_equiv_pos_site_id
 _symmetry_equiv_pos_as_xyz
  1  'x, y, z'
loop_
 _atom_site_type_symbol
 _atom_site_label
 _atom_site_symmetry_multiplicity
 _atom_site_fract_x
 _atom_site_fract_y
 _atom_site_fract_z
 _atom_site_occupancy
  Tb  Tb0  1  0.66241063  0.66241063  0.32482227  1
  Tb  Tb1  1  0.33758937  0.33758937  0.67517773  1
  Te  Te2  1  -0.00000000  0.00000000  -0.00000000  1
  O  O3  1  0.25000000  0.75000000  0.50000000  1
  O  O4  1  0.75000000  0.25000000  0.50000000  1
