# generated using pymatgen
data_Zn3(AsO4)2
_symmetry_space_group_name_H-M   'P 1'
_cell_length_a   8.48028996
_cell_length_b   5.29409849
_cell_length_c   8.85705883
_cell_angle_alpha   60.28250237
_cell_angle_beta   90.00000000
_cell_angle_gamma   90.00000000
_symmetry_Int_Tables_number   1
_chemical_formula_structural   Zn3(AsO4)2
_chemical_formula_sum   'Zn6 As4 O16'
_cell_volume   345.34418864
_cell_formula_units_Z   2
loop_
 _symmetry_equiv_pos_site_id
 _symmetry_equiv_pos_as_xyz
  1  'x, y, z'
loop_
 _atom_site_type_symbol
 _atom_site_label
 _atom_site_symmetry_multiplicity
 _atom_site_fract_x
 _atom_site_fract_y
 _atom_site_fract_z
 _atom_site_occupancy
  Zn  Zn0  1  0.13871884  0.48032874  0.11209105  1
  Zn  Zn1  1  0.63871884  0.51967126  0.38790895  1
  Zn  Zn2  1  0.86128116  0.51967126  0.88790895  1
  Zn  Zn3  1  0.36128116  0.48032874  0.61209105  1
  Zn  Zn4  1  0.00000000  0.50000000  0.50000000  1
  Zn  Zn5  1  0.50000000  0.50000000  0.00000000  1
  As  As6  1  0.30739482  0.85424230  0.19165806  1
  As  As7  1  0.80739482  0.14575770  0.30834194  1
  As  As8  1  0.69260518  0.14575770  0.80834194  1
  As  As9  1  0.19260518  0.85424230  0.69165806  1
  O  O10  1  0.06667916  0.71109434  0.86326427  1
  O  O11  1  0.56667916  0.28890566  0.63673573  1
  O  O12  1  0.93332084  0.28890566  0.13673573  1
  O  O13  1  0.43332084  0.71109434  0.36326427  1
  O  O14  1  0.19792139  0.21724232  0.61585891  1
  O  O15  1  0.69792139  0.78275768  0.88414109  1
  O  O16  1  0.80207861  0.78275768  0.38414109  1
  O  O17  1  0.30207861  0.21724232  0.11585891  1
  O  O18  1  0.13616926  0.78245502  0.53355595  1
  O  O19  1  0.63616926  0.21754498  0.96644405  1
  O  O20  1  0.12932210  0.67689744  0.25305822  1
  O  O21  1  0.62932210  0.32310256  0.24694178  1
  O  O22  1  0.87067790  0.32310256  0.74694178  1
  O  O23  1  0.37067790  0.67689744  0.75305822  1
  O  O24  1  0.36383074  0.78245502  0.03355595  1
  O  O25  1  0.86383074  0.21754498  0.46644405  1
