# generated using pymatgen
data_MgAl4Tl4O12
_symmetry_space_group_name_H-M   'P 1'
_cell_length_a   5.68421842
_cell_length_b   5.98208433
_cell_length_c   7.89492300
_cell_angle_alpha   90.00000000
_cell_angle_beta   90.00000000
_cell_angle_gamma   71.85720044
_symmetry_Int_Tables_number   1
_chemical_formula_structural   MgAl4Tl4O12
_chemical_formula_sum   'Mg1 Al4 Tl4 O12'
_cell_volume   255.10814627
_cell_formula_units_Z   1
loop_
 _symmetry_equiv_pos_site_id
 _symmetry_equiv_pos_as_xyz
  1  'x, y, z'
loop_
 _atom_site_type_symbol
 _atom_site_label
 _atom_site_symmetry_multiplicity
 _atom_site_fract_x
 _atom_site_fract_y
 _atom_site_fract_z
 _atom_site_occupancy
  Mg  Mg0  1  0.80288100  0.77826700  0.25000000  1
  Al  Al1  1  0.97571000  0.47727400  0.96935300  1
  Al  Al2  1  0.97571000  0.47727400  0.53064700  1
  Al  Al3  1  0.56783100  0.06448400  0.98570600  1
  Al  Al4  1  0.56783100  0.06448400  0.51429400  1
  Tl  Tl5  1  0.07025800  0.98308400  0.75000000  1
  Tl  Tl6  1  0.49989500  0.49367300  0.75000000  1
  Tl  Tl7  1  0.44853400  0.46810000  0.25000000  1
  Tl  Tl8  1  0.12546000  0.03327200  0.25000000  1
  O  O9  1  0.05521300  0.46385100  0.25000000  1
  O  O10  1  0.23215400  0.17639100  0.54260300  1
  O  O11  1  0.23215400  0.17639100  0.95739700  1
  O  O12  1  0.20174800  0.65380500  0.93399200  1
  O  O13  1  0.20174800  0.65380500  0.56600800  1
  O  O14  1  0.51728100  0.07016400  0.25000000  1
  O  O15  1  0.64699400  0.07291300  0.75000000  1
  O  O16  1  0.70890700  0.30495700  0.03160200  1
  O  O17  1  0.70890700  0.30495700  0.46839800  1
  O  O18  1  0.72288200  0.75669000  0.01429900  1
  O  O19  1  0.72288200  0.75669000  0.48570100  1
  O  O20  1  0.89002000  0.44447500  0.75000000  1
