# generated using pymatgen
data_Cs3HgBr5
_symmetry_space_group_name_H-M   'P 1'
_cell_length_a   9.38626687
_cell_length_b   11.31257372
_cell_length_c   14.20887928
_cell_angle_alpha   90.00000000
_cell_angle_beta   90.00000000
_cell_angle_gamma   90.00000000
_symmetry_Int_Tables_number   1
_chemical_formula_structural   Cs3HgBr5
_chemical_formula_sum   'Cs12 Hg4 Br20'
_cell_volume   1508.73909723
_cell_formula_units_Z   4
loop_
 _symmetry_equiv_pos_site_id
 _symmetry_equiv_pos_as_xyz
  1  'x, y, z'
loop_
 _atom_site_type_symbol
 _atom_site_label
 _atom_site_symmetry_multiplicity
 _atom_site_fract_x
 _atom_site_fract_y
 _atom_site_fract_z
 _atom_site_occupancy
  Cs  Cs0  1  0.91920614  0.25000000  0.04964215  1
  Cs  Cs1  1  0.41920614  0.25000000  0.45035785  1
  Cs  Cs2  1  0.08079386  0.75000000  0.95035785  1
  Cs  Cs3  1  0.58079386  0.75000000  0.54964215  1
  Cs  Cs4  1  0.91734488  0.01931661  0.33199524  1
  Cs  Cs5  1  0.41734488  0.48068339  0.16800476  1
  Cs  Cs6  1  0.08265512  0.51931661  0.66800476  1
  Cs  Cs7  1  0.58265512  0.98068339  0.83199524  1
  Cs  Cs8  1  0.08265512  0.98068339  0.66800476  1
  Cs  Cs9  1  0.58265512  0.51931661  0.83199524  1
  Cs  Cs10  1  0.91734488  0.48068339  0.33199524  1
  Cs  Cs11  1  0.41734488  0.01931661  0.16800476  1
  Hg  Hg12  1  0.80230086  0.25000000  0.61322424  1
  Hg  Hg13  1  0.30230086  0.25000000  0.88677576  1
  Hg  Hg14  1  0.19769914  0.75000000  0.38677576  1
  Hg  Hg15  1  0.69769914  0.75000000  0.11322424  1
  Br  Br16  1  0.67116922  0.25000000  0.26169583  1
  Br  Br17  1  0.17116922  0.25000000  0.23830417  1
  Br  Br18  1  0.32883078  0.75000000  0.73830417  1
  Br  Br19  1  0.82883078  0.75000000  0.76169583  1
  Br  Br20  1  0.68675932  0.04817886  0.56496714  1
  Br  Br21  1  0.18675932  0.45182114  0.93503286  1
  Br  Br22  1  0.31324068  0.54817886  0.43503286  1
  Br  Br23  1  0.81324068  0.95182114  0.06496714  1
  Br  Br24  1  0.31324068  0.95182114  0.43503286  1
  Br  Br25  1  0.81324068  0.54817886  0.06496714  1
  Br  Br26  1  0.68675932  0.45182114  0.56496714  1
  Br  Br27  1  0.18675932  0.04817886  0.93503286  1
  Br  Br28  1  0.54173505  0.25000000  0.99103474  1
  Br  Br29  1  0.04173505  0.25000000  0.50896526  1
  Br  Br30  1  0.45826495  0.75000000  0.00896526  1
  Br  Br31  1  0.95826495  0.75000000  0.49103474  1
  Br  Br32  1  0.87655320  0.25000000  0.79164451  1
  Br  Br33  1  0.37655320  0.25000000  0.70835549  1
  Br  Br34  1  0.12344680  0.75000000  0.20835549  1
  Br  Br35  1  0.62344680  0.75000000  0.29164451  1
