# generated using pymatgen
data_Tl2MoO4
_symmetry_space_group_name_H-M   'P 1'
_cell_length_a   6.15288466
_cell_length_b   6.15288381
_cell_length_c   8.02228574
_cell_angle_alpha   88.85849199
_cell_angle_beta   88.85848496
_cell_angle_gamma   63.56443091
_symmetry_Int_Tables_number   1
_chemical_formula_structural   Tl2MoO4
_chemical_formula_sum   'Tl4 Mo2 O8'
_cell_volume   271.87586300
_cell_formula_units_Z   2
loop_
 _symmetry_equiv_pos_site_id
 _symmetry_equiv_pos_as_xyz
  1  'x, y, z'
loop_
 _atom_site_type_symbol
 _atom_site_label
 _atom_site_symmetry_multiplicity
 _atom_site_fract_x
 _atom_site_fract_y
 _atom_site_fract_z
 _atom_site_occupancy
  Tl  Tl0  1  0.66131421  0.66600249  0.17823120  1
  Tl  Tl1  1  0.33399751  0.33868579  0.82176880  1
  Tl  Tl2  1  0.04946068  0.95053932  0.50000000  1
  Tl  Tl3  1  0.99834568  0.00165432  0.00000000  1
  Mo  Mo4  1  0.36387527  0.31611052  0.30822333  1
  Mo  Mo5  1  0.68388948  0.63612473  0.69177667  1
  O  O6  1  0.23860741  0.59761199  0.19769461  1
  O  O7  1  0.40238801  0.76139259  0.80230539  1
  O  O8  1  0.28915959  0.10388767  0.20799792  1
  O  O9  1  0.89611233  0.71084041  0.79200208  1
  O  O10  1  0.68183107  0.21297197  0.30026544  1
  O  O11  1  0.78702803  0.31816893  0.69973456  1
  O  O12  1  0.63636814  0.75177640  0.48538531  1
  O  O13  1  0.24822360  0.36363186  0.51461469  1
