# generated using pymatgen
data_Ba(LuSe2)2
_symmetry_space_group_name_H-M   'P 1'
_cell_length_a   4.11625146
_cell_length_b   12.69641603
_cell_length_c   14.91618115
_cell_angle_alpha   90.00000000
_cell_angle_beta   90.00000000
_cell_angle_gamma   90.00000000
_symmetry_Int_Tables_number   1
_chemical_formula_structural   Ba(LuSe2)2
_chemical_formula_sum   'Ba4 Lu8 Se16'
_cell_volume   779.54410465
_cell_formula_units_Z   4
loop_
 _symmetry_equiv_pos_site_id
 _symmetry_equiv_pos_as_xyz
  1  'x, y, z'
loop_
 _atom_site_type_symbol
 _atom_site_label
 _atom_site_symmetry_multiplicity
 _atom_site_fract_x
 _atom_site_fract_y
 _atom_site_fract_z
 _atom_site_occupancy
  Ba  Ba0  1  0.25000000  0.76034937  0.33423051  1
  Ba  Ba1  1  0.25000000  0.26034937  0.16576949  1
  Ba  Ba2  1  0.75000000  0.23965063  0.66576949  1
  Ba  Ba3  1  0.75000000  0.73965063  0.83423051  1
  Lu  Lu4  1  0.25000000  0.43882794  0.39092258  1
  Lu  Lu5  1  0.25000000  0.93882794  0.10907742  1
  Lu  Lu6  1  0.75000000  0.56117206  0.60907742  1
  Lu  Lu7  1  0.75000000  0.06117206  0.89092258  1
  Lu  Lu8  1  0.25000000  0.42013434  0.90084116  1
  Lu  Lu9  1  0.25000000  0.92013434  0.59915884  1
  Lu  Lu10  1  0.75000000  0.57986566  0.09915884  1
  Lu  Lu11  1  0.75000000  0.07986566  0.40084116  1
  Se  Se12  1  0.25000000  0.20504084  0.84380022  1
  Se  Se13  1  0.25000000  0.70504084  0.65619978  1
  Se  Se14  1  0.75000000  0.79495916  0.15619978  1
  Se  Se15  1  0.75000000  0.29495916  0.34380022  1
  Se  Se16  1  0.25000000  0.12230835  0.52475615  1
  Se  Se17  1  0.25000000  0.62230835  0.97524385  1
  Se  Se18  1  0.75000000  0.87769165  0.47524385  1
  Se  Se19  1  0.75000000  0.37769165  0.02475615  1
  Se  Se20  1  0.25000000  0.52607317  0.21640082  1
  Se  Se21  1  0.25000000  0.02607317  0.28359918  1
  Se  Se22  1  0.75000000  0.47392683  0.78359918  1
  Se  Se23  1  0.75000000  0.97392683  0.71640082  1
  Se  Se24  1  0.25000000  0.41547523  0.57502047  1
  Se  Se25  1  0.25000000  0.91547523  0.92497953  1
  Se  Se26  1  0.75000000  0.58452477  0.42497953  1
  Se  Se27  1  0.75000000  0.08452477  0.07502047  1
