# generated using pymatgen
data_Sr2Re6S11
_symmetry_space_group_name_H-M   'P 1'
_cell_length_a   11.81259402
_cell_length_b   11.81259402
_cell_length_c   11.81259338
_cell_angle_alpha   45.53123957
_cell_angle_beta   45.53123957
_cell_angle_gamma   45.53124001
_symmetry_Int_Tables_number   1
_chemical_formula_structural   Sr2Re6S11
_chemical_formula_sum   'Sr4 Re12 S22'
_cell_volume   764.89705750
_cell_formula_units_Z   2
loop_
 _symmetry_equiv_pos_site_id
 _symmetry_equiv_pos_as_xyz
  1  'x, y, z'
loop_
 _atom_site_type_symbol
 _atom_site_label
 _atom_site_symmetry_multiplicity
 _atom_site_fract_x
 _atom_site_fract_y
 _atom_site_fract_z
 _atom_site_occupancy
  Sr  Sr0  1  0.68944389  0.68944389  0.68944389  1
  Sr  Sr1  1  0.18944389  0.18944389  0.18944389  1
  Sr  Sr2  1  0.31055611  0.31055611  0.31055611  1
  Sr  Sr3  1  0.81055611  0.81055611  0.81055611  1
  Re  Re4  1  0.61501669  0.49356321  0.28890696  1
  Re  Re5  1  0.28890696  0.61501669  0.49356321  1
  Re  Re6  1  0.49356321  0.28890696  0.61501669  1
  Re  Re7  1  0.78890696  0.99356321  0.11501669  1
  Re  Re8  1  0.11501669  0.78890696  0.99356321  1
  Re  Re9  1  0.99356321  0.11501669  0.78890696  1
  Re  Re10  1  0.38498331  0.50643679  0.71109304  1
  Re  Re11  1  0.71109304  0.38498331  0.50643679  1
  Re  Re12  1  0.50643679  0.71109304  0.38498331  1
  Re  Re13  1  0.21109304  0.00643679  0.88498331  1
  Re  Re14  1  0.88498331  0.21109304  0.00643679  1
  Re  Re15  1  0.00643679  0.88498331  0.21109304  1
  S  S16  1  0.79795221  0.19330895  0.41816096  1
  S  S17  1  0.41816096  0.79795221  0.19330895  1
  S  S18  1  0.19330895  0.41816096  0.79795221  1
  S  S19  1  0.91816096  0.69330895  0.29795221  1
  S  S20  1  0.29795221  0.91816096  0.69330895  1
  S  S21  1  0.69330895  0.29795221  0.91816096  1
  S  S22  1  0.20204779  0.80669105  0.58183904  1
  S  S23  1  0.58183904  0.20204779  0.80669105  1
  S  S24  1  0.80669105  0.58183904  0.20204779  1
  S  S25  1  0.08183904  0.30669105  0.70204779  1
  S  S26  1  0.70204779  0.08183904  0.30669105  1
  S  S27  1  0.30669105  0.70204779  0.08183904  1
  S  S28  1  0.50588703  0.99411297  0.25000000  1
  S  S29  1  0.25000000  0.50588703  0.99411297  1
  S  S30  1  0.99411297  0.25000000  0.50588703  1
  S  S31  1  0.75000000  0.49411297  0.00588703  1
  S  S32  1  0.00588703  0.75000000  0.49411297  1
  S  S33  1  0.49411297  0.00588703  0.75000000  1
  S  S34  1  0.40768271  0.40768271  0.40768271  1
  S  S35  1  0.90768271  0.90768271  0.90768271  1
  S  S36  1  0.59231729  0.59231729  0.59231729  1
  S  S37  1  0.09231729  0.09231729  0.09231729  1
