# generated using pymatgen
data_Na2Al2Si3O10
_symmetry_space_group_name_H-M   'P 1'
_cell_length_a   6.56160595
_cell_length_b   9.64751337
_cell_length_c   9.64928130
_cell_angle_alpha   96.63964774
_cell_angle_beta   70.12282705
_cell_angle_gamma   109.88096908
_symmetry_Int_Tables_number   1
_chemical_formula_structural   Na2Al2Si3O10
_chemical_formula_sum   'Na4 Al4 Si6 O20'
_cell_volume   540.20325136
_cell_formula_units_Z   2
loop_
 _symmetry_equiv_pos_site_id
 _symmetry_equiv_pos_as_xyz
  1  'x, y, z'
loop_
 _atom_site_type_symbol
 _atom_site_label
 _atom_site_symmetry_multiplicity
 _atom_site_fract_x
 _atom_site_fract_y
 _atom_site_fract_z
 _atom_site_occupancy
  Na  Na0  1  0.80139830  0.93518380  0.35359697  1
  Na  Na1  1  0.21981146  0.06481620  0.64640303  1
  Na  Na2  1  0.11621449  0.56481620  0.85359697  1
  Na  Na3  1  0.40499527  0.43518380  0.14640303  1
  Al  Al4  1  0.99432062  0.57296783  0.30277745  1
  Al  Al5  1  0.72413024  0.42703217  0.69722255  1
  Al  Al6  1  0.67135279  0.92703217  0.80277745  1
  Al  Al7  1  0.54709808  0.07296783  0.19722255  1
  Si  Si8  1  0.24091406  0.79937695  0.06803174  1
  Si  Si9  1  0.50956885  0.20062305  0.93196826  1
  Si  Si10  1  0.69153711  0.70062305  0.56803174  1
  Si  Si11  1  0.55894580  0.29937695  0.43196826  1
  Si  Si12  1  0.24789348  0.50000000  0.50000000  1
  Si  Si13  1  0.99789348  -0.00000000  0.00000000  1
  O  O14  1  0.86437840  0.70254227  0.39978988  1
  O  O15  1  0.56162601  0.29745773  0.60021012  1
  O  O16  1  0.41183613  0.79745773  0.89978988  1
  O  O17  1  0.51416829  0.20254227  0.10021012  1
  O  O18  1  0.03796367  0.86380814  0.06414584  1
  O  O19  1  0.23830137  0.13619186  0.93585416  1
  O  O20  1  0.42415553  0.63619186  0.56414584  1
  O  O21  1  0.35210951  0.36380814  0.43585416  1
  O  O22  1  0.36185385  0.89669248  0.18292222  1
  O  O23  1  0.64808360  0.10330752  0.81707778  1
  O  O24  1  0.71516138  0.60330752  0.68292222  1
  O  O25  1  0.79477607  0.39669248  0.31707778  1
  O  O26  1  0.11765701  0.62541833  0.11533976  1
  O  O27  1  0.60757844  0.37458167  0.88466024  1
  O  O28  1  0.74223868  0.87458167  0.61533976  1
  O  O29  1  0.48299677  0.12541833  0.38466024  1
  O  O30  1  0.21443116  0.55498559  0.35864389  1
  O  O31  1  0.01808947  0.44501441  0.64135611  1
  O  O32  1  0.90944558  0.94501441  0.85864389  1
  O  O33  1  0.82307506  0.05498559  0.14135611  1
