# generated using pymatgen
data_Pr9Al5S21
_symmetry_space_group_name_H-M   'P 1'
_cell_length_a   11.76504958
_cell_length_b   11.76504958
_cell_length_c   11.76504997
_cell_angle_alpha   95.25917474
_cell_angle_beta   95.25917475
_cell_angle_gamma   95.25917943
_symmetry_Int_Tables_number   1
_chemical_formula_structural   Pr9Al5S21
_chemical_formula_sum   'Pr18 Al10 S42'
_cell_volume   1606.55097130
_cell_formula_units_Z   2
loop_
 _symmetry_equiv_pos_site_id
 _symmetry_equiv_pos_as_xyz
  1  'x, y, z'
loop_
 _atom_site_type_symbol
 _atom_site_label
 _atom_site_symmetry_multiplicity
 _atom_site_fract_x
 _atom_site_fract_y
 _atom_site_fract_z
 _atom_site_occupancy
  Pr  Pr0  1  0.11655738  0.88042392  0.74161223  1
  Pr  Pr1  1  0.45609826  0.22285365  0.07508455  1
  Pr  Pr2  1  0.76917796  0.55069225  0.40002596  1
  Pr  Pr3  1  0.40002596  0.76917796  0.55069225  1
  Pr  Pr4  1  0.74161223  0.11655738  0.88042392  1
  Pr  Pr5  1  0.07508455  0.45609826  0.22285365  1
  Pr  Pr6  1  0.22285365  0.07508455  0.45609826  1
  Pr  Pr7  1  0.55069225  0.40002596  0.76917796  1
  Pr  Pr8  1  0.88042392  0.74161223  0.11655738  1
  Pr  Pr9  1  0.20700133  0.43707561  0.58316754  1
  Pr  Pr10  1  0.54942834  0.78093852  0.92965916  1
  Pr  Pr11  1  0.87570914  0.10385066  0.24555052  1
  Pr  Pr12  1  0.92965916  0.54942834  0.78093852  1
  Pr  Pr13  1  0.24555052  0.87570914  0.10385066  1
  Pr  Pr14  1  0.58316754  0.20700133  0.43707561  1
  Pr  Pr15  1  0.10385066  0.24555052  0.87570914  1
  Pr  Pr16  1  0.43707561  0.58316754  0.20700133  1
  Pr  Pr17  1  0.78093852  0.92965916  0.54942834  1
  Al  Al18  1  0.72175758  0.38911213  0.04799854  1
  Al  Al19  1  0.04799854  0.72175758  0.38911213  1
  Al  Al20  1  0.38911213  0.04799854  0.72175758  1
  Al  Al21  1  0.88370635  0.22622032  0.54880769  1
  Al  Al22  1  0.22622032  0.54880769  0.88370635  1
  Al  Al23  1  0.54880769  0.88370635  0.22622032  1
  Al  Al24  1  0.85536584  0.85536584  0.85536584  1
  Al  Al25  1  0.17105760  0.17105760  0.17105760  1
  Al  Al26  1  0.67304927  0.67304927  0.67304927  1
  Al  Al27  1  0.35339033  0.35339033  0.35339033  1
  S  S28  1  0.83975267  0.50890602  0.17127327  1
  S  S29  1  0.17127327  0.83975267  0.50890602  1
  S  S30  1  0.50890602  0.17127327  0.83975267  1
  S  S31  1  0.67303063  0.00651226  0.34017649  1
  S  S32  1  0.00651226  0.34017649  0.67303063  1
  S  S33  1  0.34017649  0.67303063  0.00651226  1
  S  S34  1  0.54647244  0.44796135  0.01346254  1
  S  S35  1  0.87442927  0.78317374  0.35937086  1
  S  S36  1  0.21185944  0.10629664  0.69727053  1
  S  S37  1  0.69727053  0.21185944  0.10629664  1
  S  S38  1  0.01346254  0.54647244  0.44796135  1
  S  S39  1  0.35937086  0.87442927  0.78317374  1
  S  S40  1  0.78317374  0.35937086  0.87442927  1
  S  S41  1  0.10629664  0.69727053  0.21185944  1
  S  S42  1  0.44796135  0.01346254  0.54647244  1
  S  S43  1  0.96527501  0.07253687  0.47989347  1
  S  S44  1  0.29922158  0.39075784  0.81412183  1
  S  S45  1  0.63033411  0.72677965  0.16174246  1
  S  S46  1  0.81412183  0.29922158  0.39075784  1
  S  S47  1  0.16174246  0.63033411  0.72677965  1
  S  S48  1  0.47989347  0.96527501  0.07253687  1
  S  S49  1  0.72677965  0.16174246  0.63033411  1
  S  S50  1  0.07253687  0.47989347  0.96527501  1
  S  S51  1  0.39075784  0.81412183  0.29922158  1
  S  S52  1  0.54763144  0.40220906  0.30958570  1
  S  S53  1  0.88762337  0.75534701  0.66773535  1
  S  S54  1  0.23336741  0.09396835  0.00069164  1
  S  S55  1  0.00069164  0.23336741  0.09396835  1
  S  S56  1  0.30958570  0.54763144  0.40220906  1
  S  S57  1  0.66773535  0.88762337  0.75534701  1
  S  S58  1  0.75534701  0.66773535  0.88762337  1
  S  S59  1  0.09396835  0.00069164  0.23336741  1
  S  S60  1  0.40220906  0.30958570  0.54763144  1
  S  S61  1  0.15017278  0.28339568  0.36940953  1
  S  S62  1  0.48867556  0.62311352  0.72146667  1
  S  S63  1  0.79256023  0.94123545  0.03125065  1
  S  S64  1  0.72146667  0.48867556  0.62311352  1
  S  S65  1  0.03125065  0.79256023  0.94123545  1
  S  S66  1  0.36940953  0.15017278  0.28339568  1
  S  S67  1  0.94123545  0.03125065  0.79256023  1
  S  S68  1  0.28339568  0.36940953  0.15017278  1
  S  S69  1  0.62311352  0.72146667  0.48867556  1
