# generated using pymatgen
data_RbCaBr3
_symmetry_space_group_name_H-M   'P 1'
_cell_length_a   7.78124338
_cell_length_b   8.11548266
_cell_length_c   11.15646626
_cell_angle_alpha   90.00000000
_cell_angle_beta   90.00000000
_cell_angle_gamma   90.00000000
_symmetry_Int_Tables_number   1
_chemical_formula_structural   RbCaBr3
_chemical_formula_sum   'Rb4 Ca4 Br12'
_cell_volume   704.51461973
_cell_formula_units_Z   4
loop_
 _symmetry_equiv_pos_site_id
 _symmetry_equiv_pos_as_xyz
  1  'x, y, z'
loop_
 _atom_site_type_symbol
 _atom_site_label
 _atom_site_symmetry_multiplicity
 _atom_site_fract_x
 _atom_site_fract_y
 _atom_site_fract_z
 _atom_site_occupancy
  Rb  Rb0  1  0.02076625  0.43580703  0.25000000  1
  Rb  Rb1  1  0.97923375  0.56419297  0.75000000  1
  Rb  Rb2  1  0.52076625  0.06419297  0.75000000  1
  Rb  Rb3  1  0.47923375  0.93580703  0.25000000  1
  Ca  Ca4  1  0.00000000  0.00000000  0.00000000  1
  Ca  Ca5  1  0.50000000  0.50000000  0.00000000  1
  Ca  Ca6  1  0.00000000  0.00000000  0.50000000  1
  Ca  Ca7  1  0.50000000  0.50000000  0.50000000  1
  Br  Br8  1  0.29889294  0.20470813  0.04458887  1
  Br  Br9  1  0.70110706  0.79529187  0.95541113  1
  Br  Br10  1  0.79889294  0.29529187  0.95541113  1
  Br  Br11  1  0.70110706  0.79529187  0.54458887  1
  Br  Br12  1  0.20110706  0.70470813  0.04458887  1
  Br  Br13  1  0.29889294  0.20470813  0.45541113  1
  Br  Br14  1  0.20110706  0.70470813  0.45541113  1
  Br  Br15  1  0.79889294  0.29529187  0.54458887  1
  Br  Br16  1  0.58722611  0.51913192  0.25000000  1
  Br  Br17  1  0.41277389  0.48086808  0.75000000  1
  Br  Br18  1  0.08722611  0.98086808  0.75000000  1
  Br  Br19  1  0.91277389  0.01913192  0.25000000  1
