# generated using pymatgen
data_Ca4As3H9O16
_symmetry_space_group_name_H-M   'P 1'
_cell_length_a   10.18617317
_cell_length_b   5.80883735
_cell_length_c   22.78852965
_cell_angle_alpha   83.03598080
_cell_angle_beta   90.00000000
_cell_angle_gamma   90.00000000
_symmetry_Int_Tables_number   1
_chemical_formula_structural   Ca4As3H9O16
_chemical_formula_sum   'Ca16 As12 H36 O64'
_cell_volume   1338.44548124
_cell_formula_units_Z   4
loop_
 _symmetry_equiv_pos_site_id
 _symmetry_equiv_pos_as_xyz
  1  'x, y, z'
loop_
 _atom_site_type_symbol
 _atom_site_label
 _atom_site_symmetry_multiplicity
 _atom_site_fract_x
 _atom_site_fract_y
 _atom_site_fract_z
 _atom_site_occupancy
  Ca  Ca0  1  0.22647981  0.32843733  0.50221474  1
  Ca  Ca1  1  0.72647981  0.67156267  0.99778526  1
  Ca  Ca2  1  0.77352019  0.67156267  0.49778526  1
  Ca  Ca3  1  0.27352019  0.32843733  0.00221474  1
  Ca  Ca4  1  0.35436559  0.99730843  0.64145613  1
  Ca  Ca5  1  0.85436559  0.00269157  0.85854387  1
  Ca  Ca6  1  0.64563441  0.00269157  0.35854387  1
  Ca  Ca7  1  0.14563441  0.99730843  0.14145613  1
  Ca  Ca8  1  0.81862671  0.11384110  0.60776283  1
  Ca  Ca9  1  0.31862671  0.88615890  0.89223717  1
  Ca  Ca10  1  0.18137329  0.88615890  0.39223717  1
  Ca  Ca11  1  0.68137329  0.11384110  0.10776283  1
  Ca  Ca12  1  0.86431732  0.55977972  0.74392501  1
  Ca  Ca13  1  0.36431732  0.44022028  0.75607499  1
  Ca  Ca14  1  0.13568268  0.44022028  0.25607499  1
  Ca  Ca15  1  0.63568268  0.55977972  0.24392501  1
  As  As16  1  0.05053919  0.12809998  0.71447530  1
  As  As17  1  0.55053919  0.87190002  0.78552470  1
  As  As18  1  0.94946081  0.87190002  0.28552470  1
  As  As19  1  0.44946081  0.12809998  0.21447530  1
  As  As20  1  0.50265252  0.46196471  0.59696843  1
  As  As21  1  0.00265252  0.53803529  0.90303157  1
  As  As22  1  0.49734748  0.53803529  0.40303157  1
  As  As23  1  0.99734748  0.46196471  0.09696843  1
  As  As24  1  0.08418028  0.77100208  0.54977152  1
  As  As25  1  0.58418028  0.22899792  0.95022848  1
  As  As26  1  0.91581972  0.22899792  0.45022848  1
  As  As27  1  0.41581972  0.77100208  0.04977152  1
  H  H28  1  0.62316363  0.09811265  0.51006337  1
  H  H29  1  0.12316363  0.90188735  0.98993663  1
  H  H30  1  0.37683637  0.90188735  0.48993663  1
  H  H31  1  0.87683637  0.09811265  0.01006337  1
  H  H32  1  0.57108120  0.89682403  0.55677528  1
  H  H33  1  0.07108120  0.10317597  0.94322472  1
  H  H34  1  0.42891880  0.10317597  0.44322472  1
  H  H35  1  0.92891880  0.89682403  0.05677528  1
  H  H36  1  0.63838483  0.76316356  0.68048015  1
  H  H37  1  0.13838483  0.23683644  0.81951985  1
  H  H38  1  0.36161517  0.23683644  0.31951985  1
  H  H39  1  0.86161517  0.76316356  0.18048015  1
  H  H40  1  0.71458842  0.63908261  0.63219982  1
  H  H41  1  0.21458842  0.36091739  0.86780018  1
  H  H42  1  0.28541158  0.36091739  0.36780018  1
  H  H43  1  0.78541158  0.63908261  0.13219982  1
  H  H44  1  0.63184622  0.26732840  0.69273974  1
  H  H45  1  0.13184622  0.73267160  0.80726026  1
  H  H46  1  0.36815378  0.73267160  0.30726026  1
  H  H47  1  0.86815378  0.26732840  0.19273974  1
  H  H48  1  0.73155070  0.09788909  0.73108053  1
  H  H49  1  0.23155070  0.90211091  0.76891947  1
  H  H50  1  0.26844930  0.90211091  0.26891947  1
  H  H51  1  0.76844930  0.09788909  0.23108053  1
  H  H52  1  0.64281172  0.27493135  0.80736843  1
  H  H53  1  0.14281172  0.72506865  0.69263157  1
  H  H54  1  0.35718828  0.72506865  0.19263157  1
  H  H55  1  0.85718828  0.27493135  0.30736843  1
  H  H56  1  0.71364707  0.41738047  0.85183041  1
  H  H57  1  0.21364707  0.58261953  0.64816959  1
  H  H58  1  0.28635293  0.58261953  0.14816959  1
  H  H59  1  0.78635293  0.41738047  0.35183041  1
  H  H60  1  0.06785048  0.42628583  0.61844917  1
  H  H61  1  0.56785048  0.57371417  0.88155083  1
  H  H62  1  0.93214952  0.57371417  0.38155083  1
  H  H63  1  0.43214952  0.42628583  0.11844917  1
  O  O64  1  0.21767213  0.14239985  0.71396055  1
  O  O65  1  0.71767213  0.85760015  0.78603945  1
  O  O66  1  0.78232787  0.85760015  0.28603945  1
  O  O67  1  0.28232787  0.14239985  0.21396055  1
  O  O68  1  0.00174314  0.86041309  0.70163114  1
  O  O69  1  0.50174314  0.13958691  0.79836886  1
  O  O70  1  0.99825686  0.13958691  0.29836886  1
  O  O71  1  0.49825686  0.86041309  0.20163114  1
  O  O72  1  0.98110195  0.32551522  0.66163707  1
  O  O73  1  0.48110195  0.67448478  0.83836293  1
  O  O74  1  0.01889805  0.67448478  0.33836293  1
  O  O75  1  0.51889805  0.32551522  0.16163707  1
  O  O76  1  0.99409009  0.20376447  0.77975262  1
  O  O77  1  0.49409009  0.79623553  0.72024738  1
  O  O78  1  0.00590991  0.79623553  0.22024738  1
  O  O79  1  0.50590991  0.20376447  0.27975262  1
  O  O80  1  0.66723118  0.45929002  0.58247952  1
  O  O81  1  0.16723118  0.54070998  0.91752048  1
  O  O82  1  0.33276882  0.54070998  0.41752048  1
  O  O83  1  0.83276882  0.45929002  0.08247952  1
  O  O84  1  0.45068707  0.74071801  0.58413840  1
  O  O85  1  0.95068707  0.25928199  0.91586160  1
  O  O86  1  0.54931293  0.25928199  0.41586160  1
  O  O87  1  0.04931293  0.74071801  0.08413840  1
  O  O88  1  0.47909082  0.33872701  0.66856472  1
  O  O89  1  0.97909082  0.66127299  0.83143528  1
  O  O90  1  0.52090918  0.66127299  0.33143528  1
  O  O91  1  0.02090918  0.33872701  0.16856472  1
  O  O92  1  0.41606938  0.28437430  0.55807181  1
  O  O93  1  0.91606938  0.71562570  0.94192819  1
  O  O94  1  0.58393062  0.71562570  0.44192819  1
  O  O95  1  0.08393062  0.28437430  0.05807181  1
  O  O96  1  0.88721371  0.30242083  0.51840447  1
  O  O97  1  0.38721371  0.69757917  0.98159553  1
  O  O98  1  0.11278629  0.69757917  0.48159553  1
  O  O99  1  0.61278629  0.30242083  0.01840447  1
  O  O100  1  0.17572521  0.98886129  0.57010258  1
  O  O101  1  0.67572521  0.01113871  0.92989742  1
  O  O102  1  0.82427479  0.01113871  0.42989742  1
  O  O103  1  0.32427479  0.98886129  0.07010258  1
  O  O104  1  0.92398945  0.80453377  0.56377834  1
  O  O105  1  0.42398945  0.19546623  0.93622166  1
  O  O106  1  0.07601055  0.19546623  0.43622166  1
  O  O107  1  0.57601055  0.80453377  0.06377834  1
  O  O108  1  0.14016534  0.50831766  0.58949354  1
  O  O109  1  0.64016534  0.49168234  0.91050646  1
  O  O110  1  0.85983466  0.49168234  0.41050646  1
  O  O111  1  0.35983466  0.50831766  0.08949354  1
  O  O112  1  0.65277472  0.98020450  0.54116330  1
  O  O113  1  0.15277472  0.01979550  0.95883670  1
  O  O114  1  0.34722528  0.01979550  0.45883670  1
  O  O115  1  0.84722528  0.98020450  0.04116330  1
  O  O116  1  0.72609513  0.74891290  0.66220027  1
  O  O117  1  0.22609513  0.25108710  0.83779973  1
  O  O118  1  0.27390487  0.25108710  0.33779973  1
  O  O119  1  0.77390487  0.74891290  0.16220027  1
  O  O120  1  0.72683289  0.23108090  0.69984722  1
  O  O121  1  0.22683289  0.76891910  0.80015278  1
  O  O122  1  0.27316711  0.76891910  0.30015278  1
  O  O123  1  0.77316711  0.23108090  0.19984722  1
  O  O124  1  0.73036939  0.34078109  0.81610238  1
  O  O125  1  0.23036939  0.65921891  0.68389762  1
  O  O126  1  0.26963061  0.65921891  0.18389762  1
  O  O127  1  0.76963061  0.34078109  0.31610238  1
