# generated using pymatgen
data_Y2CrSbO7
_symmetry_space_group_name_H-M   'P 1'
_cell_length_a   7.19780099
_cell_length_b   7.18670283
_cell_length_c   7.24825184
_cell_angle_alpha   89.99996166
_cell_angle_beta   59.76786094
_cell_angle_gamma   119.94908650
_symmetry_Int_Tables_number   1
_chemical_formula_structural   Y2CrSbO7
_chemical_formula_sum   'Y4 Cr2 Sb2 O14'
_cell_volume   264.39364457
_cell_formula_units_Z   2
loop_
 _symmetry_equiv_pos_site_id
 _symmetry_equiv_pos_as_xyz
  1  'x, y, z'
loop_
 _atom_site_type_symbol
 _atom_site_label
 _atom_site_symmetry_multiplicity
 _atom_site_fract_x
 _atom_site_fract_y
 _atom_site_fract_z
 _atom_site_occupancy
  Y  Y0  1  0.50000082  0.50000006  0.99999975  1
  Y  Y1  1  0.50000019  0.00000006  0.00000017  1
  Y  Y2  1  0.99999947  0.99999972  0.50000001  1
  Y  Y3  1  0.99999986  0.99999988  0.00000019  1
  Cr  Cr4  1  0.49999970  0.99999943  0.50000030  1
  Cr  Cr5  1  0.49999974  0.49999977  0.50000011  1
  Sb  Sb6  1  0.99999999  0.49999948  0.00000038  1
  Sb  Sb7  1  0.00000009  0.49999986  0.49999984  1
  O  O8  1  0.25555285  0.12777626  0.12222353  1
  O  O9  1  0.74444737  0.87222383  0.87777640  1
  O  O10  1  0.67644058  0.83822003  0.41178068  1
  O  O11  1  0.83860548  0.41930231  0.83069738  1
  O  O12  1  0.25214941  0.83024779  0.83503730  1
  O  O13  1  0.25215220  0.42190358  0.41281222  1
  O  O14  1  0.25214934  0.42190136  0.83503705  1
  O  O15  1  0.25214966  0.83024763  0.41281319  1
  O  O16  1  0.32355793  0.16177959  0.58822046  1
  O  O17  1  0.16139556  0.58069781  0.16930221  1
  O  O18  1  0.74785005  0.16975225  0.16496351  1
  O  O19  1  0.74784997  0.57809734  0.58718692  1
  O  O20  1  0.74785114  0.57809862  0.16496296  1
  O  O21  1  0.74784960  0.16975236  0.58718744  1
