# generated using pymatgen
data_MgV8(OF)8
_symmetry_space_group_name_H-M   'P 1'
_cell_length_a   4.91824539
_cell_length_b   10.49622666
_cell_length_c   5.72775859
_cell_angle_alpha   83.98767740
_cell_angle_beta   92.82543033
_cell_angle_gamma   88.94211472
_symmetry_Int_Tables_number   1
_chemical_formula_structural   MgV8(OF)8
_chemical_formula_sum   'Mg1 V8 O8 F8'
_cell_volume   293.61718461
_cell_formula_units_Z   1
loop_
 _symmetry_equiv_pos_site_id
 _symmetry_equiv_pos_as_xyz
  1  'x, y, z'
loop_
 _atom_site_type_symbol
 _atom_site_label
 _atom_site_symmetry_multiplicity
 _atom_site_fract_x
 _atom_site_fract_y
 _atom_site_fract_z
 _atom_site_occupancy
  Mg  Mg0  1  0.00663101  0.10682999  0.62562118  1
  V  V1  1  0.48379194  0.27380946  0.73875518  1
  V  V2  1  0.50129813  0.99361801  0.50853984  1
  V  V3  1  0.52254985  0.73385296  0.26343487  1
  V  V4  1  0.49680130  0.50656465  0.99010070  1
  V  V5  1  0.97743262  0.25732340  0.22055416  1
  V  V6  1  0.02215313  0.76344291  0.75468401  1
  V  V7  1  0.00492629  0.50681021  0.49773879  1
  V  V8  1  0.98528406  0.98905762  0.05756343  1
  O  O9  1  0.81044836  0.08367055  0.31981781  1
  O  O10  1  0.69406779  0.82568488  0.53162378  1
  O  O11  1  0.69701179  0.56870527  0.28135716  1
  O  O12  1  0.68962809  0.33789349  0.02576946  1
  O  O13  1  0.29644711  0.44769504  0.71458218  1
  O  O14  1  0.30801357  0.68252127  0.98258452  1
  O  O15  1  0.30844320  0.17626069  0.46020312  1
  O  O16  1  0.17887906  0.93720521  0.72598444  1
  F  F17  1  0.81511731  0.58471292  0.76987042  1
  F  F18  1  0.83544342  0.31883189  0.53441323  1
  F  F19  1  0.80977232  0.81377335  0.04115562  1
  F  F20  1  0.67594825  0.07837807  0.80320446  1
  F  F21  1  0.33439529  0.91641764  0.22551211  1
  F  F22  1  0.18937827  0.68368753  0.47159504  1
  F  F23  1  0.15259483  0.17883415  0.93878142  1
  F  F24  1  0.18965400  0.42816882  0.21893408  1
