# generated using pymatgen
data_Na3La5Cl18
_symmetry_space_group_name_H-M   'P 1'
_cell_length_a   7.58765976
_cell_length_b   7.58764452
_cell_length_c   13.07526834
_cell_angle_alpha   90.00001795
_cell_angle_beta   90.00011068
_cell_angle_gamma   120.00052798
_symmetry_Int_Tables_number   1
_chemical_formula_structural   Na3La5Cl18
_chemical_formula_sum   'Na3 La5 Cl18'
_cell_volume   651.91917668
_cell_formula_units_Z   1
loop_
 _symmetry_equiv_pos_site_id
 _symmetry_equiv_pos_as_xyz
  1  'x, y, z'
loop_
 _atom_site_type_symbol
 _atom_site_label
 _atom_site_symmetry_multiplicity
 _atom_site_fract_x
 _atom_site_fract_y
 _atom_site_fract_z
 _atom_site_occupancy
  Na  Na0  1  -0.00009611  -0.00009994  0.50001060  1
  Na  Na1  1  0.66665479  0.33332051  0.35667550  1
  Na  Na2  1  0.66665548  0.33331899  0.64330726  1
  La  La3  1  0.99999067  0.99999162  0.83304161  1
  La  La4  1  1.00001077  0.00001060  0.16696568  1
  La  La5  1  0.33333633  0.66667177  0.33538173  1
  La  La6  1  0.33333504  0.66666972  0.99999183  1
  La  La7  1  0.33333625  0.66667022  0.66468704  1
  Cl  Cl8  1  0.97248569  0.24774495  -0.00000295  1
  Cl  Cl9  1  0.97711131  0.25230426  0.32912074  1
  Cl  Cl10  1  0.97712522  0.25230650  0.67087112  1
  Cl  Cl11  1  0.75225838  0.72474110  0.99999614  1
  Cl  Cl12  1  0.74770758  0.72481216  0.32912230  1
  Cl  Cl13  1  0.74770215  0.72481614  0.67087316  1
  Cl  Cl14  1  0.05422517  0.63409816  0.83418797  1
  Cl  Cl15  1  0.05422922  0.63410546  0.16580192  1
  Cl  Cl16  1  0.04273980  0.61357611  0.49999957  1
  Cl  Cl17  1  0.27526266  0.02752211  0.99999623  1
  Cl  Cl18  1  0.27521459  0.02290871  0.32911816  1
  Cl  Cl19  1  0.27520472  0.02289762  0.67087641  1
  Cl  Cl20  1  0.57987763  0.94577936  0.83418889  1
  Cl  Cl21  1  0.57988141  0.94578577  0.16579944  1
  Cl  Cl22  1  0.57083944  0.95726771  0.50000037  1
  Cl  Cl23  1  0.36590784  0.42013740  0.83418943  1
  Cl  Cl24  1  0.36590231  0.42013067  0.16580042  1
  Cl  Cl25  1  0.38643467  0.42918031  0.49999844  1
