# generated using pymatgen
data_TaSbO4
_symmetry_space_group_name_H-M   'P 1'
_cell_length_a   4.97034334
_cell_length_b   5.55312363
_cell_length_c   11.86570837
_cell_angle_alpha   90.00000000
_cell_angle_beta   90.00000000
_cell_angle_gamma   90.00000000
_symmetry_Int_Tables_number   1
_chemical_formula_structural   TaSbO4
_chemical_formula_sum   'Ta4 Sb4 O16'
_cell_volume   327.50459859
_cell_formula_units_Z   4
loop_
 _symmetry_equiv_pos_site_id
 _symmetry_equiv_pos_as_xyz
  1  'x, y, z'
loop_
 _atom_site_type_symbol
 _atom_site_label
 _atom_site_symmetry_multiplicity
 _atom_site_fract_x
 _atom_site_fract_y
 _atom_site_fract_z
 _atom_site_occupancy
  Ta  Ta0  1  0.25000000  0.62323675  0.25000000  1
  Ta  Ta1  1  0.25000000  0.87676325  0.75000000  1
  Ta  Ta2  1  0.75000000  0.37676325  0.75000000  1
  Ta  Ta3  1  0.75000000  0.12323675  0.25000000  1
  Sb  Sb4  1  0.19741526  0.25000000  -0.00000000  1
  Sb  Sb5  1  0.30258474  0.25000000  0.50000000  1
  Sb  Sb6  1  0.69741526  0.75000000  0.50000000  1
  Sb  Sb7  1  0.80258474  0.75000000  -0.00000000  1
  O  O8  1  0.08220976  0.57931244  0.09475088  1
  O  O9  1  0.41779024  0.92068756  0.59475088  1
  O  O10  1  0.58220976  0.42068756  0.59475088  1
  O  O11  1  0.91779024  0.07931244  0.09475088  1
  O  O12  1  0.49227357  0.34936732  0.19821476  1
  O  O13  1  0.00772643  0.15063268  0.69821476  1
  O  O14  1  0.99227357  0.65063268  0.69821476  1
  O  O15  1  0.50772643  0.84936732  0.19821476  1
  O  O16  1  0.00772643  0.34936732  0.30178524  1
  O  O17  1  0.49227357  0.15063268  0.80178524  1
  O  O18  1  0.50772643  0.65063268  0.80178524  1
  O  O19  1  0.99227357  0.84936732  0.30178524  1
  O  O20  1  0.41779024  0.57931244  0.40524912  1
  O  O21  1  0.08220976  0.92068756  0.90524912  1
  O  O22  1  0.91779024  0.42068756  0.90524912  1
  O  O23  1  0.58220976  0.07931244  0.40524912  1
