# generated using pymatgen
data_Cs3AsSe4
_symmetry_space_group_name_H-M   'P 1'
_cell_length_a   10.13696570
_cell_length_b   10.32970119
_cell_length_c   12.05357958
_cell_angle_alpha   90.00000000
_cell_angle_beta   90.00000000
_cell_angle_gamma   90.00000000
_symmetry_Int_Tables_number   1
_chemical_formula_structural   Cs3AsSe4
_chemical_formula_sum   'Cs12 As4 Se16'
_cell_volume   1262.15233554
_cell_formula_units_Z   4
loop_
 _symmetry_equiv_pos_site_id
 _symmetry_equiv_pos_as_xyz
  1  'x, y, z'
loop_
 _atom_site_type_symbol
 _atom_site_label
 _atom_site_symmetry_multiplicity
 _atom_site_fract_x
 _atom_site_fract_y
 _atom_site_fract_z
 _atom_site_occupancy
  Cs  Cs0  1  0.54333933  0.69798603  0.04052254  1
  Cs  Cs1  1  0.04333933  0.80201397  0.45947746  1
  Cs  Cs2  1  0.45666067  0.30201397  0.54052254  1
  Cs  Cs3  1  0.95666067  0.19798603  0.95947746  1
  Cs  Cs4  1  0.45666067  0.30201397  0.95947746  1
  Cs  Cs5  1  0.95666067  0.19798603  0.54052254  1
  Cs  Cs6  1  0.54333933  0.69798603  0.45947746  1
  Cs  Cs7  1  0.04333933  0.80201397  0.04052254  1
  Cs  Cs8  1  0.34491696  0.09035588  0.25000000  1
  Cs  Cs9  1  0.84491696  0.40964412  0.25000000  1
  Cs  Cs10  1  0.65508304  0.90964412  0.75000000  1
  Cs  Cs11  1  0.15508304  0.59035588  0.75000000  1
  As  As12  1  0.26996896  0.52522660  0.25000000  1
  As  As13  1  0.76996896  0.97477340  0.25000000  1
  As  As14  1  0.73003104  0.47477340  0.75000000  1
  As  As15  1  0.23003104  0.02522660  0.75000000  1
  Se  Se16  1  0.29541427  0.74880636  0.25000000  1
  Se  Se17  1  0.79541427  0.75119364  0.25000000  1
  Se  Se18  1  0.70458573  0.25119364  0.75000000  1
  Se  Se19  1  0.20458573  0.24880636  0.75000000  1
  Se  Se20  1  0.47824825  0.42776056  0.25000000  1
  Se  Se21  1  0.97824825  0.07223944  0.25000000  1
  Se  Se22  1  0.52175175  0.57223944  0.75000000  1
  Se  Se23  1  0.02175175  0.92776056  0.75000000  1
  Se  Se24  1  0.15816548  0.46452502  0.08978198  1
  Se  Se25  1  0.65816548  0.03547498  0.41021802  1
  Se  Se26  1  0.84183452  0.53547498  0.58978198  1
  Se  Se27  1  0.34183452  0.96452502  0.91021802  1
  Se  Se28  1  0.84183452  0.53547498  0.91021802  1
  Se  Se29  1  0.34183452  0.96452502  0.58978198  1
  Se  Se30  1  0.15816548  0.46452502  0.41021802  1
  Se  Se31  1  0.65816548  0.03547498  0.08978198  1
