# generated using pymatgen
data_Sr(ErSe2)2
_symmetry_space_group_name_H-M   'P 1'
_cell_length_a   4.10498076
_cell_length_b   12.53456157
_cell_length_c   14.83463208
_cell_angle_alpha   90.00000000
_cell_angle_beta   90.00000000
_cell_angle_gamma   90.00000000
_symmetry_Int_Tables_number   1
_chemical_formula_structural   Sr(ErSe2)2
_chemical_formula_sum   'Sr4 Er8 Se16'
_cell_volume   763.30314807
_cell_formula_units_Z   4
loop_
 _symmetry_equiv_pos_site_id
 _symmetry_equiv_pos_as_xyz
  1  'x, y, z'
loop_
 _atom_site_type_symbol
 _atom_site_label
 _atom_site_symmetry_multiplicity
 _atom_site_fract_x
 _atom_site_fract_y
 _atom_site_fract_z
 _atom_site_occupancy
  Sr  Sr0  1  0.25000000  0.75937505  0.33482135  1
  Sr  Sr1  1  0.25000000  0.25937505  0.16517865  1
  Sr  Sr2  1  0.75000000  0.24062495  0.66517865  1
  Sr  Sr3  1  0.75000000  0.74062495  0.83482135  1
  Er  Er4  1  0.25000000  0.43792270  0.38917253  1
  Er  Er5  1  0.25000000  0.93792270  0.11082747  1
  Er  Er6  1  0.75000000  0.56207730  0.61082747  1
  Er  Er7  1  0.75000000  0.06207730  0.88917253  1
  Er  Er8  1  0.25000000  0.41737547  0.90178942  1
  Er  Er9  1  0.25000000  0.91737547  0.59821058  1
  Er  Er10  1  0.75000000  0.58262453  0.09821058  1
  Er  Er11  1  0.75000000  0.08262453  0.40178942  1
  Se  Se12  1  0.25000000  0.20515306  0.83030746  1
  Se  Se13  1  0.25000000  0.70515306  0.66969254  1
  Se  Se14  1  0.75000000  0.79484694  0.16969254  1
  Se  Se15  1  0.75000000  0.29484694  0.33030746  1
  Se  Se16  1  0.25000000  0.12823245  0.52975765  1
  Se  Se17  1  0.25000000  0.62823245  0.97024235  1
  Se  Se18  1  0.75000000  0.87176755  0.47024235  1
  Se  Se19  1  0.75000000  0.37176755  0.02975765  1
  Se  Se20  1  0.25000000  0.02714661  0.28427072  1
  Se  Se21  1  0.25000000  0.52714661  0.21572928  1
  Se  Se22  1  0.75000000  0.97285339  0.71572928  1
  Se  Se23  1  0.75000000  0.47285339  0.78427072  1
  Se  Se24  1  0.25000000  0.41043607  0.57662938  1
  Se  Se25  1  0.25000000  0.91043607  0.92337062  1
  Se  Se26  1  0.75000000  0.58956393  0.42337062  1
  Se  Se27  1  0.75000000  0.08956393  0.07662938  1
