# generated using pymatgen
data_NaAgTe5O14
_symmetry_space_group_name_H-M   'P 1'
_cell_length_a   24.68938156
_cell_length_b   6.67168338
_cell_length_c   7.32936734
_cell_angle_alpha   68.97665989
_cell_angle_beta   90.00000000
_cell_angle_gamma   90.00000000
_symmetry_Int_Tables_number   1
_chemical_formula_structural   NaAgTe5O14
_chemical_formula_sum   'Na4 Ag4 Te20 O56'
_cell_volume   1126.92733218
_cell_formula_units_Z   4
loop_
 _symmetry_equiv_pos_site_id
 _symmetry_equiv_pos_as_xyz
  1  'x, y, z'
loop_
 _atom_site_type_symbol
 _atom_site_label
 _atom_site_symmetry_multiplicity
 _atom_site_fract_x
 _atom_site_fract_y
 _atom_site_fract_z
 _atom_site_occupancy
  Na  Na0  1  0.37361042  0.94902964  0.76364911  1
  Na  Na1  1  0.62638958  0.05097036  0.23635089  1
  Na  Na2  1  0.87361042  0.05097036  0.73635089  1
  Na  Na3  1  0.12638958  0.94902964  0.26364911  1
  Ag  Ag4  1  0.06600934  0.47907179  0.65120792  1
  Ag  Ag5  1  0.93399066  0.52092821  0.34879208  1
  Ag  Ag6  1  0.56600934  0.52092821  0.84879208  1
  Ag  Ag7  1  0.43399066  0.47907179  0.15120792  1
  Te  Te8  1  0.12532186  0.93178486  0.77257949  1
  Te  Te9  1  0.87467814  0.06821514  0.22742051  1
  Te  Te10  1  0.62532186  0.06821514  0.72742051  1
  Te  Te11  1  0.37467814  0.93178486  0.27257949  1
  Te  Te12  1  0.31148915  0.39942926  0.89538924  1
  Te  Te13  1  0.68851085  0.60057074  0.10461076  1
  Te  Te14  1  0.81148915  0.60057074  0.60461076  1
  Te  Te15  1  0.18851085  0.39942926  0.39538924  1
  Te  Te16  1  0.25093278  0.86690687  0.55094997  1
  Te  Te17  1  0.74906722  0.13309313  0.44905003  1
  Te  Te18  1  0.75093278  0.13309313  0.94905003  1
  Te  Te19  1  0.24906722  0.86690687  0.05094997  1
  Te  Te20  1  0.42921336  0.46948422  0.66841458  1
  Te  Te21  1  0.57078664  0.53051578  0.33158542  1
  Te  Te22  1  0.92921336  0.53051578  0.83158542  1
  Te  Te23  1  0.07078664  0.46948422  0.16841458  1
  Te  Te24  1  0.50000000  0.00000000  0.00000000  1
  Te  Te25  1  0.00000000  0.00000000  0.50000000  1
  Te  Te26  1  0.50000000  0.00000000  0.50000000  1
  Te  Te27  1  0.00000000  0.00000000  0.00000000  1
  O  O28  1  0.10464548  0.64302629  0.90896799  1
  O  O29  1  0.89535452  0.35697371  0.09103201  1
  O  O30  1  0.60464548  0.35697371  0.59103201  1
  O  O31  1  0.39535452  0.64302629  0.40896799  1
  O  O32  1  0.26350450  0.56966449  0.63562406  1
  O  O33  1  0.73649550  0.43033551  0.36437594  1
  O  O34  1  0.76350450  0.43033551  0.86437594  1
  O  O35  1  0.23649550  0.56966449  0.13562406  1
  O  O36  1  0.98186988  0.70865583  0.55977716  1
  O  O37  1  0.01813012  0.29134417  0.44022284  1
  O  O38  1  0.48186988  0.29134417  0.94022284  1
  O  O39  1  0.51813012  0.70865583  0.05977716  1
  O  O40  1  0.27600752  0.86958213  0.80195515  1
  O  O41  1  0.72399248  0.13041787  0.19804485  1
  O  O42  1  0.77600752  0.13041787  0.69804485  1
  O  O43  1  0.22399248  0.86958213  0.30195515  1
  O  O44  1  0.17414816  0.92186050  0.98134979  1
  O  O45  1  0.82585184  0.07813950  0.01865021  1
  O  O46  1  0.67414816  0.07813950  0.51865021  1
  O  O47  1  0.32585184  0.92186050  0.48134979  1
  O  O48  1  0.97419576  0.97521910  0.75965820  1
  O  O49  1  0.02580424  0.02478090  0.24034180  1
  O  O50  1  0.47419576  0.02478090  0.74034180  1
  O  O51  1  0.52580424  0.97521910  0.25965820  1
  O  O52  1  0.14272474  0.22158299  0.63847574  1
  O  O53  1  0.85727526  0.77841701  0.36152426  1
  O  O54  1  0.64272474  0.77841701  0.86152426  1
  O  O55  1  0.35727526  0.22158299  0.13847574  1
  O  O56  1  0.75713327  0.82721716  0.54209944  1
  O  O57  1  0.24286673  0.17278284  0.45790056  1
  O  O58  1  0.25713327  0.17278284  0.95790056  1
  O  O59  1  0.74286673  0.82721716  0.04209944  1
  O  O60  1  0.92519074  0.96062412  0.07955904  1
  O  O61  1  0.07480926  0.03937588  0.92044096  1
  O  O62  1  0.42519074  0.03937588  0.42044096  1
  O  O63  1  0.57480926  0.96062412  0.57955904  1
  O  O64  1  0.49292203  0.69457458  0.60697226  1
  O  O65  1  0.50707797  0.30542542  0.39302774  1
  O  O66  1  0.99292203  0.30542542  0.89302774  1
  O  O67  1  0.00707797  0.69457458  0.10697226  1
  O  O68  1  0.85454924  0.71116650  0.76007939  1
  O  O69  1  0.14545076  0.28883350  0.23992061  1
  O  O70  1  0.35454924  0.28883350  0.73992061  1
  O  O71  1  0.64545076  0.71116650  0.26007939  1
  O  O72  1  0.17600469  0.82321822  0.62883916  1
  O  O73  1  0.82399531  0.17678178  0.37116084  1
  O  O74  1  0.67600469  0.17678178  0.87116084  1
  O  O75  1  0.32399531  0.82321822  0.12883916  1
  O  O76  1  0.07506146  0.92156576  0.57280180  1
  O  O77  1  0.92493854  0.07843424  0.42719820  1
  O  O78  1  0.57506146  0.07843424  0.92719820  1
  O  O79  1  0.42493854  0.92156576  0.07280180  1
  O  O80  1  0.39553936  0.60489272  0.81999332  1
  O  O81  1  0.60446064  0.39510728  0.18000668  1
  O  O82  1  0.89553936  0.39510728  0.68000668  1
  O  O83  1  0.10446064  0.60489272  0.31999332  1
