# generated using pymatgen
data_RbTaGeO5
_symmetry_space_group_name_H-M   'P 1'
_cell_length_a   7.54123976
_cell_length_b   10.53036208
_cell_length_c   20.89603572
_cell_angle_alpha   90.00000000
_cell_angle_beta   90.00000000
_cell_angle_gamma   90.00000000
_symmetry_Int_Tables_number   1
_chemical_formula_structural   RbTaGeO5
_chemical_formula_sum   'Rb12 Ta12 Ge12 O60'
_cell_volume   1659.39567944
_cell_formula_units_Z   12
loop_
 _symmetry_equiv_pos_site_id
 _symmetry_equiv_pos_as_xyz
  1  'x, y, z'
loop_
 _atom_site_type_symbol
 _atom_site_label
 _atom_site_symmetry_multiplicity
 _atom_site_fract_x
 _atom_site_fract_y
 _atom_site_fract_z
 _atom_site_occupancy
  Rb  Rb0  1  0.24023251  0.38133343  0.34920487  1
  Rb  Rb1  1  0.25976749  0.61866657  0.84920487  1
  Rb  Rb2  1  0.75976749  0.88133343  0.15079513  1
  Rb  Rb3  1  0.74023251  0.11866657  0.65079513  1
  Rb  Rb4  1  0.25920737  0.68535913  0.16651310  1
  Rb  Rb5  1  0.24079263  0.31464087  0.66651310  1
  Rb  Rb6  1  0.74079263  0.18535913  0.33348690  1
  Rb  Rb7  1  0.75920737  0.81464087  0.83348690  1
  Rb  Rb8  1  0.22229851  0.38651899  0.01703834  1
  Rb  Rb9  1  0.27770149  0.61348101  0.51703834  1
  Rb  Rb10  1  0.77770149  0.88651899  0.48296166  1
  Rb  Rb11  1  0.72229851  0.11348101  0.98296166  1
  Ta  Ta12  1  0.25385442  0.02026111  0.40024874  1
  Ta  Ta13  1  0.24614558  0.97973889  0.90024874  1
  Ta  Ta14  1  0.74614558  0.52026111  0.09975126  1
  Ta  Ta15  1  0.75385442  0.47973889  0.59975126  1
  Ta  Ta16  1  0.48726058  0.25973235  0.49976198  1
  Ta  Ta17  1  0.01273942  0.74026765  0.99976198  1
  Ta  Ta18  1  0.51273942  0.75973235  0.00023802  1
  Ta  Ta19  1  0.98726058  0.24026765  0.50023802  1
  Ta  Ta20  1  0.24031871  0.01448620  0.07399583  1
  Ta  Ta21  1  0.25968129  0.98551380  0.57399583  1
  Ta  Ta22  1  0.75968129  0.51448620  0.42600417  1
  Ta  Ta23  1  0.74031871  0.48551380  0.92600417  1
  Ge  Ge24  1  0.51934467  0.24601737  0.14844451  1
  Ge  Ge25  1  0.98065533  0.75398263  0.64844451  1
  Ge  Ge26  1  0.48065533  0.74601737  0.35155549  1
  Ge  Ge27  1  0.01934467  0.25398263  0.85155549  1
  Ge  Ge28  1  0.23505080  0.11636089  0.23127323  1
  Ge  Ge29  1  0.26494920  0.88363911  0.73127323  1
  Ge  Ge30  1  0.76494920  0.61636089  0.26872677  1
  Ge  Ge31  1  0.73505080  0.38363911  0.76872677  1
  Ge  Ge32  1  0.06401651  0.73039949  0.35208691  1
  Ge  Ge33  1  0.43598349  0.26960051  0.85208691  1
  Ge  Ge34  1  0.93598349  0.23039949  0.14791309  1
  Ge  Ge35  1  0.56401651  0.76960051  0.64791309  1
  O  O36  1  0.06116880  0.10334845  0.56245697  1
  O  O37  1  0.43883120  0.89665155  0.06245697  1
  O  O38  1  0.93883120  0.60334845  0.93754303  1
  O  O39  1  0.56116880  0.39665155  0.43754303  1
  O  O40  1  0.24036393  0.08869595  0.31244080  1
  O  O41  1  0.25963607  0.91130405  0.81244080  1
  O  O42  1  0.75963607  0.58869595  0.18755920  1
  O  O43  1  0.74036393  0.41130405  0.68755920  1
  O  O44  1  0.03105879  0.13776886  0.08792263  1
  O  O45  1  0.46894121  0.86223114  0.58792263  1
  O  O46  1  0.96894121  0.63776886  0.41207737  1
  O  O47  1  0.53105879  0.36223114  0.91207737  1
  O  O48  1  0.03590481  0.20860815  0.22463403  1
  O  O49  1  0.46409519  0.79139185  0.72463403  1
  O  O50  1  0.96409519  0.70860815  0.27536597  1
  O  O51  1  0.53590481  0.29139185  0.77536597  1
  O  O52  1  0.41019404  0.16609768  0.08692016  1
  O  O53  1  0.08980596  0.83390232  0.58692016  1
  O  O54  1  0.58980596  0.66609768  0.41307984  1
  O  O55  1  0.91019404  0.33390232  0.91307984  1
  O  O56  1  0.40958527  0.23162283  0.22369033  1
  O  O57  1  0.09041473  0.76837717  0.72369033  1
  O  O58  1  0.59041473  0.73162283  0.27630967  1
  O  O59  1  0.90958527  0.26837717  0.77630967  1
  O  O60  1  0.23746721  0.31167213  0.50151746  1
  O  O61  1  0.26253279  0.68832787  0.00151746  1
  O  O62  1  0.76253279  0.81167213  0.99848254  1
  O  O63  1  0.73746721  0.18832787  0.49848254  1
  O  O64  1  0.42761723  0.14635607  0.42530420  1
  O  O65  1  0.07238277  0.85364393  0.92530420  1
  O  O66  1  0.57238277  0.64635607  0.07469580  1
  O  O67  1  0.92761723  0.35364393  0.57469580  1
  O  O68  1  0.73458105  0.43856713  0.01446260  1
  O  O69  1  0.76541895  0.56143287  0.51446260  1
  O  O70  1  0.26541895  0.93856713  0.48553740  1
  O  O71  1  0.23458105  0.06143287  0.98553740  1
  O  O72  1  0.05586426  0.12597298  0.42889150  1
  O  O73  1  0.44413574  0.87402702  0.92889150  1
  O  O74  1  0.94413574  0.62597298  0.07110850  1
  O  O75  1  0.55586426  0.37402702  0.57110850  1
  O  O76  1  0.72220953  0.16375911  0.16444788  1
  O  O77  1  0.77779047  0.83624089  0.66444788  1
  O  O78  1  0.27779047  0.66375911  0.33555212  1
  O  O79  1  0.22220953  0.33624089  0.83555212  1
  O  O80  1  0.24618284  0.99324927  0.17509617  1
  O  O81  1  0.25381716  0.00675073  0.67509617  1
  O  O82  1  0.75381716  0.49324927  0.32490383  1
  O  O83  1  0.74618284  0.50675073  0.82490383  1
  O  O84  1  0.54447427  0.40521496  0.12991694  1
  O  O85  1  0.95552573  0.59478504  0.62991694  1
  O  O86  1  0.45552573  0.90521496  0.37008306  1
  O  O87  1  0.04447427  0.09478504  0.87008306  1
  O  O88  1  0.06618836  0.88887236  0.37350445  1
  O  O89  1  0.43381164  0.11112764  0.87350445  1
  O  O90  1  0.93381164  0.38887236  0.12649555  1
  O  O91  1  0.56618836  0.61112764  0.62649555  1
  O  O92  1  0.42535168  0.12444191  0.56494672  1
  O  O93  1  0.07464832  0.87555809  0.06494672  1
  O  O94  1  0.57464832  0.62444191  0.93505328  1
  O  O95  1  0.92535168  0.37555809  0.43505328  1
