# generated using pymatgen
data_ZnCu2SiS4
_symmetry_space_group_name_H-M   'P 1'
_cell_length_a   6.09989659
_cell_length_b   6.35676319
_cell_length_c   7.35778961
_cell_angle_alpha   90.00000000
_cell_angle_beta   90.00931716
_cell_angle_gamma   90.00000000
_symmetry_Int_Tables_number   1
_chemical_formula_structural   ZnCu2SiS4
_chemical_formula_sum   'Zn2 Cu4 Si2 S8'
_cell_volume   285.30268929
_cell_formula_units_Z   2
loop_
 _symmetry_equiv_pos_site_id
 _symmetry_equiv_pos_as_xyz
  1  'x, y, z'
loop_
 _atom_site_type_symbol
 _atom_site_label
 _atom_site_symmetry_multiplicity
 _atom_site_fract_x
 _atom_site_fract_y
 _atom_site_fract_z
 _atom_site_occupancy
  Zn  Zn0  1  0.41748978  0.32643734  0.27059426  1
  Zn  Zn1  1  0.91748978  0.67356266  0.77059426  1
  Cu  Cu2  1  0.42219426  0.32584951  0.77677814  1
  Cu  Cu3  1  0.92219426  0.67415049  0.27677814  1
  Cu  Cu4  1  0.91628008  0.15302255  0.02735240  1
  Cu  Cu5  1  0.41628008  0.84697745  0.52735240  1
  Si  Si6  1  0.41300513  0.82600305  0.02402335  1
  Si  Si7  1  0.91300513  0.17399695  0.52402335  1
  S  S8  1  0.79979302  0.33126896  0.28386288  1
  S  S9  1  0.29979302  0.66873104  0.78386288  1
  S  S10  1  0.79449687  0.32607048  0.76517256  1
  S  S11  1  0.29449687  0.67392952  0.26517256  1
  S  S12  1  0.76423067  0.82405434  0.02760770  1
  S  S13  1  0.26423067  0.17594566  0.52760770  1
  S  S14  1  0.29061019  0.14149523  0.02020770  1
  S  S15  1  0.79061019  0.85850477  0.52020770  1
