# generated using pymatgen
data_Cs2Se
_symmetry_space_group_name_H-M   'P 1'
_cell_length_a   5.54345983
_cell_length_b   8.96443388
_cell_length_c   10.89023568
_cell_angle_alpha   90.00000000
_cell_angle_beta   90.00000000
_cell_angle_gamma   90.00000000
_symmetry_Int_Tables_number   1
_chemical_formula_structural   Cs2Se
_chemical_formula_sum   'Cs8 Se4'
_cell_volume   541.17914441
_cell_formula_units_Z   4
loop_
 _symmetry_equiv_pos_site_id
 _symmetry_equiv_pos_as_xyz
  1  'x, y, z'
loop_
 _atom_site_type_symbol
 _atom_site_label
 _atom_site_symmetry_multiplicity
 _atom_site_fract_x
 _atom_site_fract_y
 _atom_site_fract_z
 _atom_site_occupancy
  Cs  Cs0  1  0.75000000  0.47405278  0.67175385  1
  Cs  Cs1  1  0.75000000  0.97405278  0.82824615  1
  Cs  Cs2  1  0.25000000  0.52594722  0.32824615  1
  Cs  Cs3  1  0.25000000  0.02594722  0.17175385  1
  Cs  Cs4  1  0.75000000  0.35487970  0.07355272  1
  Cs  Cs5  1  0.75000000  0.85487970  0.42644728  1
  Cs  Cs6  1  0.25000000  0.64512030  0.92644728  1
  Cs  Cs7  1  0.25000000  0.14512030  0.57355272  1
  Se  Se8  1  0.75000000  0.25478023  0.38773292  1
  Se  Se9  1  0.75000000  0.75478023  0.11226708  1
  Se  Se10  1  0.25000000  0.74521977  0.61226708  1
  Se  Se11  1  0.25000000  0.24521977  0.88773292  1
