# generated using pymatgen
data_Li3In2(PO4)3
_symmetry_space_group_name_H-M   'P 1'
_cell_length_a   8.54682121
_cell_length_b   8.87996970
_cell_length_c   12.22097782
_cell_angle_alpha   90.00000000
_cell_angle_beta   89.98802986
_cell_angle_gamma   90.00000000
_symmetry_Int_Tables_number   1
_chemical_formula_structural   Li3In2(PO4)3
_chemical_formula_sum   'Li12 In8 P12 O48'
_cell_volume   927.51736549
_cell_formula_units_Z   4
loop_
 _symmetry_equiv_pos_site_id
 _symmetry_equiv_pos_as_xyz
  1  'x, y, z'
loop_
 _atom_site_type_symbol
 _atom_site_label
 _atom_site_symmetry_multiplicity
 _atom_site_fract_x
 _atom_site_fract_y
 _atom_site_fract_z
 _atom_site_occupancy
  Li  Li0  1  0.82113940  0.21828642  0.18023515  1
  Li  Li1  1  0.67886060  0.71828642  0.31976485  1
  Li  Li2  1  0.17886060  0.78171358  0.81976485  1
  Li  Li3  1  0.32113940  0.28171358  0.68023515  1
  Li  Li4  1  0.56446624  0.98781400  0.15095532  1
  Li  Li5  1  0.93553376  0.48781400  0.34904468  1
  Li  Li6  1  0.43553376  0.01218600  0.84904468  1
  Li  Li7  1  0.06446624  0.51218600  0.65095532  1
  Li  Li8  1  0.91570386  0.91409174  0.68525184  1
  Li  Li9  1  0.58429614  0.41409174  0.81474816  1
  Li  Li10  1  0.08429614  0.08590826  0.31474816  1
  Li  Li11  1  0.41570386  0.58590826  0.18525184  1
  In  In12  1  0.74057390  0.03801581  0.39639403  1
  In  In13  1  0.75942610  0.53801581  0.10360597  1
  In  In14  1  0.25942610  0.96198419  0.60360597  1
  In  In15  1  0.24057390  0.46198419  0.89639403  1
  In  In16  1  0.76264692  0.96870168  0.89770104  1
  In  In17  1  0.73735308  0.46870168  0.60229896  1
  In  In18  1  0.23735308  0.03129832  0.10229896  1
  In  In19  1  0.26264692  0.53129832  0.39770104  1
  P  P20  1  0.54621625  0.24764799  0.00867653  1
  P  P21  1  0.95378375  0.74764799  0.49132347  1
  P  P22  1  0.45378375  0.75235201  0.99132347  1
  P  P23  1  0.04621625  0.25235201  0.50867653  1
  P  P24  1  0.61003211  0.12087537  0.65777436  1
  P  P25  1  0.88996789  0.62087537  0.84222564  1
  P  P26  1  0.38996789  0.87912463  0.34222564  1
  P  P27  1  0.11003211  0.37912463  0.15777436  1
  P  P28  1  0.88316556  0.89221707  0.15385299  1
  P  P29  1  0.61683444  0.39221707  0.34614701  1
  P  P30  1  0.11683444  0.10778293  0.84614701  1
  P  P31  1  0.38316556  0.60778293  0.65385299  1
  O  O32  1  0.88143417  0.79105308  0.81644561  1
  O  O33  1  0.61856583  0.29105308  0.68355439  1
  O  O34  1  0.11856583  0.20894692  0.18355439  1
  O  O35  1  0.38143417  0.70894692  0.31644561  1
  O  O36  1  0.55866209  0.92295505  0.30476655  1
  O  O37  1  0.94133791  0.42295505  0.19523345  1
  O  O38  1  0.44133791  0.07704495  0.69523345  1
  O  O39  1  0.05866209  0.57704495  0.80476655  1
  O  O40  1  0.54929617  0.83033173  0.90188449  1
  O  O41  1  0.95070383  0.33033173  0.59811551  1
  O  O42  1  0.45070383  0.16966827  0.09811551  1
  O  O43  1  0.04929617  0.66966827  0.40188449  1
  O  O44  1  0.95851761  0.12808273  0.44807577  1
  O  O45  1  0.54148239  0.62808273  0.05192423  1
  O  O46  1  0.04148239  0.87191727  0.55192423  1
  O  O47  1  0.45851761  0.37191727  0.94807577  1
  O  O48  1  0.88425821  0.00628533  0.24975399  1
  O  O49  1  0.61574179  0.50628533  0.25024601  1
  O  O50  1  0.11574179  0.99371467  0.75024601  1
  O  O51  1  0.38425821  0.49371467  0.74975399  1
  O  O52  1  0.67641020  0.23881940  0.30582578  1
  O  O53  1  0.82358980  0.73881940  0.19417422  1
  O  O54  1  0.32358980  0.76118060  0.69417422  1
  O  O55  1  0.17641020  0.26118060  0.80582578  1
  O  O56  1  0.76064099  0.95633995  0.07273324  1
  O  O57  1  0.73935901  0.45633995  0.42726676  1
  O  O58  1  0.23935901  0.04366005  0.92726676  1
  O  O59  1  0.26064099  0.54366005  0.57273324  1
  O  O60  1  0.72958482  0.02776148  0.72089143  1
  O  O61  1  0.77041518  0.52776148  0.77910857  1
  O  O62  1  0.27041518  0.97223852  0.27910857  1
  O  O63  1  0.22958482  0.47223852  0.22089143  1
  O  O64  1  0.80391849  0.81131573  0.43913013  1
  O  O65  1  0.69608151  0.31131573  0.06086987  1
  O  O66  1  0.19608151  0.18868427  0.56086987  1
  O  O67  1  0.30391849  0.68868427  0.93913013  1
  O  O68  1  0.95698252  0.11568370  0.89873712  1
  O  O69  1  0.54301748  0.61568370  0.60126288  1
  O  O70  1  0.04301748  0.88431630  0.10126288  1
  O  O71  1  0.45698252  0.38431630  0.39873712  1
  O  O72  1  0.59095901  0.13649342  0.91740882  1
  O  O73  1  0.90904099  0.63649342  0.58259118  1
  O  O74  1  0.40903999  0.86350658  0.08259118  1
  O  O75  1  0.09096001  0.36350658  0.41740882  1
  O  O76  1  0.62498385  0.10061608  0.53584367  1
  O  O77  1  0.87501615  0.60061608  0.96415633  1
  O  O78  1  0.37501615  0.89938392  0.46415633  1
  O  O79  1  0.12498385  0.39938392  0.03584367  1
