# generated using pymatgen
data_MgV5(MoO5)5
_symmetry_space_group_name_H-M   'P 1'
_cell_length_a   19.09739548
_cell_length_b   5.49999225
_cell_length_c   6.63359641
_cell_angle_alpha   103.83411132
_cell_angle_beta   109.46656029
_cell_angle_gamma   45.92421616
_symmetry_Int_Tables_number   1
_chemical_formula_structural   MgV5(MoO5)5
_chemical_formula_sum   'Mg1 V5 Mo5 O25'
_cell_volume   471.92711925
_cell_formula_units_Z   1
loop_
 _symmetry_equiv_pos_site_id
 _symmetry_equiv_pos_as_xyz
  1  'x, y, z'
loop_
 _atom_site_type_symbol
 _atom_site_label
 _atom_site_symmetry_multiplicity
 _atom_site_fract_x
 _atom_site_fract_y
 _atom_site_fract_z
 _atom_site_occupancy
  Mg  Mg0  1  0.64072600  0.57135200  0.24877800  1
  V  V1  1  0.03148700  0.14237400  0.61307700  1
  V  V2  1  0.22228500  0.16759300  0.61463100  1
  V  V3  1  0.40469800  0.99878000  0.99634200  1
  V  V4  1  0.59461900  0.00409000  0.97959400  1
  V  V5  1  0.79790600  0.98328200  0.98301100  1
  Mo  Mo6  1  0.99438400  0.02389000  0.01685100  1
  Mo  Mo7  1  0.20219200  0.00679300  0.01085500  1
  Mo  Mo8  1  0.41410200  0.17405900  0.58813200  1
  Mo  Mo9  1  0.62915900  0.11967600  0.59099200  1
  Mo  Mo10  1  0.83416000  0.09988900  0.58308700  1
  O  O11  1  0.01946700  0.05903900  0.29919300  1
  O  O12  1  0.07468100  0.08761900  0.93303000  1
  O  O13  1  0.14730300  0.08630400  0.68098800  1
  O  O14  1  0.08563700  0.58020200  0.99079700  1
  O  O15  1  0.20968400  0.09693700  0.29307000  1
  O  O16  1  0.13757000  0.59141900  0.60803200  1
  O  O17  1  0.28271400  0.05523300  0.93985200  1
  O  O18  1  0.35398700  0.04829400  0.67174800  1
  O  O19  1  0.28518100  0.56550600  0.00820600  1
  O  O20  1  0.40401400  0.09503100  0.30521300  1
  O  O21  1  0.32098200  0.61407700  0.58531600  1
  O  O22  1  0.46526900  0.12949100  0.91989300  1
  O  O23  1  0.53141000  0.12273400  0.66083700  1
  O  O24  1  0.51782700  0.59562100  0.06149000  1
  O  O25  1  0.59599100  0.04089500  0.27695200  1
  O  O26  1  0.54752000  0.56284900  0.57970600  1
  O  O27  1  0.68066300  0.04215600  0.91588100  1
  O  O28  1  0.75981300  0.01772700  0.66045400  1
  O  O29  1  0.67557300  0.57044300  0.98106100  1
  O  O30  1  0.78733500  0.10606700  0.28029700  1
  O  O31  1  0.71675800  0.57798700  0.56295900  1
  O  O32  1  0.87856200  0.08345000  0.94274700  1
  O  O33  1  0.93842300  0.09704000  0.65367300  1
  O  O34  1  0.89307700  0.56018600  0.00872900  1
  O  O35  1  0.94142300  0.57144200  0.58619700  1
