# generated using pymatgen
data_Sr6Al12Bi2O27
_symmetry_space_group_name_H-M   'P 1'
_cell_length_a   10.53146751
_cell_length_b   10.53146751
_cell_length_c   10.53146745
_cell_angle_alpha   115.04782172
_cell_angle_beta   115.04782165
_cell_angle_gamma   115.04781930
_symmetry_Int_Tables_number   1
_chemical_formula_structural   Sr6Al12Bi2O27
_chemical_formula_sum   'Sr6 Al12 Bi2 O27'
_cell_volume   650.85971612
_cell_formula_units_Z   1
loop_
 _symmetry_equiv_pos_site_id
 _symmetry_equiv_pos_as_xyz
  1  'x, y, z'
loop_
 _atom_site_type_symbol
 _atom_site_label
 _atom_site_symmetry_multiplicity
 _atom_site_fract_x
 _atom_site_fract_y
 _atom_site_fract_z
 _atom_site_occupancy
  Sr  Sr0  1  0.19840234  0.23974914  0.84181783  1
  Sr  Sr1  1  0.23974914  0.84181783  0.19840234  1
  Sr  Sr2  1  0.84181783  0.19840234  0.23974914  1
  Sr  Sr3  1  0.80193919  0.77030456  0.16182517  1
  Sr  Sr4  1  0.77030456  0.16182517  0.80193919  1
  Sr  Sr5  1  0.16182517  0.80193919  0.77030456  1
  Al  Al6  1  0.01837599  0.56004804  0.26003304  1
  Al  Al7  1  0.56004804  0.26003304  0.01837599  1
  Al  Al8  1  0.26003304  0.01837599  0.56004804  1
  Al  Al9  1  0.97836604  0.43703058  0.73808438  1
  Al  Al10  1  0.43703058  0.73808438  0.97836604  1
  Al  Al11  1  0.73808438  0.97836604  0.43703058  1
  Al  Al12  1  0.34662765  0.38828727  0.66122520  1
  Al  Al13  1  0.38828727  0.66122520  0.34662765  1
  Al  Al14  1  0.66122520  0.34662765  0.38828727  1
  Al  Al15  1  0.66212037  0.61753236  0.34088934  1
  Al  Al16  1  0.61753236  0.34088934  0.66212037  1
  Al  Al17  1  0.34088934  0.66212037  0.61753236  1
  Bi  Bi18  1  0.19632370  0.19632370  0.19632370  1
  Bi  Bi19  1  0.77299831  0.77299831  0.77299831  1
  O  O20  1  0.68214713  0.94210810  0.23633295  1
  O  O21  1  0.94210810  0.23633295  0.68214713  1
  O  O22  1  0.23633295  0.68214713  0.94210810  1
  O  O23  1  0.31073869  0.05652957  0.76115438  1
  O  O24  1  0.05652957  0.76115438  0.31073869  1
  O  O25  1  0.76115438  0.31073869  0.05652957  1
  O  O26  1  0.59281435  0.49801249  0.76945496  1
  O  O27  1  0.49801249  0.76945496  0.59281435  1
  O  O28  1  0.76945496  0.59281435  0.49801249  1
  O  O29  1  0.42234110  0.51202243  0.24661570  1
  O  O30  1  0.51202243  0.24661570  0.42234110  1
  O  O31  1  0.24661570  0.42234110  0.51202243  1
  O  O32  1  0.13177025  0.52965396  0.18286841  1
  O  O33  1  0.52965396  0.18286841  0.13177025  1
  O  O34  1  0.18286841  0.13177025  0.52965396  1
  O  O35  1  0.86989265  0.46170298  0.82300396  1
  O  O36  1  0.46170298  0.82300396  0.86989265  1
  O  O37  1  0.82300396  0.86989265  0.46170298  1
  O  O38  1  0.52859021  0.87666954  0.39801917  1
  O  O39  1  0.87666954  0.39801917  0.52859021  1
  O  O40  1  0.39801917  0.52859021  0.87666954  1
  O  O41  1  0.47180524  0.12081240  0.60260936  1
  O  O42  1  0.12081240  0.60260936  0.47180524  1
  O  O43  1  0.60260936  0.47180524  0.12081240  1
  O  O44  1  0.89889656  0.98389667  0.07955434  1
  O  O45  1  0.98389667  0.07955434  0.89889656  1
  O  O46  1  0.07955434  0.89889656  0.98389667  1
