# generated using pymatgen
data_Na3MoO4
_symmetry_space_group_name_H-M   'P 1'
_cell_length_a   5.50219437
_cell_length_b   5.92983522
_cell_length_c   7.50555680
_cell_angle_alpha   89.99999445
_cell_angle_beta   90.00001073
_cell_angle_gamma   90.00398625
_symmetry_Int_Tables_number   1
_chemical_formula_structural   Na3MoO4
_chemical_formula_sum   'Na6 Mo2 O8'
_cell_volume   244.88459673
_cell_formula_units_Z   2
loop_
 _symmetry_equiv_pos_site_id
 _symmetry_equiv_pos_as_xyz
  1  'x, y, z'
loop_
 _atom_site_type_symbol
 _atom_site_label
 _atom_site_symmetry_multiplicity
 _atom_site_fract_x
 _atom_site_fract_y
 _atom_site_fract_z
 _atom_site_occupancy
  Na  Na0  1  0.50548789  0.83596116  0.25742229  1
  Na  Na1  1  0.00547498  0.16405006  0.24261043  1
  Na  Na2  1  0.00547495  0.16405017  0.75738994  1
  Na  Na3  1  0.50548786  0.83596108  0.74257753  1
  Na  Na4  1  0.49232737  0.34751035  -0.00000006  1
  Na  Na5  1  0.99231516  0.65248505  0.49999988  1
  Mo  Mo6  1  0.01671246  0.67015725  0.00000011  1
  Mo  Mo7  1  0.51671440  0.32985813  0.49999989  1
  O  O8  1  0.92106787  0.78562930  0.21611449  1
  O  O9  1  0.42102223  0.21434177  0.28389904  1
  O  O10  1  0.42102213  0.21434148  0.71610103  1
  O  O11  1  0.92106777  0.78562931  0.78388539  1
  O  O12  1  0.34420066  0.72217595  0.00000005  1
  O  O13  1  0.84420571  0.27783981  0.50000004  1
  O  O14  1  0.90663105  0.37807409  0.00000012  1
  O  O15  1  0.40659050  0.62193504  0.49999983  1
