# generated using pymatgen
data_Ho2TeS2
_symmetry_space_group_name_H-M   'P 1'
_cell_length_a   7.48062402
_cell_length_b   7.48062402
_cell_length_c   7.48062402
_cell_angle_alpha   147.72569991
_cell_angle_beta   138.28431491
_cell_angle_gamma   53.70396011
_symmetry_Int_Tables_number   1
_chemical_formula_structural   Ho2TeS2
_chemical_formula_sum   'Ho2 Te1 S2'
_cell_volume   147.83697694
_cell_formula_units_Z   1
loop_
 _symmetry_equiv_pos_site_id
 _symmetry_equiv_pos_as_xyz
  1  'x, y, z'
loop_
 _atom_site_type_symbol
 _atom_site_label
 _atom_site_symmetry_multiplicity
 _atom_site_fract_x
 _atom_site_fract_y
 _atom_site_fract_z
 _atom_site_occupancy
  Ho  Ho0  1  0.83274807  0.33274807  0.50000000  1
  Ho  Ho1  1  0.16725193  0.66725193  0.50000000  1
  Te  Te2  1  -0.00000000  -0.00000000  -0.00000000  1
  S  S3  1  0.70215567  0.70215567  0.00000000  1
  S  S4  1  0.29784433  0.29784433  -0.00000000  1
