# generated using pymatgen
data_Si
_symmetry_space_group_name_H-M   'P 1'
_cell_length_a   10.36662954
_cell_length_b   10.36662717
_cell_length_c   16.97027249
_cell_angle_alpha   90.00000000
_cell_angle_beta   90.00000000
_cell_angle_gamma   119.99996436
_symmetry_Int_Tables_number   1
_chemical_formula_structural   Si
_chemical_formula_sum   Si68
_cell_volume   1579.40919510
_cell_formula_units_Z   68
loop_
 _symmetry_equiv_pos_site_id
 _symmetry_equiv_pos_as_xyz
  1  'x, y, z'
loop_
 _atom_site_type_symbol
 _atom_site_label
 _atom_site_symmetry_multiplicity
 _atom_site_fract_x
 _atom_site_fract_y
 _atom_site_fract_z
 _atom_site_occupancy
  Si  Si0  1  0.95006076  0.66941597  0.56452266  1
  Si  Si1  1  0.71935521  0.04993924  0.56452366  1
  Si  Si2  1  0.33058503  0.28064479  0.56452266  1
  Si  Si3  1  0.71935321  0.66941397  0.56452366  1
  Si  Si4  1  0.33058603  0.04993924  0.56452366  1
  Si  Si5  1  0.95006076  0.28064579  0.56452366  1
  Si  Si6  1  0.04993924  0.33058403  0.43547534  1
  Si  Si7  1  0.28064479  0.95006076  0.43547534  1
  Si  Si8  1  0.66941597  0.71935521  0.43547534  1
  Si  Si9  1  0.28064679  0.33058603  0.43547534  1
  Si  Si10  1  0.66941497  0.95006076  0.43547534  1
  Si  Si11  1  0.04993924  0.71935421  0.43547534  1
  Si  Si12  1  0.04994024  0.33058403  0.06452466  1
  Si  Si13  1  0.28064479  0.95005976  0.06452466  1
  Si  Si14  1  0.66941497  0.71935521  0.06452466  1
  Si  Si15  1  0.28064679  0.33058603  0.06452466  1
  Si  Si16  1  0.66941397  0.95005976  0.06452466  1
  Si  Si17  1  0.04994024  0.71935421  0.06452466  1
  Si  Si18  1  0.95005976  0.66941597  0.93547734  1
  Si  Si19  1  0.71935521  0.04994024  0.93547634  1
  Si  Si20  1  0.33058503  0.28064479  0.93547634  1
  Si  Si21  1  0.71935321  0.66941397  0.93547634  1
  Si  Si22  1  0.33058603  0.04994024  0.93547634  1
  Si  Si23  1  0.95005976  0.28064579  0.93547634  1
  Si  Si24  1  0.91572454  0.45786277  0.86478307  1
  Si  Si25  1  0.54213923  0.08427546  0.86478307  1
  Si  Si26  1  0.54213723  0.45786077  0.86478307  1
  Si  Si27  1  0.08427546  0.54213723  0.13521793  1
  Si  Si28  1  0.45786077  0.91572454  0.13521793  1
  Si  Si29  1  0.45786277  0.54213923  0.13521793  1
  Si  Si30  1  0.08427646  0.54213723  0.36478107  1
  Si  Si31  1  0.45786077  0.91572354  0.36478107  1
  Si  Si32  1  0.45786277  0.54214023  0.36478107  1
  Si  Si33  1  0.91572354  0.45786277  0.63521793  1
  Si  Si34  1  0.54213923  0.08427646  0.63521793  1
  Si  Si35  1  0.54213723  0.45785977  0.63521793  1
  Si  Si36  1  0.87645037  0.12354863  0.36130919  1
  Si  Si37  1  0.24709825  0.12354963  0.36130919  1
  Si  Si38  1  0.87645037  0.75290175  0.36130919  1
  Si  Si39  1  0.12354963  0.87645137  0.63868881  1
  Si  Si40  1  0.75290175  0.87645037  0.63868881  1
  Si  Si41  1  0.12354963  0.24709825  0.63868881  1
  Si  Si42  1  0.12354963  0.87645137  0.86131119  1
  Si  Si43  1  0.75290175  0.87645037  0.86131119  1
  Si  Si44  1  0.12354963  0.24709825  0.86131119  1
  Si  Si45  1  0.87645037  0.12354863  0.13869081  1
  Si  Si46  1  0.24709825  0.12354963  0.13868981  1
  Si  Si47  1  0.87645037  0.75290175  0.13868981  1
  Si  Si48  1  0.66666700  0.33333300  0.81965040  1
  Si  Si49  1  0.33333300  0.66666700  0.18035160  1
  Si  Si50  1  0.33333300  0.66666700  0.31964840  1
  Si  Si51  1  0.66666700  0.33333300  0.68035060  1
  Si  Si52  1  -0.00000000  -0.00000000  0.81830178  1
  Si  Si53  1  -0.00000000  -0.00000000  0.18169922  1
  Si  Si54  1  -0.00000000  -0.00000000  0.31829978  1
  Si  Si55  1  -0.00000000  -0.00000000  0.68169922  1
  Si  Si56  1  0.93042857  0.46521428  0.25000000  1
  Si  Si57  1  0.53478672  0.06957143  0.25000000  1
  Si  Si58  1  0.53478472  0.46521328  0.25000000  1
  Si  Si59  1  0.06957243  0.53478572  0.75000000  1
  Si  Si60  1  0.46521228  0.93042757  0.75000000  1
  Si  Si61  1  0.46521428  0.53478772  0.75000000  1
  Si  Si62  1  0.79765372  0.20234828  0.25000000  1
  Si  Si63  1  0.40469355  0.20234628  0.25000000  1
  Si  Si64  1  0.79765172  0.59530645  0.25000000  1
  Si  Si65  1  0.20234628  0.79765172  0.75000000  1
  Si  Si66  1  0.59530545  0.79765272  0.75000000  1
  Si  Si67  1  0.20234928  0.40469455  0.75000000  1
