# generated using pymatgen
data_Sr4Mn2CuO9
_symmetry_space_group_name_H-M   'P 1'
_cell_length_a   7.80512524
_cell_length_b   9.60181556
_cell_length_c   9.59697424
_cell_angle_alpha   119.77275903
_cell_angle_beta   89.98896265
_cell_angle_gamma   90.13294977
_symmetry_Int_Tables_number   1
_chemical_formula_structural   Sr4Mn2CuO9
_chemical_formula_sum   'Sr12 Mn6 Cu3 O27'
_cell_volume   624.29042725
_cell_formula_units_Z   3
loop_
 _symmetry_equiv_pos_site_id
 _symmetry_equiv_pos_as_xyz
  1  'x, y, z'
loop_
 _atom_site_type_symbol
 _atom_site_label
 _atom_site_symmetry_multiplicity
 _atom_site_fract_x
 _atom_site_fract_y
 _atom_site_fract_z
 _atom_site_occupancy
  Sr  Sr0  1  0.49953292  0.63853737  0.63760382  1
  Sr  Sr1  1  0.50473705  0.34924118  0.99349520  1
  Sr  Sr2  1  0.49469821  0.99381592  0.36048091  1
  Sr  Sr3  1  0.24287377  0.66028961  0.96884253  1
  Sr  Sr4  1  0.25034741  0.01901371  0.68668875  1
  Sr  Sr5  1  0.25017158  0.30375918  0.33162835  1
  Sr  Sr6  1  0.75067805  0.33391270  0.30227971  1
  Sr  Sr7  1  0.75402930  0.68010010  0.01775969  1
  Sr  Sr8  1  0.75295658  0.97143140  0.66703731  1
  Sr  Sr9  1  0.99948958  0.67079402  0.67185916  1
  Sr  Sr10  1  0.99735808  0.32318300  0.99470195  1
  Sr  Sr11  1  0.00349006  0.99401441  0.32645380  1
  Mn  Mn12  1  0.16448177  0.00550814  0.00133694  1
  Mn  Mn13  1  0.83554809  0.00273019  0.00077451  1
  Mn  Mn14  1  0.07452652  0.33722650  0.66861225  1
  Mn  Mn15  1  0.92591139  0.67186923  0.34081915  1
  Mn  Mn16  1  0.40759619  0.33777044  0.66871995  1
  Mn  Mn17  1  0.59301652  0.66931618  0.33741761  1
  Cu  Cu18  1  0.74217050  0.27272911  0.60728081  1
  Cu  Cu19  1  0.25791532  0.60755351  0.27335035  1
  Cu  Cu20  1  0.49999320  0.93960000  0.99961789  1
  O  O21  1  0.99865501  0.14856509  0.15587438  1
  O  O22  1  0.99914980  0.85047765  0.00363359  1
  O  O23  1  0.00176314  0.99567428  0.84873453  1
  O  O24  1  0.27847984  0.17626466  0.00836621  1
  O  O25  1  0.30779944  0.99249940  0.15298487  1
  O  O26  1  0.30795233  0.84815110  0.84193761  1
  O  O27  1  0.69420068  0.83766801  0.84687552  1
  O  O28  1  0.72147892  0.16471882  0.99011466  1
  O  O29  1  0.68889183  0.00352262  0.15760038  1
  O  O30  1  0.24143243  0.16855786  0.51641317  1
  O  O31  1  0.24259372  0.47608087  0.64256434  1
  O  O32  1  0.24349945  0.34208785  0.82154569  1
  O  O33  1  0.75712617  0.82567815  0.34360486  1
  O  O34  1  0.75764327  0.64511549  0.47788379  1
  O  O35  1  0.75774246  0.52090587  0.17198955  1
  O  O36  1  0.06669480  0.50860502  0.32616057  1
  O  O37  1  0.06971681  0.68343982  0.19245268  1
  O  O38  1  0.03652089  0.82884425  0.51087201  1
  O  O39  1  0.96410895  0.50727378  0.82579153  1
  O  O40  1  0.93103581  0.18892519  0.67976217  1
  O  O41  1  0.93211652  0.32250136  0.50560926  1
  O  O42  1  0.45176934  0.50013940  0.31794581  1
  O  O43  1  0.44845916  0.68010772  0.18653000  1
  O  O44  1  0.47521303  0.82524502  0.51086336  1
  O  O45  1  0.52446835  0.51010076  0.82503076  1
  O  O46  1  0.55047152  0.18572879  0.67952785  1
  O  O47  1  0.54949328  0.31772828  0.49957021  1
