# generated using pymatgen
data_ZrNF
_symmetry_space_group_name_H-M   'P 1'
_cell_length_a   5.32289674
_cell_length_b   5.37562037
_cell_length_c   5.39507715
_cell_angle_alpha   80.11868537
_cell_angle_beta   90.00000000
_cell_angle_gamma   90.00000000
_symmetry_Int_Tables_number   1
_chemical_formula_structural   ZrNF
_chemical_formula_sum   'Zr4 N4 F4'
_cell_volume   152.08396184
_cell_formula_units_Z   4
loop_
 _symmetry_equiv_pos_site_id
 _symmetry_equiv_pos_as_xyz
  1  'x, y, z'
loop_
 _atom_site_type_symbol
 _atom_site_label
 _atom_site_symmetry_multiplicity
 _atom_site_fract_x
 _atom_site_fract_y
 _atom_site_fract_z
 _atom_site_occupancy
  Zr  Zr0  1  0.47839705  0.67979479  0.71547409  1
  Zr  Zr1  1  0.52160295  0.32020521  0.28452591  1
  Zr  Zr2  1  0.97839705  0.32020521  0.78452591  1
  Zr  Zr3  1  0.02160295  0.67979479  0.21547409  1
  N  N4  1  0.24729184  0.46244643  0.50906159  1
  N  N5  1  0.75270816  0.53755357  0.49093841  1
  N  N6  1  0.74729184  0.53755357  0.99093841  1
  N  N7  1  0.25270816  0.46244643  0.00906159  1
  F  F8  1  0.17139098  0.95068776  0.84149732  1
  F  F9  1  0.82860902  0.04931224  0.15850268  1
  F  F10  1  0.67139098  0.04931224  0.65850268  1
  F  F11  1  0.32860902  0.95068776  0.34149732  1
