# generated using pymatgen
data_RbNaCaTh(Si2O5)4
_symmetry_space_group_name_H-M   'P 1'
_cell_length_a   7.68326354
_cell_length_b   7.68326354
_cell_length_c   14.86363596
_cell_angle_alpha   90.00000000
_cell_angle_beta   90.00000000
_cell_angle_gamma   90.00000000
_symmetry_Int_Tables_number   1
_chemical_formula_structural   RbNaCaTh(Si2O5)4
_chemical_formula_sum   'Rb2 Na2 Ca2 Th2 Si16 O40'
_cell_volume   877.43816392
_cell_formula_units_Z   2
loop_
 _symmetry_equiv_pos_site_id
 _symmetry_equiv_pos_as_xyz
  1  'x, y, z'
loop_
 _atom_site_type_symbol
 _atom_site_label
 _atom_site_symmetry_multiplicity
 _atom_site_fract_x
 _atom_site_fract_y
 _atom_site_fract_z
 _atom_site_occupancy
  Rb  Rb0  1  -0.00000000  0.00000000  0.50000000  1
  Rb  Rb1  1  0.00000000  0.00000000  -0.00000000  1
  Na  Na2  1  0.50000000  0.00000000  0.25000000  1
  Na  Na3  1  -0.00000000  0.50000000  0.75000000  1
  Ca  Ca4  1  -0.00000000  0.50000000  0.25000000  1
  Ca  Ca5  1  0.50000000  0.00000000  0.75000000  1
  Th  Th6  1  -0.00000000  -0.00000000  0.25000000  1
  Th  Th7  1  0.00000000  0.00000000  0.75000000  1
  Si  Si8  1  0.33306951  0.26217034  0.39063802  1
  Si  Si9  1  0.66693049  0.73782966  0.39063802  1
  Si  Si10  1  0.73396889  0.33497400  0.39108870  1
  Si  Si11  1  0.26603111  0.66502600  0.39108870  1
  Si  Si12  1  0.66502600  0.26603111  0.89108870  1
  Si  Si13  1  0.33497400  0.73396889  0.89108870  1
  Si  Si14  1  0.26217034  0.33306951  0.89063802  1
  Si  Si15  1  0.73782966  0.66693049  0.89063802  1
  Si  Si16  1  0.66502600  0.73396889  0.60891130  1
  Si  Si17  1  0.33497400  0.26603111  0.60891130  1
  Si  Si18  1  0.26217034  0.66693049  0.60936198  1
  Si  Si19  1  0.73782966  0.33306951  0.60936198  1
  Si  Si20  1  0.33306951  0.73782966  0.10936198  1
  Si  Si21  1  0.66693049  0.26217034  0.10936198  1
  Si  Si22  1  0.73396889  0.66502600  0.10891130  1
  Si  Si23  1  0.26603111  0.33497400  0.10891130  1
  O  O24  1  0.25458051  0.45589281  0.36241571  1
  O  O25  1  0.74541949  0.54410719  0.36241571  1
  O  O26  1  0.54139964  0.25867797  0.36366668  1
  O  O27  1  0.45860036  0.74132203  0.36366668  1
  O  O28  1  0.74132203  0.45860036  0.86366668  1
  O  O29  1  0.25867797  0.54139964  0.86366668  1
  O  O30  1  0.45589281  0.25458051  0.86241571  1
  O  O31  1  0.54410719  0.74541949  0.86241571  1
  O  O32  1  0.74132203  0.54139964  0.63633332  1
  O  O33  1  0.25867797  0.45860036  0.63633332  1
  O  O34  1  0.45589281  0.74541949  0.63758429  1
  O  O35  1  0.54410719  0.25458051  0.63758429  1
  O  O36  1  0.25458051  0.54410719  0.13758429  1
  O  O37  1  0.74541949  0.45589281  0.13758429  1
  O  O38  1  0.54139964  0.74132203  0.13633332  1
  O  O39  1  0.45860036  0.25867797  0.13633332  1
  O  O40  1  0.31181561  0.24342145  0.50013430  1
  O  O41  1  0.68818439  0.75657855  0.50013430  1
  O  O42  1  0.75657855  0.31181561  0.49986570  1
  O  O43  1  0.24342145  0.68818439  0.49986570  1
  O  O44  1  0.68818439  0.24342145  0.99986570  1
  O  O45  1  0.31181561  0.75657855  0.99986570  1
  O  O46  1  0.24342145  0.31181561  0.00013430  1
  O  O47  1  0.75657855  0.68818439  0.00013430  1
  O  O48  1  0.23727267  0.10714614  0.33913497  1
  O  O49  1  0.76272733  0.89285386  0.33913497  1
  O  O50  1  0.89283257  0.25064736  0.33623555  1
  O  O51  1  0.10716743  0.74935264  0.33623555  1
  O  O52  1  0.74935264  0.10716743  0.83623555  1
  O  O53  1  0.25064736  0.89283257  0.83623555  1
  O  O54  1  0.10714614  0.23727267  0.83913497  1
  O  O55  1  0.89285386  0.76272733  0.83913497  1
  O  O56  1  0.74935264  0.89283257  0.66376445  1
  O  O57  1  0.25064736  0.10716743  0.66376445  1
  O  O58  1  0.10714614  0.76272733  0.66086503  1
  O  O59  1  0.89285386  0.23727267  0.66086503  1
  O  O60  1  0.23727267  0.89285386  0.16086503  1
  O  O61  1  0.76272733  0.10714614  0.16086503  1
  O  O62  1  0.89283257  0.74935264  0.16376445  1
  O  O63  1  0.10716743  0.25064736  0.16376445  1
