# generated using pymatgen
data_K4SiO4
_symmetry_space_group_name_H-M   'P 1'
_cell_length_a   6.42093904
_cell_length_b   10.31681253
_cell_length_c   10.33090912
_cell_angle_alpha   67.37141206
_cell_angle_beta   90.00000000
_cell_angle_gamma   90.00000000
_symmetry_Int_Tables_number   1
_chemical_formula_structural   K4SiO4
_chemical_formula_sum   'K16 Si4 O16'
_cell_volume   631.67394697
_cell_formula_units_Z   4
loop_
 _symmetry_equiv_pos_site_id
 _symmetry_equiv_pos_as_xyz
  1  'x, y, z'
loop_
 _atom_site_type_symbol
 _atom_site_label
 _atom_site_symmetry_multiplicity
 _atom_site_fract_x
 _atom_site_fract_y
 _atom_site_fract_z
 _atom_site_occupancy
  K  K0  1  0.66614344  0.88844671  0.63274171  1
  K  K1  1  0.33385656  0.11155329  0.36725829  1
  K  K2  1  0.83385656  0.38844671  0.63274171  1
  K  K3  1  0.59277404  0.30089160  0.06344799  1
  K  K4  1  0.09277404  0.19910840  0.93655201  1
  K  K5  1  0.40722596  0.69910840  0.93655201  1
  K  K6  1  0.90722596  0.80089160  0.06344799  1
  K  K7  1  0.60966871  0.08302129  0.84048669  1
  K  K8  1  0.10966871  0.41697871  0.15951331  1
  K  K9  1  0.39033129  0.91697871  0.15951331  1
  K  K10  1  0.89033129  0.58302129  0.84048669  1
  K  K11  1  0.68718093  0.70145130  0.42898969  1
  K  K12  1  0.18718093  0.79854870  0.57101031  1
  K  K13  1  0.31281907  0.29854870  0.57101031  1
  K  K14  1  0.81281907  0.20145130  0.42898969  1
  K  K15  1  0.16614344  0.61155329  0.36725829  1
  Si  Si16  1  0.36794420  0.49045889  0.75879041  1
  Si  Si17  1  0.86794420  0.00954111  0.24120959  1
  Si  Si18  1  0.13205580  0.99045889  0.75879041  1
  Si  Si19  1  0.63205580  0.50954111  0.24120959  1
  O  O20  1  0.23534680  0.96924324  0.91152900  1
  O  O21  1  -0.00128493  0.15368064  0.22169355  1
  O  O22  1  0.49871507  0.34631936  0.77830645  1
  O  O23  1  0.00128493  0.84631936  0.77830645  1
  O  O24  1  0.73534680  0.53075676  0.08847100  1
  O  O25  1  0.76465320  0.03075676  0.08847100  1
  O  O26  1  0.26465320  0.46924324  0.91152900  1
  O  O27  1  0.32302397  0.01532538  0.64321934  1
  O  O28  1  0.82302397  0.48467462  0.35678066  1
  O  O29  1  0.67697603  0.98467462  0.35678066  1
  O  O30  1  0.17697603  0.51532538  0.64321934  1
  O  O31  1  0.02265139  0.86979982  0.29970988  1
  O  O32  1  0.52265139  0.63020018  0.70029012  1
  O  O33  1  0.97734861  0.13020018  0.70029012  1
  O  O34  1  0.47734861  0.36979982  0.29970988  1
  O  O35  1  0.50128493  0.65368064  0.22169355  1
