# generated using pymatgen
data_NaMg2Fe3P4(H9O13)2
_symmetry_space_group_name_H-M   'P 1'
_cell_length_a   13.26476904
_cell_length_b   10.69463257
_cell_length_c   9.54239929
_cell_angle_alpha   102.82260303
_cell_angle_beta   90.00000000
_cell_angle_gamma   90.00000000
_symmetry_Int_Tables_number   1
_chemical_formula_structural   NaMg2Fe3P4(H9O13)2
_chemical_formula_sum   'Na2 Mg4 Fe6 P8 H36 O52'
_cell_volume   1319.94344388
_cell_formula_units_Z   2
loop_
 _symmetry_equiv_pos_site_id
 _symmetry_equiv_pos_as_xyz
  1  'x, y, z'
loop_
 _atom_site_type_symbol
 _atom_site_label
 _atom_site_symmetry_multiplicity
 _atom_site_fract_x
 _atom_site_fract_y
 _atom_site_fract_z
 _atom_site_occupancy
  Na  Na0  1  0.86287780  0.75000000  0.75000000  1
  Na  Na1  1  0.13712220  0.25000000  0.25000000  1
  Mg  Mg2  1  0.00000000  0.00000000  0.50000000  1
  Mg  Mg3  1  0.00000000  0.50000000  0.00000000  1
  Mg  Mg4  1  0.47972879  0.25000000  0.75000000  1
  Mg  Mg5  1  0.52027121  0.75000000  0.25000000  1
  Fe  Fe6  1  0.00000000  0.00000000  0.00000000  1
  Fe  Fe7  1  0.00000000  0.50000000  0.50000000  1
  Fe  Fe8  1  0.40530574  0.25000000  0.25000000  1
  Fe  Fe9  1  0.50000000  0.50000000  0.50000000  1
  Fe  Fe10  1  0.50000000  0.00000000  0.00000000  1
  Fe  Fe11  1  0.59469426  0.75000000  0.75000000  1
  P  P12  1  0.67553266  0.04871025  0.76151472  1
  P  P13  1  0.67553266  0.45128975  0.73848528  1
  P  P14  1  0.71211894  0.36818509  0.42418693  1
  P  P15  1  0.71211894  0.13181491  0.07581307  1
  P  P16  1  0.28788106  0.86818509  0.92418693  1
  P  P17  1  0.28788106  0.63181491  0.57581307  1
  P  P18  1  0.32446734  0.54871025  0.26151472  1
  P  P19  1  0.32446734  0.95128975  0.23848528  1
  H  H20  1  0.10203718  0.80610216  0.37483928  1
  H  H21  1  0.10203718  0.69389784  0.12516072  1
  H  H22  1  0.25402238  0.60761261  0.18539514  1
  H  H23  1  0.25402238  0.89238739  0.31460486  1
  H  H24  1  0.65358554  0.84089716  0.00779852  1
  H  H25  1  0.65358554  0.65910284  0.49220148  1
  H  H26  1  0.24654907  0.66385395  0.83712727  1
  H  H27  1  0.24654907  0.83614605  0.66287273  1
  H  H28  1  0.29670334  0.32423790  0.85499693  1
  H  H29  1  0.29670334  0.17576210  0.64500307  1
  H  H30  1  0.87301152  0.03886305  0.20765210  1
  H  H31  1  0.87301152  0.46113695  0.29234790  1
  H  H32  1  0.62609319  0.87521672  0.48472806  1
  H  H33  1  0.62609319  0.62478328  0.01527194  1
  H  H34  1  0.93903644  0.17672196  0.36928461  1
  H  H35  1  0.93903644  0.32327804  0.13071539  1
  H  H36  1  0.90430224  0.69020804  0.45081436  1
  H  H37  1  0.90430224  0.80979196  0.04918564  1
  H  H38  1  0.09569776  0.19020804  0.95081436  1
  H  H39  1  0.09569776  0.30979196  0.54918564  1
  H  H40  1  0.06096356  0.67672196  0.86928461  1
  H  H41  1  0.06096356  0.82327804  0.63071539  1
  H  H42  1  0.37390681  0.37521672  0.98472806  1
  H  H43  1  0.37390681  0.12478328  0.51527194  1
  H  H44  1  0.12698848  0.53886305  0.70765210  1
  H  H45  1  0.12698848  0.96113695  0.79234790  1
  H  H46  1  0.70329666  0.82423790  0.35499693  1
  H  H47  1  0.70329666  0.67576210  0.14500307  1
  H  H48  1  0.75345093  0.16385395  0.33712727  1
  H  H49  1  0.75345093  0.33614605  0.16287273  1
  H  H50  1  0.34641446  0.34089716  0.50779852  1
  H  H51  1  0.34641446  0.15910284  0.99220148  1
  H  H52  1  0.74597762  0.10761261  0.68539514  1
  H  H53  1  0.74597762  0.39238739  0.81460486  1
  H  H54  1  0.89796282  0.30610216  0.87483928  1
  H  H55  1  0.89796282  0.19389784  0.62516072  1
  O  O56  1  0.94819552  0.01268921  0.21961489  1
  O  O57  1  0.94819552  0.48731079  0.28038511  1
  O  O58  1  0.26450216  0.55443328  0.41287468  1
  O  O59  1  0.26450216  0.94556672  0.08712532  1
  O  O60  1  0.07128926  0.33912104  0.46531140  1
  O  O61  1  0.07128926  0.16087896  0.03468860  1
  O  O62  1  0.23921112  0.73383152  0.92745235  1
  O  O63  1  0.23921112  0.76616848  0.57254765  1
  O  O64  1  0.76874250  0.43423463  0.32185316  1
  O  O65  1  0.76874250  0.06576537  0.17814684  1
  O  O66  1  0.89598545  0.39899126  0.89423993  1
  O  O67  1  0.89598545  0.10100874  0.60576007  1
  O  O68  1  0.42482879  0.61931964  0.29336378  1
  O  O69  1  0.42482879  0.88068036  0.20663622  1
  O  O70  1  0.40712250  0.15232865  0.04693509  1
  O  O71  1  0.40712250  0.34767135  0.45306491  1
  O  O72  1  0.81167012  0.71558512  0.18166838  1
  O  O73  1  0.81167012  0.78441488  0.31833162  1
  O  O74  1  0.66690671  0.59240992  0.81425696  1
  O  O75  1  0.66690671  0.90759008  0.68574304  1
  O  O76  1  0.99482697  0.11727210  0.33187665  1
  O  O77  1  0.99482697  0.38272790  0.16812335  1
  O  O78  1  0.60045891  0.13906483  0.10485594  1
  O  O79  1  0.60045891  0.36093517  0.39514406  1
  O  O80  1  0.62720384  0.65423335  0.12053795  1
  O  O81  1  0.62720384  0.84576665  0.37946205  1
  O  O82  1  0.37279616  0.15423335  0.62053795  1
  O  O83  1  0.37279616  0.34576665  0.87946205  1
  O  O84  1  0.39954109  0.63906483  0.60485594  1
  O  O85  1  0.39954109  0.86093517  0.89514406  1
  O  O86  1  0.00517303  0.61727210  0.83187665  1
  O  O87  1  0.00517303  0.88272790  0.66812335  1
  O  O88  1  0.33309329  0.09240992  0.31425696  1
  O  O89  1  0.33309329  0.40759008  0.18574304  1
  O  O90  1  0.18832988  0.21558512  0.68166838  1
  O  O91  1  0.18832988  0.28441488  0.81833162  1
  O  O92  1  0.59287750  0.65232865  0.54693509  1
  O  O93  1  0.59287750  0.84767135  0.95306491  1
  O  O94  1  0.57517121  0.11931964  0.79336378  1
  O  O95  1  0.57517121  0.38068036  0.70663622  1
  O  O96  1  0.10401455  0.89899126  0.39423993  1
  O  O97  1  0.10401455  0.60100874  0.10576007  1
  O  O98  1  0.23125750  0.93423463  0.82185316  1
  O  O99  1  0.23125750  0.56576537  0.67814684  1
  O  O100  1  0.76078888  0.23383152  0.42745235  1
  O  O101  1  0.76078888  0.26616848  0.07254765  1
  O  O102  1  0.92871074  0.83912104  0.96531140  1
  O  O103  1  0.92871074  0.66087896  0.53468860  1
  O  O104  1  0.73549784  0.05443328  0.91287468  1
  O  O105  1  0.73549784  0.44556672  0.58712532  1
  O  O106  1  0.05180448  0.51268921  0.71961489  1
  O  O107  1  0.05180448  0.98731079  0.78038511  1
