# generated using pymatgen
data_Zn2SiO4
_symmetry_space_group_name_H-M   'P 1'
_cell_length_a   5.06618844
_cell_length_b   6.65704295
_cell_length_c   10.29488244
_cell_angle_alpha   90.00000000
_cell_angle_beta   90.00000000
_cell_angle_gamma   90.00000000
_symmetry_Int_Tables_number   1
_chemical_formula_structural   Zn2SiO4
_chemical_formula_sum   'Zn8 Si4 O16'
_cell_volume   347.20349661
_cell_formula_units_Z   4
loop_
 _symmetry_equiv_pos_site_id
 _symmetry_equiv_pos_as_xyz
  1  'x, y, z'
loop_
 _atom_site_type_symbol
 _atom_site_label
 _atom_site_symmetry_multiplicity
 _atom_site_fract_x
 _atom_site_fract_y
 _atom_site_fract_z
 _atom_site_occupancy
  Zn  Zn0  1  0.67508674  0.99953128  0.65533254  1
  Zn  Zn1  1  0.82491326  0.50046872  0.15533254  1
  Zn  Zn2  1  0.32491326  0.49953128  0.34466746  1
  Zn  Zn3  1  0.17508674  0.00046872  0.84466746  1
  Zn  Zn4  1  0.32491326  0.00046872  0.34466746  1
  Zn  Zn5  1  0.17508674  0.49953128  0.84466746  1
  Zn  Zn6  1  0.67508674  0.50046872  0.65533254  1
  Zn  Zn7  1  0.82491326  0.99953128  0.15533254  1
  Si  Si8  1  0.17677028  0.25000000  0.59264304  1
  Si  Si9  1  0.32322972  0.25000000  0.09264304  1
  Si  Si10  1  0.82322972  0.75000000  0.40735696  1
  Si  Si11  1  0.67677028  0.75000000  0.90735696  1
  O  O12  1  0.85668678  0.25000000  0.61166393  1
  O  O13  1  0.64331322  0.25000000  0.11166393  1
  O  O14  1  0.14331322  0.75000000  0.38833607  1
  O  O15  1  0.35668678  0.75000000  0.88833607  1
  O  O16  1  0.23628342  0.25000000  0.94038137  1
  O  O17  1  0.26371658  0.25000000  0.44038137  1
  O  O18  1  0.76371658  0.75000000  0.05961863  1
  O  O19  1  0.73628342  0.75000000  0.55961863  1
  O  O20  1  0.29444245  0.04968219  0.66357194  1
  O  O21  1  0.20555755  0.45031781  0.16357194  1
  O  O22  1  0.70555755  0.54968219  0.33642806  1
  O  O23  1  0.79444245  0.95031781  0.83642806  1
  O  O24  1  0.70555755  0.95031781  0.33642806  1
  O  O25  1  0.79444245  0.54968219  0.83642806  1
  O  O26  1  0.29444245  0.45031781  0.66357194  1
  O  O27  1  0.20555755  0.04968219  0.16357194  1
