# generated using pymatgen
data_Na3VS2(O4F)2
_symmetry_space_group_name_H-M   'P 1'
_cell_length_a   6.59355776
_cell_length_b   8.84268074
_cell_length_c   13.80626626
_cell_angle_alpha   90.00000000
_cell_angle_beta   90.00000000
_cell_angle_gamma   90.00000000
_symmetry_Int_Tables_number   1
_chemical_formula_structural   Na3VS2(O4F)2
_chemical_formula_sum   'Na12 V4 S8 O32 F8'
_cell_volume   804.97057431
_cell_formula_units_Z   4
loop_
 _symmetry_equiv_pos_site_id
 _symmetry_equiv_pos_as_xyz
  1  'x, y, z'
loop_
 _atom_site_type_symbol
 _atom_site_label
 _atom_site_symmetry_multiplicity
 _atom_site_fract_x
 _atom_site_fract_y
 _atom_site_fract_z
 _atom_site_occupancy
  Na  Na0  1  0.52101556  0.66899488  0.90312935  1
  Na  Na1  1  0.02101556  0.83100512  0.59687065  1
  Na  Na2  1  0.47898444  0.16899488  0.59687065  1
  Na  Na3  1  0.97898444  0.33100512  0.90312935  1
  Na  Na4  1  0.47898444  0.33100512  0.09687065  1
  Na  Na5  1  0.97898444  0.16899488  0.40312935  1
  Na  Na6  1  0.52101556  0.83100512  0.40312935  1
  Na  Na7  1  0.02101556  0.66899488  0.09687065  1
  Na  Na8  1  0.75000000  -0.00000000  0.04856444  1
  Na  Na9  1  0.25000000  0.50000000  0.45143556  1
  Na  Na10  1  0.25000000  -0.00000000  0.95143556  1
  Na  Na11  1  0.75000000  0.50000000  0.54856444  1
  V  V12  1  0.75000000  -0.00000000  0.80228980  1
  V  V13  1  0.25000000  0.50000000  0.69771020  1
  V  V14  1  0.25000000  -0.00000000  0.19771020  1
  V  V15  1  0.75000000  0.50000000  0.30228980  1
  S  S16  1  0.00004920  0.69224187  0.85828389  1
  S  S17  1  0.50004920  0.80775813  0.64171611  1
  S  S18  1  -0.00004920  0.19224187  0.64171611  1
  S  S19  1  0.49995080  0.30775813  0.85828389  1
  S  S20  1  -0.00004920  0.30775813  0.14171611  1
  S  S21  1  0.49995080  0.19224187  0.35828389  1
  S  S22  1  0.00004920  0.80775813  0.35828389  1
  S  S23  1  0.50004920  0.69224187  0.14171611  1
  O  O24  1  0.44944878  0.44832989  0.80096353  1
  O  O25  1  0.94944878  0.05167011  0.69903647  1
  O  O26  1  0.55055122  0.94832989  0.69903647  1
  O  O27  1  0.05055122  0.55167011  0.80096353  1
  O  O28  1  0.55055122  0.55167011  0.19903647  1
  O  O29  1  0.05055122  0.94832989  0.30096353  1
  O  O30  1  0.44944878  0.05167011  0.30096353  1
  O  O31  1  0.94944878  0.44832989  0.19903647  1
  O  O32  1  0.18464359  0.76646082  0.88955112  1
  O  O33  1  0.68464359  0.73353918  0.61044888  1
  O  O34  1  0.81535641  0.26646082  0.61044888  1
  O  O35  1  0.31535641  0.23353918  0.88955112  1
  O  O36  1  0.81535641  0.23353918  0.11044888  1
  O  O37  1  0.31535641  0.26646082  0.38955112  1
  O  O38  1  0.18464359  0.73353918  0.38955112  1
  O  O39  1  0.68464359  0.76646082  0.11044888  1
  O  O40  1  0.87536459  0.64305753  0.93967394  1
  O  O41  1  0.37536459  0.85694247  0.56032606  1
  O  O42  1  0.12463541  0.14305753  0.56032606  1
  O  O43  1  0.62463541  0.35694247  0.93967394  1
  O  O44  1  0.12463541  0.35694247  0.06032606  1
  O  O45  1  0.62463541  0.14305753  0.43967394  1
  O  O46  1  0.87536459  0.85694247  0.43967394  1
  O  O47  1  0.37536459  0.64305753  0.06032606  1
  O  O48  1  0.37978485  0.71061588  0.70789330  1
  O  O49  1  0.87978485  0.78938412  0.79210670  1
  O  O50  1  0.62021515  0.21061588  0.79210670  1
  O  O51  1  0.12021515  0.28938412  0.70789330  1
  O  O52  1  0.62021515  0.28938412  0.29210670  1
  O  O53  1  0.12021515  0.21061588  0.20789330  1
  O  O54  1  0.37978485  0.78938412  0.20789330  1
  O  O55  1  0.87978485  0.71061588  0.29210670  1
  F  F56  1  0.57420157  0.93057235  0.90376330  1
  F  F57  1  0.07420157  0.56942765  0.59623670  1
  F  F58  1  0.42579843  0.43057235  0.59623670  1
  F  F59  1  0.92579843  0.06942765  0.90376330  1
  F  F60  1  0.42579843  0.06942765  0.09623670  1
  F  F61  1  0.92579843  0.43057235  0.40376330  1
  F  F62  1  0.57420157  0.56942765  0.40376330  1
  F  F63  1  0.07420157  0.93057235  0.09623670  1
