# generated using pymatgen
data_AgBF4
_symmetry_space_group_name_H-M   'P 1'
_cell_length_a   5.24104917
_cell_length_b   6.68571762
_cell_length_c   8.00097391
_cell_angle_alpha   90.00000000
_cell_angle_beta   90.00000000
_cell_angle_gamma   90.00000000
_symmetry_Int_Tables_number   1
_chemical_formula_structural   AgBF4
_chemical_formula_sum   'Ag4 B4 F16'
_cell_volume   280.35552424
_cell_formula_units_Z   4
loop_
 _symmetry_equiv_pos_site_id
 _symmetry_equiv_pos_as_xyz
  1  'x, y, z'
loop_
 _atom_site_type_symbol
 _atom_site_label
 _atom_site_symmetry_multiplicity
 _atom_site_fract_x
 _atom_site_fract_y
 _atom_site_fract_z
 _atom_site_occupancy
  Ag  Ag0  1  0.25000000  0.16725977  0.17881621  1
  Ag  Ag1  1  0.75000000  0.83274023  0.82118379  1
  Ag  Ag2  1  0.75000000  0.66725977  0.32118379  1
  Ag  Ag3  1  0.25000000  0.33274023  0.67881621  1
  B  B4  1  0.75000000  0.18507480  0.43397682  1
  B  B5  1  0.25000000  0.81492520  0.56602318  1
  B  B6  1  0.25000000  0.68507480  0.06602318  1
  B  B7  1  0.75000000  0.31492520  0.93397682  1
  F  F8  1  0.75000000  0.41570557  0.08665546  1
  F  F9  1  0.25000000  0.58429443  0.91334454  1
  F  F10  1  0.25000000  0.91570557  0.41334454  1
  F  F11  1  0.75000000  0.08429443  0.58665546  1
  F  F12  1  0.75000000  0.44906773  0.79958184  1
  F  F13  1  0.25000000  0.55093227  0.20041816  1
  F  F14  1  0.25000000  0.94906773  0.70041816  1
  F  F15  1  0.75000000  0.05093227  0.29958184  1
  F  F16  1  0.53083491  0.19143218  0.92311308  1
  F  F17  1  0.03083491  0.80856782  0.07688692  1
  F  F18  1  0.46916509  0.69143218  0.57688692  1
  F  F19  1  0.96916509  0.30856782  0.42311308  1
  F  F20  1  0.46916509  0.80856782  0.07688692  1
  F  F21  1  0.96916509  0.19143218  0.92311308  1
  F  F22  1  0.53083491  0.30856782  0.42311308  1
  F  F23  1  0.03083491  0.69143218  0.57688692  1
