# generated using pymatgen
data_RbHfMg6O7
_symmetry_space_group_name_H-M   'P 1'
_cell_length_a   12.56826421
_cell_length_b   4.22907738
_cell_length_c   4.22907738
_cell_angle_alpha   90.00000000
_cell_angle_beta   90.00000000
_cell_angle_gamma   90.00000000
_symmetry_Int_Tables_number   1
_chemical_formula_structural   RbHfMg6O7
_chemical_formula_sum   'Rb1 Hf1 Mg6 O7'
_cell_volume   224.78460549
_cell_formula_units_Z   1
loop_
 _symmetry_equiv_pos_site_id
 _symmetry_equiv_pos_as_xyz
  1  'x, y, z'
loop_
 _atom_site_type_symbol
 _atom_site_label
 _atom_site_symmetry_multiplicity
 _atom_site_fract_x
 _atom_site_fract_y
 _atom_site_fract_z
 _atom_site_occupancy
  Rb  Rb0  1  0.03194104  0.00000000  -0.00000000  1
  Hf  Hf1  1  0.53550760  0.00000000  -0.00000000  1
  Mg  Mg2  1  0.90229673  0.50000000  0.50000000  1
  Mg  Mg3  1  0.53192440  0.50000000  0.50000000  1
  Mg  Mg4  1  0.33161807  -0.00000000  0.50000000  1
  Mg  Mg5  1  0.74477680  0.00000000  0.50000000  1
  Mg  Mg6  1  0.33161807  0.50000000  0.00000000  1
  Mg  Mg7  1  0.74477680  0.50000000  -0.00000000  1
  O  O8  1  0.69232246  0.00000000  -0.00000000  1
  O  O9  1  0.36009956  0.50000000  0.50000000  1
  O  O10  1  0.70228269  0.50000000  0.50000000  1
  O  O11  1  0.89661892  0.00000000  0.50000000  1
  O  O12  1  0.52379897  0.00000000  0.50000000  1
  O  O13  1  0.89661892  0.50000000  -0.00000000  1
  O  O14  1  0.52379897  0.50000000  -0.00000000  1
