# generated using pymatgen
data_K7NbAs4
_symmetry_space_group_name_H-M   'P 1'
_cell_length_a   8.33512370
_cell_length_b   9.15761332
_cell_length_c   10.26483126
_cell_angle_alpha   90.00000000
_cell_angle_beta   90.00000000
_cell_angle_gamma   90.00000000
_symmetry_Int_Tables_number   1
_chemical_formula_structural   K7NbAs4
_chemical_formula_sum   'K14 Nb2 As8'
_cell_volume   783.51292584
_cell_formula_units_Z   2
loop_
 _symmetry_equiv_pos_site_id
 _symmetry_equiv_pos_as_xyz
  1  'x, y, z'
loop_
 _atom_site_type_symbol
 _atom_site_label
 _atom_site_symmetry_multiplicity
 _atom_site_fract_x
 _atom_site_fract_y
 _atom_site_fract_z
 _atom_site_occupancy
  K  K0  1  0.70721813  0.83572533  0.71671388  1
  K  K1  1  0.20721813  0.16427467  0.78328612  1
  K  K2  1  0.20721813  0.16427467  0.21671388  1
  K  K3  1  0.70721813  0.83572533  0.28328612  1
  K  K4  1  0.87299687  0.46722980  0.71099176  1
  K  K5  1  0.37299687  0.53277020  0.78900824  1
  K  K6  1  0.37299687  0.53277020  0.21099176  1
  K  K7  1  0.87299687  0.46722980  0.28900824  1
  K  K8  1  0.16265398  0.66149593  0.50000000  1
  K  K9  1  0.66265398  0.33850407  0.00000000  1
  K  K10  1  0.87406392  0.03833595  0.00000000  1
  K  K11  1  0.37406392  0.96166405  0.50000000  1
  K  K12  1  0.39189444  0.89945951  0.00000000  1
  K  K13  1  0.89189444  0.10054049  0.50000000  1
  Nb  Nb14  1  0.99853620  0.67496397  0.00000000  1
  Nb  Nb15  1  0.49853620  0.32503603  0.50000000  1
  As  As16  1  0.69952418  0.68297659  0.00000000  1
  As  As17  1  0.19952418  0.31702341  0.50000000  1
  As  As18  1  0.09359830  0.80839276  0.79646292  1
  As  As19  1  0.59359830  0.19160724  0.70353708  1
  As  As20  1  0.59359830  0.19160724  0.29646292  1
  As  As21  1  0.09359830  0.80839276  0.20353708  1
  As  As22  1  0.57831269  0.58978039  0.50000000  1
  As  As23  1  0.07831269  0.41021961  0.00000000  1
