# generated using pymatgen
data_TiNb2O7
_symmetry_space_group_name_H-M   'P 1'
_cell_length_a   10.42368618
_cell_length_b   10.42368618
_cell_length_c   12.07394500
_cell_angle_alpha   60.32614591
_cell_angle_beta   60.32614591
_cell_angle_gamma   21.19339394
_symmetry_Int_Tables_number   1
_chemical_formula_structural   TiNb2O7
_chemical_formula_sum   'Ti3 Nb6 O21'
_cell_volume   409.72041621
_cell_formula_units_Z   3
loop_
 _symmetry_equiv_pos_site_id
 _symmetry_equiv_pos_as_xyz
  1  'x, y, z'
loop_
 _atom_site_type_symbol
 _atom_site_label
 _atom_site_symmetry_multiplicity
 _atom_site_fract_x
 _atom_site_fract_y
 _atom_site_fract_z
 _atom_site_occupancy
  Ti  Ti0  1  0.70687260  0.70687260  0.36293667  1
  Ti  Ti1  1  0.29517842  0.29517842  0.62998821  1
  Ti  Ti2  1  0.80902495  0.80902495  0.01468818  1
  Nb  Nb3  1  0.91850764  0.91850764  0.64564857  1
  Nb  Nb4  1  0.07952662  0.07952662  0.36058811  1
  Nb  Nb5  1  0.88656011  0.88656011  0.37039334  1
  Nb  Nb6  1  0.11381966  0.11381966  0.62773010  1
  Nb  Nb7  1  0.99495250  0.99495250  0.99959258  1
  Nb  Nb8  1  0.18945823  0.18945823  0.98590272  1
  O  O9  1  0.62817266  0.62817266  0.57696607  1
  O  O10  1  0.37223580  0.37223580  0.42348701  1
  O  O11  1  0.94966217  0.94966217  0.19721732  1
  O  O12  1  0.05025826  0.05025826  0.80116783  1
  O  O13  1  0.59774917  0.59774917  0.37898513  1
  O  O14  1  0.40249269  0.40249269  0.62202371  1
  O  O15  1  0.87308207  0.87308207  0.81734479  1
  O  O16  1  0.12532712  0.12532712  0.18746857  1
  O  O17  1  0.89840617  0.89840617  0.01510359  1
  O  O18  1  0.10054678  0.10054678  0.98519404  1
  O  O19  1  0.82638222  0.82638222  0.59825424  1
  O  O20  1  0.17389014  0.17389014  0.40164726  1
  O  O21  1  0.71040977  0.71040977  0.99769525  1
  O  O22  1  0.29052158  0.29052158  0.00598152  1
  O  O23  1  0.78996514  0.78996514  0.38394143  1
  O  O24  1  0.21118252  0.21118252  0.61481984  1
  O  O25  1  0.75035322  0.75035322  0.19600901  1
  O  O26  1  0.25192107  0.25192107  0.80004159  1
  O  O27  1  0.97482151  0.97482151  0.41667143  1
  O  O28  1  0.02469106  0.02469106  0.58430185  1
  O  O29  1  0.50403014  0.50403014  0.99820903  1
