# generated using pymatgen
data_Sr2InBr5
_symmetry_space_group_name_H-M   'P 1'
_cell_length_a   8.35778427
_cell_length_b   9.35957820
_cell_length_c   13.37000592
_cell_angle_alpha   89.85577816
_cell_angle_beta   90.00000000
_cell_angle_gamma   90.00000000
_symmetry_Int_Tables_number   1
_chemical_formula_structural   Sr2InBr5
_chemical_formula_sum   'Sr8 In4 Br20'
_cell_volume   1045.86988449
_cell_formula_units_Z   4
loop_
 _symmetry_equiv_pos_site_id
 _symmetry_equiv_pos_as_xyz
  1  'x, y, z'
loop_
 _atom_site_type_symbol
 _atom_site_label
 _atom_site_symmetry_multiplicity
 _atom_site_fract_x
 _atom_site_fract_y
 _atom_site_fract_z
 _atom_site_occupancy
  Sr  Sr0  1  0.02820276  0.49878630  0.82129024  1
  Sr  Sr1  1  0.97179724  0.50121370  0.17870976  1
  Sr  Sr2  1  0.52820276  0.50121370  0.67870976  1
  Sr  Sr3  1  0.47179724  0.49878630  0.32129024  1
  Sr  Sr4  1  0.07348666  0.74884335  0.50554798  1
  Sr  Sr5  1  0.92651334  0.25115665  0.49445202  1
  Sr  Sr6  1  0.57348666  0.25115665  0.99445202  1
  Sr  Sr7  1  0.42651334  0.74884335  0.00554798  1
  In  In8  1  0.01053582  0.99482991  0.82835955  1
  In  In9  1  0.98946418  0.00517009  0.17164045  1
  In  In10  1  0.51053582  0.00517009  0.67164045  1
  In  In11  1  0.48946418  0.99482991  0.32835955  1
  Br  Br12  1  0.16311515  0.03620662  0.59406040  1
  Br  Br13  1  0.83688485  0.96379338  0.40593960  1
  Br  Br14  1  0.66311515  0.96379338  0.90593960  1
  Br  Br15  1  0.33688485  0.03620662  0.09406040  1
  Br  Br16  1  0.83820172  0.71973020  0.68549719  1
  Br  Br17  1  0.16179828  0.28026980  0.31450281  1
  Br  Br18  1  0.33820172  0.28026980  0.81450281  1
  Br  Br19  1  0.66179828  0.71973020  0.18549719  1
  Br  Br20  1  0.30940086  0.72887954  0.78159085  1
  Br  Br21  1  0.69059914  0.27112046  0.21840915  1
  Br  Br22  1  0.80940086  0.27112046  0.71840915  1
  Br  Br23  1  0.19059914  0.72887954  0.28159085  1
  Br  Br24  1  0.45649594  0.71919037  0.50105259  1
  Br  Br25  1  0.54350406  0.28080963  0.49894741  1
  Br  Br26  1  0.95649594  0.28080963  0.99894741  1
  Br  Br27  1  0.04350406  0.71919037  0.00105259  1
  Br  Br28  1  0.66372426  0.54197722  0.90225553  1
  Br  Br29  1  0.33627574  0.45802278  0.09774447  1
  Br  Br30  1  0.16372426  0.45802278  0.59774447  1
  Br  Br31  1  0.83627574  0.54197722  0.40225553  1
