# generated using pymatgen
data_TlInF6
_symmetry_space_group_name_H-M   'P 1'
_cell_length_a   5.86388604
_cell_length_b   5.86388604
_cell_length_c   5.86388636
_cell_angle_alpha   53.43620364
_cell_angle_beta   53.43620359
_cell_angle_gamma   53.43620421
_symmetry_Int_Tables_number   1
_chemical_formula_structural   TlInF6
_chemical_formula_sum   'Tl1 In1 F6'
_cell_volume   120.67181628
_cell_formula_units_Z   1
loop_
 _symmetry_equiv_pos_site_id
 _symmetry_equiv_pos_as_xyz
  1  'x, y, z'
loop_
 _atom_site_type_symbol
 _atom_site_label
 _atom_site_symmetry_multiplicity
 _atom_site_fract_x
 _atom_site_fract_y
 _atom_site_fract_z
 _atom_site_occupancy
  Tl  Tl0  1  0.50000000  0.50000000  0.50000000  1
  In  In1  1  -0.00000000  0.00000000  0.00000000  1
  F  F2  1  0.60416735  0.90751942  0.24444968  1
  F  F3  1  0.24444968  0.60416735  0.90751942  1
  F  F4  1  0.90751942  0.24444968  0.60416735  1
  F  F5  1  0.75555032  0.39583265  0.09248058  1
  F  F6  1  0.09248058  0.75555032  0.39583265  1
  F  F7  1  0.39583265  0.09248058  0.75555032  1
