# generated using pymatgen
data_Hf2SN2
_symmetry_space_group_name_H-M   'P 1'
_cell_length_a   3.56968114
_cell_length_b   3.56967982
_cell_length_c   6.39831433
_cell_angle_alpha   90.00017037
_cell_angle_beta   89.99985242
_cell_angle_gamma   120.00013397
_symmetry_Int_Tables_number   1
_chemical_formula_structural   Hf2SN2
_chemical_formula_sum   'Hf2 S1 N2'
_cell_volume   70.60806428
_cell_formula_units_Z   1
loop_
 _symmetry_equiv_pos_site_id
 _symmetry_equiv_pos_as_xyz
  1  'x, y, z'
loop_
 _atom_site_type_symbol
 _atom_site_label
 _atom_site_symmetry_multiplicity
 _atom_site_fract_x
 _atom_site_fract_y
 _atom_site_fract_z
 _atom_site_occupancy
  Hf  Hf0  1  0.66666600  0.33333400  0.70320647  1
  Hf  Hf1  1  0.33333400  0.66666600  0.29679353  1
  S  S2  1  -0.00000000  -0.00000000  0.00000000  1
  N  N3  1  0.66666600  0.33333200  0.36573189  1
  N  N4  1  0.33333400  0.66666800  0.63426811  1
