# generated using pymatgen
data_RbMo3Cl7
_symmetry_space_group_name_H-M   'P 1'
_cell_length_a   12.37486515
_cell_length_b   12.37489449
_cell_length_c   9.57026388
_cell_angle_alpha   68.89468177
_cell_angle_beta   68.89461057
_cell_angle_gamma   74.01328815
_symmetry_Int_Tables_number   1
_chemical_formula_structural   RbMo3Cl7
_chemical_formula_sum   'Rb4 Mo12 Cl28'
_cell_volume   1257.52771940
_cell_formula_units_Z   4
loop_
 _symmetry_equiv_pos_site_id
 _symmetry_equiv_pos_as_xyz
  1  'x, y, z'
loop_
 _atom_site_type_symbol
 _atom_site_label
 _atom_site_symmetry_multiplicity
 _atom_site_fract_x
 _atom_site_fract_y
 _atom_site_fract_z
 _atom_site_occupancy
  Rb  Rb0  1  0.93132895  0.06867219  0.74999989  1
  Rb  Rb1  1  0.06867246  0.93132712  0.25000170  1
  Rb  Rb2  1  0.50000072  0.49999940  0.49999846  1
  Rb  Rb3  1  0.50000062  0.49999963  0.00000124  1
  Mo  Mo4  1  0.56829855  0.01381061  0.63421815  1
  Mo  Mo5  1  0.43170087  0.98618995  0.36578198  1
  Mo  Mo6  1  0.98618908  0.43170168  0.86578158  1
  Mo  Mo7  1  0.01381070  0.56829847  0.13421779  1
  Mo  Mo8  1  0.36163421  0.98183721  0.65913516  1
  Mo  Mo9  1  0.63836617  0.01816325  0.34086512  1
  Mo  Mo10  1  0.01816267  0.63836584  0.84086518  1
  Mo  Mo11  1  0.98183697  0.36163414  0.15913429  1
  Mo  Mo12  1  0.54906490  0.84079033  0.55634111  1
  Mo  Mo13  1  0.45093437  0.15921022  0.44365939  1
  Mo  Mo14  1  0.15920995  0.45093554  0.94365809  1
  Mo  Mo15  1  0.84078975  0.54906516  0.05634114  1
  Cl  Cl16  1  0.38640062  0.14802124  0.72539195  1
  Cl  Cl17  1  0.61359904  0.85197896  0.27460919  1
  Cl  Cl18  1  0.85197628  0.61359952  0.77460966  1
  Cl  Cl19  1  0.14802282  0.38640073  0.22538853  1
  Cl  Cl20  1  0.61536153  0.62607003  0.63414272  1
  Cl  Cl21  1  0.38463795  0.37393056  0.36585698  1
  Cl  Cl22  1  0.37393067  0.38463862  0.86585581  1
  Cl  Cl23  1  0.62606900  0.61536334  0.13414285  1
  Cl  Cl24  1  0.47885767  0.84264445  0.83506679  1
  Cl  Cl25  1  0.52114179  0.15735491  0.16493440  1
  Cl  Cl26  1  0.15735678  0.52114087  0.66493488  1
  Cl  Cl27  1  0.84264336  0.47885894  0.33506476  1
  Cl  Cl28  1  0.35081027  0.81549355  0.57694136  1
  Cl  Cl29  1  0.64918904  0.18450717  0.42305862  1
  Cl  Cl30  1  0.18450756  0.64918859  0.92305853  1
  Cl  Cl31  1  0.81549166  0.35081107  0.07694157  1
  Cl  Cl32  1  0.74437903  0.87786323  0.52928751  1
  Cl  Cl33  1  0.25561942  0.12213542  0.47071738  1
  Cl  Cl34  1  0.12213815  0.25562290  0.97070878  1
  Cl  Cl35  1  0.87786239  0.74437819  0.02929039  1
  Cl  Cl36  1  0.65910653  0.03232125  0.80889414  1
  Cl  Cl37  1  0.34089466  0.96767871  0.19110542  1
  Cl  Cl38  1  0.96767848  0.34089440  0.69110452  1
  Cl  Cl39  1  0.03232161  0.65910511  0.30889467  1
  Cl  Cl40  1  0.82433726  0.04062965  0.13127183  1
  Cl  Cl41  1  0.17566523  0.95936893  0.86872778  1
  Cl  Cl42  1  0.95937149  0.17566364  0.36872618  1
  Cl  Cl43  1  0.04062877  0.82433726  0.63127255  1
