# generated using pymatgen
data_Zn3TeO6
_symmetry_space_group_name_H-M   'P 1'
_cell_length_a   8.65664874
_cell_length_b   8.65664590
_cell_length_c   10.35006618
_cell_angle_alpha   87.42229144
_cell_angle_beta   87.42227343
_cell_angle_gamma   61.46590372
_symmetry_Int_Tables_number   1
_chemical_formula_structural   Zn3TeO6
_chemical_formula_sum   'Zn18 Te6 O36'
_cell_volume   680.46432839
_cell_formula_units_Z   6
loop_
 _symmetry_equiv_pos_site_id
 _symmetry_equiv_pos_as_xyz
  1  'x, y, z'
loop_
 _atom_site_type_symbol
 _atom_site_label
 _atom_site_symmetry_multiplicity
 _atom_site_fract_x
 _atom_site_fract_y
 _atom_site_fract_z
 _atom_site_occupancy
  Zn  Zn0  1  0.20121517  0.79878510  0.24999918  1
  Zn  Zn1  1  0.79878287  0.20121716  0.75000024  1
  Zn  Zn2  1  0.67642921  0.37576474  0.44871603  1
  Zn  Zn3  1  0.62423564  0.32357104  0.05128425  1
  Zn  Zn4  1  0.32357105  0.62423509  0.55128451  1
  Zn  Zn5  1  0.37576458  0.67642864  0.94871564  1
  Zn  Zn6  1  0.72467951  0.00144865  0.25734821  1
  Zn  Zn7  1  0.99855102  0.27532052  0.24265131  1
  Zn  Zn8  1  0.27532432  0.99855171  0.74265223  1
  Zn  Zn9  1  0.00144841  0.72467551  0.75734796  1
  Zn  Zn10  1  0.34188606  0.06562082  0.07351422  1
  Zn  Zn11  1  0.93437826  0.65811286  0.42648580  1
  Zn  Zn12  1  0.65811463  0.93437585  0.92648650  1
  Zn  Zn13  1  0.06562376  0.34188581  0.57351351  1
  Zn  Zn14  1  0.42702904  0.89801700  0.44197406  1
  Zn  Zn15  1  0.10198424  0.57296981  0.05802570  1
  Zn  Zn16  1  0.57296878  0.10198643  0.55802500  1
  Zn  Zn17  1  0.89801249  0.42703303  0.94197521  1
  Te  Te18  1  -0.00000103  -0.00000051  0.50000125  1
  Te  Te19  1  0.00000022  0.00000123  -0.00000116  1
  Te  Te20  1  0.66154046  0.66653751  0.19592603  1
  Te  Te21  1  0.33346297  0.33846049  0.30407469  1
  Te  Te22  1  0.33846061  0.33346385  0.80407559  1
  Te  Te23  1  0.66653626  0.66153818  0.69592423  1
  O  O24  1  0.76864901  0.08896559  0.42839219  1
  O  O25  1  0.91103339  0.23135166  0.07160758  1
  O  O26  1  0.23135013  0.91103505  0.57160839  1
  O  O27  1  0.08896551  0.76864994  0.92839228  1
  O  O28  1  0.42864717  0.42521641  0.42763817  1
  O  O29  1  0.57478477  0.57135286  0.07236173  1
  O  O30  1  0.57135306  0.57478024  0.57236230  1
  O  O31  1  0.42521713  0.42864907  0.92763784  1
  O  O32  1  0.54754606  0.23332779  0.20033484  1
  O  O33  1  0.76667247  0.45245367  0.29966512  1
  O  O34  1  0.45245319  0.76667365  0.79966504  1
  O  O35  1  0.23332624  0.54754695  0.70033509  1
  O  O36  1  0.42939270  0.12134347  0.40310469  1
  O  O37  1  0.87865704  0.57060828  0.09689534  1
  O  O38  1  0.44372197  0.75687249  0.29618721  1
  O  O39  1  0.57060750  0.87865478  0.59689464  1
  O  O40  1  0.73756707  0.77732852  0.32009606  1
  O  O41  1  0.22267176  0.26243273  0.17990434  1
  O  O42  1  0.26243427  0.22267232  0.67990430  1
  O  O43  1  0.77732819  0.73756498  0.82009540  1
  O  O44  1  0.58630563  0.88746259  0.10182354  1
  O  O45  1  0.11253780  0.41369434  0.39817659  1
  O  O46  1  0.41369546  0.11253890  0.89817699  1
  O  O47  1  0.88746082  0.58630386  0.60182246  1
  O  O48  1  0.04911271  0.09257021  0.84206499  1
  O  O49  1  0.90742957  0.95088688  0.65793521  1
  O  O50  1  0.95088890  0.90743068  0.15793406  1
  O  O51  1  0.09256877  0.04911178  0.34206563  1
  O  O52  1  0.90971793  0.23671880  0.56033387  1
  O  O53  1  0.76328107  0.09028217  0.93966655  1
  O  O54  1  0.09028060  0.76328083  0.43966626  1
  O  O55  1  0.23671875  0.90971937  0.06033359  1
  O  O56  1  0.75687240  0.44372143  0.79618666  1
  O  O57  1  0.55627804  0.24312790  0.70381339  1
  O  O58  1  0.24312747  0.55627802  0.20381304  1
  O  O59  1  0.12134392  0.42939327  0.90310445  1
