# generated using pymatgen
data_RbAg(PO3)2
_symmetry_space_group_name_H-M   'P 1'
_cell_length_a   13.37857796
_cell_length_b   6.17392777
_cell_length_c   7.49099827
_cell_angle_alpha   83.90188286
_cell_angle_beta   90.00000000
_cell_angle_gamma   90.00000000
_symmetry_Int_Tables_number   1
_chemical_formula_structural   RbAg(PO3)2
_chemical_formula_sum   'Rb4 Ag4 P8 O24'
_cell_volume   615.24307259
_cell_formula_units_Z   4
loop_
 _symmetry_equiv_pos_site_id
 _symmetry_equiv_pos_as_xyz
  1  'x, y, z'
loop_
 _atom_site_type_symbol
 _atom_site_label
 _atom_site_symmetry_multiplicity
 _atom_site_fract_x
 _atom_site_fract_y
 _atom_site_fract_z
 _atom_site_occupancy
  Rb  Rb0  1  0.16793508  0.28193409  0.76244530  1
  Rb  Rb1  1  0.83206492  0.71806591  0.23755470  1
  Rb  Rb2  1  0.66793508  0.71806591  0.73755470  1
  Rb  Rb3  1  0.33206492  0.28193409  0.26244530  1
  Ag  Ag4  1  0.97303447  0.81076190  0.81049551  1
  Ag  Ag5  1  0.02696553  0.18923810  0.18950449  1
  Ag  Ag6  1  0.47303447  0.18923810  0.68950449  1
  Ag  Ag7  1  0.52696553  0.81076190  0.31049451  1
  P  P8  1  0.36636089  0.68898016  0.64591837  1
  P  P9  1  0.63363911  0.31101984  0.35408163  1
  P  P10  1  0.86636089  0.31101984  0.85408163  1
  P  P11  1  0.13363911  0.68898016  0.14591837  1
  P  P12  1  0.17145818  0.84331140  0.49978836  1
  P  P13  1  0.82854182  0.15668860  0.50021164  1
  P  P14  1  0.67145818  0.15668860  0.00021164  1
  P  P15  1  0.32854182  0.84331140  -0.00021164  1
  O  O16  1  0.85609471  0.93364601  0.57828129  1
  O  O17  1  0.14390529  0.06635399  0.42171871  1
  O  O18  1  0.35609471  0.06635399  0.92171871  1
  O  O19  1  0.64390529  0.93364601  0.07828129  1
  O  O20  1  0.35064104  0.46767959  0.59031408  1
  O  O21  1  0.64935896  0.53232041  0.40968592  1
  O  O22  1  0.85064104  0.53232041  0.90968592  1
  O  O23  1  0.14935896  0.46767959  0.09031408  1
  O  O24  1  0.12054189  0.73720989  0.66215313  1
  O  O25  1  0.87945811  0.26279011  0.33784687  1
  O  O26  1  0.62054189  0.26279011  0.83784687  1
  O  O27  1  0.37945811  0.73720989  0.16215313  1
  O  O28  1  0.28955249  0.85898101  0.54226446  1
  O  O29  1  0.71044751  0.14101899  0.45773554  1
  O  O30  1  0.78955249  0.14101899  0.95773554  1
  O  O31  1  0.21044751  0.85898101  0.04226446  1
  O  O32  1  0.46643845  0.79469703  0.62728599  1
  O  O33  1  0.53356155  0.20530297  0.37271401  1
  O  O34  1  0.96643845  0.20530297  0.87271401  1
  O  O35  1  0.03356155  0.79469703  0.12728599  1
  O  O36  1  0.32951233  0.67470413  0.85097072  1
  O  O37  1  0.67048767  0.32529587  0.14902928  1
  O  O38  1  0.82951233  0.32529587  0.64902928  1
  O  O39  1  0.17048767  0.67470413  0.35097072  1
