# generated using pymatgen
data_CaFe6(OF2)4
_symmetry_space_group_name_H-M   'P 1'
_cell_length_a   9.05387734
_cell_length_b   5.85407081
_cell_length_c   6.04857120
_cell_angle_alpha   65.71185248
_cell_angle_beta   66.25097664
_cell_angle_gamma   62.95460191
_symmetry_Int_Tables_number   1
_chemical_formula_structural   CaFe6(OF2)4
_chemical_formula_sum   'Ca1 Fe6 O4 F8'
_cell_volume   250.90162232
_cell_formula_units_Z   1
loop_
 _symmetry_equiv_pos_site_id
 _symmetry_equiv_pos_as_xyz
  1  'x, y, z'
loop_
 _atom_site_type_symbol
 _atom_site_label
 _atom_site_symmetry_multiplicity
 _atom_site_fract_x
 _atom_site_fract_y
 _atom_site_fract_z
 _atom_site_occupancy
  Ca  Ca0  1  0.22391200  0.72603600  0.25701400  1
  Fe  Fe1  1  0.83479600  0.62053200  0.68453400  1
  Fe  Fe2  1  0.69453600  0.35849400  0.30339300  1
  Fe  Fe3  1  0.39425800  0.75801500  0.63676600  1
  Fe  Fe4  1  0.06969700  0.25441200  0.40414100  1
  Fe  Fe5  1  0.50653100  0.05318900  0.00579200  1
  Fe  Fe6  1  0.89295200  0.87459100  0.99183100  1
  O  O7  1  0.29908000  0.02428900  0.35116000  1
  O  O8  1  0.72602500  0.67327200  0.01731500  1
  O  O9  1  0.94912600  0.22739600  0.74411800  1
  O  O10  1  0.98360000  0.63463700  0.30635700  1
  F  F11  1  0.70109000  0.04009700  0.61375400  1
  F  F12  1  0.34714200  0.47809400  0.96774700  1
  F  F13  1  0.36594100  0.95671600  0.88315600  1
  F  F14  1  0.98351000  0.14798800  0.23271800  1
  F  F15  1  0.65776200  0.59684200  0.57792300  1
  F  F16  1  0.03799200  0.70835800  0.68001100  1
  F  F17  1  0.42897200  0.47733100  0.46011100  1
  F  F18  1  0.65307900  0.13970700  0.13216200  1
