# generated using pymatgen
data_Rb2MoSe4
_symmetry_space_group_name_H-M   'P 1'
_cell_length_a   7.30380190
_cell_length_b   10.14112496
_cell_length_c   12.91296842
_cell_angle_alpha   90.00000000
_cell_angle_beta   90.00000000
_cell_angle_gamma   90.00000000
_symmetry_Int_Tables_number   1
_chemical_formula_structural   Rb2MoSe4
_chemical_formula_sum   'Rb8 Mo4 Se16'
_cell_volume   956.44765888
_cell_formula_units_Z   4
loop_
 _symmetry_equiv_pos_site_id
 _symmetry_equiv_pos_as_xyz
  1  'x, y, z'
loop_
 _atom_site_type_symbol
 _atom_site_label
 _atom_site_symmetry_multiplicity
 _atom_site_fract_x
 _atom_site_fract_y
 _atom_site_fract_z
 _atom_site_occupancy
  Rb  Rb0  1  0.25000000  0.45516205  0.83977406  1
  Rb  Rb1  1  0.25000000  0.95516205  0.66022594  1
  Rb  Rb2  1  0.75000000  0.54483795  0.16022594  1
  Rb  Rb3  1  0.75000000  0.04483795  0.33977406  1
  Rb  Rb4  1  0.25000000  0.15828408  0.11142035  1
  Rb  Rb5  1  0.25000000  0.65828408  0.38857965  1
  Rb  Rb6  1  0.75000000  0.84171592  0.88857965  1
  Rb  Rb7  1  0.75000000  0.34171592  0.61142035  1
  Mo  Mo8  1  0.25000000  0.25004902  0.42775660  1
  Mo  Mo9  1  0.25000000  0.75004902  0.07224340  1
  Mo  Mo10  1  0.75000000  0.74995098  0.57224340  1
  Mo  Mo11  1  0.75000000  0.24995098  0.92775660  1
  Se  Se12  1  0.49499140  0.15064426  0.85684300  1
  Se  Se13  1  0.00500860  0.65064426  0.64315700  1
  Se  Se14  1  0.99499140  0.84935574  0.14315700  1
  Se  Se15  1  0.50500860  0.34935574  0.35684300  1
  Se  Se16  1  0.50500860  0.84935574  0.14315700  1
  Se  Se17  1  0.99499140  0.34935574  0.35684300  1
  Se  Se18  1  0.00500860  0.15064426  0.85684300  1
  Se  Se19  1  0.49499140  0.65064426  0.64315700  1
  Se  Se20  1  0.25000000  0.52570696  0.11113892  1
  Se  Se21  1  0.25000000  0.02570696  0.38886108  1
  Se  Se22  1  0.75000000  0.47429304  0.88886108  1
  Se  Se23  1  0.75000000  0.97429304  0.61113892  1
  Se  Se24  1  0.25000000  0.28427958  0.60497758  1
  Se  Se25  1  0.25000000  0.78427958  0.89502242  1
  Se  Se26  1  0.75000000  0.71572042  0.39502242  1
  Se  Se27  1  0.75000000  0.21572042  0.10497758  1
