# generated using pymatgen
data_Sc4OsCl4
_symmetry_space_group_name_H-M   'P 1'
_cell_length_a   8.03291538
_cell_length_b   8.03291538
_cell_length_c   6.15670467
_cell_angle_alpha   89.50529240
_cell_angle_beta   89.50529240
_cell_angle_gamma   89.35312990
_symmetry_Int_Tables_number   1
_chemical_formula_structural   Sc4OsCl4
_chemical_formula_sum   'Sc8 Os2 Cl8'
_cell_volume   397.22356867
_cell_formula_units_Z   2
loop_
 _symmetry_equiv_pos_site_id
 _symmetry_equiv_pos_as_xyz
  1  'x, y, z'
loop_
 _atom_site_type_symbol
 _atom_site_label
 _atom_site_symmetry_multiplicity
 _atom_site_fract_x
 _atom_site_fract_y
 _atom_site_fract_z
 _atom_site_occupancy
  Sc  Sc0  1  0.10432550  0.74060841  0.98400161  1
  Sc  Sc1  1  0.25939159  0.89567450  0.51599839  1
  Sc  Sc2  1  0.89567450  0.25939159  0.01599839  1
  Sc  Sc3  1  0.74060841  0.10432550  0.48400161  1
  Sc  Sc4  1  0.74249953  0.89689839  0.01292332  1
  Sc  Sc5  1  0.10310161  0.25750047  0.48707668  1
  Sc  Sc6  1  0.25750047  0.10310161  0.98707668  1
  Sc  Sc7  1  0.89689839  0.74249953  0.51292332  1
  Os  Os8  1  0.00974359  0.99025641  0.25000000  1
  Os  Os9  1  0.99025641  0.00974359  0.75000000  1
  Cl  Cl10  1  0.42305128  0.81834658  0.89799499  1
  Cl  Cl11  1  0.18165342  0.57694872  0.60200501  1
  Cl  Cl12  1  0.57694872  0.18165342  0.10200501  1
  Cl  Cl13  1  0.81834658  0.42305128  0.39799499  1
  Cl  Cl14  1  0.80712009  0.58069739  0.89687436  1
  Cl  Cl15  1  0.41930261  0.19287991  0.60312564  1
  Cl  Cl16  1  0.19287991  0.41930261  0.10312564  1
  Cl  Cl17  1  0.58069739  0.80712009  0.39687436  1
