# generated using pymatgen
data_TeAsRu
_symmetry_space_group_name_H-M   'P 1'
_cell_length_a   6.32715933
_cell_length_b   6.39232980
_cell_length_c   6.44069498
_cell_angle_alpha   113.29794533
_cell_angle_beta   90.00000000
_cell_angle_gamma   90.00000000
_symmetry_Int_Tables_number   1
_chemical_formula_structural   TeAsRu
_chemical_formula_sum   'Te4 As4 Ru4'
_cell_volume   239.25509268
_cell_formula_units_Z   4
loop_
 _symmetry_equiv_pos_site_id
 _symmetry_equiv_pos_as_xyz
  1  'x, y, z'
loop_
 _atom_site_type_symbol
 _atom_site_label
 _atom_site_symmetry_multiplicity
 _atom_site_fract_x
 _atom_site_fract_y
 _atom_site_fract_z
 _atom_site_occupancy
  Te  Te0  1  0.12484078  0.84401395  0.13331941  1
  Te  Te1  1  0.62484078  0.15598605  0.36668059  1
  Te  Te2  1  0.87515922  0.15598605  0.86668059  1
  Te  Te3  1  0.37515922  0.84401395  0.63331941  1
  As  As4  1  0.85642207  0.64611347  0.33028055  1
  As  As5  1  0.35642207  0.35388653  0.16971945  1
  As  As6  1  0.14357793  0.35388653  0.66971945  1
  As  As7  1  0.64357793  0.64611347  0.83028055  1
  Ru  Ru8  1  0.50894690  0.71505226  0.20516799  1
  Ru  Ru9  1  0.00894690  0.28494774  0.29483201  1
  Ru  Ru10  1  0.49105310  0.28494774  0.79483201  1
  Ru  Ru11  1  0.99105310  0.71505226  0.70516799  1
