# generated using pymatgen
data_NaPrS2
_symmetry_space_group_name_H-M   'P 1'
_cell_length_a   7.07879146
_cell_length_b   7.07879146
_cell_length_c   7.07879082
_cell_angle_alpha   34.14164337
_cell_angle_beta   34.14164337
_cell_angle_gamma   34.14165152
_symmetry_Int_Tables_number   1
_chemical_formula_structural   NaPrS2
_chemical_formula_sum   'Na1 Pr1 S2'
_cell_volume   99.61832922
_cell_formula_units_Z   1
loop_
 _symmetry_equiv_pos_site_id
 _symmetry_equiv_pos_as_xyz
  1  'x, y, z'
loop_
 _atom_site_type_symbol
 _atom_site_label
 _atom_site_symmetry_multiplicity
 _atom_site_fract_x
 _atom_site_fract_y
 _atom_site_fract_z
 _atom_site_occupancy
  Na  Na0  1  -0.00000000  -0.00000000  0.00000000  1
  Pr  Pr1  1  0.50000000  0.50000000  0.50000000  1
  S  S2  1  0.24545960  0.24545960  0.24545960  1
  S  S3  1  0.75454040  0.75454040  0.75454040  1
