# generated using pymatgen
data_Tb(NO3)3
_symmetry_space_group_name_H-M   'P 1'
_cell_length_a   6.15195253
_cell_length_b   9.67171512
_cell_length_c   10.99673036
_cell_angle_alpha   87.43817783
_cell_angle_beta   90.00002647
_cell_angle_gamma   89.99999487
_symmetry_Int_Tables_number   1
_chemical_formula_structural   Tb(NO3)3
_chemical_formula_sum   'Tb4 N12 O36'
_cell_volume   653.65078341
_cell_formula_units_Z   4
loop_
 _symmetry_equiv_pos_site_id
 _symmetry_equiv_pos_as_xyz
  1  'x, y, z'
loop_
 _atom_site_type_symbol
 _atom_site_label
 _atom_site_symmetry_multiplicity
 _atom_site_fract_x
 _atom_site_fract_y
 _atom_site_fract_z
 _atom_site_occupancy
  Tb  Tb0  1  0.68173076  0.28851601  0.73705611  1
  Tb  Tb1  1  0.18173007  0.21148419  0.26294358  1
  Tb  Tb2  1  0.31827113  0.71148320  0.26295041  1
  Tb  Tb3  1  0.81827048  0.78851628  0.73704973  1
  N  N4  1  0.39033003  0.17414395  0.49182984  1
  N  N5  1  0.89033071  0.32585633  0.50816994  1
  N  N6  1  0.60966922  0.82585700  0.50816740  1
  N  N7  1  0.10966949  0.67414271  0.49183303  1
  N  N8  1  0.73327692  0.19527781  0.21194172  1
  N  N9  1  0.23327739  0.30472179  0.78805860  1
  N  N10  1  0.26672417  0.80472774  0.78805793  1
  N  N11  1  0.76672445  0.69527442  0.21194121  1
  N  N12  1  0.71554063  0.53193349  0.88209861  1
  N  N13  1  0.21553910  0.96806663  0.11790162  1
  N  N14  1  0.28446073  0.46806849  0.11789931  1
  N  N15  1  0.78446177  0.03193081  0.88210021  1
  O  O16  1  0.43034996  0.27977867  0.42303779  1
  O  O17  1  0.93035290  0.22022233  0.57696284  1
  O  O18  1  0.56964408  0.72022096  0.57696215  1
  O  O19  1  0.06964424  0.77977895  0.42303813  1
  O  O20  1  0.26734706  0.08287024  0.45095751  1
  O  O21  1  0.76734652  0.41712956  0.54904232  1
  O  O22  1  0.73265347  0.91713116  0.54904014  1
  O  O23  1  0.23265335  0.58286837  0.45096012  1
  O  O24  1  0.46783288  0.16024804  0.59621641  1
  O  O25  1  0.96783187  0.33975173  0.40378328  1
  O  O26  1  0.53216942  0.83975064  0.40377919  1
  O  O27  1  0.03216923  0.66024902  0.59622123  1
  O  O28  1  0.82594877  0.10210652  0.27761134  1
  O  O29  1  0.32594953  0.39789335  0.72238893  1
  O  O30  1  0.17405650  0.89789452  0.72238916  1
  O  O31  1  0.67405891  0.60210613  0.27761014  1
  O  O32  1  0.53516227  0.18856729  0.18860379  1
  O  O33  1  0.03516243  0.31143226  0.81139671  1
  O  O34  1  0.46483194  0.81143753  0.81139728  1
  O  O35  1  0.96483243  0.68856695  0.18860119  1
  O  O36  1  0.84653532  0.29417467  0.16911769  1
  O  O37  1  0.34653617  0.20582453  0.83088253  1
  O  O38  1  0.15346781  0.70583406  0.83088135  1
  O  O39  1  0.65346529  0.79416701  0.16911870  1
  O  O40  1  0.73332315  0.54353740  0.76410618  1
  O  O41  1  0.23332332  0.95646240  0.23589358  1
  O  O42  1  0.26667732  0.45645724  0.23590070  1
  O  O43  1  0.76667776  0.04354280  0.76410105  1
  O  O44  1  0.65881690  0.41645434  0.92624348  1
  O  O45  1  0.15881370  0.08354390  0.07375651  1
  O  O46  1  0.34118911  0.58354950  0.07376006  1
  O  O47  1  0.84118759  0.91645059  0.92623924  1
  O  O48  1  0.75672023  0.63399524  0.94106108  1
  O  O49  1  0.25671922  0.86600446  0.05893869  1
  O  O50  1  0.24326814  0.36600621  0.05893005  1
  O  O51  1  0.74327216  0.13399256  0.94107019  1
