# generated using pymatgen
data_Sr7PbN6
_symmetry_space_group_name_H-M   'P 1'
_cell_length_a   6.84967286
_cell_length_b   9.89768965
_cell_length_c   9.89768965
_cell_angle_alpha   79.37823261
_cell_angle_beta   69.75569671
_cell_angle_gamma   69.75569671
_symmetry_Int_Tables_number   1
_chemical_formula_structural   Sr7PbN6
_chemical_formula_sum   'Sr14 Pb2 N12'
_cell_volume   589.08753324
_cell_formula_units_Z   2
loop_
 _symmetry_equiv_pos_site_id
 _symmetry_equiv_pos_as_xyz
  1  'x, y, z'
loop_
 _atom_site_type_symbol
 _atom_site_label
 _atom_site_symmetry_multiplicity
 _atom_site_fract_x
 _atom_site_fract_y
 _atom_site_fract_z
 _atom_site_occupancy
  Sr  Sr0  1  0.28189547  0.95041066  0.04958934  1
  Sr  Sr1  1  0.71810453  0.04958934  0.95041066  1
  Sr  Sr2  1  0.21810453  0.45041066  0.54958934  1
  Sr  Sr3  1  0.78189547  0.54958934  0.45041066  1
  Sr  Sr4  1  0.76155751  0.15271697  0.58953865  1
  Sr  Sr5  1  0.49618687  0.58953865  0.15271697  1
  Sr  Sr6  1  0.73844249  0.91046135  0.34728303  1
  Sr  Sr7  1  0.00381313  0.34728303  0.91046135  1
  Sr  Sr8  1  0.23844249  0.84728303  0.41046135  1
  Sr  Sr9  1  0.50381313  0.41046135  0.84728303  1
  Sr  Sr10  1  0.26155751  0.08953865  0.65271697  1
  Sr  Sr11  1  0.99618687  0.65271697  0.08953865  1
  Sr  Sr12  1  0.25000000  0.25000000  0.25000000  1
  Sr  Sr13  1  0.75000000  0.75000000  0.75000000  1
  Pb  Pb14  1  0.75000000  0.25000000  0.25000000  1
  Pb  Pb15  1  0.25000000  0.75000000  0.75000000  1
  N  N16  1  0.02373938  0.06265921  0.29444242  1
  N  N17  1  0.61915899  0.29444242  0.06265921  1
  N  N18  1  0.47626062  0.20555758  0.43734079  1
  N  N19  1  0.88084101  0.43734079  0.20555758  1
  N  N20  1  0.97626062  0.93734079  0.70555758  1
  N  N21  1  0.38084101  0.70555758  0.93734079  1
  N  N22  1  0.52373938  0.79444242  0.56265921  1
  N  N23  1  0.11915899  0.56265921  0.79444242  1
  N  N24  1  0.88334259  0.35038733  0.64961267  1
  N  N25  1  0.11665741  0.64961267  0.35038733  1
  N  N26  1  0.61665741  0.85038733  0.14961267  1
  N  N27  1  0.38334259  0.14961267  0.85038733  1
