# generated using pymatgen
data_K2LiH2(SeO3)2
_symmetry_space_group_name_H-M   'P 1'
_cell_length_a   5.34656053
_cell_length_b   6.07518108
_cell_length_c   8.36757990
_cell_angle_alpha   111.44341264
_cell_angle_beta   110.88516165
_cell_angle_gamma   77.50084957
_symmetry_Int_Tables_number   1
_chemical_formula_structural   K2LiH2(SeO3)2
_chemical_formula_sum   'K2 Li1 H2 Se2 O6'
_cell_volume   235.19393991
_cell_formula_units_Z   1
loop_
 _symmetry_equiv_pos_site_id
 _symmetry_equiv_pos_as_xyz
  1  'x, y, z'
loop_
 _atom_site_type_symbol
 _atom_site_label
 _atom_site_symmetry_multiplicity
 _atom_site_fract_x
 _atom_site_fract_y
 _atom_site_fract_z
 _atom_site_occupancy
  K  K0  1  0.24541600  0.59635700  0.11883000  1
  K  K1  1  0.67950600  0.38240000  0.78602700  1
  Li  Li2  1  0.78235800  0.79159000  0.32368600  1
  H  H3  1  0.20473500  0.07347800  0.04985400  1
  H  H4  1  0.66166000  0.91492800  0.05592500  1
  Se  Se5  1  0.05565100  0.24518100  0.37564200  1
  Se  Se6  1  0.15462400  0.84023500  0.73537400  1
  O  O7  1  0.14403800  0.11054800  0.93182700  1
  O  O8  1  0.69966200  0.76424900  0.07977100  1
  O  O9  1  0.87960900  0.44421400  0.26467800  1
  O  O10  1  0.05877400  0.62794700  0.77954500  1
  O  O11  1  0.28444700  0.07758100  0.26546300  1
  O  O12  1  0.88701900  0.93858200  0.58522900  1
