# generated using pymatgen
data_LiHfMg14O15
_symmetry_space_group_name_H-M   'P 1'
_cell_length_a   8.59749095
_cell_length_b   8.57325684
_cell_length_c   4.29864720
_cell_angle_alpha   90.00000000
_cell_angle_beta   90.00000000
_cell_angle_gamma   90.00000000
_symmetry_Int_Tables_number   1
_chemical_formula_structural   LiHfMg14O15
_chemical_formula_sum   'Li1 Hf1 Mg14 O15'
_cell_volume   316.84682895
_cell_formula_units_Z   1
loop_
 _symmetry_equiv_pos_site_id
 _symmetry_equiv_pos_as_xyz
  1  'x, y, z'
loop_
 _atom_site_type_symbol
 _atom_site_label
 _atom_site_symmetry_multiplicity
 _atom_site_fract_x
 _atom_site_fract_y
 _atom_site_fract_z
 _atom_site_occupancy
  Li  Li0  1  0.00005615  0.00000000  -0.00000000  1
  Hf  Hf1  1  0.49270321  0.50000000  -0.00000000  1
  Mg  Mg2  1  0.99920971  0.50000000  -0.00000000  1
  Mg  Mg3  1  0.50019065  0.00000000  -0.00000000  1
  Mg  Mg4  1  0.00069529  0.24253345  0.50000000  1
  Mg  Mg5  1  0.00069529  0.75746655  0.50000000  1
  Mg  Mg6  1  0.49895942  0.23957987  0.50000000  1
  Mg  Mg7  1  0.49895942  0.76042013  0.50000000  1
  Mg  Mg8  1  0.24101134  0.00000000  0.50000000  1
  Mg  Mg9  1  0.24372962  0.50000000  0.50000000  1
  Mg  Mg10  1  0.75844693  0.00000000  0.50000000  1
  Mg  Mg11  1  0.75863761  0.50000000  0.50000000  1
  Mg  Mg12  1  0.23796451  0.23924918  -0.00000000  1
  Mg  Mg13  1  0.23796451  0.76075082  0.00000000  1
  Mg  Mg14  1  0.76152347  0.24154668  0.00000000  1
  Mg  Mg15  1  0.76152347  0.75845332  -0.00000000  1
  O  O16  1  0.26117926  0.00000000  -0.00000000  1
  O  O17  1  0.73922017  0.00000000  -0.00000000  1
  O  O18  1  0.75203285  0.50000000  -0.00000000  1
  O  O19  1  0.25131297  0.24556604  0.50000000  1
  O  O20  1  0.25131297  0.75443396  0.50000000  1
  O  O21  1  0.74777610  0.25072650  0.50000000  1
  O  O22  1  0.74777610  0.74927350  0.50000000  1
  O  O23  1  0.99908585  0.00000000  0.50000000  1
  O  O24  1  0.00011035  0.50000000  0.50000000  1
  O  O25  1  0.50098890  0.00000000  0.50000000  1
  O  O26  1  0.50575513  0.50000000  0.50000000  1
  O  O27  1  -0.00001097  0.25823806  -0.00000000  1
  O  O28  1  -0.00001097  0.74176194  0.00000000  1
  O  O29  1  0.50060035  0.25560457  -0.00000000  1
  O  O30  1  0.50060035  0.74439543  -0.00000000  1
