# generated using pymatgen
data_Cs3ErO3
_symmetry_space_group_name_H-M   'P 1'
_cell_length_a   12.07558175
_cell_length_b   7.52651645
_cell_length_c   8.18988772
_cell_angle_alpha   90.00204727
_cell_angle_beta   95.19083961
_cell_angle_gamma   90.00046137
_symmetry_Int_Tables_number   1
_chemical_formula_structural   Cs3ErO3
_chemical_formula_sum   'Cs12 Er4 O12'
_cell_volume   741.30216306
_cell_formula_units_Z   4
loop_
 _symmetry_equiv_pos_site_id
 _symmetry_equiv_pos_as_xyz
  1  'x, y, z'
loop_
 _atom_site_type_symbol
 _atom_site_label
 _atom_site_symmetry_multiplicity
 _atom_site_fract_x
 _atom_site_fract_y
 _atom_site_fract_z
 _atom_site_occupancy
  Cs  Cs0  1  0.07677210  0.33876669  0.64880608  1
  Cs  Cs1  1  0.15596982  0.62108932  0.05848789  1
  Cs  Cs2  1  0.19089783  0.81846938  0.62095734  1
  Cs  Cs3  1  0.30910708  0.31846108  0.37903951  1
  Cs  Cs4  1  0.34403653  0.12110959  0.94151645  1
  Cs  Cs5  1  0.42322437  0.83875410  0.35117801  1
  Cs  Cs6  1  0.57676674  0.16123496  0.64881159  1
  Cs  Cs7  1  0.65596455  0.87890760  0.05848204  1
  Cs  Cs8  1  0.69089249  0.68153415  0.62095829  1
  Cs  Cs9  1  0.80910406  0.18153808  0.37904314  1
  Cs  Cs10  1  0.84403367  0.37890908  0.94150679  1
  Cs  Cs11  1  0.92323501  0.66124334  0.35119319  1
  Er  Er12  1  0.06834729  0.08650257  0.15552010  1
  Er  Er13  1  0.43160557  0.58651003  0.84446096  1
  Er  Er14  1  0.56838735  0.41349617  0.15553722  1
  Er  Er15  1  0.93164757  0.91350457  0.84447836  1
  O  O16  1  0.04720386  0.34334222  0.24587940  1
  O  O17  1  0.08675321  0.05454166  0.89560692  1
  O  O18  1  0.19173511  0.94669688  0.29491939  1
  O  O19  1  0.30826528  0.44675447  0.70510711  1
  O  O20  1  0.41324844  0.55449687  0.10443946  1
  O  O21  1  0.45280976  0.84337311  0.75417080  1
  O  O22  1  0.54720301  0.15662974  0.24585239  1
  O  O23  1  0.58672433  0.44547623  0.89554879  1
  O  O24  1  0.69171453  0.55327754  0.29486751  1
  O  O25  1  0.80828423  0.05327251  0.70509072  1
  O  O26  1  0.91324268  0.94548266  0.10439154  1
  O  O27  1  0.95282556  0.65662141  0.75414801  1
