# generated using pymatgen
data_Tb2HfS5
_symmetry_space_group_name_H-M   'P 1'
_cell_length_a   7.25587264
_cell_length_b   7.75368933
_cell_length_c   11.51371919
_cell_angle_alpha   90.00000000
_cell_angle_beta   90.00000000
_cell_angle_gamma   90.00000000
_symmetry_Int_Tables_number   1
_chemical_formula_structural   Tb2HfS5
_chemical_formula_sum   'Tb8 Hf4 S20'
_cell_volume   647.75933473
_cell_formula_units_Z   4
loop_
 _symmetry_equiv_pos_site_id
 _symmetry_equiv_pos_as_xyz
  1  'x, y, z'
loop_
 _atom_site_type_symbol
 _atom_site_label
 _atom_site_symmetry_multiplicity
 _atom_site_fract_x
 _atom_site_fract_y
 _atom_site_fract_z
 _atom_site_occupancy
  Tb  Tb0  1  0.52417873  0.00236653  0.32167532  1
  Tb  Tb1  1  0.97582127  0.49763347  0.82167532  1
  Tb  Tb2  1  0.47582127  0.50236653  0.67832468  1
  Tb  Tb3  1  0.02417873  0.99763347  0.17832468  1
  Tb  Tb4  1  0.47582127  0.99763347  0.67832468  1
  Tb  Tb5  1  0.02417873  0.50236653  0.17832468  1
  Tb  Tb6  1  0.52417873  0.49763347  0.32167532  1
  Tb  Tb7  1  0.97582127  0.00236653  0.82167532  1
  Hf  Hf8  1  0.07503175  0.75000000  0.49427874  1
  Hf  Hf9  1  0.42496825  0.75000000  0.99427874  1
  Hf  Hf10  1  0.92496825  0.25000000  0.50572126  1
  Hf  Hf11  1  0.57503175  0.25000000  0.00572126  1
  S  S12  1  0.83888438  0.53582832  0.59185926  1
  S  S13  1  0.66111562  0.96417168  0.09185926  1
  S  S14  1  0.16111562  0.03582832  0.40814074  1
  S  S15  1  0.33888438  0.46417168  0.90814074  1
  S  S16  1  0.16111562  0.46417168  0.40814074  1
  S  S17  1  0.33888438  0.03582832  0.90814074  1
  S  S18  1  0.83888438  0.96417168  0.59185926  1
  S  S19  1  0.66111562  0.53582832  0.09185926  1
  S  S20  1  0.83498959  0.75000000  0.31863875  1
  S  S21  1  0.66501041  0.75000000  0.81863875  1
  S  S22  1  0.16501041  0.25000000  0.68136125  1
  S  S23  1  0.33498959  0.25000000  0.18136125  1
  S  S24  1  0.44645313  0.75000000  0.49639926  1
  S  S25  1  0.05354687  0.75000000  0.99639926  1
  S  S26  1  0.55354687  0.25000000  0.50360074  1
  S  S27  1  0.94645313  0.25000000  0.00360074  1
  S  S28  1  0.18723228  0.75000000  0.70679703  1
  S  S29  1  0.31276772  0.75000000  0.20679703  1
  S  S30  1  0.81276772  0.25000000  0.29320297  1
  S  S31  1  0.68723228  0.25000000  0.79320297  1
