# generated using pymatgen
data_Sr(GaS2)2
_symmetry_space_group_name_H-M   'P 1'
_cell_length_a   11.97070601
_cell_length_b   11.97070602
_cell_length_c   12.15056181
_cell_angle_alpha   104.92633577
_cell_angle_beta   104.92633778
_cell_angle_gamma   118.49656191
_symmetry_Int_Tables_number   1
_chemical_formula_structural   Sr(GaS2)2
_chemical_formula_sum   'Sr8 Ga16 S32'
_cell_volume   1321.86337625
_cell_formula_units_Z   8
loop_
 _symmetry_equiv_pos_site_id
 _symmetry_equiv_pos_as_xyz
  1  'x, y, z'
loop_
 _atom_site_type_symbol
 _atom_site_label
 _atom_site_symmetry_multiplicity
 _atom_site_fract_x
 _atom_site_fract_y
 _atom_site_fract_z
 _atom_site_occupancy
  Sr  Sr0  1  0.87333468  0.62333468  0.24666936  1
  Sr  Sr1  1  0.37666532  0.12666532  0.25333064  1
  Sr  Sr2  1  0.12666532  0.37666532  0.75333064  1
  Sr  Sr3  1  0.62333468  0.87333468  0.74666936  1
  Sr  Sr4  1  0.62500000  0.37500000  0.75000000  1
  Sr  Sr5  1  0.37500000  0.62500000  0.25000000  1
  Sr  Sr6  1  0.12500000  0.87500000  0.75000000  1
  Sr  Sr7  1  0.87500000  0.12500000  0.25000000  1
  Ga  Ga8  1  0.88888231  0.86332123  0.99921252  1
  Ga  Ga9  1  0.86410971  0.38967079  0.50078748  1
  Ga  Ga10  1  0.13667877  0.11111769  0.50078748  1
  Ga  Ga11  1  0.61032921  0.13589029  0.99921252  1
  Ga  Ga12  1  0.11111769  0.13667877  0.00078748  1
  Ga  Ga13  1  0.13589029  0.61032921  0.49921252  1
  Ga  Ga14  1  0.86332123  0.88888231  0.49921252  1
  Ga  Ga15  1  0.38967079  0.86410971  0.00078748  1
  Ga  Ga16  1  0.53227643  0.63899335  0.99983661  1
  Ga  Ga17  1  0.63915675  0.03243883  0.50016339  1
  Ga  Ga18  1  0.36100665  0.46772357  0.50016339  1
  Ga  Ga19  1  0.96756117  0.36084325  0.99983661  1
  Ga  Ga20  1  0.46772357  0.36100665  0.00016339  1
  Ga  Ga21  1  0.36084325  0.96756117  0.49983661  1
  Ga  Ga22  1  0.63899335  0.53227643  0.49983661  1
  Ga  Ga23  1  0.03243883  0.63915675  0.00016339  1
  S  S24  1  0.81127499  0.15679455  0.99791715  1
  S  S25  1  0.15887740  0.31335883  0.50208285  1
  S  S26  1  0.84320545  0.18872501  0.50208285  1
  S  S27  1  0.68664117  0.84112260  0.99791715  1
  S  S28  1  0.18872501  0.84320545  0.00208285  1
  S  S29  1  0.84112260  0.68664117  0.49791715  1
  S  S30  1  0.15679455  0.81127499  0.49791715  1
  S  S31  1  0.31335883  0.15887740  0.00208285  1
  S  S32  1  0.14966941  0.34012298  0.00195729  1
  S  S33  1  0.33816569  0.64771112  0.49804271  1
  S  S34  1  0.65987702  0.85033059  0.49804271  1
  S  S35  1  0.35228888  0.66183431  0.00195729  1
  S  S36  1  0.85033059  0.65987702  0.99804271  1
  S  S37  1  0.66183431  0.35228888  0.50195729  1
  S  S38  1  0.34012298  0.14966941  0.50195729  1
  S  S39  1  0.64771112  0.33816569  0.99804271  1
  S  S40  1  0.58107793  0.08107670  0.66410692  1
  S  S41  1  0.41696977  0.41697101  0.83589308  1
  S  S42  1  0.91892330  0.41892207  0.83589308  1
  S  S43  1  0.58302899  0.58303023  0.66410692  1
  S  S44  1  0.41892207  0.91892330  0.33589308  1
  S  S45  1  0.58303023  0.58302899  0.16410692  1
  S  S46  1  0.08107670  0.58107793  0.16410692  1
  S  S47  1  0.41697101  0.41696977  0.33589308  1
  S  S48  1  0.91695229  0.41749965  0.33669321  1
  S  S49  1  0.08080744  0.08025908  0.16330679  1
  S  S50  1  0.58250035  0.08304771  0.16330679  1
  S  S51  1  0.91974092  0.91919256  0.33669321  1
  S  S52  1  0.08304771  0.58250035  0.66330679  1
  S  S53  1  0.91919256  0.91974092  0.83669321  1
  S  S54  1  0.41749965  0.91695229  0.83669321  1
  S  S55  1  0.08025908  0.08080744  0.66330679  1
