# generated using pymatgen
data_Y3Te3N
_symmetry_space_group_name_H-M   'P 1'
_cell_length_a   11.98108305
_cell_length_b   8.12793992
_cell_length_c   8.65918173
_cell_angle_alpha   71.34961153
_cell_angle_beta   90.00000000
_cell_angle_gamma   90.00000000
_symmetry_Int_Tables_number   1
_chemical_formula_structural   Y3Te3N
_chemical_formula_sum   'Y12 Te12 N4'
_cell_volume   798.96347063
_cell_formula_units_Z   4
loop_
 _symmetry_equiv_pos_site_id
 _symmetry_equiv_pos_as_xyz
  1  'x, y, z'
loop_
 _atom_site_type_symbol
 _atom_site_label
 _atom_site_symmetry_multiplicity
 _atom_site_fract_x
 _atom_site_fract_y
 _atom_site_fract_z
 _atom_site_occupancy
  Y  Y0  1  0.02386668  0.60207753  0.13765507  1
  Y  Y1  1  0.52386668  0.39792247  0.36234493  1
  Y  Y2  1  0.97613332  0.39792247  0.86234493  1
  Y  Y3  1  0.47613332  0.60207753  0.63765507  1
  Y  Y4  1  0.41221645  0.83822196  0.20544309  1
  Y  Y5  1  0.91221645  0.16177804  0.29455691  1
  Y  Y6  1  0.58778355  0.16177804  0.79455691  1
  Y  Y7  1  0.08778355  0.83822196  0.70544309  1
  Y  Y8  1  0.70931329  0.76604597  0.34727968  1
  Y  Y9  1  0.20931329  0.23395403  0.15272032  1
  Y  Y10  1  0.29068671  0.23395403  0.65272032  1
  Y  Y11  1  0.79068671  0.76604597  0.84727968  1
  Te  Te12  1  0.97898085  0.77778146  0.41261411  1
  Te  Te13  1  0.47898085  0.22221854  0.08738589  1
  Te  Te14  1  0.02101915  0.22221854  0.58738589  1
  Te  Te15  1  0.52101915  0.77778146  0.91261411  1
  Te  Te16  1  0.26655988  0.50809948  0.31166104  1
  Te  Te17  1  0.76655988  0.49190052  0.18833896  1
  Te  Te18  1  0.73344012  0.49190052  0.68833896  1
  Te  Te19  1  0.23344012  0.50809948  0.81166104  1
  Te  Te20  1  0.30644234  0.95386956  0.48192281  1
  Te  Te21  1  0.80644234  0.04613044  0.01807719  1
  Te  Te22  1  0.69355766  0.04613044  0.51807719  1
  Te  Te23  1  0.19355766  0.95386956  0.98192281  1
  N  N24  1  0.53481167  0.67308278  0.37689462  1
  N  N25  1  0.03481167  0.32691722  0.12310538  1
  N  N26  1  0.46518833  0.32691722  0.62310538  1
  N  N27  1  0.96518833  0.67308278  0.87689462  1
