# generated using pymatgen
data_K2RuO5
_symmetry_space_group_name_H-M   'P 1'
_cell_length_a   6.18664201
_cell_length_b   7.78128096
_cell_length_c   11.35419269
_cell_angle_alpha   90.00000000
_cell_angle_beta   90.00000000
_cell_angle_gamma   90.00000000
_symmetry_Int_Tables_number   1
_chemical_formula_structural   K2RuO5
_chemical_formula_sum   'K8 Ru4 O20'
_cell_volume   546.59083245
_cell_formula_units_Z   4
loop_
 _symmetry_equiv_pos_site_id
 _symmetry_equiv_pos_as_xyz
  1  'x, y, z'
loop_
 _atom_site_type_symbol
 _atom_site_label
 _atom_site_symmetry_multiplicity
 _atom_site_fract_x
 _atom_site_fract_y
 _atom_site_fract_z
 _atom_site_occupancy
  K  K0  1  0.45248419  0.60803587  0.45564997  1
  K  K1  1  0.95248419  0.89196413  0.54435003  1
  K  K2  1  0.54751581  0.10803587  0.04435003  1
  K  K3  1  0.04751581  0.39196413  0.95564997  1
  K  K4  1  0.01236063  0.83788178  0.17770003  1
  K  K5  1  0.51236063  0.66211822  0.82229997  1
  K  K6  1  0.98763937  0.33788178  0.32229997  1
  K  K7  1  0.48763937  0.16211822  0.67770003  1
  Ru  Ru8  1  0.44186932  0.05625244  0.36399707  1
  Ru  Ru9  1  0.94186932  0.44374756  0.63600293  1
  Ru  Ru10  1  0.55813068  0.55625244  0.13600293  1
  Ru  Ru11  1  0.05813068  0.94374756  0.86399707  1
  O  O12  1  0.04971168  0.54601320  0.50717353  1
  O  O13  1  0.54971168  0.95398680  0.49282647  1
  O  O14  1  0.95028832  0.04601320  0.99282647  1
  O  O15  1  0.45028832  0.45398680  0.00717353  1
  O  O16  1  0.24503385  0.88583634  0.36974162  1
  O  O17  1  0.74503385  0.61416366  0.63025838  1
  O  O18  1  0.75496615  0.38583634  0.13025838  1
  O  O19  1  0.25496615  0.11416366  0.86974162  1
  O  O20  1  0.70043942  0.61948575  0.26686739  1
  O  O21  1  0.20043942  0.88051425  0.73313261  1
  O  O22  1  0.29956058  0.11948575  0.23313261  1
  O  O23  1  0.79956058  0.38051425  0.76686739  1
  O  O24  1  0.30929276  0.54700082  0.20951759  1
  O  O25  1  0.80929276  0.95299918  0.79048241  1
  O  O26  1  0.69070724  0.04700082  0.29048241  1
  O  O27  1  0.19070724  0.45299918  0.70951759  1
  O  O28  1  0.61246490  0.74857169  0.06177865  1
  O  O29  1  0.11246490  0.75142831  0.93822135  1
  O  O30  1  0.38753510  0.24857169  0.43822135  1
  O  O31  1  0.88753510  0.25142831  0.56177865  1
