# generated using pymatgen
data_TmAgSe2
_symmetry_space_group_name_H-M   'P 1'
_cell_length_a   4.17349111
_cell_length_b   6.80146358
_cell_length_c   13.61283903
_cell_angle_alpha   90.00000000
_cell_angle_beta   90.00000000
_cell_angle_gamma   90.00000000
_symmetry_Int_Tables_number   1
_chemical_formula_structural   TmAgSe2
_chemical_formula_sum   'Tm4 Ag4 Se8'
_cell_volume   386.41197664
_cell_formula_units_Z   4
loop_
 _symmetry_equiv_pos_site_id
 _symmetry_equiv_pos_as_xyz
  1  'x, y, z'
loop_
 _atom_site_type_symbol
 _atom_site_label
 _atom_site_symmetry_multiplicity
 _atom_site_fract_x
 _atom_site_fract_y
 _atom_site_fract_z
 _atom_site_occupancy
  Tm  Tm0  1  0.27315546  0.70843615  0.62845439  1
  Tm  Tm1  1  0.77315546  0.79156385  0.37154561  1
  Tm  Tm2  1  0.72684454  0.20843615  0.87154561  1
  Tm  Tm3  1  0.22684454  0.29156385  0.12845439  1
  Ag  Ag4  1  0.50550073  0.70819346  0.87548275  1
  Ag  Ag5  1  0.00550073  0.79180654  0.12451725  1
  Ag  Ag6  1  0.49449927  0.20819346  0.62451725  1
  Ag  Ag7  1  0.99449927  0.29180654  0.37548275  1
  Se  Se8  1  0.77324803  0.91318259  0.72612407  1
  Se  Se9  1  0.27324803  0.58681741  0.27387593  1
  Se  Se10  1  0.22675197  0.41318259  0.77387593  1
  Se  Se11  1  0.72675197  0.08681741  0.22612407  1
  Se  Se12  1  0.76988038  0.51456267  0.52713035  1
  Se  Se13  1  0.26988038  0.98543733  0.47286965  1
  Se  Se14  1  0.23011962  0.01456267  0.97286965  1
  Se  Se15  1  0.73011962  0.48543733  0.02713035  1
