# generated using pymatgen
data_CsGaP3HO10
_symmetry_space_group_name_H-M   'P 1'
_cell_length_a   4.97646529
_cell_length_b   8.80194014
_cell_length_c   11.02081237
_cell_angle_alpha   107.89533534
_cell_angle_beta   90.00000000
_cell_angle_gamma   90.00000000
_symmetry_Int_Tables_number   1
_chemical_formula_structural   CsGaP3HO10
_chemical_formula_sum   'Cs2 Ga2 P6 H2 O20'
_cell_volume   459.38445687
_cell_formula_units_Z   2
loop_
 _symmetry_equiv_pos_site_id
 _symmetry_equiv_pos_as_xyz
  1  'x, y, z'
loop_
 _atom_site_type_symbol
 _atom_site_label
 _atom_site_symmetry_multiplicity
 _atom_site_fract_x
 _atom_site_fract_y
 _atom_site_fract_z
 _atom_site_occupancy
  Cs  Cs0  1  0.50920168  0.75000000  0.25000000  1
  Cs  Cs1  1  0.49079832  0.25000000  0.75000000  1
  Ga  Ga2  1  0.50000000  0.50000000  0.50000000  1
  Ga  Ga3  1  0.50000000  -0.00000000  0.00000000  1
  P  P4  1  0.00030862  0.72854089  0.50515853  1
  P  P5  1  0.99969138  0.27145911  0.49484147  1
  P  P6  1  0.00030862  0.77145911  0.99484147  1
  P  P7  1  0.99969138  0.22854089  0.00515853  1
  P  P8  1  0.73841025  0.25000000  0.25000000  1
  P  P9  1  0.26158975  0.75000000  0.75000000  1
  H  H10  1  0.00000000  -0.00000000  0.50000000  1
  H  H11  1  0.00000000  0.50000000  0.00000000  1
  O  O12  1  0.18461507  0.59060091  0.44500233  1
  O  O13  1  0.81538493  0.40939909  0.55499767  1
  O  O14  1  0.18461507  0.90939909  0.05499767  1
  O  O15  1  0.81538493  0.09060091  0.94500233  1
  O  O16  1  0.70527335  0.68800704  0.49619588  1
  O  O17  1  0.29472665  0.31199296  0.50380412  1
  O  O18  1  0.70527335  0.81199296  0.00380412  1
  O  O19  1  0.29472665  0.18800704  0.99619588  1
  O  O20  1  0.58520701  0.39673667  0.31892566  1
  O  O21  1  0.41479299  0.60326333  0.68107434  1
  O  O22  1  0.58520701  0.10326333  0.18107434  1
  O  O23  1  0.41479299  0.89673667  0.81892566  1
  O  O24  1  0.93273890  0.29862216  0.15523429  1
  O  O25  1  0.06726110  0.70137784  0.84476571  1
  O  O26  1  0.93273890  0.20137784  0.34476571  1
  O  O27  1  0.06726110  0.79862216  0.65523429  1
  O  O28  1  0.05538844  0.86378909  0.45003673  1
  O  O29  1  0.94461156  0.13621091  0.54996327  1
  O  O30  1  0.05538844  0.63621091  0.04996327  1
  O  O31  1  0.94461156  0.36378909  0.95003673  1
