# generated using pymatgen
data_Sr6Mg(Te4O11)2
_symmetry_space_group_name_H-M   'P 1'
_cell_length_a   7.96852515
_cell_length_b   10.04758603
_cell_length_c   9.92430005
_cell_angle_alpha   102.62392973
_cell_angle_beta   113.40042886
_cell_angle_gamma   98.75553143
_symmetry_Int_Tables_number   1
_chemical_formula_structural   Sr6Mg(Te4O11)2
_chemical_formula_sum   'Sr6 Mg1 Te8 O22'
_cell_volume   685.78974656
_cell_formula_units_Z   1
loop_
 _symmetry_equiv_pos_site_id
 _symmetry_equiv_pos_as_xyz
  1  'x, y, z'
loop_
 _atom_site_type_symbol
 _atom_site_label
 _atom_site_symmetry_multiplicity
 _atom_site_fract_x
 _atom_site_fract_y
 _atom_site_fract_z
 _atom_site_occupancy
  Sr  Sr0  1  0.27955165  0.00451370  0.14777516  1
  Sr  Sr1  1  0.71138581  0.93801096  0.88417444  1
  Sr  Sr2  1  0.82277800  0.05047607  0.33545466  1
  Sr  Sr3  1  0.14519182  0.88225503  0.69280432  1
  Sr  Sr4  1  0.32341740  0.54747247  0.60873114  1
  Sr  Sr5  1  0.67796633  0.49509870  0.34298735  1
  Mg  Mg6  1  0.27633727  0.19239324  0.61240290  1
  Te  Te7  1  0.05746186  0.30552092  0.23676912  1
  Te  Te8  1  0.91517313  0.62767759  0.76861089  1
  Te  Te9  1  0.01704827  0.19408567  0.81205353  1
  Te  Te10  1  0.97433772  0.75178131  0.22923028  1
  Te  Te11  1  0.44065839  0.68719750  0.03343165  1
  Te  Te12  1  0.55962870  0.30756950  0.93494021  1
  Te  Te13  1  0.49286289  0.82232810  0.46375374  1
  Te  Te14  1  0.62929296  0.27604390  0.57513502  1
  O  O15  1  0.00118452  0.59350339  0.61458586  1
  O  O16  1  0.99250085  0.46175027  0.32265060  1
  O  O17  1  0.43140942  0.63205387  0.34973832  1
  O  O18  1  0.58691182  0.46144898  0.55511906  1
  O  O19  1  0.82002965  0.16955195  0.12233582  1
  O  O20  1  0.15841677  0.76197869  0.92309757  1
  O  O21  1  0.75861563  0.10679869  0.74154230  1
  O  O22  1  0.27721067  0.87982593  0.33817855  1
  O  O23  1  0.40156123  0.80329928  0.61044408  1
  O  O24  1  0.59100707  0.19047011  0.36490204  1
  O  O25  1  0.03631143  0.11160050  0.62558976  1
  O  O26  1  0.96203994  0.84286600  0.41070761  1
  O  O27  1  0.45930047  0.32674174  0.07629297  1
  O  O28  1  0.48460075  0.72281910  0.87083918  1
  O  O29  1  0.52496471  0.87720907  0.16131896  1
  O  O30  1  0.42534228  0.11738437  0.80064504  1
  O  O31  1  0.93536992  0.89755418  0.13525377  1
  O  O32  1  0.09524544  0.05881084  0.91233672  1
  O  O33  1  0.14052086  0.24045415  0.41502873  1
  O  O34  1  0.80743093  0.77306922  0.71085573  1
  O  O35  1  0.68985288  0.64026229  0.13874839  1
  O  O36  1  0.39152455  0.37907476  0.78125750  1
