# generated using pymatgen
data_Ca(GaS2)2
_symmetry_space_group_name_H-M   'P 1'
_cell_length_a   11.73825247
_cell_length_b   11.73825315
_cell_length_c   11.78370560
_cell_angle_alpha   105.42309058
_cell_angle_beta   105.42309855
_cell_angle_gamma   117.77826260
_symmetry_Int_Tables_number   1
_chemical_formula_structural   Ca(GaS2)2
_chemical_formula_sum   'Ca8 Ga16 S32'
_cell_volume   1231.63171394
_cell_formula_units_Z   8
loop_
 _symmetry_equiv_pos_site_id
 _symmetry_equiv_pos_as_xyz
  1  'x, y, z'
loop_
 _atom_site_type_symbol
 _atom_site_label
 _atom_site_symmetry_multiplicity
 _atom_site_fract_x
 _atom_site_fract_y
 _atom_site_fract_z
 _atom_site_occupancy
  Ca  Ca0  1  0.87500000  0.12500000  0.25000000  1
  Ca  Ca1  1  0.12500000  0.87500000  0.75000000  1
  Ca  Ca2  1  0.37500000  0.62500000  0.25000000  1
  Ca  Ca3  1  0.62500000  0.37500000  0.75000000  1
  Ca  Ca4  1  0.62297179  0.87297179  0.74594358  1
  Ca  Ca5  1  0.12702821  0.37702821  0.75405642  1
  Ca  Ca6  1  0.37702821  0.12702821  0.25405642  1
  Ca  Ca7  1  0.87297179  0.62297179  0.24594358  1
  Ga  Ga8  1  0.53176222  0.64037876  0.99946009  1
  Ga  Ga9  1  0.64091866  0.03230112  0.50053991  1
  Ga  Ga10  1  0.35962124  0.46823778  0.50053991  1
  Ga  Ga11  1  0.96769888  0.35908134  0.99946009  1
  Ga  Ga12  1  0.46823778  0.35962124  0.00053991  1
  Ga  Ga13  1  0.35908134  0.96769888  0.49946009  1
  Ga  Ga14  1  0.64037876  0.53176222  0.49946009  1
  Ga  Ga15  1  0.03230112  0.64091866  0.00053991  1
  Ga  Ga16  1  0.38822901  0.86443372  0.00121623  1
  Ga  Ga17  1  0.86321749  0.88701379  0.49878377  1
  Ga  Ga18  1  0.13556628  0.61177099  0.49878377  1
  Ga  Ga19  1  0.11298621  0.13678251  0.00121623  1
  Ga  Ga20  1  0.61177099  0.13556628  0.99878377  1
  Ga  Ga21  1  0.13678251  0.11298621  0.50121623  1
  Ga  Ga22  1  0.86443372  0.38822901  0.50121623  1
  Ga  Ga23  1  0.88701379  0.86321749  0.99878377  1
  S  S24  1  0.81410602  0.15129583  0.99739467  1
  S  S25  1  0.15390016  0.31671035  0.50260533  1
  S  S26  1  0.84870417  0.18589398  0.50260533  1
  S  S27  1  0.68328965  0.84609984  0.99739467  1
  S  S28  1  0.18589398  0.84870417  0.00260533  1
  S  S29  1  0.84609984  0.68328965  0.49739467  1
  S  S30  1  0.15129583  0.81410602  0.49739467  1
  S  S31  1  0.31671035  0.15390016  0.00260533  1
  S  S32  1  0.15677810  0.34478666  0.00245733  1
  S  S33  1  0.34233033  0.65432077  0.49754267  1
  S  S34  1  0.65521334  0.84322190  0.49754267  1
  S  S35  1  0.34567923  0.65766967  0.00245733  1
  S  S36  1  0.84322190  0.65521334  0.99754267  1
  S  S37  1  0.65766967  0.34567923  0.50245733  1
  S  S38  1  0.34478666  0.15677810  0.50245733  1
  S  S39  1  0.65432077  0.34233033  0.99754267  1
  S  S40  1  0.58393891  0.08364822  0.67070049  1
  S  S41  1  0.41294874  0.41323742  0.82929951  1
  S  S42  1  0.91635178  0.41606109  0.82929951  1
  S  S43  1  0.58676258  0.58705126  0.67070049  1
  S  S44  1  0.41606109  0.91635178  0.32929951  1
  S  S45  1  0.58705126  0.58676258  0.17070049  1
  S  S46  1  0.08364822  0.58393891  0.17070049  1
  S  S47  1  0.41323742  0.41294874  0.32929951  1
  S  S48  1  0.91361883  0.41383614  0.33032432  1
  S  S49  1  0.08351082  0.08329451  0.16967568  1
  S  S50  1  0.58616386  0.08638117  0.16967568  1
  S  S51  1  0.91670549  0.91648918  0.33032432  1
  S  S52  1  0.08638117  0.58616386  0.66967568  1
  S  S53  1  0.91648918  0.91670549  0.83032432  1
  S  S54  1  0.41383614  0.91361883  0.83032432  1
  S  S55  1  0.08329451  0.08351082  0.66967568  1
