# generated using pymatgen
data_Na6Ge2Se7
_symmetry_space_group_name_H-M   'P 1'
_cell_length_a   7.22024793
_cell_length_b   7.22024793
_cell_length_c   15.83790284
_cell_angle_alpha   80.54478149
_cell_angle_beta   80.54478149
_cell_angle_gamma   98.40375751
_symmetry_Int_Tables_number   1
_chemical_formula_structural   Na6Ge2Se7
_chemical_formula_sum   'Na12 Ge4 Se14'
_cell_volume   790.55888038
_cell_formula_units_Z   2
loop_
 _symmetry_equiv_pos_site_id
 _symmetry_equiv_pos_as_xyz
  1  'x, y, z'
loop_
 _atom_site_type_symbol
 _atom_site_label
 _atom_site_symmetry_multiplicity
 _atom_site_fract_x
 _atom_site_fract_y
 _atom_site_fract_z
 _atom_site_occupancy
  Na  Na0  1  0.50000000  0.50000000  0.00000000  1
  Na  Na1  1  0.50000000  0.50000000  0.50000000  1
  Na  Na2  1  0.97081790  0.26284242  0.92768224  1
  Na  Na3  1  0.73715758  0.02918210  0.57231776  1
  Na  Na4  1  0.02918210  0.73715758  0.07231776  1
  Na  Na5  1  0.26284242  0.97081790  0.42768224  1
  Na  Na6  1  0.42019490  0.57980510  0.75000000  1
  Na  Na7  1  0.57980510  0.42019490  0.25000000  1
  Na  Na8  1  0.95186746  0.50815390  0.64073559  1
  Na  Na9  1  0.49184610  0.04813254  0.85926441  1
  Na  Na10  1  0.04813254  0.49184610  0.35926441  1
  Na  Na11  1  0.50815390  0.95186746  0.14073559  1
  Ge  Ge12  1  0.92363263  0.75916038  0.86144209  1
  Ge  Ge13  1  0.24083962  0.07636737  0.63855791  1
  Ge  Ge14  1  0.07636737  0.24083962  0.13855791  1
  Ge  Ge15  1  0.75916038  0.92363263  0.36144209  1
  Se  Se16  1  0.75121341  0.49716733  0.82110355  1
  Se  Se17  1  0.50283267  0.24878659  0.67889645  1
  Se  Se18  1  0.24878659  0.50283267  0.17889645  1
  Se  Se19  1  0.49716733  0.75121341  0.32110355  1
  Se  Se20  1  0.73629855  0.87089900  0.97233511  1
  Se  Se21  1  0.12910100  0.26370145  0.52766489  1
  Se  Se22  1  0.26370145  0.12910100  0.02766489  1
  Se  Se23  1  0.87089900  0.73629855  0.47233511  1
  Se  Se24  1  0.21013409  0.68632067  0.89599941  1
  Se  Se25  1  0.31367933  0.78986591  0.60400059  1
  Se  Se26  1  0.78986591  0.31367933  0.10400059  1
  Se  Se27  1  0.68632067  0.21013409  0.39599941  1
  Se  Se28  1  0.96083723  0.03916277  0.75000000  1
  Se  Se29  1  0.03916277  0.96083723  0.25000000  1
