# generated using pymatgen
data_BaErCuSe3
_symmetry_space_group_name_H-M   'P 1'
_cell_length_a   7.31323938
_cell_length_b   7.31323938
_cell_length_c   10.56699943
_cell_angle_alpha   90.00000000
_cell_angle_beta   90.00000000
_cell_angle_gamma   146.99008263
_symmetry_Int_Tables_number   1
_chemical_formula_structural   BaErCuSe3
_chemical_formula_sum   'Ba2 Er2 Cu2 Se6'
_cell_volume   307.89012561
_cell_formula_units_Z   2
loop_
 _symmetry_equiv_pos_site_id
 _symmetry_equiv_pos_as_xyz
  1  'x, y, z'
loop_
 _atom_site_type_symbol
 _atom_site_label
 _atom_site_symmetry_multiplicity
 _atom_site_fract_x
 _atom_site_fract_y
 _atom_site_fract_z
 _atom_site_occupancy
  Ba  Ba0  1  0.25309166  0.74690834  0.25000000  1
  Ba  Ba1  1  0.74690834  0.25309166  0.75000000  1
  Er  Er2  1  0.00000000  -0.00000000  0.50000000  1
  Er  Er3  1  0.00000000  -0.00000000  0.00000000  1
  Cu  Cu4  1  0.53272911  0.46727089  0.25000000  1
  Cu  Cu5  1  0.46727089  0.53272911  0.75000000  1
  Se  Se6  1  0.63245715  0.36754285  0.44033577  1
  Se  Se7  1  0.36754285  0.63245715  0.55966423  1
  Se  Se8  1  0.63245715  0.36754285  0.05966423  1
  Se  Se9  1  0.36754285  0.63245715  0.94033577  1
  Se  Se10  1  0.93331319  0.06668681  0.25000000  1
  Se  Se11  1  0.06668681  0.93331319  0.75000000  1
