# generated using pymatgen
data_K2Mg2(MoO4)3
_symmetry_space_group_name_H-M   'P 1'
_cell_length_a   10.92840087
_cell_length_b   10.92840087
_cell_length_c   10.92840087
_cell_angle_alpha   90.00000000
_cell_angle_beta   90.00000000
_cell_angle_gamma   90.00000000
_symmetry_Int_Tables_number   1
_chemical_formula_structural   K2Mg2(MoO4)3
_chemical_formula_sum   'K8 Mg8 Mo12 O48'
_cell_volume   1305.17832113
_cell_formula_units_Z   4
loop_
 _symmetry_equiv_pos_site_id
 _symmetry_equiv_pos_as_xyz
  1  'x, y, z'
loop_
 _atom_site_type_symbol
 _atom_site_label
 _atom_site_symmetry_multiplicity
 _atom_site_fract_x
 _atom_site_fract_y
 _atom_site_fract_z
 _atom_site_occupancy
  K  K0  1  0.05385618  0.05385618  0.05385618  1
  K  K1  1  0.44614382  0.94614382  0.55385618  1
  K  K2  1  0.94614382  0.55385618  0.44614382  1
  K  K3  1  0.55385618  0.44614382  0.94614382  1
  K  K4  1  0.81865735  0.81865735  0.81865735  1
  K  K5  1  0.68134265  0.18134265  0.31865735  1
  K  K6  1  0.18134265  0.31865735  0.68134265  1
  K  K7  1  0.31865735  0.68134265  0.18134265  1
  Mg  Mg8  1  0.33632352  0.33632352  0.33632352  1
  Mg  Mg9  1  0.16367648  0.66367648  0.83632352  1
  Mg  Mg10  1  0.66367648  0.83632352  0.16367648  1
  Mg  Mg11  1  0.83632352  0.16367648  0.66367648  1
  Mg  Mg12  1  0.60403957  0.60403957  0.60403957  1
  Mg  Mg13  1  0.89596043  0.39596043  0.10403957  1
  Mg  Mg14  1  0.39596043  0.10403957  0.89596043  1
  Mg  Mg15  1  0.10403957  0.89596043  0.39596043  1
  Mo  Mo16  1  0.02167271  0.21113862  0.37648235  1
  Mo  Mo17  1  0.47832729  0.78886138  0.87648235  1
  Mo  Mo18  1  0.97832729  0.71113862  0.12351765  1
  Mo  Mo19  1  0.37648235  0.02167271  0.21113862  1
  Mo  Mo20  1  0.52167271  0.28886138  0.62351765  1
  Mo  Mo21  1  0.87648235  0.47832729  0.78886138  1
  Mo  Mo22  1  0.12351765  0.97832729  0.71113862  1
  Mo  Mo23  1  0.62351765  0.52167271  0.28886138  1
  Mo  Mo24  1  0.21113862  0.37648235  0.02167271  1
  Mo  Mo25  1  0.71113862  0.12351765  0.97832729  1
  Mo  Mo26  1  0.28886138  0.62351765  0.52167271  1
  Mo  Mo27  1  0.78886138  0.87648235  0.47832729  1
  O  O28  1  0.01624312  0.05440188  0.32521106  1
  O  O29  1  0.48375688  0.94559812  0.82521106  1
  O  O30  1  0.98375688  0.55440188  0.17478894  1
  O  O31  1  0.32521106  0.01624312  0.05440188  1
  O  O32  1  0.51624312  0.44559812  0.67478894  1
  O  O33  1  0.82521106  0.48375688  0.94559812  1
  O  O34  1  0.17478894  0.98375688  0.55440188  1
  O  O35  1  0.67478894  0.51624312  0.44559812  1
  O  O36  1  0.05440188  0.32521106  0.01624312  1
  O  O37  1  0.55440188  0.17478894  0.98375688  1
  O  O38  1  0.44559812  0.67478894  0.51624312  1
  O  O39  1  0.94559812  0.82521106  0.48375688  1
  O  O40  1  0.26969519  0.48579312  0.43503609  1
  O  O41  1  0.23030481  0.51420688  0.93503609  1
  O  O42  1  0.73030481  0.98579312  0.06496391  1
  O  O43  1  0.43503609  0.26969519  0.48579312  1
  O  O44  1  0.76969519  0.01420688  0.56496391  1
  O  O45  1  0.93503609  0.23030481  0.51420688  1
  O  O46  1  0.06496391  0.73030481  0.98579312  1
  O  O47  1  0.56496391  0.76969519  0.01420688  1
  O  O48  1  0.48579312  0.43503609  0.26969519  1
  O  O49  1  0.98579312  0.06496391  0.73030481  1
  O  O50  1  0.01420688  0.56496391  0.76969519  1
  O  O51  1  0.51420688  0.93503609  0.23030481  1
  O  O52  1  0.05109237  0.80702408  0.23530217  1
  O  O53  1  0.44890763  0.19297592  0.73530217  1
  O  O54  1  0.94890763  0.30702408  0.26469783  1
  O  O55  1  0.23530217  0.05109237  0.80702408  1
  O  O56  1  0.55109237  0.69297592  0.76469783  1
  O  O57  1  0.73530217  0.44890763  0.19297592  1
  O  O58  1  0.26469783  0.94890763  0.30702408  1
  O  O59  1  0.76469783  0.55109237  0.69297592  1
  O  O60  1  0.80702408  0.23530217  0.05109237  1
  O  O61  1  0.30702408  0.26469783  0.94890763  1
  O  O62  1  0.69297592  0.76469783  0.55109237  1
  O  O63  1  0.19297592  0.73530217  0.44890763  1
  O  O64  1  0.17569736  0.25882708  0.40439888  1
  O  O65  1  0.32430264  0.74117292  0.90439888  1
  O  O66  1  0.82430264  0.75882708  0.09560112  1
  O  O67  1  0.40439888  0.17569736  0.25882708  1
  O  O68  1  0.67569736  0.24117292  0.59560112  1
  O  O69  1  0.90439888  0.32430264  0.74117292  1
  O  O70  1  0.09560112  0.82430264  0.75882708  1
  O  O71  1  0.59560112  0.67569736  0.24117292  1
  O  O72  1  0.25882708  0.40439888  0.17569736  1
  O  O73  1  0.75882708  0.09560112  0.82430264  1
  O  O74  1  0.24117292  0.59560112  0.67569736  1
  O  O75  1  0.74117292  0.90439888  0.32430264  1
