# generated using pymatgen
data_Cs8In2O7
_symmetry_space_group_name_H-M   'P 1'
_cell_length_a   18.85847003
_cell_length_b   7.31061368
_cell_length_c   7.49130016
_cell_angle_alpha   61.11720044
_cell_angle_beta   90.00000000
_cell_angle_gamma   90.00000000
_symmetry_Int_Tables_number   1
_chemical_formula_structural   Cs8In2O7
_chemical_formula_sum   'Cs16 In4 O14'
_cell_volume   904.33218934
_cell_formula_units_Z   2
loop_
 _symmetry_equiv_pos_site_id
 _symmetry_equiv_pos_as_xyz
  1  'x, y, z'
loop_
 _atom_site_type_symbol
 _atom_site_label
 _atom_site_symmetry_multiplicity
 _atom_site_fract_x
 _atom_site_fract_y
 _atom_site_fract_z
 _atom_site_occupancy
  Cs  Cs0  1  0.50391325  0.03381988  0.23315447  1
  Cs  Cs1  1  0.00391325  0.46618012  0.76684553  1
  Cs  Cs2  1  0.49608675  0.96618012  0.76684553  1
  Cs  Cs3  1  0.99608675  0.53381988  0.23315447  1
  Cs  Cs4  1  0.70699956  0.04160565  0.23823431  1
  Cs  Cs5  1  0.20699956  0.45839435  0.76176569  1
  Cs  Cs6  1  0.29300044  0.95839435  0.76176569  1
  Cs  Cs7  1  0.79300044  0.54160565  0.23823431  1
  Cs  Cs8  1  0.08469701  0.99341099  0.35988271  1
  Cs  Cs9  1  0.58469701  0.50658901  0.64011729  1
  Cs  Cs10  1  0.91530299  0.00658901  0.64011729  1
  Cs  Cs11  1  0.41530299  0.49341099  0.35988271  1
  Cs  Cs12  1  0.80714951  0.45290223  0.78081970  1
  Cs  Cs13  1  0.30714951  0.04709777  0.21918030  1
  Cs  Cs14  1  0.19285049  0.54709777  0.21918030  1
  Cs  Cs15  1  0.69285049  0.95290223  0.78081970  1
  In  In16  1  0.59765807  0.49916921  0.14632189  1
  In  In17  1  0.09765807  0.00083079  0.85367811  1
  In  In18  1  0.40234193  0.50083079  0.85367811  1
  In  In19  1  0.90234193  0.99916921  0.14632189  1
  O  O20  1  0.50000000  0.50000000  0.00000000  1
  O  O21  1  0.00000000  -0.00000000  0.00000000  1
  O  O22  1  0.17767460  0.01167249  0.04163065  1
  O  O23  1  0.67767460  0.48832751  0.95836935  1
  O  O24  1  0.82232540  0.98832751  0.95836935  1
  O  O25  1  0.32232540  0.51167249  0.04163065  1
  O  O26  1  0.89354167  0.27662688  0.15718634  1
  O  O27  1  0.39354167  0.22337312  0.84281366  1
  O  O28  1  0.10645833  0.72337312  0.84281366  1
  O  O29  1  0.60645833  0.77662688  0.15718634  1
  O  O30  1  0.59830854  0.23364393  0.42929938  1
  O  O31  1  0.09830854  0.26635607  0.57070062  1
  O  O32  1  0.40169146  0.76635607  0.57070062  1
  O  O33  1  0.90169146  0.73364393  0.42929938  1
