# generated using pymatgen
data_Rb3Ni2(NO3)7
_symmetry_space_group_name_H-M   'P 1'
_cell_length_a   7.21813414
_cell_length_b   8.97532753
_cell_length_c   28.03145725
_cell_angle_alpha   90.00000000
_cell_angle_beta   90.00000000
_cell_angle_gamma   90.00000000
_symmetry_Int_Tables_number   1
_chemical_formula_structural   Rb3Ni2(NO3)7
_chemical_formula_sum   'Rb12 Ni8 N28 O84'
_cell_volume   1816.02126739
_cell_formula_units_Z   4
loop_
 _symmetry_equiv_pos_site_id
 _symmetry_equiv_pos_as_xyz
  1  'x, y, z'
loop_
 _atom_site_type_symbol
 _atom_site_label
 _atom_site_symmetry_multiplicity
 _atom_site_fract_x
 _atom_site_fract_y
 _atom_site_fract_z
 _atom_site_occupancy
  Rb  Rb0  1  0.91199335  0.98341440  0.25000000  1
  Rb  Rb1  1  0.58800665  0.48341440  0.25000000  1
  Rb  Rb2  1  0.08800665  0.01658560  0.75000000  1
  Rb  Rb3  1  0.41199335  0.51658560  0.75000000  1
  Rb  Rb4  1  0.87922164  0.99713521  0.43579423  1
  Rb  Rb5  1  0.62077836  0.49713521  0.06420577  1
  Rb  Rb6  1  0.12077836  0.00286479  0.93579423  1
  Rb  Rb7  1  0.37922164  0.50286479  0.56420577  1
  Rb  Rb8  1  0.12077836  0.00286479  0.56420577  1
  Rb  Rb9  1  0.37922164  0.50286479  0.93579423  1
  Rb  Rb10  1  0.87922164  0.99713521  0.06420577  1
  Rb  Rb11  1  0.62077836  0.49713521  0.43579423  1
  Ni  Ni12  1  0.09965011  0.37036486  0.35879188  1
  Ni  Ni13  1  0.40034989  0.87036486  0.14120812  1
  Ni  Ni14  1  0.90034989  0.62963514  0.85879188  1
  Ni  Ni15  1  0.59965011  0.12963514  0.64120812  1
  Ni  Ni16  1  0.90034989  0.62963514  0.64120812  1
  Ni  Ni17  1  0.59965011  0.12963514  0.85879188  1
  Ni  Ni18  1  0.09965011  0.37036486  0.14120812  1
  Ni  Ni19  1  0.40034989  0.87036486  0.35879188  1
  N  N20  1  0.37496256  0.87706363  0.25000000  1
  N  N21  1  0.12503744  0.37706363  0.25000000  1
  N  N22  1  0.62503744  0.12293637  0.75000000  1
  N  N23  1  0.87496256  0.62293637  0.75000000  1
  N  N24  1  0.10697231  0.34005555  0.46382010  1
  N  N25  1  0.39302769  0.84005555  0.03617990  1
  N  N26  1  0.89302769  0.65994445  0.96382010  1
  N  N27  1  0.60697231  0.15994445  0.53617990  1
  N  N28  1  0.89302769  0.65994445  0.53617990  1
  N  N29  1  0.60697231  0.15994445  0.96382010  1
  N  N30  1  0.10697231  0.34005555  0.03617990  1
  N  N31  1  0.39302769  0.84005555  0.46382010  1
  N  N32  1  0.08381087  0.68314456  0.38185501  1
  N  N33  1  0.41618913  0.18314456  0.11814499  1
  N  N34  1  0.91618913  0.31685544  0.88185501  1
  N  N35  1  0.58381087  0.81685544  0.61814499  1
  N  N36  1  0.91618913  0.31685544  0.61814499  1
  N  N37  1  0.58381087  0.81685544  0.88185501  1
  N  N38  1  0.08381087  0.68314456  0.11814499  1
  N  N39  1  0.41618913  0.18314456  0.38185501  1
  N  N40  1  0.69031194  0.75691527  0.32804048  1
  N  N41  1  0.80968806  0.25691527  0.17195952  1
  N  N42  1  0.30968806  0.24308473  0.82804048  1
  N  N43  1  0.19031194  0.74308473  0.67195952  1
  N  N44  1  0.30968806  0.24308473  0.67195952  1
  N  N45  1  0.19031194  0.74308473  0.82804048  1
  N  N46  1  0.69031194  0.75691527  0.17195952  1
  N  N47  1  0.80968806  0.25691527  0.32804048  1
  O  O48  1  0.01261461  0.31445669  0.42504126  1
  O  O49  1  0.48738539  0.81445669  0.07495874  1
  O  O50  1  0.98738539  0.68554331  0.92504126  1
  O  O51  1  0.51261461  0.18554331  0.57495874  1
  O  O52  1  0.98738539  0.68554331  0.57495874  1
  O  O53  1  0.51261461  0.18554331  0.92504126  1
  O  O54  1  0.01261461  0.31445669  0.07495874  1
  O  O55  1  0.48738539  0.81445669  0.42504126  1
  O  O56  1  0.95970152  0.34152307  0.25000000  1
  O  O57  1  0.54029848  0.84152307  0.25000000  1
  O  O58  1  0.04029848  0.65847693  0.75000000  1
  O  O59  1  0.45970152  0.15847693  0.75000000  1
  O  O60  1  0.90979558  0.75082856  0.50306614  1
  O  O61  1  0.59020442  0.25082856  0.99693386  1
  O  O62  1  0.09020442  0.24917144  0.00306614  1
  O  O63  1  0.40979558  0.74917144  0.49693386  1
  O  O64  1  0.09020442  0.24917144  0.49693386  1
  O  O65  1  0.40979558  0.74917144  0.00306614  1
  O  O66  1  0.90979558  0.75082856  0.99693386  1
  O  O67  1  0.59020442  0.25082856  0.50306614  1
  O  O68  1  0.82464741  0.70768856  0.30638421  1
  O  O69  1  0.67535259  0.20768856  0.19361579  1
  O  O70  1  0.17535259  0.29231144  0.80638421  1
  O  O71  1  0.32464741  0.79231144  0.69361579  1
  O  O72  1  0.17535259  0.29231144  0.69361579  1
  O  O73  1  0.32464741  0.79231144  0.80638421  1
  O  O74  1  0.82464741  0.70768856  0.19361579  1
  O  O75  1  0.67535259  0.20768856  0.30638421  1
  O  O76  1  0.20672577  0.45268396  0.46649857  1
  O  O77  1  0.29327423  0.95268396  0.03350143  1
  O  O78  1  0.79327423  0.54731604  0.96649857  1
  O  O79  1  0.70672577  0.04731604  0.53350143  1
  O  O80  1  0.79327423  0.54731604  0.53350143  1
  O  O81  1  0.70672577  0.04731604  0.96649857  1
  O  O82  1  0.20672577  0.45268396  0.03350143  1
  O  O83  1  0.29327423  0.95268396  0.46649857  1
  O  O84  1  0.81972560  0.39282485  0.34154724  1
  O  O85  1  0.68027440  0.89282485  0.15845276  1
  O  O86  1  0.18027440  0.60717515  0.84154724  1
  O  O87  1  0.31972560  0.10717515  0.65845276  1
  O  O88  1  0.18027440  0.60717515  0.65845276  1
  O  O89  1  0.31972560  0.10717515  0.84154724  1
  O  O90  1  0.81972560  0.39282485  0.15845276  1
  O  O91  1  0.68027440  0.89282485  0.34154724  1
  O  O92  1  0.93410472  0.65665997  0.40100876  1
  O  O93  1  0.56589528  0.15665997  0.09899124  1
  O  O94  1  0.06589528  0.34334003  0.90100876  1
  O  O95  1  0.43410472  0.84334003  0.59899124  1
  O  O96  1  0.06589528  0.34334003  0.59899124  1
  O  O97  1  0.43410472  0.84334003  0.90100876  1
  O  O98  1  0.93410472  0.65665997  0.09899124  1
  O  O99  1  0.56589528  0.15665997  0.40100876  1
  O  O100  1  0.95351312  0.17824443  0.33692639  1
  O  O101  1  0.54648688  0.67824443  0.16307361  1
  O  O102  1  0.04648688  0.82175557  0.83692639  1
  O  O103  1  0.45351312  0.32175557  0.66307361  1
  O  O104  1  0.04648688  0.82175557  0.66307361  1
  O  O105  1  0.45351312  0.32175557  0.83692639  1
  O  O106  1  0.95351312  0.17824443  0.16307361  1
  O  O107  1  0.54648688  0.67824443  0.33692639  1
  O  O108  1  0.28634531  0.89551917  0.28880166  1
  O  O109  1  0.21365469  0.39551917  0.21119834  1
  O  O110  1  0.71365469  0.10448083  0.78880166  1
  O  O111  1  0.78634531  0.60448083  0.71119834  1
  O  O112  1  0.71365469  0.10448083  0.71119834  1
  O  O113  1  0.78634531  0.60448083  0.78880166  1
  O  O114  1  0.28634531  0.89551917  0.21119834  1
  O  O115  1  0.21365469  0.39551917  0.28880166  1
  O  O116  1  0.36079786  0.31789322  0.37815669  1
  O  O117  1  0.13920214  0.81789322  0.12184331  1
  O  O118  1  0.63920214  0.68210678  0.87815669  1
  O  O119  1  0.86079786  0.18210678  0.62184331  1
  O  O120  1  0.63920214  0.68210678  0.62184331  1
  O  O121  1  0.86079786  0.18210678  0.87815669  1
  O  O122  1  0.36079786  0.31789322  0.12184331  1
  O  O123  1  0.13920214  0.81789322  0.37815669  1
  O  O124  1  0.18765433  0.58180810  0.36513202  1
  O  O125  1  0.31234567  0.08180810  0.13486798  1
  O  O126  1  0.81234567  0.41819190  0.86513202  1
  O  O127  1  0.68765433  0.91819190  0.63486798  1
  O  O128  1  0.81234567  0.41819190  0.63486798  1
  O  O129  1  0.68765433  0.91819190  0.86513202  1
  O  O130  1  0.18765433  0.58180810  0.13486798  1
  O  O131  1  0.31234567  0.08180810  0.36513202  1
