# generated using pymatgen
data_HoSeF
_symmetry_space_group_name_H-M   'P 1'
_cell_length_a   4.06821935
_cell_length_b   6.27223606
_cell_length_c   9.88727884
_cell_angle_alpha   90.00000000
_cell_angle_beta   90.00000000
_cell_angle_gamma   90.00000000
_symmetry_Int_Tables_number   1
_chemical_formula_structural   HoSeF
_chemical_formula_sum   'Ho4 Se4 F4'
_cell_volume   252.29203416
_cell_formula_units_Z   4
loop_
 _symmetry_equiv_pos_site_id
 _symmetry_equiv_pos_as_xyz
  1  'x, y, z'
loop_
 _atom_site_type_symbol
 _atom_site_label
 _atom_site_symmetry_multiplicity
 _atom_site_fract_x
 _atom_site_fract_y
 _atom_site_fract_z
 _atom_site_occupancy
  Ho  Ho0  1  0.25000000  0.26655378  0.92163655  1
  Ho  Ho1  1  0.25000000  0.23344622  0.42163655  1
  Ho  Ho2  1  0.75000000  0.73344622  0.07836345  1
  Ho  Ho3  1  0.75000000  0.76655378  0.57836345  1
  Se  Se4  1  0.25000000  0.46480452  0.66605433  1
  Se  Se5  1  0.25000000  0.03519548  0.16605433  1
  Se  Se6  1  0.75000000  0.53519548  0.33394567  1
  Se  Se7  1  0.75000000  0.96480452  0.83394567  1
  F  F8  1  0.25000000  0.90906342  0.53338215  1
  F  F9  1  0.25000000  0.59093658  0.03338215  1
  F  F10  1  0.75000000  0.09093658  0.46661785  1
  F  F11  1  0.75000000  0.40906342  0.96661785  1
