# generated using pymatgen
data_Pb2SeN2O9
_symmetry_space_group_name_H-M   'P 1'
_cell_length_a   5.48916173
_cell_length_b   7.29290140
_cell_length_c   10.31421434
_cell_angle_alpha   90.00000000
_cell_angle_beta   90.00000000
_cell_angle_gamma   90.00000000
_symmetry_Int_Tables_number   1
_chemical_formula_structural   Pb2SeN2O9
_chemical_formula_sum   'Pb4 Se2 N4 O18'
_cell_volume   412.89775449
_cell_formula_units_Z   2
loop_
 _symmetry_equiv_pos_site_id
 _symmetry_equiv_pos_as_xyz
  1  'x, y, z'
loop_
 _atom_site_type_symbol
 _atom_site_label
 _atom_site_symmetry_multiplicity
 _atom_site_fract_x
 _atom_site_fract_y
 _atom_site_fract_z
 _atom_site_occupancy
  Pb  Pb0  1  0.50000000  0.89146973  0.15499750  1
  Pb  Pb1  1  -0.00000000  0.39146973  0.84500250  1
  Pb  Pb2  1  0.50000000  0.07165928  0.52286096  1
  Pb  Pb3  1  -0.00000000  0.57165928  0.47713904  1
  Se  Se4  1  0.50000000  0.63648902  0.68046841  1
  Se  Se5  1  -0.00000000  0.13648902  0.31953159  1
  N  N6  1  0.50000000  0.26395904  0.99949173  1
  N  N7  1  -0.00000000  0.76395904  0.00050827  1
  N  N8  1  -0.00000000  0.00841917  0.71866222  1
  N  N9  1  0.50000000  0.50841917  0.28133778  1
  O  O10  1  0.50000000  0.74190634  0.53232895  1
  O  O11  1  -0.00000000  0.24190634  0.46767105  1
  O  O12  1  0.25810845  0.48966561  0.65826137  1
  O  O13  1  0.74189155  0.48966561  0.65826137  1
  O  O14  1  0.24189155  0.98966561  0.34173863  1
  O  O15  1  0.75810845  0.98966561  0.34173863  1
  O  O16  1  0.50000000  0.37369102  0.90528347  1
  O  O17  1  -0.00000000  0.87369102  0.09471653  1
  O  O18  1  0.30079744  0.20793210  0.04610803  1
  O  O19  1  0.69920256  0.20793210  0.04610803  1
  O  O20  1  0.19920256  0.70793210  0.95389197  1
  O  O21  1  0.80079744  0.70793210  0.95389197  1
  O  O22  1  0.50000000  0.36775544  0.35006843  1
  O  O23  1  -0.00000000  0.86775544  0.64993157  1
  O  O24  1  0.19896413  0.08175277  0.75305919  1
  O  O25  1  0.80103587  0.08175277  0.75305919  1
  O  O26  1  0.30103587  0.58175277  0.24694081  1
  O  O27  1  0.69896413  0.58175277  0.24694081  1
