# generated using pymatgen
data_TaCu3(SeS)2
_symmetry_space_group_name_H-M   'P 1'
_cell_length_a   5.57887720
_cell_length_b   5.57887720
_cell_length_c   5.57207873
_cell_angle_alpha   90.00000000
_cell_angle_beta   90.00000000
_cell_angle_gamma   91.59830056
_symmetry_Int_Tables_number   1
_chemical_formula_structural   TaCu3(SeS)2
_chemical_formula_sum   'Ta1 Cu3 Se2 S2'
_cell_volume   173.35718629
_cell_formula_units_Z   1
loop_
 _symmetry_equiv_pos_site_id
 _symmetry_equiv_pos_as_xyz
  1  'x, y, z'
loop_
 _atom_site_type_symbol
 _atom_site_label
 _atom_site_symmetry_multiplicity
 _atom_site_fract_x
 _atom_site_fract_y
 _atom_site_fract_z
 _atom_site_occupancy
  Ta  Ta0  1  0.00000000  0.00000000  0.99856140  1
  Cu  Cu1  1  0.50000000  0.00000000  0.01231346  1
  Cu  Cu2  1  0.00000000  0.50000000  0.01231346  1
  Cu  Cu3  1  -0.00000000  -0.00000000  0.49453956  1
  Se  Se4  1  0.74194462  0.74194462  0.74984117  1
  Se  Se5  1  0.25805538  0.25805538  0.74984117  1
  S  S6  1  0.23399949  0.76600051  0.24129489  1
  S  S7  1  0.76600051  0.23399949  0.24129489  1
