# generated using pymatgen
data_MgAl4(HO)12
_symmetry_space_group_name_H-M   'P 1'
_cell_length_a   6.97099252
_cell_length_b   7.73543846
_cell_length_c   7.84662106
_cell_angle_alpha   110.37400403
_cell_angle_beta   141.23640875
_cell_angle_gamma   86.33467784
_symmetry_Int_Tables_number   1
_chemical_formula_structural   MgAl4(HO)12
_chemical_formula_sum   'Mg1 Al4 H12 O12'
_cell_volume   232.30222683
_cell_formula_units_Z   1
loop_
 _symmetry_equiv_pos_site_id
 _symmetry_equiv_pos_as_xyz
  1  'x, y, z'
loop_
 _atom_site_type_symbol
 _atom_site_label
 _atom_site_symmetry_multiplicity
 _atom_site_fract_x
 _atom_site_fract_y
 _atom_site_fract_z
 _atom_site_occupancy
  Mg  Mg0  1  0.78987200  0.11927000  0.41989900  1
  Al  Al1  1  0.39786000  0.81524800  0.26105600  1
  Al  Al2  1  0.54591900  0.15478000  0.70980900  1
  Al  Al3  1  0.94495900  0.67072900  0.59910100  1
  Al  Al4  1  0.04219400  0.34485400  0.34722800  1
  H  H5  1  0.01056500  0.03267600  0.78177000  1
  H  H6  1  0.93365400  0.99039400  0.18820600  1
  H  H7  1  0.63870700  0.49932400  0.92288400  1
  H  H8  1  0.34018900  0.44229700  0.12285100  1
  H  H9  1  0.15555400  0.70389100  0.44641700  1
  H  H10  1  0.17139900  0.43704200  0.78967300  1
  H  H11  1  0.25415200  0.14241800  0.22603600  1
  H  H12  1  0.62617000  0.82709200  0.69152400  1
  H  H13  1  0.54327400  0.74594500  0.04214700  1
  H  H14  1  0.40420200  0.22955800  0.94231400  1
  H  H15  1  0.16195700  0.24803500  0.86984300  1
  H  H16  1  0.81274400  0.59188400  0.80369600  1
  O  O17  1  0.87136300  0.90676200  0.58899000  1
  O  O18  1  0.06592300  0.09355100  0.39166700  1
  O  O19  1  0.50851900  0.41509600  0.71218600  1
  O  O20  1  0.48836000  0.58195600  0.25094200  1
  O  O21  1  0.00290400  0.60413600  0.38268900  1
  O  O22  1  0.98978900  0.42095600  0.57783700  1
  O  O23  1  0.44740100  0.08890800  0.37114700  1
  O  O24  1  0.43908100  0.86685700  0.54372700  1
  O  O25  1  0.40721400  0.81970600  0.01080300  1
  O  O26  1  0.58656500  0.20808400  0.99230300  1
  O  O27  1  0.99436500  0.23455300  0.06544000  1
  O  O28  1  0.94882900  0.70837200  0.87249400  1
