# generated using pymatgen
data_UMoO6
_symmetry_space_group_name_H-M   'P 1'
_cell_length_a   5.49812706
_cell_length_b   7.20997466
_cell_length_c   13.49449302
_cell_angle_alpha   75.07490922
_cell_angle_beta   90.00000000
_cell_angle_gamma   90.00000000
_symmetry_Int_Tables_number   1
_chemical_formula_structural   UMoO6
_chemical_formula_sum   'U4 Mo4 O24'
_cell_volume   516.89294647
_cell_formula_units_Z   4
loop_
 _symmetry_equiv_pos_site_id
 _symmetry_equiv_pos_as_xyz
  1  'x, y, z'
loop_
 _atom_site_type_symbol
 _atom_site_label
 _atom_site_symmetry_multiplicity
 _atom_site_fract_x
 _atom_site_fract_y
 _atom_site_fract_z
 _atom_site_occupancy
  U  U0  1  0.66811027  0.16636145  0.64718109  1
  U  U1  1  0.16811027  0.83363855  0.85281891  1
  U  U2  1  0.33188973  0.83363855  0.35281891  1
  U  U3  1  0.83188973  0.16636145  0.14718109  1
  Mo  Mo4  1  0.40480463  0.28979497  0.89682633  1
  Mo  Mo5  1  0.59519537  0.71020503  0.10317367  1
  Mo  Mo6  1  0.09519537  0.28979497  0.39682633  1
  Mo  Mo7  1  0.90480463  0.71020503  0.60317367  1
  O  O8  1  0.30680590  0.52447807  0.89361253  1
  O  O9  1  0.94109302  0.07047785  0.72186271  1
  O  O10  1  0.61069849  0.75276352  0.41933602  1
  O  O11  1  0.56450300  0.30255982  0.78269626  1
  O  O12  1  0.10879633  0.79935830  0.50052167  1
  O  O13  1  0.44109302  0.92952215  0.77813729  1
  O  O14  1  0.55890698  0.07047785  0.22186271  1
  O  O15  1  0.11069849  0.24723648  0.08066398  1
  O  O16  1  0.83735599  0.87005168  0.10591462  1
  O  O17  1  0.19319410  0.52447807  0.39361253  1
  O  O18  1  0.05890698  0.92952215  0.27813729  1
  O  O19  1  0.93549700  0.30255982  0.28269626  1
  O  O20  1  0.16264401  0.12994832  0.89408538  1
  O  O21  1  0.88930151  0.75276352  0.91933602  1
  O  O22  1  0.60879633  0.20064170  -0.00052167  1
  O  O23  1  0.43549700  0.69744018  0.21730374  1
  O  O24  1  0.38930151  0.24723648  0.58066398  1
  O  O25  1  0.66264401  0.87005168  0.60591462  1
  O  O26  1  0.39120367  0.79935830  0.00052167  1
  O  O27  1  0.89120367  0.20064170  0.49947833  1
  O  O28  1  0.06450300  0.69744018  0.71730374  1
  O  O29  1  0.80680590  0.47552193  0.60638747  1
  O  O30  1  0.33735599  0.12994832  0.39408538  1
  O  O31  1  0.69319410  0.47552193  0.10638747  1
