# generated using pymatgen
data_HfMg14CO16
_symmetry_space_group_name_H-M   'P 1'
_cell_length_a   8.73878181
_cell_length_b   8.91944318
_cell_length_c   4.18770106
_cell_angle_alpha   90.00000000
_cell_angle_beta   90.00000000
_cell_angle_gamma   90.00000000
_symmetry_Int_Tables_number   1
_chemical_formula_structural   HfMg14CO16
_chemical_formula_sum   'Hf1 Mg14 C1 O16'
_cell_volume   326.41064312
_cell_formula_units_Z   1
loop_
 _symmetry_equiv_pos_site_id
 _symmetry_equiv_pos_as_xyz
  1  'x, y, z'
loop_
 _atom_site_type_symbol
 _atom_site_label
 _atom_site_symmetry_multiplicity
 _atom_site_fract_x
 _atom_site_fract_y
 _atom_site_fract_z
 _atom_site_occupancy
  Hf  Hf0  1  0.00000000  0.50000000  0.00000000  1
  Mg  Mg1  1  0.50000000  0.00000000  0.00000000  1
  Mg  Mg2  1  0.50000000  0.50000000  0.00000000  1
  Mg  Mg3  1  0.00000000  0.22409833  0.50000000  1
  Mg  Mg4  1  0.00000000  0.77590167  0.50000000  1
  Mg  Mg5  1  0.50000000  0.24292550  0.50000000  1
  Mg  Mg6  1  0.50000000  0.75707450  0.50000000  1
  Mg  Mg7  1  0.24763974  -0.00000000  0.50000000  1
  Mg  Mg8  1  0.26271491  0.50000000  0.50000000  1
  Mg  Mg9  1  0.75236026  0.00000000  0.50000000  1
  Mg  Mg10  1  0.73728509  0.50000000  0.50000000  1
  Mg  Mg11  1  0.24892764  0.22995821  -0.00000000  1
  Mg  Mg12  1  0.24892764  0.77004179  0.00000000  1
  Mg  Mg13  1  0.75107236  0.22995821  -0.00000000  1
  Mg  Mg14  1  0.75107236  0.77004179  0.00000000  1
  C  C15  1  0.00000000  0.00000000  0.00000000  1
  O  O16  1  0.28115166  0.00000000  -0.00000000  1
  O  O17  1  0.24408539  0.50000000  -0.00000000  1
  O  O18  1  0.71884834  0.00000000  -0.00000000  1
  O  O19  1  0.75591461  0.50000000  0.00000000  1
  O  O20  1  0.24639901  0.25047247  0.50000000  1
  O  O21  1  0.24639901  0.74952753  0.50000000  1
  O  O22  1  0.75360099  0.25047247  0.50000000  1
  O  O23  1  0.75360099  0.74952753  0.50000000  1
  O  O24  1  0.00000000  0.00000000  0.50000000  1
  O  O25  1  0.00000000  0.50000000  0.50000000  1
  O  O26  1  0.50000000  0.00000000  0.50000000  1
  O  O27  1  0.50000000  0.50000000  0.50000000  1
  O  O28  1  0.00000000  0.27656913  0.00000000  1
  O  O29  1  0.00000000  0.72343087  0.00000000  1
  O  O30  1  0.50000000  0.26024206  0.00000000  1
  O  O31  1  0.50000000  0.73975794  -0.00000000  1
