# generated using pymatgen
data_Rb3Ge4Au
_symmetry_space_group_name_H-M   'P 1'
_cell_length_a   6.12868855
_cell_length_b   6.94421090
_cell_length_c   12.49180891
_cell_angle_alpha   90.00000000
_cell_angle_beta   90.00000000
_cell_angle_gamma   90.00000000
_symmetry_Int_Tables_number   1
_chemical_formula_structural   Rb3Ge4Au
_chemical_formula_sum   'Rb6 Ge8 Au2'
_cell_volume   531.63771907
_cell_formula_units_Z   2
loop_
 _symmetry_equiv_pos_site_id
 _symmetry_equiv_pos_as_xyz
  1  'x, y, z'
loop_
 _atom_site_type_symbol
 _atom_site_label
 _atom_site_symmetry_multiplicity
 _atom_site_fract_x
 _atom_site_fract_y
 _atom_site_fract_z
 _atom_site_occupancy
  Rb  Rb0  1  0.42863771  0.75000000  0.75000000  1
  Rb  Rb1  1  0.57136229  0.25000000  0.25000000  1
  Rb  Rb2  1  0.16383500  0.25000000  0.01532700  1
  Rb  Rb3  1  0.16383500  0.25000000  0.48467300  1
  Rb  Rb4  1  0.83616500  0.75000000  0.98467300  1
  Rb  Rb5  1  0.83616500  0.75000000  0.51532700  1
  Ge  Ge6  1  0.32976518  0.75000000  0.35989817  1
  Ge  Ge7  1  0.32976518  0.75000000  0.14010183  1
  Ge  Ge8  1  0.05980458  0.55408149  0.25000000  1
  Ge  Ge9  1  0.05980458  0.94591851  0.25000000  1
  Ge  Ge10  1  0.94019542  0.05408149  0.75000000  1
  Ge  Ge11  1  0.94019542  0.44591851  0.75000000  1
  Ge  Ge12  1  0.67023482  0.25000000  0.64010183  1
  Ge  Ge13  1  0.67023482  0.25000000  0.85989817  1
  Au  Au14  1  0.69288620  0.75000000  0.25000000  1
  Au  Au15  1  0.30711380  0.25000000  0.75000000  1
