# generated using pymatgen
data_SrP2
_symmetry_space_group_name_H-M   'P 1'
_cell_length_a   6.15404785
_cell_length_b   6.23064610
_cell_length_c   11.94386704
_cell_angle_alpha   90.00000000
_cell_angle_beta   90.00000000
_cell_angle_gamma   105.58560161
_symmetry_Int_Tables_number   1
_chemical_formula_structural   SrP2
_chemical_formula_sum   'Sr6 P12'
_cell_volume   441.13240855
_cell_formula_units_Z   6
loop_
 _symmetry_equiv_pos_site_id
 _symmetry_equiv_pos_as_xyz
  1  'x, y, z'
loop_
 _atom_site_type_symbol
 _atom_site_label
 _atom_site_symmetry_multiplicity
 _atom_site_fract_x
 _atom_site_fract_y
 _atom_site_fract_z
 _atom_site_occupancy
  Sr  Sr0  1  0.10363974  0.31492287  0.16619346  1
  Sr  Sr1  1  0.39636026  0.18507713  0.66619346  1
  Sr  Sr2  1  0.89636026  0.68507713  0.83380654  1
  Sr  Sr3  1  0.60363974  0.81492287  0.33380654  1
  Sr  Sr4  1  -0.00000000  0.50000000  0.50000000  1
  Sr  Sr5  1  0.50000000  0.00000000  -0.00000000  1
  P  P6  1  0.35280515  0.28389347  0.39799319  1
  P  P7  1  0.14719485  0.21610653  0.89799319  1
  P  P8  1  0.64719485  0.71610653  0.60200681  1
  P  P9  1  0.85280515  0.78389347  0.10200681  1
  P  P10  1  0.64304731  0.43617346  0.13194670  1
  P  P11  1  0.85695269  0.06382654  0.63194670  1
  P  P12  1  0.35695269  0.56382654  0.86805330  1
  P  P13  1  0.14304731  0.93617346  0.36805330  1
  P  P14  1  0.67116576  0.33462455  0.30662505  1
  P  P15  1  0.82883424  0.16537545  0.80662505  1
  P  P16  1  0.32883424  0.66537545  0.69337495  1
  P  P17  1  0.17116576  0.83462455  0.19337495  1
