# generated using pymatgen
data_LiInO2
_symmetry_space_group_name_H-M   'P 1'
_cell_length_a   5.56265820
_cell_length_b   5.56265820
_cell_length_c   5.56265820
_cell_angle_alpha   134.17029989
_cell_angle_beta   134.17029989
_cell_angle_gamma   66.82213599
_symmetry_Int_Tables_number   1
_chemical_formula_structural   LiInO2
_chemical_formula_sum   'Li2 In2 O4'
_cell_volume   87.13001698
_cell_formula_units_Z   2
loop_
 _symmetry_equiv_pos_site_id
 _symmetry_equiv_pos_as_xyz
  1  'x, y, z'
loop_
 _atom_site_type_symbol
 _atom_site_label
 _atom_site_symmetry_multiplicity
 _atom_site_fract_x
 _atom_site_fract_y
 _atom_site_fract_z
 _atom_site_occupancy
  Li  Li0  1  0.26206703  0.76206703  0.50000000  1
  Li  Li1  1  0.51206703  0.51206703  0.00000000  1
  In  In2  1  0.75653467  0.25653467  0.50000000  1
  In  In3  1  0.00653467  0.00653467  0.00000000  1
  O  O4  1  0.99084084  0.49084084  0.50000000  1
  O  O5  1  0.77045645  0.77045645  -0.00000000  1
  O  O6  1  0.52045645  0.02045645  0.50000000  1
  O  O7  1  0.24084084  0.24084084  -0.00000000  1
