# generated using pymatgen
data_ZnWO4
_symmetry_space_group_name_H-M   'P 1'
_cell_length_a   5.72971105
_cell_length_b   4.67671929
_cell_length_c   4.93645441
_cell_angle_alpha   89.41388785
_cell_angle_beta   90.00000000
_cell_angle_gamma   90.00000000
_symmetry_Int_Tables_number   1
_chemical_formula_structural   ZnWO4
_chemical_formula_sum   'Zn2 W2 O8'
_cell_volume   132.27154637
_cell_formula_units_Z   2
loop_
 _symmetry_equiv_pos_site_id
 _symmetry_equiv_pos_as_xyz
  1  'x, y, z'
loop_
 _atom_site_type_symbol
 _atom_site_label
 _atom_site_symmetry_multiplicity
 _atom_site_fract_x
 _atom_site_fract_y
 _atom_site_fract_z
 _atom_site_occupancy
  Zn  Zn0  1  0.67635722  0.50000000  0.25000000  1
  Zn  Zn1  1  0.32364278  0.50000000  0.75000000  1
  W  W2  1  0.18112668  -0.00000000  0.25000000  1
  W  W3  1  0.81887332  -0.00000000  0.75000000  1
  O  O4  1  0.10643271  0.78268742  0.93508328  1
  O  O5  1  0.10643271  0.21731258  0.56491672  1
  O  O6  1  0.89356729  0.21731258  0.06491672  1
  O  O7  1  0.89356729  0.78268742  0.43508328  1
  O  O8  1  0.37610991  0.74307269  0.40266425  1
  O  O9  1  0.37610991  0.25692731  0.09733575  1
  O  O10  1  0.62389009  0.25692731  0.59733575  1
  O  O11  1  0.62389009  0.74307269  0.90266425  1
