# generated using pymatgen
data_Mg14BWO16
_symmetry_space_group_name_H-M   'P 1'
_cell_length_a   8.61064078
_cell_length_b   8.69590782
_cell_length_c   4.28345972
_cell_angle_alpha   90.00000000
_cell_angle_beta   90.00000000
_cell_angle_gamma   90.00000000
_symmetry_Int_Tables_number   1
_chemical_formula_structural   Mg14BWO16
_chemical_formula_sum   'Mg14 B1 W1 O16'
_cell_volume   320.73406338
_cell_formula_units_Z   1
loop_
 _symmetry_equiv_pos_site_id
 _symmetry_equiv_pos_as_xyz
  1  'x, y, z'
loop_
 _atom_site_type_symbol
 _atom_site_label
 _atom_site_symmetry_multiplicity
 _atom_site_fract_x
 _atom_site_fract_y
 _atom_site_fract_z
 _atom_site_occupancy
  Mg  Mg0  1  0.50000000  0.00000000  0.00000000  1
  Mg  Mg1  1  0.50000000  0.50000000  0.00000000  1
  Mg  Mg2  1  0.00000000  0.26554744  0.50000000  1
  Mg  Mg3  1  0.00000000  0.73445256  0.50000000  1
  Mg  Mg4  1  0.50000000  0.25296930  0.50000000  1
  Mg  Mg5  1  0.50000000  0.74703070  0.50000000  1
  Mg  Mg6  1  0.25693386  0.00000000  0.50000000  1
  Mg  Mg7  1  0.24713853  0.50000000  0.50000000  1
  Mg  Mg8  1  0.74306614  0.00000000  0.50000000  1
  Mg  Mg9  1  0.75286147  0.50000000  0.50000000  1
  Mg  Mg10  1  0.25060528  0.25992285  0.00000000  1
  Mg  Mg11  1  0.25060528  0.74007715  0.00000000  1
  Mg  Mg12  1  0.74939472  0.25992285  0.00000000  1
  Mg  Mg13  1  0.74939472  0.74007715  0.00000000  1
  B  B14  1  0.00000000  0.50000000  0.00000000  1
  W  W15  1  0.00000000  0.00000000  0.00000000  1
  O  O16  1  0.25373416  0.00000000  0.00000000  1
  O  O17  1  0.26726394  0.50000000  0.00000000  1
  O  O18  1  0.74626584  0.00000000  0.00000000  1
  O  O19  1  0.73273606  0.50000000  0.00000000  1
  O  O20  1  0.24799479  0.24869260  0.50000000  1
  O  O21  1  0.24799479  0.75130740  0.50000000  1
  O  O22  1  0.75200521  0.24869260  0.50000000  1
  O  O23  1  0.75200521  0.75130740  0.50000000  1
  O  O24  1  0.00000000  0.00000000  0.50000000  1
  O  O25  1  0.00000000  0.50000000  0.50000000  1
  O  O26  1  0.50000000  0.00000000  0.50000000  1
  O  O27  1  0.50000000  0.50000000  0.50000000  1
  O  O28  1  0.00000000  0.24409917  0.00000000  1
  O  O29  1  0.00000000  0.75590083  0.00000000  1
  O  O30  1  0.50000000  0.24552380  0.00000000  1
  O  O31  1  0.50000000  0.75447620  0.00000000  1
