# generated using pymatgen
data_LiTiFe5O8
_symmetry_space_group_name_H-M   'P 1'
_cell_length_a   6.16259101
_cell_length_b   6.23099867
_cell_length_c   6.23299507
_cell_angle_alpha   89.06750482
_cell_angle_beta   60.29958595
_cell_angle_gamma   119.61683913
_symmetry_Int_Tables_number   1
_chemical_formula_structural   LiTiFe5O8
_chemical_formula_sum   'Li1 Ti1 Fe5 O8'
_cell_volume   169.58628915
_cell_formula_units_Z   1
loop_
 _symmetry_equiv_pos_site_id
 _symmetry_equiv_pos_as_xyz
  1  'x, y, z'
loop_
 _atom_site_type_symbol
 _atom_site_label
 _atom_site_symmetry_multiplicity
 _atom_site_fract_x
 _atom_site_fract_y
 _atom_site_fract_z
 _atom_site_occupancy
  Li  Li0  1  0.76931100  0.11280800  0.08238700  1
  Ti  Ti1  1  0.47640200  0.00237800  0.54773900  1
  Fe  Fe2  1  0.23329900  0.11287900  0.14859600  1
  Fe  Fe3  1  0.75045200  0.84940100  0.84606800  1
  Fe  Fe4  1  0.49085400  0.49980900  0.49292000  1
  Fe  Fe5  1  0.02273500  0.54683900  0.00045800  1
  Fe  Fe6  1  0.01647600  0.49945000  0.49272100  1
  O  O7  1  0.97895600  0.73170300  0.27460200  1
  O  O8  1  0.96703300  0.23390200  0.25945700  1
  O  O9  1  0.48181200  0.22154700  0.75800400  1
  O  O10  1  0.51002200  0.23357700  0.25919700  1
  O  O11  1  0.02291600  0.27928400  0.73365900  1
  O  O12  1  0.05250500  0.76800600  0.72004900  1
  O  O13  1  0.50397700  0.76563000  0.25832800  1
  O  O14  1  0.49408100  0.76778800  0.71956500  1
