# generated using pymatgen
data_RbTaCl6
_symmetry_space_group_name_H-M   'P 1'
_cell_length_a   6.28622922
_cell_length_b   6.82002874
_cell_length_c   12.21625256
_cell_angle_alpha   100.47155999
_cell_angle_beta   90.00000000
_cell_angle_gamma   117.44295802
_symmetry_Int_Tables_number   1
_chemical_formula_structural   RbTaCl6
_chemical_formula_sum   'Rb2 Ta2 Cl12'
_cell_volume   454.95085632
_cell_formula_units_Z   2
loop_
 _symmetry_equiv_pos_site_id
 _symmetry_equiv_pos_as_xyz
  1  'x, y, z'
loop_
 _atom_site_type_symbol
 _atom_site_label
 _atom_site_symmetry_multiplicity
 _atom_site_fract_x
 _atom_site_fract_y
 _atom_site_fract_z
 _atom_site_occupancy
  Rb  Rb0  1  0.89264868  0.00000000  0.75000000  1
  Rb  Rb1  1  0.10735132  0.00000000  0.25000000  1
  Ta  Ta2  1  0.50000000  0.50000000  -0.00000000  1
  Ta  Ta3  1  0.00000000  0.50000000  0.50000000  1
  Cl  Cl4  1  0.47659823  0.16262734  0.89497297  1
  Cl  Cl5  1  0.52340177  0.83737266  0.10502703  1
  Cl  Cl6  1  0.31397089  0.83737266  0.60502703  1
  Cl  Cl7  1  0.68602911  0.16262734  0.39497297  1
  Cl  Cl8  1  0.37273978  0.57070744  0.83640816  1
  Cl  Cl9  1  0.62726022  0.42929256  0.16359184  1
  Cl  Cl10  1  0.80203235  0.42929256  0.66359184  1
  Cl  Cl11  1  0.19796765  0.57070744  0.33640816  1
  Cl  Cl12  1  0.79667585  0.70191383  0.46405917  1
  Cl  Cl13  1  0.20332415  0.29808617  0.53594083  1
  Cl  Cl14  1  0.09476202  0.29808617  0.03594083  1
  Cl  Cl15  1  0.90523798  0.70191383  0.96405917  1
