# generated using pymatgen
data_CaWF6
_symmetry_space_group_name_H-M   'P 1'
_cell_length_a   5.95847524
_cell_length_b   5.95847011
_cell_length_c   5.95847282
_cell_angle_alpha   56.56337732
_cell_angle_beta   56.56338300
_cell_angle_gamma   56.56331067
_symmetry_Int_Tables_number   1
_chemical_formula_structural   CaWF6
_chemical_formula_sum   'Ca1 W1 F6'
_cell_volume   137.70715253
_cell_formula_units_Z   1
loop_
 _symmetry_equiv_pos_site_id
 _symmetry_equiv_pos_as_xyz
  1  'x, y, z'
loop_
 _atom_site_type_symbol
 _atom_site_label
 _atom_site_symmetry_multiplicity
 _atom_site_fract_x
 _atom_site_fract_y
 _atom_site_fract_z
 _atom_site_occupancy
  Ca  Ca0  1  0.50000000  0.50000000  0.50000000  1
  W  W1  1  0.00000000  -0.00000000  -0.00000000  1
  F  F2  1  0.67676157  0.85848687  0.22732850  1
  F  F3  1  0.85848687  0.22732750  0.67676257  1
  F  F4  1  0.77267250  0.32323743  0.14151313  1
  F  F5  1  0.14151313  0.77267250  0.32323743  1
  F  F6  1  0.32323843  0.14151313  0.77267150  1
  F  F7  1  0.22732750  0.67676257  0.85848687  1
