# generated using pymatgen
data_LaMoBrO4
_symmetry_space_group_name_H-M   'P 1'
_cell_length_a   5.86790944
_cell_length_b   8.08461775
_cell_length_c   9.84091746
_cell_angle_alpha   89.94211163
_cell_angle_beta   90.00000000
_cell_angle_gamma   90.00000000
_symmetry_Int_Tables_number   1
_chemical_formula_structural   LaMoBrO4
_chemical_formula_sum   'La4 Mo4 Br4 O16'
_cell_volume   466.85096543
_cell_formula_units_Z   4
loop_
 _symmetry_equiv_pos_site_id
 _symmetry_equiv_pos_as_xyz
  1  'x, y, z'
loop_
 _atom_site_type_symbol
 _atom_site_label
 _atom_site_symmetry_multiplicity
 _atom_site_fract_x
 _atom_site_fract_y
 _atom_site_fract_z
 _atom_site_occupancy
  La  La0  1  0.95400662  0.37693617  0.21283532  1
  La  La1  1  0.04599338  0.87693617  0.21283532  1
  La  La2  1  0.54675998  0.62585119  0.77639225  1
  La  La3  1  0.45324002  0.12585119  0.77639225  1
  Mo  Mo4  1  0.49345880  0.66133268  0.35467952  1
  Mo  Mo5  1  0.50654120  0.16133268  0.35467952  1
  Mo  Mo6  1  0.99673819  0.41163669  0.63458488  1
  Mo  Mo7  1  0.00326181  0.91163669  0.63458488  1
  Br  Br8  1  0.99909626  0.62414408  0.96727891  1
  Br  Br9  1  0.00090374  0.12414408  0.96727891  1
  Br  Br10  1  0.50174726  0.37395221  0.02227436  1
  Br  Br11  1  0.49825274  0.87395221  0.02227436  1
  O  O12  1  0.49210111  0.61954594  0.52869444  1
  O  O13  1  0.50789889  0.11954594  0.52869444  1
  O  O14  1  0.56340054  0.37521533  0.34380491  1
  O  O15  1  0.43659946  0.87521533  0.34380491  1
  O  O16  1  0.76762661  0.64777853  0.27149415  1
  O  O17  1  0.23237339  0.14777853  0.27149415  1
  O  O18  1  0.76109465  0.09700098  0.26729134  1
  O  O19  1  0.23890535  0.59700098  0.26729134  1
  O  O20  1  0.01315450  0.37222766  0.46056161  1
  O  O21  1  0.98684550  0.87222766  0.46056161  1
  O  O22  1  0.93776574  0.62518453  0.64601569  1
  O  O23  1  0.06223426  0.12518453  0.64601569  1
  O  O24  1  0.73886302  0.34592614  0.71819131  1
  O  O25  1  0.26113698  0.84592614  0.71819131  1
  O  O26  1  0.73248683  0.89756786  0.72140232  1
  O  O27  1  0.26751317  0.39756786  0.72140232  1
