# generated using pymatgen
data_Na2PdS2
_symmetry_space_group_name_H-M   'P 1'
_cell_length_a   3.55543822
_cell_length_b   5.44190079
_cell_length_c   10.85656389
_cell_angle_alpha   89.99999526
_cell_angle_beta   90.00000228
_cell_angle_gamma   109.08167359
_symmetry_Int_Tables_number   1
_chemical_formula_structural   Na2PdS2
_chemical_formula_sum   'Na4 Pd2 S4'
_cell_volume   198.51464713
_cell_formula_units_Z   2
loop_
 _symmetry_equiv_pos_site_id
 _symmetry_equiv_pos_as_xyz
  1  'x, y, z'
loop_
 _atom_site_type_symbol
 _atom_site_label
 _atom_site_symmetry_multiplicity
 _atom_site_fract_x
 _atom_site_fract_y
 _atom_site_fract_z
 _atom_site_occupancy
  Na  Na0  1  0.43042903  0.86352415  0.87584891  1
  Na  Na1  1  0.56957107  0.13647577  0.37584903  1
  Na  Na2  1  0.82690382  0.65475766  0.58751496  1
  Na  Na3  1  0.17309606  0.34524234  0.08751498  1
  Pd  Pd4  1  0.13300758  0.26780251  0.75159712  1
  Pd  Pd5  1  0.86699246  0.73219756  0.25159705  1
  S  S6  1  0.54595174  0.09317230  0.63406671  1
  S  S7  1  0.45404826  0.90682775  0.13406665  1
  S  S8  1  0.71908180  0.43927893  0.87097330  1
  S  S9  1  0.28091819  0.56072105  0.37097330  1
