# generated using pymatgen
data_Y2Mn2O7
_symmetry_space_group_name_H-M   'P 1'
_cell_length_a   7.00130249
_cell_length_b   7.00122408
_cell_length_c   7.00126391
_cell_angle_alpha   60.00006398
_cell_angle_beta   60.00042797
_cell_angle_gamma   60.00020684
_symmetry_Int_Tables_number   1
_chemical_formula_structural   Y2Mn2O7
_chemical_formula_sum   'Y4 Mn4 O14'
_cell_volume   242.67026493
_cell_formula_units_Z   2
loop_
 _symmetry_equiv_pos_site_id
 _symmetry_equiv_pos_as_xyz
  1  'x, y, z'
loop_
 _atom_site_type_symbol
 _atom_site_label
 _atom_site_symmetry_multiplicity
 _atom_site_fract_x
 _atom_site_fract_y
 _atom_site_fract_z
 _atom_site_occupancy
  Y  Y0  1  0.12499997  0.12500013  0.12499991  1
  Y  Y1  1  0.62499994  0.12499994  0.12500026  1
  Y  Y2  1  0.12500024  0.12500011  0.62499991  1
  Y  Y3  1  0.12500002  0.62499988  0.12500007  1
  Mn  Mn4  1  0.62500005  0.62500037  0.62500080  1
  Mn  Mn5  1  0.12499934  0.62500047  0.62500006  1
  Mn  Mn6  1  0.62500066  0.62499997  0.12500022  1
  Mn  Mn7  1  0.62499884  0.12500003  0.62500008  1
  O  O8  1  -0.00000089  0.00000216  -0.00000064  1
  O  O9  1  0.25000087  0.24999783  0.25000063  1
  O  O10  1  0.29739600  0.29742862  0.70258747  1
  O  O11  1  0.54741500  0.54741062  0.95259024  1
  O  O12  1  0.70258804  0.29741774  0.70258932  1
  O  O13  1  0.70258745  0.29742114  0.29740095  1
  O  O14  1  0.29740185  0.70258916  0.70258631  1
  O  O15  1  0.29740478  0.70258954  0.29741819  1
  O  O16  1  0.70258459  0.70258948  0.29740869  1
  O  O17  1  0.95259822  0.54741059  0.54741350  1
  O  O18  1  0.54741270  0.95257894  0.95259883  1
  O  O19  1  0.95260514  0.95257067  0.54741268  1
  O  O20  1  0.95259518  0.54741062  0.95258170  1
  O  O21  1  0.54741203  0.95258199  0.54741080  1
