# generated using pymatgen
data_MgFe(PO3)4
_symmetry_space_group_name_H-M   'P 1'
_cell_length_a   7.20653991
_cell_length_b   7.20653991
_cell_length_c   9.97038262
_cell_angle_alpha   66.61176407
_cell_angle_beta   66.61176407
_cell_angle_gamma   70.07223151
_symmetry_Int_Tables_number   1
_chemical_formula_structural   MgFe(PO3)4
_chemical_formula_sum   'Mg2 Fe2 P8 O24'
_cell_volume   425.76376730
_cell_formula_units_Z   2
loop_
 _symmetry_equiv_pos_site_id
 _symmetry_equiv_pos_as_xyz
  1  'x, y, z'
loop_
 _atom_site_type_symbol
 _atom_site_label
 _atom_site_symmetry_multiplicity
 _atom_site_fract_x
 _atom_site_fract_y
 _atom_site_fract_z
 _atom_site_occupancy
  Mg  Mg0  1  0.94806386  0.05193614  0.25000000  1
  Mg  Mg1  1  0.05193614  0.94806386  0.75000000  1
  Fe  Fe2  1  0.00000000  0.50000000  -0.00000000  1
  Fe  Fe3  1  0.50000000  0.00000000  0.50000000  1
  P  P4  1  0.70524550  0.68781823  0.30342902  1
  P  P5  1  0.31218177  0.29475450  0.19657098  1
  P  P6  1  0.29475450  0.31218177  0.69657098  1
  P  P7  1  0.68781823  0.70524550  0.80342902  1
  P  P8  1  0.74939913  0.27147705  0.52192930  1
  P  P9  1  0.72852295  0.25060087  0.97807070  1
  P  P10  1  0.25060087  0.72852295  0.47807070  1
  P  P11  1  0.27147705  0.74939913  0.02192930  1
  O  O12  1  0.46731495  0.68891638  0.34952614  1
  O  O13  1  0.31108362  0.53268505  0.15047386  1
  O  O14  1  0.53268505  0.31108362  0.65047386  1
  O  O15  1  0.68891638  0.46731495  0.84952614  1
  O  O16  1  0.78550213  0.50116712  0.43479243  1
  O  O17  1  0.49883288  0.21449787  0.06520757  1
  O  O18  1  0.21449787  0.49883288  0.56520757  1
  O  O19  1  0.50116712  0.78550213  0.93479243  1
  O  O20  1  0.80750214  0.64896691  0.15369490  1
  O  O21  1  0.35103309  0.19249786  0.34630510  1
  O  O22  1  0.19249786  0.35103309  0.84630510  1
  O  O23  1  0.64896691  0.80750214  0.65369490  1
  O  O24  1  0.72534674  0.87919445  0.31721004  1
  O  O25  1  0.12080555  0.27465326  0.18278996  1
  O  O26  1  0.27465326  0.12080555  0.68278996  1
  O  O27  1  0.87919445  0.72534674  0.81721004  1
  O  O28  1  0.71917480  0.19301553  0.41463814  1
  O  O29  1  0.80698447  0.28082520  0.08536186  1
  O  O30  1  0.28082520  0.80698447  0.58536186  1
  O  O31  1  0.19301553  0.71917480  0.91463814  1
  O  O32  1  0.91133617  0.15323901  0.59570238  1
  O  O33  1  0.84676099  0.08866383  0.90429762  1
  O  O34  1  0.08866383  0.84676099  0.40429762  1
  O  O35  1  0.15323901  0.91133617  0.09570238  1
