# generated using pymatgen
data_Na8Y3NbSi5SO24
_symmetry_space_group_name_H-M   'P 1'
_cell_length_a   9.45084725
_cell_length_b   9.43916151
_cell_length_c   22.87477909
_cell_angle_alpha   90.04237412
_cell_angle_beta   90.19498656
_cell_angle_gamma   120.00852751
_symmetry_Int_Tables_number   1
_chemical_formula_structural   Na8Y3NbSi5SO24
_chemical_formula_sum   'Na24 Y9 Nb3 Si15 S3 O72'
_cell_volume   1767.05527755
_cell_formula_units_Z   3
loop_
 _symmetry_equiv_pos_site_id
 _symmetry_equiv_pos_as_xyz
  1  'x, y, z'
loop_
 _atom_site_type_symbol
 _atom_site_label
 _atom_site_symmetry_multiplicity
 _atom_site_fract_x
 _atom_site_fract_y
 _atom_site_fract_z
 _atom_site_occupancy
  Na  Na0  1  0.61484169  0.99744766  0.25311343  1
  Na  Na1  1  0.36694373  0.34830542  0.25940922  1
  Na  Na2  1  0.01760752  0.64962611  0.24662556  1
  Na  Na3  1  0.64058390  0.62655425  0.74605597  1
  Na  Na4  1  0.01024359  0.36715869  0.73357343  1
  Na  Na5  1  0.34789142  0.00375209  0.73919550  1
  Na  Na6  1  0.29843158  0.34433070  0.57834410  1
  Na  Na7  1  0.04280170  0.70251580  0.57886433  1
  Na  Na8  1  0.66412850  0.95790903  0.57260106  1
  Na  Na9  1  0.30109969  0.95574455  0.07928496  1
  Na  Na10  1  0.65645943  0.70206413  0.07319800  1
  Na  Na11  1  0.04357026  0.34028389  0.07364768  1
  Na  Na12  1  0.96675210  0.67564888  0.91310979  1
  Na  Na13  1  0.69803349  0.02004928  0.92094710  1
  Na  Na14  1  0.32536160  0.29609143  0.91201798  1
  Na  Na15  1  0.97864282  0.30782394  0.42748489  1
  Na  Na16  1  0.33288892  0.02599257  0.42036149  1
  Na  Na17  1  0.68992034  0.67097057  0.42785221  1
  Na  Na18  1  0.99955567  0.00136920  0.50152580  1
  Na  Na19  1  0.99816248  0.99852195  0.99801050  1
  Na  Na20  1  0.66742856  0.34950042  0.83275287  1
  Na  Na21  1  0.64762416  0.31501423  0.34354396  1
  Na  Na22  1  0.33221938  0.68268274  0.15807624  1
  Na  Na23  1  0.32922510  0.66321722  0.65440116  1
  Y  Y24  1  0.00876034  0.00059620  0.35389248  1
  Y  Y25  1  0.00572823  0.99821076  0.84978030  1
  Y  Y26  1  0.01523436  0.00473975  0.64627430  1
  Y  Y27  1  0.01050556  0.99737214  0.14073501  1
  Y  Y28  1  0.66785450  0.34011914  0.68211411  1
  Y  Y29  1  0.66016451  0.32737709  0.18053299  1
  Y  Y30  1  0.33098838  0.66544915  0.01513026  1
  Y  Y31  1  0.33337864  0.66954254  0.51430347  1
  Y  Y32  1  0.33061201  0.67260045  0.32422553  1
  Nb  Nb33  1  0.66408403  0.33242193  0.98135825  1
  Nb  Nb34  1  0.66687098  0.33432537  0.48531935  1
  Nb  Nb35  1  0.31981679  0.65473442  0.82158777  1
  Si  Si36  1  0.30520018  0.99559640  0.24888490  1
  Si  Si37  1  0.30490607  0.31265298  0.75358312  1
  Si  Si38  1  0.00752930  0.69534904  0.75291887  1
  Si  Si39  1  0.96249181  0.33021198  0.58490176  1
  Si  Si40  1  0.37244806  0.03870606  0.58564795  1
  Si  Si41  1  0.66914492  0.63465490  0.58484470  1
  Si  Si42  1  0.95786414  0.62567913  0.08409820  1
  Si  Si43  1  0.66967175  0.03879155  0.08219628  1
  Si  Si44  1  0.37096680  0.33374589  0.08229642  1
  Si  Si45  1  0.62845112  0.66091681  0.91917355  1
  Si  Si46  1  0.02221584  0.36382256  0.92017632  1
  Si  Si47  1  0.34148716  0.96950694  0.91839758  1
  Si  Si48  1  0.64057504  0.98077559  0.41730860  1
  Si  Si49  1  0.34178145  0.36466888  0.41620121  1
  Si  Si50  1  0.01747983  0.65655110  0.41646451  1
  S  S51  1  0.69717479  0.70215987  0.24874408  1
  S  S52  1  0.00421013  0.30145529  0.24846235  1
  S  S53  1  0.68940749  0.98838413  0.75189201  1
  O  O54  1  0.20886643  0.00999015  0.30560402  1
  O  O55  1  0.79074665  0.79194554  0.30130543  1
  O  O56  1  0.98877625  0.20326230  0.30094974  1
  O  O57  1  0.21501925  0.20613577  0.81112734  1
  O  O58  1  0.97508662  0.77648985  0.81011293  1
  O  O59  1  0.78697725  0.00620496  0.80503614  1
  O  O60  1  0.77259816  0.97247358  0.69956962  1
  O  O61  1  0.18717487  0.23413165  0.69585468  1
  O  O62  1  0.04417571  0.81440169  0.69589746  1
  O  O63  1  0.77998673  0.79760882  0.19560164  1
  O  O64  1  0.00844600  0.21359280  0.19531089  1
  O  O65  1  0.19740164  0.97940995  0.18991182  1
  O  O66  1  0.88196563  0.34567196  0.64512593  1
  O  O67  1  0.46627485  0.11516625  0.64692039  1
  O  O68  1  0.65174528  0.53853183  0.64547341  1
  O  O69  1  0.88102436  0.53204970  0.14512418  1
  O  O70  1  0.65287743  0.12037088  0.14214464  1
  O  O71  1  0.47018222  0.35191901  0.14208444  1
  O  O72  1  0.48497735  0.32354324  0.02583370  1
  O  O73  1  0.83397556  0.50921687  0.02782600  1
  O  O74  1  0.67555376  0.16049786  0.02528051  1
  O  O75  1  0.48907438  0.16096013  0.53071508  1
  O  O76  1  0.67469321  0.51767885  0.52935419  1
  O  O77  1  0.84117714  0.32713450  0.52951300  1
  O  O78  1  0.55643181  0.69216664  0.97811005  1
  O  O79  1  0.13350916  0.43571306  0.97748266  1
  O  O80  1  0.30925780  0.86531929  0.97713348  1
  O  O81  1  0.55956380  0.85846637  0.47235953  1
  O  O82  1  0.30835828  0.45291000  0.47077939  1
  O  O83  1  0.14173788  0.69865769  0.47116417  1
  O  O84  1  0.09484722  0.62179673  0.35740557  1
  O  O85  1  0.52626600  0.90180113  0.35853948  1
  O  O86  1  0.37353437  0.47171087  0.35581416  1
  O  O87  1  0.13816093  0.49640963  0.86524800  1
  O  O88  1  0.36075817  0.85806666  0.86348441  1
  O  O89  1  0.49707269  0.64145772  0.86459084  1
  O  O90  1  0.97702996  0.80541703  0.41153385  1
  O  O91  1  0.82805067  0.01969979  0.41072204  1
  O  O92  1  0.18659950  0.17800038  0.41393107  1
  O  O93  1  0.98345506  0.17887850  0.90897305  1
  O  O94  1  0.18799557  0.00049195  0.91061028  1
  O  O95  1  0.81081036  0.81577778  0.91056533  1
  O  O96  1  0.96338946  0.15785450  0.58056040  1
  O  O97  1  0.19998074  0.03974043  0.58037840  1
  O  O98  1  0.84073587  0.80839085  0.58157453  1
  O  O99  1  0.95595365  0.79807549  0.07845441  1
  O  O100  1  0.84175952  0.03783308  0.07862872  1
  O  O101  1  0.19714193  0.16142611  0.07760596  1
  O  O102  1  0.66664068  0.13226861  0.74905946  1
  O  O103  1  0.48780731  0.33417580  0.75123861  1
  O  O104  1  0.85656215  0.50672819  0.74973792  1
  O  O105  1  0.68745988  0.53954275  0.24915324  1
  O  O106  1  0.86162705  0.32790742  0.24824984  1
  O  O107  1  0.48924337  0.16263219  0.25178470  1
  O  O108  1  0.63317033  0.48648148  0.92068837  1
  O  O109  1  0.85102559  0.37143111  0.92086966  1
  O  O110  1  0.51526068  0.14891878  0.92019765  1
  O  O111  1  0.64844010  0.15942071  0.42713084  1
  O  O112  1  0.50799226  0.34860537  0.42613564  1
  O  O113  1  0.83815388  0.48772107  0.42644357  1
  O  O114  1  0.34712125  0.49164158  0.07919616  1
  O  O115  1  0.14004075  0.65026878  0.07922581  1
  O  O116  1  0.50910882  0.85756551  0.07914819  1
  O  O117  1  0.34755573  0.85621477  0.57988667  1
  O  O118  1  0.50878450  0.65525215  0.57967796  1
  O  O119  1  0.14377817  0.49102532  0.57944580  1
  O  O120  1  0.31970183  0.82707006  0.24991173  1
  O  O121  1  0.52968677  0.67948418  0.25006473  1
  O  O122  1  0.15850551  0.46253453  0.25033394  1
  O  O123  1  0.32479546  0.50121505  0.76176339  1
  O  O124  1  0.18299310  0.68847248  0.76227077  1
  O  O125  1  0.52594581  0.83527945  0.75561492  1
