# generated using pymatgen
data_Na7Zr2Si5Ge2PO24
_symmetry_space_group_name_H-M   'P 1'
_cell_length_a   9.00267252
_cell_length_b   8.98115329
_cell_length_c   22.22402615
_cell_angle_alpha   90.02440860
_cell_angle_beta   89.82942509
_cell_angle_gamma   120.06972898
_symmetry_Int_Tables_number   1
_chemical_formula_structural   Na7Zr2Si5Ge2PO24
_chemical_formula_sum   'Na21 Zr6 Si15 Ge6 P3 O72'
_cell_volume   1555.06697809
_cell_formula_units_Z   3
loop_
 _symmetry_equiv_pos_site_id
 _symmetry_equiv_pos_as_xyz
  1  'x, y, z'
loop_
 _atom_site_type_symbol
 _atom_site_label
 _atom_site_symmetry_multiplicity
 _atom_site_fract_x
 _atom_site_fract_y
 _atom_site_fract_z
 _atom_site_occupancy
  Na  Na0  1  0.63215498  0.00004591  0.25134360  1
  Na  Na1  1  0.36919725  0.36911982  0.24913668  1
  Na  Na2  1  0.00018466  0.62926507  0.25051672  1
  Na  Na3  1  0.63038266  0.62843467  0.74705682  1
  Na  Na4  1  0.99883036  0.36961909  0.74831597  1
  Na  Na5  1  0.37305798  0.00275503  0.74850990  1
  Na  Na6  1  0.29518291  0.33203366  0.58543488  1
  Na  Na7  1  0.03671288  0.70553563  0.58504799  1
  Na  Na8  1  0.66989808  0.96377237  0.58516258  1
  Na  Na9  1  0.29739155  0.97091200  0.08330260  1
  Na  Na10  1  0.03136056  0.33371420  0.08673866  1
  Na  Na11  1  0.97171846  0.66933097  0.91552190  1
  Na  Na12  1  0.32834429  0.29889140  0.91610552  1
  Na  Na13  1  0.33210254  0.03032125  0.41695180  1
  Na  Na14  1  0.69751831  0.66719664  0.41823348  1
  Na  Na15  1  0.99787980  0.00681338  0.49868293  1
  Na  Na16  1  0.98595733  0.99254633  0.99977329  1
  Na  Na17  1  0.66719760  0.32100936  0.83221520  1
  Na  Na18  1  0.67733162  0.33166214  0.33791338  1
  Na  Na19  1  0.34029421  0.66373568  0.16576151  1
  Na  Na20  1  0.33428491  0.66623144  0.66599432  1
  Zr  Zr21  1  0.66775680  0.33733987  0.18828027  1
  Zr  Zr22  1  0.66561489  0.33041287  0.98231107  1
  Zr  Zr23  1  0.32995699  0.66216493  0.01682728  1
  Zr  Zr24  1  0.33490389  0.67069771  0.51894252  1
  Zr  Zr25  1  0.32988823  0.66880736  0.31526479  1
  Zr  Zr26  1  0.33252188  0.67011428  0.81137951  1
  Si  Si27  1  0.27705610  0.99978875  0.25137251  1
  Si  Si28  1  0.72291361  0.72466734  0.25040367  1
  Si  Si29  1  0.00113263  0.27496500  0.25028477  1
  Si  Si30  1  0.28733623  0.27878319  0.74657053  1
  Si  Si31  1  0.99209925  0.71568682  0.74720513  1
  Si  Si32  1  0.72486390  0.00758984  0.74705877  1
  Si  Si33  1  0.94708904  0.32649048  0.58666006  1
  Si  Si34  1  0.38365038  0.05759962  0.58535554  1
  Si  Si35  1  0.67303942  0.61714358  0.58559975  1
  Si  Si36  1  0.96090018  0.64071306  0.08489738  1
  Si  Si37  1  0.36088353  0.32773213  0.08617649  1
  Si  Si38  1  0.03102298  0.35591968  0.91307703  1
  Si  Si39  1  0.32650735  0.96652334  0.91365029  1
  Si  Si40  1  0.64347642  0.97771772  0.41705092  1
  Si  Si41  1  0.02560553  0.66350964  0.41721339  1
  Ge  Ge42  1  0.99251505  0.99502207  0.35212512  1
  Ge  Ge43  1  0.00377000  0.00602572  0.84894034  1
  Ge  Ge44  1  0.00015065  0.00036308  0.64632618  1
  Ge  Ge45  1  0.00217985  0.99651287  0.14890888  1
  Ge  Ge46  1  0.66796491  0.33346187  0.68656883  1
  Ge  Ge47  1  0.67909195  0.33204342  0.48449096  1
  P  P48  1  0.67345796  0.03509232  0.08624447  1
  P  P49  1  0.63646936  0.67753034  0.91369668  1
  P  P50  1  0.33021220  0.36301969  0.41694826  1
  O  O51  1  0.19285697  0.03257217  0.31178191  1
  O  O52  1  0.83681850  0.79953028  0.31176946  1
  O  O53  1  0.96539435  0.15247804  0.30869168  1
  O  O54  1  0.20567821  0.16064102  0.80758045  1
  O  O55  1  0.95852559  0.79980544  0.80815403  1
  O  O56  1  0.84885920  0.04405874  0.80563048  1
  O  O57  1  0.80357995  0.96481955  0.68688826  1
  O  O58  1  0.16209966  0.19639126  0.68779435  1
  O  O59  1  0.03437206  0.83937604  0.68774742  1
  O  O60  1  0.80907490  0.84741816  0.19192961  1
  O  O61  1  0.03506423  0.19656958  0.18822948  1
  O  O62  1  0.16318929  0.96528244  0.19023076  1
  O  O63  1  0.86686292  0.37033985  0.64612704  1
  O  O64  1  0.50681805  0.13730153  0.64497159  1
  O  O65  1  0.63242812  0.49451626  0.64532396  1
  O  O66  1  0.87982933  0.51189398  0.14274501  1
  O  O67  1  0.63903115  0.11516621  0.14265572  1
  O  O68  1  0.47939002  0.35348781  0.14480081  1
  O  O69  1  0.44765859  0.29157056  0.02710805  1
  O  O70  1  0.84829175  0.54858535  0.02475814  1
  O  O71  1  0.70292985  0.15585901  0.03183512  1
  O  O72  1  0.46843509  0.17708798  0.52464757  1
  O  O73  1  0.70590903  0.53091138  0.52509439  1
  O  O74  1  0.82339023  0.28706443  0.52796944  1
  O  O75  1  0.54640390  0.69923531  0.96923489  1
  O  O76  1  0.15478895  0.44472511  0.97242161  1
  O  O77  1  0.29412626  0.84542866  0.97308873  1
  O  O78  1  0.55357957  0.84677252  0.47472497  1
  O  O79  1  0.30506787  0.45108820  0.47309872  1
  O  O80  1  0.15481621  0.70401922  0.47460265  1
  O  O81  1  0.11294770  0.63169429  0.35752249  1
  O  O82  1  0.51464699  0.88716942  0.35899944  1
  O  O83  1  0.36308161  0.48105509  0.36124844  1
  O  O84  1  0.12468363  0.48412619  0.85589548  1
  O  O85  1  0.35937999  0.87787214  0.85513452  1
  O  O86  1  0.52158017  0.64083122  0.85766595  1
  O  O87  1  0.01787240  0.84328349  0.41054383  1
  O  O88  1  0.82684561  0.98188081  0.40953132  1
  O  O89  1  0.17068226  0.18224411  0.41127614  1
  O  O90  1  0.02487621  0.17177255  0.90669315  1
  O  O91  1  0.14630742  0.97124061  0.90730141  1
  O  O92  1  0.81720498  0.83579035  0.90821715  1
  O  O93  1  0.96907150  0.15436113  0.59023967  1
  O  O94  1  0.18837991  0.03332456  0.58942561  1
  O  O95  1  0.84601753  0.81184284  0.58925795  1
  O  O96  1  0.98090822  0.83060196  0.09140185  1
  O  O97  1  0.83952423  0.02718564  0.09059620  1
  O  O98  1  0.17043098  0.15287835  0.09076899  1
  O  O99  1  0.70049721  0.17883758  0.74345231  1
  O  O100  1  0.48104303  0.29968177  0.74287679  1
  O  O101  1  0.81979821  0.52042540  0.74392064  1
  O  O102  1  0.69982265  0.53126453  0.24744357  1
  O  O103  1  0.83164416  0.29844564  0.24740877  1
  O  O104  1  0.47164799  0.16686716  0.24908612  1
  O  O105  1  0.65087208  0.51296387  0.92049840  1
  O  O106  1  0.85026652  0.35323905  0.92002503  1
  O  O107  1  0.48997855  0.16021018  0.91890838  1
  O  O108  1  0.64144608  0.15859042  0.42616924  1
  O  O109  1  0.49577804  0.35135690  0.42224638  1
  O  O110  1  0.83300202  0.49481143  0.42576978  1
  O  O111  1  0.33795611  0.49569409  0.08109105  1
  O  O112  1  0.15254339  0.65984293  0.07926752  1
  O  O113  1  0.50920105  0.86064791  0.07808490  1
  O  O114  1  0.36142439  0.86374538  0.58012803  1
  O  O115  1  0.50180884  0.63831385  0.58030909  1
  O  O116  1  0.13951940  0.49651879  0.58024335  1
  O  O117  1  0.29978340  0.82906982  0.25361958  1
  O  O118  1  0.52899029  0.69770504  0.25440930  1
  O  O119  1  0.17167081  0.46817900  0.25404159  1
  O  O120  1  0.31202409  0.47268554  0.75116881  1
  O  O121  1  0.16305770  0.69294879  0.75083753  1
  O  O122  1  0.53216574  0.83645243  0.75141980  1
