# generated using pymatgen
data_MgHg4(MoO4)2
_symmetry_space_group_name_H-M   'P 1'
_cell_length_a   5.37303044
_cell_length_b   7.38193097
_cell_length_c   7.46956014
_cell_angle_alpha   105.80092740
_cell_angle_beta   105.37434870
_cell_angle_gamma   104.44705401
_symmetry_Int_Tables_number   1
_chemical_formula_structural   MgHg4(MoO4)2
_chemical_formula_sum   'Mg1 Hg4 Mo2 O8'
_cell_volume   257.82087847
_cell_formula_units_Z   1
loop_
 _symmetry_equiv_pos_site_id
 _symmetry_equiv_pos_as_xyz
  1  'x, y, z'
loop_
 _atom_site_type_symbol
 _atom_site_label
 _atom_site_symmetry_multiplicity
 _atom_site_fract_x
 _atom_site_fract_y
 _atom_site_fract_z
 _atom_site_occupancy
  Mg  Mg0  1  0.25660300  0.82591900  0.17460300  1
  Hg  Hg1  1  0.53287800  0.25910300  0.46675700  1
  Hg  Hg2  1  0.96661700  0.53175300  0.74601700  1
  Hg  Hg3  1  0.48435900  0.73798600  0.54324400  1
  Hg  Hg4  1  0.00116800  0.46348200  0.25992600  1
  Mo  Mo5  1  0.24708500  0.09586100  0.90241700  1
  Mo  Mo6  1  0.75289200  0.91814300  0.08393000  1
  O  O7  1  0.65224600  0.93286100  0.32160900  1
  O  O8  1  0.27600000  0.04285800  0.66558600  1
  O  O9  1  0.85642800  0.92475500  0.82285400  1
  O  O10  1  0.32273300  0.80702300  0.91802900  1
  O  O11  1  0.21633800  0.33592300  0.95896000  1
  O  O12  1  0.64190100  0.17801300  0.07300200  1
  O  O13  1  0.18149900  0.08261200  0.19357500  1
  O  O14  1  0.86125200  0.67620800  0.06591800  1
