# generated using pymatgen
data_Na3Mg3GePS5O24
_symmetry_space_group_name_H-M   'P 1'
_cell_length_a   8.65306799
_cell_length_b   8.63043181
_cell_length_c   22.30409991
_cell_angle_alpha   90.37238928
_cell_angle_beta   89.77621509
_cell_angle_gamma   120.37621746
_symmetry_Int_Tables_number   1
_chemical_formula_structural   Na3Mg3GePS5O24
_chemical_formula_sum   'Na9 Mg9 Ge3 P3 S15 O72'
_cell_volume   1436.97680445
_cell_formula_units_Z   3
loop_
 _symmetry_equiv_pos_site_id
 _symmetry_equiv_pos_as_xyz
  1  'x, y, z'
loop_
 _atom_site_type_symbol
 _atom_site_label
 _atom_site_symmetry_multiplicity
 _atom_site_fract_x
 _atom_site_fract_y
 _atom_site_fract_z
 _atom_site_occupancy
  Na  Na0  1  0.36199541  0.36217368  0.25157232  1
  Na  Na1  1  0.02712754  0.69819416  0.58455164  1
  Na  Na2  1  0.29978949  0.96599493  0.08008577  1
  Na  Na3  1  0.99236441  0.00185874  0.50016955  1
  Na  Na4  1  0.99804676  0.00716961  0.99295060  1
  Na  Na5  1  0.66605250  0.32979993  0.83066617  1
  Na  Na6  1  0.67649036  0.33218951  0.33420518  1
  Na  Na7  1  0.33287763  0.66609709  0.16790054  1
  Na  Na8  1  0.35030804  0.66387089  0.66701211  1
  Mg  Mg9  1  0.99639018  0.99761015  0.35258760  1
  Mg  Mg10  1  0.00504847  0.00540079  0.85291070  1
  Mg  Mg11  1  0.99136197  0.00019317  0.65012831  1
  Mg  Mg12  1  0.99142576  0.99799007  0.14921985  1
  Mg  Mg13  1  0.66223100  0.33556257  0.68729001  1
  Mg  Mg14  1  0.67487000  0.33514334  0.18599072  1
  Mg  Mg15  1  0.33132099  0.66187174  0.01567727  1
  Mg  Mg16  1  0.34374143  0.66603846  0.51804573  1
  Mg  Mg17  1  0.33381539  0.67455076  0.31850351  1
  Ge  Ge18  1  0.67282169  0.32816613  0.97505062  1
  Ge  Ge19  1  0.66757357  0.33908523  0.48476041  1
  Ge  Ge20  1  0.32332572  0.66915168  0.81887373  1
  P  P21  1  0.66313453  0.62251482  0.58435255  1
  P  P22  1  0.04324911  0.37566794  0.91806775  1
  P  P23  1  0.33230452  0.95767841  0.91960597  1
  S  S24  1  0.29203886  0.99675947  0.24889353  1
  S  S25  1  0.70650823  0.70758931  0.25030400  1
  S  S26  1  0.99895199  0.29281978  0.25069462  1
  S  S27  1  0.29314190  0.29895808  0.75214499  1
  S  S28  1  0.00433943  0.70648284  0.75143701  1
  S  S29  1  0.70042461  0.99477292  0.75268524  1
  S  S30  1  0.95368206  0.33041808  0.58256916  1
  S  S31  1  0.37884193  0.04564692  0.58291437  1
  S  S32  1  0.95365492  0.61989759  0.08214731  1
  S  S33  1  0.66935670  0.04490428  0.08231541  1
  S  S34  1  0.38071150  0.33759862  0.08315783  1
  S  S35  1  0.62334546  0.66398547  0.91756634  1
  S  S36  1  0.62846469  0.96819246  0.41888567  1
  S  S37  1  0.33662911  0.37003544  0.41732318  1
  S  S38  1  0.03531915  0.66275878  0.41933329  1
  O  O39  1  0.20829898  0.02987564  0.30135684  1
  O  O40  1  0.81462538  0.78898313  0.30391763  1
  O  O41  1  0.97357166  0.18433787  0.30411855  1
  O  O42  1  0.21001400  0.19123177  0.80521291  1
  O  O43  1  0.98035026  0.79287225  0.80398381  1
  O  O44  1  0.80840146  0.01981207  0.80565970  1
  O  O45  1  0.77330312  0.96091587  0.69752165  1
  O  O46  1  0.18614001  0.22388313  0.69714431  1
  O  O47  1  0.03813908  0.81045599  0.69539650  1
  O  O48  1  0.78578735  0.81297388  0.19580609  1
  O  O49  1  0.03305674  0.21411726  0.19633202  1
  O  O50  1  0.18871001  0.97195840  0.19287613  1
  O  O51  1  0.87208551  0.36221040  0.63502962  1
  O  O52  1  0.49034742  0.12594592  0.63534715  1
  O  O53  1  0.63925089  0.50644651  0.63750073  1
  O  O54  1  0.87068806  0.51222931  0.13528245  1
  O  O55  1  0.63514882  0.12627740  0.13494485  1
  O  O56  1  0.48415890  0.36026230  0.13813764  1
  O  O57  1  0.46426507  0.29866536  0.02880040  1
  O  O58  1  0.83982620  0.53773298  0.02649689  1
  O  O59  1  0.69989930  0.15796333  0.02666287  1
  O  O60  1  0.45991138  0.15737073  0.52603883  1
  O  O61  1  0.70965468  0.53875466  0.52514189  1
  O  O62  1  0.83891296  0.29460451  0.52588589  1
  O  O63  1  0.54464202  0.69016873  0.97164489  1
  O  O64  1  0.15097778  0.45845467  0.97352895  1
  O  O65  1  0.31370825  0.85777010  0.97711130  1
  O  O66  1  0.54509899  0.86038638  0.47193998  1
  O  O67  1  0.31111695  0.45566455  0.46986932  1
  O  O68  1  0.13904415  0.68686891  0.47407694  1
  O  O69  1  0.11380069  0.63076923  0.36553464  1
  O  O70  1  0.52104815  0.89384952  0.36417534  1
  O  O71  1  0.37015029  0.47596217  0.36174848  1
  O  O72  1  0.12358557  0.49855969  0.86009118  1
  O  O73  1  0.37697904  0.87570789  0.86233701  1
  O  O74  1  0.50797940  0.62450601  0.86254570  1
  O  O75  1  0.01185090  0.81910803  0.41246426  1
  O  O76  1  0.80859427  0.99221816  0.41209632  1
  O  O77  1  0.17924221  0.18903262  0.41108792  1
  O  O78  1  0.01122571  0.18897832  0.90859745  1
  O  O79  1  0.17226481  0.97933013  0.90960588  1
  O  O80  1  0.80130973  0.81923466  0.90912664  1
  O  O81  1  0.97415828  0.17297003  0.58703468  1
  O  O82  1  0.20022451  0.02853930  0.58729341  1
  O  O83  1  0.83954563  0.80699329  0.58636734  1
  O  O84  1  0.97569509  0.80224112  0.08641665  1
  O  O85  1  0.82908081  0.02860688  0.08734914  1
  O  O86  1  0.20112559  0.17094976  0.08708459  1
  O  O87  1  0.67667666  0.15134986  0.74555619  1
  O  O88  1  0.47336869  0.32222564  0.74615085  1
  O  O89  1  0.84928121  0.52402311  0.74573449  1
  O  O90  1  0.68149703  0.52327790  0.24448481  1
  O  O91  1  0.84051868  0.31230574  0.24414495  1
  O  O92  1  0.47216793  0.16342089  0.24357553  1
  O  O93  1  0.63867838  0.49520599  0.92298892  1
  O  O94  1  0.85195757  0.36425396  0.92264959  1
  O  O95  1  0.50966772  0.15298544  0.92362558  1
  O  O96  1  0.64457481  0.15416761  0.42561562  1
  O  O97  1  0.50491497  0.35413772  0.42397601  1
  O  O98  1  0.85011024  0.49061401  0.42402899  1
  O  O99  1  0.36402183  0.49683487  0.07652979  1
  O  O100  1  0.13511486  0.64300456  0.07717794  1
  O  O101  1  0.50550600  0.86568356  0.07597100  1
  O  O102  1  0.35274483  0.86372630  0.57455316  1
  O  O103  1  0.49937413  0.64009656  0.57555658  1
  O  O104  1  0.12889938  0.49691530  0.57392207  1
  O  O105  1  0.31140262  0.83806007  0.25565357  1
  O  O106  1  0.52276974  0.68278599  0.25614416  1
  O  O107  1  0.16490845  0.47373211  0.25674552  1
  O  O108  1  0.31123264  0.48602965  0.75895119  1
  O  O109  1  0.17521822  0.69269502  0.75758510  1
  O  O110  1  0.51395431  0.82288949  0.75907045  1
