# generated using pymatgen
data_MgV4(OF2)4
_symmetry_space_group_name_H-M   'P 1'
_cell_length_a   5.17671838
_cell_length_b   9.45415036
_cell_length_c   5.25208112
_cell_angle_alpha   103.25636456
_cell_angle_beta   117.90237743
_cell_angle_gamma   77.26869030
_symmetry_Int_Tables_number   1
_chemical_formula_structural   MgV4(OF2)4
_chemical_formula_sum   'Mg1 V4 O4 F8'
_cell_volume   219.19064804
_cell_formula_units_Z   1
loop_
 _symmetry_equiv_pos_site_id
 _symmetry_equiv_pos_as_xyz
  1  'x, y, z'
loop_
 _atom_site_type_symbol
 _atom_site_label
 _atom_site_symmetry_multiplicity
 _atom_site_fract_x
 _atom_site_fract_y
 _atom_site_fract_z
 _atom_site_occupancy
  Mg  Mg0  1  0.56931100  0.19714500  0.37539800  1
  V  V1  1  0.01058900  0.98562500  0.98210800  1
  V  V2  1  0.75415800  0.74938200  0.23522300  1
  V  V3  1  0.48168600  0.51685400  0.55382800  1
  V  V4  1  0.24276100  0.24861300  0.74805600  1
  O  O5  1  0.81787800  0.87535000  0.04293600  1
  O  O6  1  0.31087800  0.35471000  0.52811900  1
  O  O7  1  0.23695800  0.11862600  0.99941200  1
  O  O8  1  0.52377700  0.62405300  0.86882900  1
  F  F9  1  0.12284200  0.61392100  0.27215500  1
  F  F10  1  0.96675400  0.12592400  0.37071500  1
  F  F11  1  0.39622600  0.87870600  0.23762000  1
  F  F12  1  0.49516200  0.35743400  0.13833400  1
  F  F13  1  0.71345100  0.61976600  0.45891100  1
  F  F14  1  0.62775100  0.11027500  0.72418800  1
  F  F15  1  0.00277500  0.86719400  0.62573100  1
  F  F16  1  0.85204000  0.36356500  0.70094100  1
