# generated using pymatgen
data_MgCr2(CoO4)2
_symmetry_space_group_name_H-M   'P 1'
_cell_length_a   5.15358312
_cell_length_b   5.15825571
_cell_length_c   6.35733405
_cell_angle_alpha   89.99053697
_cell_angle_beta   89.99883343
_cell_angle_gamma   112.91244830
_symmetry_Int_Tables_number   1
_chemical_formula_structural   MgCr2(CoO4)2
_chemical_formula_sum   'Mg1 Cr2 Co2 O8'
_cell_volume   155.66621161
_cell_formula_units_Z   1
loop_
 _symmetry_equiv_pos_site_id
 _symmetry_equiv_pos_as_xyz
  1  'x, y, z'
loop_
 _atom_site_type_symbol
 _atom_site_label
 _atom_site_symmetry_multiplicity
 _atom_site_fract_x
 _atom_site_fract_y
 _atom_site_fract_z
 _atom_site_occupancy
  Mg  Mg0  1  0.66250200  0.33702300  0.75041100  1
  Cr  Cr1  1  0.34071800  0.65831700  0.74955300  1
  Cr  Cr2  1  0.63941500  0.36211300  0.25032300  1
  Co  Co3  1  0.99882400  0.00025900  0.00518800  1
  Co  Co4  1  0.99867900  0.99974200  0.49513200  1
  O  O5  1  0.23658500  0.76166300  0.53043900  1
  O  O6  1  0.76301600  0.23772500  0.02863400  1
  O  O7  1  0.78893000  0.72457400  0.25005900  1
  O  O8  1  0.27787800  0.21447800  0.25004500  1
  O  O9  1  0.24477100  0.27454400  0.75007300  1
  O  O10  1  0.72424900  0.75416300  0.74990500  1
  O  O11  1  0.23636900  0.76254800  0.96811200  1
  O  O12  1  0.76306400  0.23785100  0.47212800  1
