# generated using pymatgen
data_Na2La2Al2SiS5O24
_symmetry_space_group_name_H-M   'P 1'
_cell_length_a   8.84444908
_cell_length_b   8.71228878
_cell_length_c   23.86499469
_cell_angle_alpha   89.27191309
_cell_angle_beta   90.31601212
_cell_angle_gamma   119.36081939
_symmetry_Int_Tables_number   1
_chemical_formula_structural   Na2La2Al2SiS5O24
_chemical_formula_sum   'Na6 La6 Al6 Si3 S15 O72'
_cell_volume   1602.58523637
_cell_formula_units_Z   3
loop_
 _symmetry_equiv_pos_site_id
 _symmetry_equiv_pos_as_xyz
  1  'x, y, z'
loop_
 _atom_site_type_symbol
 _atom_site_label
 _atom_site_symmetry_multiplicity
 _atom_site_fract_x
 _atom_site_fract_y
 _atom_site_fract_z
 _atom_site_occupancy
  Na  Na0  1  0.99607435  0.99507303  0.49402801  1
  Na  Na1  1  0.99969928  0.99923541  0.00318153  1
  Na  Na2  1  0.66774108  0.32505584  0.84856662  1
  Na  Na3  1  0.61768951  0.30067815  0.30865678  1
  Na  Na4  1  0.32867212  0.67989526  0.17261747  1
  Na  Na5  1  0.38493475  0.70144171  0.67777084  1
  La  La6  1  0.01870192  0.99406148  0.32952796  1
  La  La7  1  0.96348957  0.97690365  0.64526087  1
  La  La8  1  0.67471198  0.32896005  0.69507156  1
  La  La9  1  0.65030274  0.34018560  0.47175590  1
  La  La10  1  0.36773041  0.67330293  0.52369097  1
  La  La11  1  0.35077594  0.67633941  0.83058811  1
  Al  Al12  1  0.99429240  0.99657529  0.84012865  1
  Al  Al13  1  0.00861488  0.97820098  0.15752723  1
  Al  Al14  1  0.65809153  0.31897264  0.17416768  1
  Al  Al15  1  0.67050202  0.33294769  0.99496156  1
  Al  Al16  1  0.33542085  0.66290850  0.02076012  1
  Al  Al17  1  0.33348745  0.70586006  0.31448964  1
  Si  Si18  1  0.32012979  0.00636514  0.24213441  1
  Si  Si19  1  0.70286952  0.00351877  0.76403749  1
  Si  Si20  1  0.66994444  0.63447949  0.58527897  1
  S  S21  1  0.70053683  0.68026313  0.23305199  1
  S  S22  1  0.98701579  0.28802142  0.23127454  1
  S  S23  1  0.28350929  0.28228599  0.76349620  1
  S  S24  1  0.99174046  0.70457336  0.76957874  1
  S  S25  1  0.96960905  0.33838521  0.57807217  1
  S  S26  1  0.35820853  0.03162731  0.58225043  1
  S  S27  1  0.95834642  0.61998333  0.08380568  1
  S  S28  1  0.66028282  0.03488111  0.08182592  1
  S  S29  1  0.38195127  0.34139001  0.08318521  1
  S  S30  1  0.63356104  0.65151500  0.93446653  1
  S  S31  1  0.02570999  0.37398900  0.93436102  1
  S  S32  1  0.34910260  0.97866234  0.93559016  1
  S  S33  1  0.63014962  0.96744205  0.39919379  1
  S  S34  1  0.33728942  0.40282772  0.39167389  1
  S  S35  1  0.04348777  0.66164931  0.40608664  1
  O  O36  1  0.27979540  0.07069907  0.30158634  1
  O  O37  1  0.79476354  0.73309160  0.28710070  1
  O  O38  1  0.93985830  0.19359494  0.28616709  1
  O  O39  1  0.18085563  0.19228924  0.81757550  1
  O  O40  1  0.02973491  0.81821029  0.82248836  1
  O  O41  1  0.80084648  0.97007705  0.81866746  1
  O  O42  1  0.79193217  0.00647388  0.70454937  1
  O  O43  1  0.20138719  0.17740541  0.71394747  1
  O  O44  1  0.01454901  0.81028494  0.71913035  1
  O  O45  1  0.79847113  0.81804718  0.18836620  1
  O  O46  1  0.01366643  0.17681628  0.18838984  1
  O  O47  1  0.16103025  0.95599005  0.19725953  1
  O  O48  1  0.86099587  0.28810613  0.62918827  1
  O  O49  1  0.45057159  0.13978730  0.63132679  1
  O  O50  1  0.72560848  0.56750718  0.64188076  1
  O  O51  1  0.86964726  0.49886061  0.13119919  1
  O  O52  1  0.62195208  0.11785885  0.12961852  1
  O  O53  1  0.49871237  0.38018067  0.13229457  1
  O  O54  1  0.46568412  0.30770385  0.03425807  1
  O  O55  1  0.85002495  0.54561282  0.03256841  1
  O  O56  1  0.69540739  0.15298285  0.03165874  1
  O  O57  1  0.46843674  0.08970777  0.53047442  1
  O  O58  1  0.61347809  0.51020429  0.52878661  1
  O  O59  1  0.87387834  0.35105225  0.52815345  1
  O  O60  1  0.51998096  0.67424536  0.97652013  1
  O  O61  1  0.15090442  0.47513091  0.98089743  1
  O  O62  1  0.32488837  0.84439535  0.98018210  1
  O  O63  1  0.54097909  0.88988818  0.45252186  1
  O  O64  1  0.35285605  0.49746882  0.44366967  1
  O  O65  1  0.13240619  0.64786710  0.45589371  1
  O  O66  1  0.14902221  0.69092936  0.35312776  1
  O  O67  1  0.53407561  0.84931986  0.35070089  1
  O  O68  1  0.32044246  0.49860076  0.34060691  1
  O  O69  1  0.08382908  0.47376054  0.88126285  1
  O  O70  1  0.38881197  0.92705321  0.88129113  1
  O  O71  1  0.54906479  0.61214439  0.87893827  1
  O  O72  1  0.01647738  0.81717670  0.41150642  1
  O  O73  1  0.80529704  0.98675136  0.40119601  1
  O  O74  1  0.17908175  0.22843317  0.39619162  1
  O  O75  1  0.01251694  0.19924222  0.93016371  1
  O  O76  1  0.19039748  0.99300098  0.93247412  1
  O  O77  1  0.80484844  0.81034440  0.93320481  1
  O  O78  1  0.01989904  0.20268933  0.56656545  1
  O  O79  1  0.20007867  0.04258666  0.57065985  1
  O  O80  1  0.82836695  0.82781183  0.56652801  1
  O  O81  1  0.97906615  0.80067371  0.09357612  1
  O  O82  1  0.81328372  0.01224974  0.09097475  1
  O  O83  1  0.20718758  0.18702202  0.09234923  1
  O  O84  1  0.69754200  0.18514252  0.77325708  1
  O  O85  1  0.45877246  0.30735254  0.77254822  1
  O  O86  1  0.81456035  0.55576903  0.77522975  1
  O  O87  1  0.69679133  0.51301528  0.21888183  1
  O  O88  1  0.83728778  0.31002116  0.21525461  1
  O  O89  1  0.50256718  0.16698583  0.22102685  1
  O  O90  1  0.64827660  0.49193987  0.94792146  1
  O  O91  1  0.85095280  0.35559781  0.94594788  1
  O  O92  1  0.50465578  0.15200808  0.94786796  1
  O  O93  1  0.63563039  0.13817639  0.38951068  1
  O  O94  1  0.49429242  0.38403031  0.38483541  1
  O  O95  1  0.87494419  0.50089445  0.39702332  1
  O  O96  1  0.36251937  0.50270003  0.07260726  1
  O  O97  1  0.13545278  0.63931891  0.07642631  1
  O  O98  1  0.50107956  0.85766963  0.07319497  1
  O  O99  1  0.31373201  0.84684862  0.59489138  1
  O  O100  1  0.49972565  0.65642166  0.59993661  1
  O  O101  1  0.12661915  0.50967329  0.58760372  1
  O  O102  1  0.33138090  0.82472660  0.25536776  1
  O  O103  1  0.52720244  0.66007968  0.23711955  1
  O  O104  1  0.14564390  0.45813385  0.23523262  1
  O  O105  1  0.28746287  0.45347451  0.75890985  1
  O  O106  1  0.11950393  0.64282250  0.76890626  1
  O  O107  1  0.50397668  0.83740962  0.76074457  1
