# generated using pymatgen
data_Na2MgGeP2SO12
_symmetry_space_group_name_H-M   'P 1'
_cell_length_a   8.67885856
_cell_length_b   8.66782968
_cell_length_c   21.76282886
_cell_angle_alpha   90.88288799
_cell_angle_beta   90.00000000
_cell_angle_gamma   120.04209932
_symmetry_Int_Tables_number   1
_chemical_formula_structural   Na2MgGeP2SO12
_chemical_formula_sum   'Na12 Mg6 Ge6 P12 S6 O72'
_cell_volume   1416.98663371
_cell_formula_units_Z   6
loop_
 _symmetry_equiv_pos_site_id
 _symmetry_equiv_pos_as_xyz
  1  'x, y, z'
loop_
 _atom_site_type_symbol
 _atom_site_label
 _atom_site_symmetry_multiplicity
 _atom_site_fract_x
 _atom_site_fract_y
 _atom_site_fract_z
 _atom_site_occupancy
  Na  Na0  1  0.99249957  0.63733055  0.24390335  1
  Na  Na1  1  0.64483098  0.63733055  0.74390335  1
  Na  Na2  1  0.65916657  0.97066355  0.57723635  1
  Na  Na3  1  0.31149798  0.97066355  0.07723635  1
  Na  Na4  1  0.32583257  0.30399755  0.91057035  1
  Na  Na5  1  0.97816398  0.30399755  0.41057035  1
  Na  Na6  1  0.00441529  0.97398704  0.49677099  1
  Na  Na7  1  0.96957175  0.97398704  0.99677099  1
  Na  Na8  1  0.67108229  0.30732004  0.83010399  1
  Na  Na9  1  0.63623875  0.30732004  0.33010399  1
  Na  Na10  1  0.33774829  0.64065404  0.16343799  1
  Na  Na11  1  0.30290475  0.64065404  0.66343799  1
  Mg  Mg12  1  0.99909320  0.99734290  0.35466804  1
  Mg  Mg13  1  0.99824970  0.99734290  0.85466804  1
  Mg  Mg14  1  0.66576020  0.33067590  0.68800104  1
  Mg  Mg15  1  0.66491670  0.33067590  0.18800104  1
  Mg  Mg16  1  0.33242620  0.66400990  0.02133504  1
  Mg  Mg17  1  0.33158270  0.66400990  0.52133504  1
  Ge  Ge18  1  0.99271998  0.00713374  0.64872224  1
  Ge  Ge19  1  0.01441377  0.00713374  0.14872224  1
  Ge  Ge20  1  0.65938698  0.34046674  0.98205524  1
  Ge  Ge21  1  0.68108077  0.34046674  0.48205524  1
  Ge  Ge22  1  0.32605298  0.67380074  0.31538924  1
  Ge  Ge23  1  0.34774677  0.67380074  0.81538924  1
  P  P24  1  0.29254804  -0.00423238  0.25169016  1
  P  P25  1  0.01258580  0.29521237  0.25420572  1
  P  P26  1  0.28262657  0.29521237  0.75420572  1
  P  P27  1  0.70321957  -0.00423238  0.75169016  1
  P  P28  1  0.95921504  0.32910062  0.58502316  1
  P  P29  1  0.67925280  0.62854537  0.58753872  1
  P  P30  1  0.94929357  0.62854537  0.08753872  1
  P  P31  1  0.36988657  0.32910062  0.08502316  1
  P  P32  1  0.62588104  0.66243462  0.91835716  1
  P  P33  1  0.34591880  0.96187937  0.92087272  1
  P  P34  1  0.61595957  0.96187937  0.42087272  1
  P  P35  1  0.03655257  0.66243462  0.41835716  1
  S  S36  1  0.70019526  0.71859665  0.24992605  1
  S  S37  1  0.01840139  0.71859665  0.74992605  1
  S  S38  1  0.36686226  0.05192965  0.58325905  1
  S  S39  1  0.68506839  0.05192965  0.08325905  1
  S  S40  1  0.03352826  0.38526365  0.91659305  1
  S  S41  1  0.35173439  0.38526365  0.41659305  1
  O  O42  1  0.19505625  0.00850087  0.30618954  1
  O  O43  1  0.80658210  0.80302996  0.30459194  1
  O  O44  1  0.99209928  0.19693739  0.31268632  1
  O  O45  1  0.20483811  0.19693739  0.81268632  1
  O  O46  1  0.99644785  0.80302996  0.80459194  1
  O  O47  1  0.81344462  0.00850087  0.80618954  1
  O  O48  1  0.77958043  0.95228728  0.68981199  1
  O  O49  1  0.15996503  0.19934143  0.69551111  1
  O  O50  1  0.04156929  0.82444362  0.69247192  1
  O  O51  1  0.78287433  0.82444362  0.19247192  1
  O  O52  1  0.03937641  0.19934143  0.19551111  1
  O  O53  1  0.17270685  0.95228728  0.18981199  1
  O  O54  1  0.86172325  0.34183387  0.63952254  1
  O  O55  1  0.47324910  0.13636296  0.63792494  1
  O  O56  1  0.65876628  0.53027039  0.64601932  1
  O  O57  1  0.87150511  0.53027039  0.14601932  1
  O  O58  1  0.66311485  0.13636296  0.13792494  1
  O  O59  1  0.48011162  0.34183387  0.13952254  1
  O  O60  1  0.44624743  0.28562028  0.02314499  1
  O  O61  1  0.82663203  0.53267443  0.02884411  1
  O  O62  1  0.70823629  0.15777662  0.02580492  1
  O  O63  1  0.44954133  0.15777662  0.52580492  1
  O  O64  1  0.70604341  0.53267443  0.52884411  1
  O  O65  1  0.83937385  0.28562028  0.52314499  1
  O  O66  1  0.52838925  0.67516787  0.97285654  1
  O  O67  1  0.13991510  0.46969696  0.97125894  1
  O  O68  1  0.32543228  0.86360439  0.97935332  1
  O  O69  1  0.53817111  0.86360439  0.47935332  1
  O  O70  1  0.32978085  0.46969696  0.47125894  1
  O  O71  1  0.14677762  0.67516787  0.47285654  1
  O  O72  1  0.11291343  0.61895428  0.35647899  1
  O  O73  1  0.49329803  0.86600843  0.36217811  1
  O  O74  1  0.37490229  0.49111062  0.35913892  1
  O  O75  1  0.11620733  0.49111062  0.85913892  1
  O  O76  1  0.37270941  0.86600843  0.86217811  1
  O  O77  1  0.50603985  0.61895428  0.85647899  1
  O  O78  1  0.00568329  0.81684498  0.41080628  1
  O  O79  1  0.80591237  -0.00178798  0.41229085  1
  O  O80  1  0.19400824  0.20562342  0.41126733  1
  O  O81  1  0.01161518  0.20562342  0.91126733  1
  O  O82  1  0.19229965  -0.00178798  0.91229085  1
  O  O83  1  0.81116169  0.81684498  0.91080628  1
  O  O84  1  0.96448472  0.14700837  0.58803928  1
  O  O85  1  0.18848474  0.03899429  0.58682037  1
  O  O86  1  0.85880518  0.81810548  0.58962651  1
  O  O87  1  0.95930030  0.81810548  0.08962651  1
  O  O88  1  0.85050955  0.03899429  0.08682037  1
  O  O89  1  0.18252365  0.14700837  0.08803928  1
  O  O90  1  0.67235029  0.15017798  0.74413928  1
  O  O91  1  0.47257937  0.33154502  0.74562385  1
  O  O92  1  0.86067524  0.53895642  0.74460033  1
  O  O93  1  0.67828218  0.53895642  0.24460033  1
  O  O94  1  0.85896665  0.33154502  0.24562385  1
  O  O95  1  0.47782869  0.15017798  0.24413928  1
  O  O96  1  0.63115172  0.48034137  0.92137228  1
  O  O97  1  0.85515174  0.37232729  0.92015337  1
  O  O98  1  0.52547218  0.15143848  0.92295951  1
  O  O99  1  0.62596730  0.15143848  0.42295951  1
  O  O100  1  0.51717655  0.37232729  0.42015337  1
  O  O101  1  0.84919065  0.48034137  0.42137228  1
  O  O102  1  0.33901629  0.48351198  0.07747328  1
  O  O103  1  0.13924537  0.66487902  0.07895785  1
  O  O104  1  0.52734124  0.87229042  0.07793433  1
  O  O105  1  0.34494818  0.87229042  0.57793433  1
  O  O106  1  0.52563265  0.66487902  0.57895785  1
  O  O107  1  0.14449469  0.48351198  0.57747328  1
  O  O108  1  0.29781772  0.81367537  0.25470628  1
  O  O109  1  0.52181774  0.70566129  0.25348737  1
  O  O110  1  0.19213818  0.48477248  0.25629351  1
  O  O111  1  0.29263330  0.48477248  0.75629351  1
  O  O112  1  0.18384255  0.70566129  0.75348737  1
  O  O113  1  0.51585665  0.81367537  0.75470628  1
