# generated using pymatgen
data_Na4Al2Si3Sn2(SO8)3
_symmetry_space_group_name_H-M   'P 1'
_cell_length_a   8.79483968
_cell_length_b   8.83599555
_cell_length_c   22.34641845
_cell_angle_alpha   90.01864378
_cell_angle_beta   87.67891236
_cell_angle_gamma   119.94946791
_symmetry_Int_Tables_number   1
_chemical_formula_structural   Na4Al2Si3Sn2(SO8)3
_chemical_formula_sum   'Na12 Al6 Si9 Sn6 S9 O72'
_cell_volume   1503.04418194
_cell_formula_units_Z   3
loop_
 _symmetry_equiv_pos_site_id
 _symmetry_equiv_pos_as_xyz
  1  'x, y, z'
loop_
 _atom_site_type_symbol
 _atom_site_label
 _atom_site_symmetry_multiplicity
 _atom_site_fract_x
 _atom_site_fract_y
 _atom_site_fract_z
 _atom_site_occupancy
  Na  Na0  1  0.00521495  0.64899451  0.25350527  1
  Na  Na1  1  0.00232431  0.35999816  0.73780156  1
  Na  Na2  1  0.66808464  0.97617089  0.58833637  1
  Na  Na3  1  0.67222854  0.69768808  0.08241295  1
  Na  Na4  1  0.33982182  0.30606776  0.90156290  1
  Na  Na5  1  0.32633306  0.02815585  0.42200259  1
  Na  Na6  1  0.00859842  0.00531364  0.50224378  1
  Na  Na7  1  0.98621331  0.97666491  0.99446075  1
  Na  Na8  1  0.65549439  0.33080207  0.82192730  1
  Na  Na9  1  0.66325539  0.34370629  0.33254556  1
  Na  Na10  1  0.33553389  0.68172509  0.16892721  1
  Na  Na11  1  0.33394869  0.66379522  0.66130297  1
  Al  Al12  1  0.99733061  0.96550443  0.34907266  1
  Al  Al13  1  0.97577264  0.98956889  0.84317245  1
  Al  Al14  1  0.64369562  0.29232901  0.68543797  1
  Al  Al15  1  0.68188980  0.34786629  0.19416491  1
  Al  Al16  1  0.33124942  0.67170387  0.01753314  1
  Al  Al17  1  0.29171361  0.66913846  0.52416268  1
  Si  Si18  1  0.30700535  0.01533203  0.25145609  1
  Si  Si19  1  0.70436386  0.70319542  0.25065795  1
  Si  Si20  1  0.29470882  0.27986165  0.75423711  1
  Si  Si21  1  0.71081406  0.00617823  0.74896620  1
  Si  Si22  1  0.95712102  0.34010757  0.58707225  1
  Si  Si23  1  0.37434043  0.03644379  0.58171515  1
  Si  Si24  1  0.97007490  0.62198522  0.08571297  1
  Si  Si25  1  0.63304689  0.68005736  0.92043572  1
  Si  Si26  1  0.03487401  0.66686113  0.41731141  1
  Sn  Sn27  1  0.01236937  0.01432190  0.64729832  1
  Sn  Sn28  1  0.00146413  0.98387199  0.15282509  1
  Sn  Sn29  1  0.67580597  0.34845087  0.98364364  1
  Sn  Sn30  1  0.67447260  0.33947181  0.48628475  1
  Sn  Sn31  1  0.33440083  0.67066147  0.31580659  1
  Sn  Sn32  1  0.35501061  0.67026396  0.81173705  1
  S  S33  1  0.99512177  0.28049469  0.25079158  1
  S  S34  1  0.99907192  0.71136254  0.75408209  1
  S  S35  1  0.66216193  0.62272356  0.58591599  1
  S  S36  1  0.66546399  0.04650146  0.08436970  1
  S  S37  1  0.36964026  0.33311214  0.08505631  1
  S  S38  1  0.04783551  0.38036677  0.91936098  1
  S  S39  1  0.33516662  0.95532458  0.92100244  1
  S  S40  1  0.63693325  0.95796010  0.41656095  1
  S  S41  1  0.32776935  0.37797558  0.41951608  1
  O  O42  1  0.20943427  0.03946020  0.31119540  1
  O  O43  1  0.84114658  0.80825384  0.30183593  1
  O  O44  1  0.97573453  0.17337474  0.30276851  1
  O  O45  1  0.19646301  0.16018051  0.81618941  1
  O  O46  1  0.98109683  0.80239102  0.80740923  1
  O  O47  1  0.83178472  0.03190605  0.80518912  1
  O  O48  1  0.78494894  0.95678134  0.68827628  1
  O  O49  1  0.16710214  0.20725790  0.69799812  1
  O  O50  1  0.03823915  0.81555064  0.69800849  1
  O  O51  1  0.76404015  0.81543079  0.18572642  1
  O  O52  1  0.02634439  0.21077109  0.19282907  1
  O  O53  1  0.17880394  0.95833134  0.19353967  1
  O  O54  1  0.85865132  0.36427268  0.64627971  1
  O  O55  1  0.50272382  0.13247700  0.63527705  1
  O  O56  1  0.63874512  0.50942754  0.63684942  1
  O  O57  1  0.86671020  0.49869765  0.14431266  1
  O  O58  1  0.64424079  0.13540786  0.13573420  1
  O  O59  1  0.48454949  0.35498021  0.13365723  1
  O  O60  1  0.43437059  0.29234363  0.02649768  1
  O  O61  1  0.83819011  0.55098205  0.02848431  1
  O  O62  1  0.68791126  0.14370130  0.02586472  1
  O  O63  1  0.44297563  0.15181536  0.51745485  1
  O  O64  1  0.69897223  0.55883434  0.52720151  1
  O  O65  1  0.83630592  0.29123804  0.52790225  1
  O  O66  1  0.53242480  0.69729217  0.98183442  1
  O  O67  1  0.15520842  0.47615287  0.97034476  1
  O  O68  1  0.31574172  0.84553314  0.97389828  1
  O  O69  1  0.55459573  0.85138612  0.47103126  1
  O  O70  1  0.31882443  0.47435142  0.47109193  1
  O  O71  1  0.17242315  0.70305238  0.46892914  1
  O  O72  1  0.10791251  0.62467432  0.35332320  1
  O  O73  1  0.52412297  0.88031055  0.36339298  1
  O  O74  1  0.36319768  0.48001721  0.36144303  1
  O  O75  1  0.11686875  0.48419910  0.86261881  1
  O  O76  1  0.36036477  0.88162182  0.86466540  1
  O  O77  1  0.49503726  0.61898906  0.86625352  1
  O  O78  1  0.02550429  0.84726557  0.41001272  1
  O  O79  1  0.81425709  0.98244614  0.40471217  1
  O  O80  1  0.16635647  0.20514384  0.41554787  1
  O  O81  1  0.04085569  0.21068023  0.91668016  1
  O  O82  1  0.18151988  0.97886001  0.92009710  1
  O  O83  1  0.82646610  0.85043997  0.90665802  1
  O  O84  1  0.97262840  0.16093510  0.58747687  1
  O  O85  1  0.17300093  0.99705459  0.58730577  1
  O  O86  1  0.82097504  0.80139829  0.58847377  1
  O  O87  1  0.98400672  0.81869155  0.08698956  1
  O  O88  1  0.82717869  0.02923406  0.08461173  1
  O  O89  1  0.18710635  0.18397780  0.09160686  1
  O  O90  1  0.70222118  0.18454670  0.74352147  1
  O  O91  1  0.48984398  0.31003453  0.74096950  1
  O  O92  1  0.84204518  0.54033400  0.75136834  1
  O  O93  1  0.70623867  0.52043063  0.24356518  1
  O  O94  1  0.83586289  0.29828605  0.24599590  1
  O  O95  1  0.49846073  0.18296522  0.23757369  1
  O  O96  1  0.64028575  0.49231111  0.92320363  1
  O  O97  1  0.86324580  0.34659387  0.92445844  1
  O  O98  1  0.49735700  0.13510454  0.92447089  1
  O  O99  1  0.64585541  0.13226058  0.41925370  1
  O  O100  1  0.48239365  0.34701557  0.41957494  1
  O  O101  1  0.83750894  0.49523255  0.42159535  1
  O  O102  1  0.36363644  0.49701398  0.07783486  1
  O  O103  1  0.16227421  0.64074309  0.07249143  1
  O  O104  1  0.50954100  0.86732012  0.08047930  1
  O  O105  1  0.37361490  0.85272170  0.57206126  1
  O  O106  1  0.50789200  0.64475923  0.57947708  1
  O  O107  1  0.15107512  0.51016224  0.57759876  1
  O  O108  1  0.31480312  0.83181464  0.25613919  1
  O  O109  1  0.50387406  0.66559897  0.25725004  1
  O  O110  1  0.14984737  0.46198191  0.25202075  1
  O  O111  1  0.29672557  0.47026016  0.75895121  1
  O  O112  1  0.15392081  0.68392271  0.76045920  1
  O  O113  1  0.50767267  0.84293222  0.75181591  1
