# generated using pymatgen
data_Na3ZrGaSi(PO6)2
_symmetry_space_group_name_H-M   'P 1'
_cell_length_a   9.01276115
_cell_length_b   9.01276085
_cell_length_c   22.41482497
_cell_angle_alpha   89.73347613
_cell_angle_beta   90.26652386
_cell_angle_gamma   120.01797763
_symmetry_Int_Tables_number   1
_chemical_formula_structural   Na3ZrGaSi(PO6)2
_chemical_formula_sum   'Na18 Zr6 Ga6 Si6 P12 O72'
_cell_volume   1576.50998712
_cell_formula_units_Z   6
loop_
 _symmetry_equiv_pos_site_id
 _symmetry_equiv_pos_as_xyz
  1  'x, y, z'
loop_
 _atom_site_type_symbol
 _atom_site_label
 _atom_site_symmetry_multiplicity
 _atom_site_fract_x
 _atom_site_fract_y
 _atom_site_fract_z
 _atom_site_occupancy
  Na  Na0  1  0.00371090  0.99683594  0.49483114  1
  Na  Na1  1  0.00316406  0.99628910  0.99483114  1
  Na  Na2  1  0.66585920  0.32732718  0.82838573  1
  Na  Na3  1  0.67267282  0.33414080  0.32838573  1
  Na  Na4  1  0.34920798  0.67332109  0.16126704  1
  Na  Na5  1  0.32667891  0.65079202  0.66126704  1
  Na  Na6  1  0.36399614  0.36280220  0.24645008  1
  Na  Na7  1  0.99244614  0.62537151  0.24707866  1
  Na  Na8  1  0.63719780  0.63600386  0.74645008  1
  Na  Na9  1  0.37462849  0.00755386  0.74707866  1
  Na  Na10  1  0.03819148  0.69985693  0.57954208  1
  Na  Na11  1  0.65685519  0.96206183  0.58360076  1
  Na  Na12  1  0.30014307  0.96180852  0.07954208  1
  Na  Na13  1  0.03793817  0.34314481  0.08360076  1
  Na  Na14  1  0.97045907  0.67260944  0.91770908  1
  Na  Na15  1  0.70012511  0.03016285  0.91152038  1
  Na  Na16  1  0.96983715  0.29987489  0.41152038  1
  Na  Na17  1  0.32739056  0.02954093  0.41770908  1
  Zr  Zr18  1  0.00608628  0.00779326  0.64715691  1
  Zr  Zr19  1  0.99220674  0.99391372  0.14715691  1
  Zr  Zr20  1  0.66049949  0.33621646  0.98059823  1
  Zr  Zr21  1  0.66378354  0.33950051  0.48059823  1
  Zr  Zr22  1  0.33234872  0.66820597  0.31386319  1
  Zr  Zr23  1  0.33179403  0.66765128  0.81386319  1
  Ga  Ga24  1  0.98885558  0.99067091  0.35055475  1
  Ga  Ga25  1  0.00932909  0.01114442  0.85055475  1
  Ga  Ga26  1  0.67032622  0.32175179  0.68381580  1
  Ga  Ga27  1  0.67824821  0.32967378  0.18381580  1
  Ga  Ga28  1  0.32718897  0.66889810  0.01665628  1
  Ga  Ga29  1  0.33110190  0.67281103  0.51665628  1
  Si  Si30  1  0.98919487  0.28419499  0.25212476  1
  Si  Si31  1  0.71580501  0.01080513  0.75212476  1
  Si  Si32  1  0.37438849  0.03405059  0.58356521  1
  Si  Si33  1  0.96594941  0.62561151  0.08356521  1
  Si  Si34  1  0.32380591  0.96056021  0.91670908  1
  Si  Si35  1  0.03943979  0.67619409  0.41670908  1
  P  P36  1  0.29894149  0.00947734  0.25087879  1
  P  P37  1  0.70887476  0.70272464  0.25160230  1
  P  P38  1  0.29727536  0.29112524  0.75160230  1
  P  P39  1  0.99052266  0.70105851  0.75087879  1
  P  P40  1  0.96228487  0.34124329  0.58322331  1
  P  P41  1  0.65667957  0.61946754  0.58722651  1
  P  P42  1  0.65875671  0.03771513  0.08322331  1
  P  P43  1  0.38053246  0.34332043  0.08722651  1
  P  P44  1  0.62314774  0.67171491  0.91821382  1
  P  P45  1  0.04504721  0.36939956  0.91998392  1
  P  P46  1  0.63060044  0.95495279  0.41998392  1
  P  P47  1  0.32828509  0.37685226  0.41821382  1
  O  O48  1  0.21429896  0.03615414  0.30678621  1
  O  O49  1  0.82593607  0.78690726  0.30609846  1
  O  O50  1  0.97329922  0.17210099  0.31191879  1
  O  O51  1  0.21309274  0.17406393  0.80609846  1
  O  O52  1  0.96384586  0.78570104  0.80678621  1
  O  O53  1  0.82789901  0.02670078  0.81191879  1
  O  O54  1  0.79644828  0.97290483  0.69254896  1
  O  O55  1  0.18744623  0.20707049  0.69528950  1
  O  O56  1  0.02665149  0.81830832  0.69517342  1
  O  O57  1  0.79292951  0.81255377  0.19528950  1
  O  O58  1  0.02709517  0.20355172  0.19254896  1
  O  O59  1  0.18169168  0.97334851  0.19517342  1
  O  O60  1  0.87656536  0.37418682  0.63722781  1
  O  O61  1  0.49506164  0.12477004  0.64235868  1
  O  O62  1  0.63896053  0.51523285  0.64428575  1
  O  O63  1  0.87522996  0.50493836  0.14235868  1
  O  O64  1  0.62581318  0.12343464  0.13722781  1
  O  O65  1  0.48476715  0.36103947  0.14428575  1
  O  O66  1  0.46255129  0.30562986  0.03274404  1
  O  O67  1  0.85243179  0.53937462  0.02344932  1
  O  O68  1  0.68997285  0.14828433  0.02627072  1
  O  O69  1  0.46062538  0.14756821  0.52344932  1
  O  O70  1  0.69437014  0.53744871  0.53274404  1
  O  O71  1  0.85171567  0.31002715  0.52627072  1
  O  O72  1  0.52813010  0.69405998  0.97144052  1
  O  O73  1  0.14824818  0.45099553  0.97774180  1
  O  O74  1  0.29107208  0.83887581  0.97586435  1
  O  O75  1  0.54900447  0.85175182  0.47774180  1
  O  O76  1  0.30594002  0.47186990  0.47144052  1
  O  O77  1  0.16112419  0.70892792  0.47586435  1
  O  O78  1  0.12766233  0.64150681  0.35818352  1
  O  O79  1  0.51293881  0.86827416  0.36579053  1
  O  O80  1  0.35526769  0.47902948  0.35964555  1
  O  O81  1  0.13172584  0.48706119  0.86579053  1
  O  O82  1  0.35849319  0.87233767  0.85818352  1
  O  O83  1  0.52097052  0.64473231  0.85964555  1
  O  O84  1  0.02960772  0.85183477  0.40812842  1
  O  O85  1  0.81287679  0.98283159  0.41338304  1
  O  O86  1  0.16658986  0.19642597  0.41469759  1
  O  O87  1  0.01716841  0.18712321  0.91338304  1
  O  O88  1  0.14816523  0.97039228  0.90812842  1
  O  O89  1  0.80357403  0.83341014  0.91469759  1
  O  O90  1  0.97032028  0.17363286  0.58900179  1
  O  O91  1  0.17819824  0.00242431  0.58678546  1
  O  O92  1  0.82122282  0.80264449  0.58981917  1
  O  O93  1  0.99757569  0.82180176  0.08678546  1
  O  O94  1  0.82636714  0.02967972  0.08900179  1
  O  O95  1  0.19735551  0.17877718  0.08981917  1
  O  O96  1  0.68613395  0.17523887  0.74578491  1
  O  O97  1  0.47860536  0.31302491  0.74549101  1
  O  O98  1  0.82690802  0.52530678  0.74276146  1
  O  O99  1  0.68697509  0.52139464  0.24549101  1
  O  O100  1  0.82476113  0.31386605  0.24578491  1
  O  O101  1  0.47469322  0.17309198  0.24276146  1
  O  O102  1  0.64956861  0.51398993  0.92199508  1
  O  O103  1  0.86360112  0.35465731  0.92216948  1
  O  O104  1  0.50194612  0.14591139  0.92067899  1
  O  O105  1  0.64534269  0.13639888  0.42216948  1
  O  O106  1  0.48601007  0.35043139  0.42199508  1
  O  O107  1  0.85408861  0.49805388  0.42067899  1
  O  O108  1  0.35740140  0.49984401  0.07849224  1
  O  O109  1  0.15723751  0.64211229  0.07887329  1
  O  O110  1  0.49989108  0.85820371  0.07663444  1
  O  O111  1  0.35788771  0.84276249  0.57887329  1
  O  O112  1  0.50015599  0.64259860  0.57849224  1
  O  O113  1  0.14179629  0.50010892  0.57663444  1
  O  O114  1  0.31548644  0.84635726  0.25529228  1
  O  O115  1  0.52874787  0.68279297  0.25552576  1
  O  O116  1  0.16554422  0.47843341  0.25510985  1
  O  O117  1  0.31720703  0.47125213  0.75552576  1
  O  O118  1  0.15364274  0.68451356  0.75529228  1
  O  O119  1  0.52156659  0.83445578  0.75510985  1
