# generated using pymatgen
data_Pb7(ClF6)2
_symmetry_space_group_name_H-M   'P 1'
_cell_length_a   10.24008143
_cell_length_b   10.24010576
_cell_length_c   3.96080885
_cell_angle_alpha   89.99999582
_cell_angle_beta   90.00000682
_cell_angle_gamma   120.00004417
_symmetry_Int_Tables_number   1
_chemical_formula_structural   Pb7(ClF6)2
_chemical_formula_sum   'Pb7 Cl2 F12'
_cell_volume   359.68487390
_cell_formula_units_Z   1
loop_
 _symmetry_equiv_pos_site_id
 _symmetry_equiv_pos_as_xyz
  1  'x, y, z'
loop_
 _atom_site_type_symbol
 _atom_site_label
 _atom_site_symmetry_multiplicity
 _atom_site_fract_x
 _atom_site_fract_y
 _atom_site_fract_z
 _atom_site_occupancy
  Pb  Pb0  1  0.97163983  0.22488746  0.49999993  1
  Pb  Pb1  1  0.77511224  0.74675183  0.50000003  1
  Pb  Pb2  1  0.25324853  0.02836147  0.50000003  1
  Pb  Pb3  1  0.06676826  0.62061683  -0.00000004  1
  Pb  Pb4  1  0.55384826  0.93323150  -0.00000005  1
  Pb  Pb5  1  0.37938330  0.44615101  0.00000003  1
  Pb  Pb6  1  0.66666655  0.33333401  0.49999992  1
  Cl  Cl7  1  -0.00000034  -0.00000011  -0.00000005  1
  Cl  Cl8  1  0.33333361  0.66666645  0.49999998  1
  F  F9  1  0.74664588  0.20398008  -0.00000010  1
  F  F10  1  0.71679841  0.95133852  0.49999996  1
  F  F11  1  0.79602018  0.54266542  0.00000010  1
  F  F12  1  0.23453990  0.28320100  0.50000012  1
  F  F13  1  0.94423066  0.44772679  0.49999998  1
  F  F14  1  0.04866069  0.76545996  0.50000010  1
  F  F15  1  0.27842815  0.90715956  0.00000016  1
  F  F16  1  0.45733539  0.25335444  0.00000001  1
  F  F17  1  0.09284152  0.37126814  -0.00000010  1
  F  F18  1  0.50349664  0.05577116  0.50000016  1
  F  F19  1  0.62873170  0.72157243  -0.00000003  1
  F  F20  1  0.55227266  0.49650206  0.49999987  1
