# generated using pymatgen
data_SrLaMgMn2O6
_symmetry_space_group_name_H-M   'P 1'
_cell_length_a   6.40452870
_cell_length_b   5.71995488
_cell_length_c   5.69867558
_cell_angle_alpha   120.64794422
_cell_angle_beta   111.27075753
_cell_angle_gamma   95.79384635
_symmetry_Int_Tables_number   1
_chemical_formula_structural   SrLaMgMn2O6
_chemical_formula_sum   'Sr1 La1 Mg1 Mn2 O6'
_cell_volume   156.36470572
_cell_formula_units_Z   1
loop_
 _symmetry_equiv_pos_site_id
 _symmetry_equiv_pos_as_xyz
  1  'x, y, z'
loop_
 _atom_site_type_symbol
 _atom_site_label
 _atom_site_symmetry_multiplicity
 _atom_site_fract_x
 _atom_site_fract_y
 _atom_site_fract_z
 _atom_site_occupancy
  Sr  Sr0  1  0.38626854  0.81308729  0.61771825  1
  La  La1  1  0.75977379  0.27631728  0.45450911  1
  Mg  Mg2  1  0.86218504  0.61896904  0.15887933  1
  Mn  Mn3  1  0.04749700  0.02990444  0.00970246  1
  Mn  Mn4  1  0.32268740  0.48156224  0.91476066  1
  O  O5  1  0.12260921  0.27607509  0.44395961  1
  O  O6  1  0.12424143  0.72436519  0.07920690  1
  O  O7  1  0.40032089  0.27843959  0.12540662  1
  O  O8  1  0.95705646  0.74974337  0.58088913  1
  O  O9  1  0.62333272  0.76918165  0.02353868  1
  O  O10  1  0.78777753  0.19485482  0.87118924  1
