# generated using pymatgen
data_MgVOF2
_symmetry_space_group_name_H-M   'P 1'
_cell_length_a   4.12384010
_cell_length_b   5.49929857
_cell_length_c   3.16162274
_cell_angle_alpha   72.91039517
_cell_angle_beta   89.99910134
_cell_angle_gamma   68.06829823
_symmetry_Int_Tables_number   1
_chemical_formula_structural   MgVOF2
_chemical_formula_sum   'Mg1 V1 O1 F2'
_cell_volume   63.08551447
_cell_formula_units_Z   1
loop_
 _symmetry_equiv_pos_site_id
 _symmetry_equiv_pos_as_xyz
  1  'x, y, z'
loop_
 _atom_site_type_symbol
 _atom_site_label
 _atom_site_symmetry_multiplicity
 _atom_site_fract_x
 _atom_site_fract_y
 _atom_site_fract_z
 _atom_site_occupancy
  Mg  Mg0  1  0.32931800  0.34397000  0.32710000  1
  V  V1  1  0.00133300  0.99856400  0.00369300  1
  O  O2  1  0.45218200  0.09720000  0.95322000  1
  F  F3  1  0.84103700  0.32021000  0.34041600  1
  F  F4  1  0.16184300  0.67755600  0.66723800  1
