# generated using pymatgen
data_Na8Zr2In2Si5SO24
_symmetry_space_group_name_H-M   'P 1'
_cell_length_a   9.30612774
_cell_length_b   9.29448721
_cell_length_c   22.74732315
_cell_angle_alpha   90.04331474
_cell_angle_beta   89.73422271
_cell_angle_gamma   119.85454921
_symmetry_Int_Tables_number   1
_chemical_formula_structural   Na8Zr2In2Si5SO24
_chemical_formula_sum   'Na24 Zr6 In6 Si15 S3 O72'
_cell_volume   1706.41502787
_cell_formula_units_Z   3
loop_
 _symmetry_equiv_pos_site_id
 _symmetry_equiv_pos_as_xyz
  1  'x, y, z'
loop_
 _atom_site_type_symbol
 _atom_site_label
 _atom_site_symmetry_multiplicity
 _atom_site_fract_x
 _atom_site_fract_y
 _atom_site_fract_z
 _atom_site_occupancy
  Na  Na0  1  0.64398964  0.00453042  0.25297606  1
  Na  Na1  1  0.35561507  0.36064168  0.24659568  1
  Na  Na2  1  0.99984530  0.63989965  0.24969884  1
  Na  Na3  1  0.63585013  0.63525152  0.74633949  1
  Na  Na4  1  0.99409496  0.35871516  0.74959321  1
  Na  Na5  1  0.36786615  0.00916122  0.74968251  1
  Na  Na6  1  0.30142625  0.33936726  0.58689490  1
  Na  Na7  1  0.04044738  0.70191116  0.58191159  1
  Na  Na8  1  0.66208801  0.95888566  0.58236580  1
  Na  Na9  1  0.28200266  0.96295059  0.08041629  1
  Na  Na10  1  0.67131695  0.69111109  0.08815141  1
  Na  Na11  1  0.04827082  0.33813074  0.08720454  1
  Na  Na12  1  0.97678293  0.67007125  0.91637494  1
  Na  Na13  1  0.70668584  0.04737152  0.90736334  1
  Na  Na14  1  0.31753603  0.28059342  0.91900319  1
  Na  Na15  1  0.95782944  0.29185159  0.40988898  1
  Na  Na16  1  0.32542751  0.01728159  0.41546533  1
  Na  Na17  1  0.71684210  0.68550459  0.41798201  1
  Na  Na18  1  0.98865699  0.98657694  0.50058088  1
  Na  Na19  1  0.02420288  0.00995206  0.99964031  1
  Na  Na20  1  0.66686283  0.32314136  0.83210650  1
  Na  Na21  1  0.67623631  0.33066589  0.33207568  1
  Na  Na22  1  0.32224315  0.65353568  0.16546502  1
  Na  Na23  1  0.33617230  0.66780376  0.66223719  1
  Zr  Zr24  1  0.00003000  0.00093355  0.64895842  1
  Zr  Zr25  1  0.66958887  0.33515722  0.68407043  1
  Zr  Zr26  1  0.66723882  0.34208577  0.18510859  1
  Zr  Zr27  1  0.67465361  0.33153166  0.48423147  1
  Zr  Zr28  1  0.33045039  0.67416609  0.31434392  1
  Zr  Zr29  1  0.32199931  0.66885292  0.81287869  1
  In  In30  1  0.99355437  0.99153791  0.34578792  1
  In  In31  1  0.01044818  0.00737875  0.84686334  1
  In  In32  1  0.00713203  0.99906946  0.15329195  1
  In  In33  1  0.66610426  0.33501133  0.98211539  1
  In  In34  1  0.31145390  0.65202901  0.01671610  1
  In  In35  1  0.33680469  0.67917848  0.51967611  1
  Si  Si36  1  0.29899249  0.00264838  0.25066940  1
  Si  Si37  1  0.70033693  0.70306791  0.24935973  1
  Si  Si38  1  0.99979695  0.29550153  0.24990817  1
  Si  Si39  1  0.30010094  0.29917456  0.75052181  1
  Si  Si40  1  0.99547392  0.70531088  0.75159956  1
  Si  Si41  1  0.70442756  0.99916672  0.75189782  1
  Si  Si42  1  0.96682192  0.33324422  0.58341301  1
  Si  Si43  1  0.37129133  0.04125406  0.58346963  1
  Si  Si44  1  0.66611854  0.62839970  0.58248357  1
  Si  Si45  1  0.96216867  0.63357559  0.08174598  1
  Si  Si46  1  0.36913885  0.33467380  0.08101250  1
  Si  Si47  1  0.03161907  0.36159225  0.91735314  1
  Si  Si48  1  0.33475550  0.96449661  0.91906463  1
  Si  Si49  1  0.63338468  0.96413456  0.41753122  1
  Si  Si50  1  0.03448848  0.66801727  0.41814197  1
  S  S51  1  0.66722469  0.03663227  0.08303167  1
  S  S52  1  0.62428782  0.66833501  0.91688705  1
  S  S53  1  0.33504628  0.37301893  0.41722042  1
  O  O54  1  0.22554123  0.04775807  0.30856986  1
  O  O55  1  0.81521547  0.77111985  0.30749969  1
  O  O56  1  0.96231273  0.18243684  0.30890705  1
  O  O57  1  0.23285301  0.18671953  0.80974266  1
  O  O58  1  0.95575466  0.77775551  0.81067328  1
  O  O59  1  0.81596821  0.03603853  0.81066119  1
  O  O60  1  0.79458776  0.96920406  0.69448621  1
  O  O61  1  0.17605768  0.21004008  0.69415030  1
  O  O62  1  0.02871071  0.82570720  0.69456412  1
  O  O63  1  0.77494015  0.82270028  0.19191673  1
  O  O64  1  0.03797659  0.21935803  0.19124171  1
  O  O65  1  0.18362852  0.95530112  0.19266856  1
  O  O66  1  0.87763013  0.36254057  0.64045951  1
  O  O67  1  0.48886168  0.13484479  0.63998319  1
  O  O68  1  0.64247941  0.51340732  0.64009484  1
  O  O69  1  0.86632236  0.51105137  0.13843578  1
  O  O70  1  0.64547110  0.12026387  0.13536457  1
  O  O71  1  0.48603843  0.35398611  0.13860085  1
  O  O72  1  0.44765354  0.29746962  0.02236669  1
  O  O73  1  0.85287629  0.55067718  0.02246844  1
  O  O74  1  0.69107898  0.13520833  0.02910810  1
  O  O75  1  0.46051981  0.15669091  0.52463949  1
  O  O76  1  0.69369595  0.53811775  0.52417241  1
  O  O77  1  0.84709757  0.30287780  0.52548466  1
  O  O78  1  0.54800796  0.68912997  0.97125330  1
  O  O79  1  0.14538458  0.43216668  0.97651061  1
  O  O80  1  0.31298433  0.85685336  0.97897954  1
  O  O81  1  0.55576168  0.84779370  0.47557576  1
  O  O82  1  0.31196006  0.44922962  0.47063740  1
  O  O83  1  0.14486451  0.69502246  0.47665194  1
  O  O84  1  0.12447840  0.63638493  0.36055466  1
  O  O85  1  0.51371675  0.86911113  0.36042788  1
  O  O86  1  0.35482866  0.47546558  0.36435318  1
  O  O87  1  0.13047659  0.48549678  0.86086530  1
  O  O88  1  0.35958106  0.86952939  0.86143000  1
  O  O89  1  0.52175090  0.65109386  0.86470064  1
  O  O90  1  0.02095158  0.83744529  0.41300275  1
  O  O91  1  0.82264585  0.99471390  0.41256971  1
  O  O92  1  0.18711285  0.20556990  0.41259931  1
  O  O93  1  0.00347674  0.17314726  0.91240566  1
  O  O94  1  0.16309232  0.97430953  0.91492610  1
  O  O95  1  0.79110153  0.81594226  0.91283489  1
  O  O96  1  0.97703739  0.16309068  0.58759628  1
  O  O97  1  0.18856018  0.02656242  0.58754906  1
  O  O98  1  0.83468841  0.81123243  0.58718997  1
  O  O99  1  0.97386576  0.81588846  0.08665785  1
  O  O100  1  0.81733806  0.02092169  0.08805700  1
  O  O101  1  0.18120488  0.17402166  0.08660361  1
  O  O102  1  0.68046525  0.16211864  0.74442771  1
  O  O103  1  0.48588138  0.32318535  0.74238461  1
  O  O104  1  0.83647962  0.51862100  0.74452160  1
  O  O105  1  0.67831878  0.51527939  0.24234867  1
  O  O106  1  0.83411811  0.31660743  0.24320999  1
  O  O107  1  0.48728089  0.16183711  0.24278571  1
  O  O108  1  0.63713573  0.51490734  0.91806616  1
  O  O109  1  0.85185771  0.35772752  0.91915454  1
  O  O110  1  0.50317113  0.15007225  0.91864202  1
  O  O111  1  0.63865446  0.14618011  0.41986241  1
  O  O112  1  0.48800153  0.35972662  0.41960246  1
  O  O113  1  0.84707529  0.49945369  0.41997834  1
  O  O114  1  0.36902526  0.51365500  0.08024025  1
  O  O115  1  0.14778306  0.65120970  0.08372081  1
  O  O116  1  0.51706678  0.87029194  0.08036996  1
  O  O117  1  0.35527859  0.85821534  0.58314629  1
  O  O118  1  0.49742907  0.64125282  0.57976139  1
  O  O119  1  0.15034683  0.49628174  0.57872577  1
  O  O120  1  0.32053148  0.83658280  0.25784302  1
  O  O121  1  0.51180942  0.67433956  0.25766864  1
  O  O122  1  0.16581073  0.48175285  0.25676398  1
  O  O123  1  0.31871391  0.48476246  0.75590849  1
  O  O124  1  0.16580860  0.69038877  0.75510102  1
  O  O125  1  0.52058869  0.83007073  0.75620657  1
