# generated using pymatgen
data_Sr2MgCoWO6
_symmetry_space_group_name_H-M   'P 1'
_cell_length_a   6.99299660
_cell_length_b   6.64796582
_cell_length_c   5.41616425
_cell_angle_alpha   113.57253756
_cell_angle_beta   122.39329018
_cell_angle_gamma   101.12193076
_symmetry_Int_Tables_number   1
_chemical_formula_structural   Sr2MgCoWO6
_chemical_formula_sum   'Sr2 Mg1 Co1 W1 O6'
_cell_volume   165.72590204
_cell_formula_units_Z   1
loop_
 _symmetry_equiv_pos_site_id
 _symmetry_equiv_pos_as_xyz
  1  'x, y, z'
loop_
 _atom_site_type_symbol
 _atom_site_label
 _atom_site_symmetry_multiplicity
 _atom_site_fract_x
 _atom_site_fract_y
 _atom_site_fract_z
 _atom_site_occupancy
  Sr  Sr0  1  0.17701013  0.76806366  0.50271599  1
  Sr  Sr1  1  0.82298841  0.23191778  0.49727886  1
  Mg  Mg2  1  0.50001322  0.49999300  0.50010525  1
  Co  Co3  1  0.99998296  -0.00000272  -0.00000672  1
  W  W4  1  0.49998529  0.50001045  -0.00010155  1
  O  O5  1  0.60232435  0.79588304  0.96706457  1
  O  O6  1  0.30919523  0.59667560  0.14071195  1
  O  O7  1  0.69080393  0.40332966  0.85928457  1
  O  O8  1  0.39768959  0.20411670  0.03293404  1
  O  O9  1  0.17422224  0.31966237  0.44923161  1
  O  O10  1  0.82578466  0.68035046  0.55078143  1
