# generated using pymatgen
data_Na6Si5Ge4SO24
_symmetry_space_group_name_H-M   'P 1'
_cell_length_a   8.70383476
_cell_length_b   8.70194044
_cell_length_c   21.73662537
_cell_angle_alpha   90.17083962
_cell_angle_beta   89.17546585
_cell_angle_gamma   119.99362985
_symmetry_Int_Tables_number   1
_chemical_formula_structural   Na6Si5Ge4SO24
_chemical_formula_sum   'Na18 Si15 Ge12 S3 O72'
_cell_volume   1425.69708176
_cell_formula_units_Z   3
loop_
 _symmetry_equiv_pos_site_id
 _symmetry_equiv_pos_as_xyz
  1  'x, y, z'
loop_
 _atom_site_type_symbol
 _atom_site_label
 _atom_site_symmetry_multiplicity
 _atom_site_fract_x
 _atom_site_fract_y
 _atom_site_fract_z
 _atom_site_occupancy
  Na  Na0  1  0.63541576  0.00122819  0.25077870  1
  Na  Na1  1  0.36541308  0.36644898  0.24888294  1
  Na  Na2  1  0.00015272  0.63328028  0.25028959  1
  Na  Na3  1  0.63359297  0.63324626  0.74897992  1
  Na  Na4  1  0.99844206  0.36612615  0.75018752  1
  Na  Na5  1  0.36838967  0.00269527  0.75057151  1
  Na  Na6  1  0.30004178  0.33302416  0.58400080  1
  Na  Na7  1  0.03240410  0.70086091  0.58322548  1
  Na  Na8  1  0.66914971  0.96698637  0.58320809  1
  Na  Na9  1  0.03441300  0.33333016  0.08503341  1
  Na  Na10  1  0.97086932  0.66683340  0.91701896  1
  Na  Na11  1  0.33323663  0.03025091  0.41673858  1
  Na  Na12  1  0.98986660  0.99487981  0.49811318  1
  Na  Na13  1  0.00917449  0.00360186  0.00006923  1
  Na  Na14  1  0.66081814  0.32276133  0.83483073  1
  Na  Na15  1  0.67721468  0.33871778  0.33572412  1
  Na  Na16  1  0.33638243  0.66901221  0.16469868  1
  Na  Na17  1  0.33440098  0.66691715  0.66666762  1
  Si  Si18  1  0.28892023  0.00306061  0.25122454  1
  Si  Si19  1  0.71246708  0.71559042  0.24883781  1
  Si  Si20  1  0.99949360  0.28428257  0.25000157  1
  Si  Si21  1  0.29042754  0.29075823  0.74907004  1
  Si  Si22  1  0.99712608  0.71497650  0.75067317  1
  Si  Si23  1  0.71450483  0.99985374  0.75159465  1
  Si  Si24  1  0.95731162  0.33304542  0.58376593  1
  Si  Si25  1  0.38198699  0.05142282  0.58294318  1
  Si  Si26  1  0.66612794  0.61898006  0.58219052  1
  Si  Si27  1  0.94853978  0.62597363  0.08232006  1
  Si  Si28  1  0.38171325  0.33605173  0.08256756  1
  Si  Si29  1  0.03994310  0.36851402  0.91631892  1
  Si  Si30  1  0.33820519  0.95920739  0.91779247  1
  Si  Si31  1  0.62720766  0.95665822  0.41643241  1
  Si  Si32  1  0.03961523  0.66307449  0.41697814  1
  Ge  Ge33  1  0.98247659  0.98309537  0.35154024  1
  Ge  Ge34  1  0.01553025  0.01535528  0.85210777  1
  Ge  Ge35  1  0.99955753  0.00047685  0.64687202  1
  Ge  Ge36  1  0.01452392  0.99612371  0.14819560  1
  Ge  Ge37  1  0.66750513  0.33473821  0.68645255  1
  Ge  Ge38  1  0.66812591  0.34710809  0.18770629  1
  Ge  Ge39  1  0.66092260  0.32682537  0.98021862  1
  Ge  Ge40  1  0.68511960  0.33357499  0.48179968  1
  Ge  Ge41  1  0.30751862  0.65029795  0.01939250  1
  Ge  Ge42  1  0.33758629  0.68063688  0.52086359  1
  Ge  Ge43  1  0.32942383  0.67578801  0.31238410  1
  Ge  Ge44  1  0.32354249  0.67226835  0.81239527  1
  S  S45  1  0.66239719  0.03997950  0.08305729  1
  S  S46  1  0.61817290  0.66745426  0.91712169  1
  S  S47  1  0.33323730  0.38030105  0.41658017  1
  O  O48  1  0.20626046  0.04787133  0.31216125  1
  O  O49  1  0.83944353  0.78851661  0.30839297  1
  O  O50  1  0.95742476  0.15480619  0.30922893  1
  O  O51  1  0.21078349  0.16000249  0.80804349  1
  O  O52  1  0.95551632  0.79788889  0.81198679  1
  O  O53  1  0.84530827  0.04211206  0.80940145  1
  O  O54  1  0.79278386  0.95521147  0.68904680  1
  O  O55  1  0.16378003  0.21026416  0.68888091  1
  O  O56  1  0.04306083  0.84000014  0.68938791  1
  O  O57  1  0.79816362  0.84765929  0.18999748  1
  O  O58  1  0.04056321  0.20256055  0.18793100  1
  O  O59  1  0.16104034  0.95196960  0.19230472  1
  O  O60  1  0.87651614  0.38056282  0.64465257  1
  O  O61  1  0.50678869  0.13029687  0.64356850  1
  O  O62  1  0.62259026  0.49662205  0.64441434  1
  O  O63  1  0.86981865  0.49278252  0.14306569  1
  O  O64  1  0.63071583  0.11693065  0.14006180  1
  O  O65  1  0.49782463  0.36815656  0.14515365  1
  O  O66  1  0.47016684  0.29583575  0.02332057  1
  O  O67  1  0.83087428  0.53130525  0.02127020  1
  O  O68  1  0.70253029  0.15856237  0.02844694  1
  O  O69  1  0.46509101  0.17649657  0.52171876  1
  O  O70  1  0.70867251  0.52959513  0.52365480  1
  O  O71  1  0.82775685  0.28243962  0.52538999  1
  O  O72  1  0.53630351  0.69629411  0.97237776  1
  O  O73  1  0.16086129  0.45332614  0.97728105  1
  O  O74  1  0.29663127  0.82309204  0.97609682  1
  O  O75  1  0.53801461  0.83331480  0.47800673  1
  O  O76  1  0.30314338  0.45930847  0.47309296  1
  O  O77  1  0.16960074  0.70651327  0.47704189  1
  O  O78  1  0.12885673  0.62857083  0.35527761  1
  O  O79  1  0.49718842  0.87014132  0.35646408  1
  O  O80  1  0.36345630  0.48909896  0.36019137  1
  O  O81  1  0.12781852  0.50261789  0.85638448  1
  O  O82  1  0.37189639  0.87263678  0.85492880  1
  O  O83  1  0.51269095  0.63592902  0.86029879  1
  O  O84  1  0.03486243  0.85003718  0.41002118  1
  O  O85  1  0.82350723  0.97808986  0.41039411  1
  O  O86  1  0.17397787  0.20155221  0.41299374  1
  O  O87  1  0.01929222  0.17331320  0.91007856  1
  O  O88  1  0.15152943  0.96434319  0.91054799  1
  O  O89  1  0.79840310  0.82505024  0.91275994  1
  O  O90  1  0.97710469  0.15703097  0.59019934  1
  O  O91  1  0.18348247  0.02704133  0.58921953  1
  O  O92  1  0.84202907  0.81616776  0.58904907  1
  O  O93  1  0.96850487  0.82094243  0.08976210  1
  O  O94  1  0.82597284  0.02889188  0.08736361  1
  O  O95  1  0.17782538  0.16371972  0.08957531  1
  O  O96  1  0.69153255  0.17475269  0.74402088  1
  O  O97  1  0.48650387  0.30969864  0.74302059  1
  O  O98  1  0.82322952  0.51700380  0.74453177  1
  O  O99  1  0.69070832  0.51732390  0.24408444  1
  O  O100  1  0.82316553  0.30647336  0.24231548  1
  O  O101  1  0.48817010  0.17580220  0.24223020  1
  O  O102  1  0.64043100  0.50763591  0.92073844  1
  O  O103  1  0.84780424  0.36309373  0.92462976  1
  O  O104  1  0.51381136  0.15487875  0.92429872  1
  O  O105  1  0.63200846  0.14857986  0.42323767  1
  O  O106  1  0.49200366  0.36027404  0.42023252  1
  O  O107  1  0.84368625  0.48753011  0.42297226  1
  O  O108  1  0.35936000  0.51489529  0.07510670  1
  O  O109  1  0.14621107  0.63955054  0.07816447  1
  O  O110  1  0.50464908  0.86367464  0.07636672  1
  O  O111  1  0.35885190  0.85198588  0.57842991  1
  O  O112  1  0.48820019  0.63873885  0.57569542  1
  O  O113  1  0.15457092  0.50907991  0.57459157  1
  O  O114  1  0.31064940  0.82672813  0.25572130  1
  O  O115  1  0.51261906  0.68796633  0.25850942  1
  O  O116  1  0.17686626  0.48250531  0.25717307  1
  O  O117  1  0.31264790  0.48830473  0.75858628  1
  O  O118  1  0.17416361  0.69312798  0.75491870  1
  O  O119  1  0.51645294  0.82121397  0.75778395  1
