# generated using pymatgen
data_MgTi(FeO2)4
_symmetry_space_group_name_H-M   'P 1'
_cell_length_a   6.04044794
_cell_length_b   6.01659602
_cell_length_c   6.07568347
_cell_angle_alpha   60.32118132
_cell_angle_beta   60.21080430
_cell_angle_gamma   60.13053106
_symmetry_Int_Tables_number   1
_chemical_formula_structural   MgTi(FeO2)4
_chemical_formula_sum   'Mg1 Ti1 Fe4 O8'
_cell_volume   156.91475102
_cell_formula_units_Z   1
loop_
 _symmetry_equiv_pos_site_id
 _symmetry_equiv_pos_as_xyz
  1  'x, y, z'
loop_
 _atom_site_type_symbol
 _atom_site_label
 _atom_site_symmetry_multiplicity
 _atom_site_fract_x
 _atom_site_fract_y
 _atom_site_fract_z
 _atom_site_occupancy
  Mg  Mg0  1  0.00000000  0.50000000  0.50000000  1
  Ti  Ti1  1  0.50000000  0.50000000  0.00000000  1
  Fe  Fe2  1  0.13143700  0.12986900  0.10882400  1
  Fe  Fe3  1  0.50000000  0.00000000  0.50000000  1
  Fe  Fe4  1  0.50000000  0.50000000  0.50000000  1
  Fe  Fe5  1  0.86856300  0.87013100  0.89117600  1
  O  O6  1  0.26021800  0.27137600  0.23318400  1
  O  O7  1  0.26021800  0.73522200  0.23318400  1
  O  O8  1  0.25783500  0.25803100  0.72610300  1
  O  O9  1  0.74053800  0.26652400  0.22641300  1
  O  O10  1  0.25946200  0.73347600  0.77358700  1
  O  O11  1  0.74216500  0.74196900  0.27389700  1
  O  O12  1  0.73978200  0.26477800  0.76681600  1
  O  O13  1  0.73978200  0.72862400  0.76681600  1
