# generated using pymatgen
data_Na7Ca2Al2P5SO24
_symmetry_space_group_name_H-M   'P 1'
_cell_length_a   9.04640502
_cell_length_b   8.99196512
_cell_length_c   21.88225437
_cell_angle_alpha   90.13634516
_cell_angle_beta   90.10731199
_cell_angle_gamma   119.86195204
_symmetry_Int_Tables_number   1
_chemical_formula_structural   Na7Ca2Al2P5SO24
_chemical_formula_sum   'Na21 Ca6 Al6 P15 S3 O72'
_cell_volume   1543.66073435
_cell_formula_units_Z   3
loop_
 _symmetry_equiv_pos_site_id
 _symmetry_equiv_pos_as_xyz
  1  'x, y, z'
loop_
 _atom_site_type_symbol
 _atom_site_label
 _atom_site_symmetry_multiplicity
 _atom_site_fract_x
 _atom_site_fract_y
 _atom_site_fract_z
 _atom_site_occupancy
  Na  Na0  1  0.63791407  0.99274946  0.25162957  1
  Na  Na1  1  0.99549039  0.63502655  0.25654743  1
  Na  Na2  1  0.63879584  0.64521804  0.74750683  1
  Na  Na3  1  0.00728357  0.36452722  0.75277731  1
  Na  Na4  1  0.36127168  0.99542983  0.75207112  1
  Na  Na5  1  0.28567155  0.33467052  0.58680301  1
  Na  Na6  1  0.04779433  0.71583181  0.58352333  1
  Na  Na7  1  0.67006613  0.95190814  0.58283389  1
  Na  Na8  1  0.28615900  0.95146950  0.07932802  1
  Na  Na9  1  0.66896239  0.71513102  0.08724472  1
  Na  Na10  1  0.04807413  0.33174231  0.08370833  1
  Na  Na11  1  0.99296263  0.66640510  0.91601783  1
  Na  Na12  1  0.32370177  0.31882377  0.92216489  1
  Na  Na13  1  0.98403736  0.32755111  0.41296723  1
  Na  Na14  1  0.67684537  0.67115602  0.42142803  1
  Na  Na15  1  0.01476949  0.99490304  0.49603466  1
  Na  Na16  1  0.99058285  0.00738725  0.99528268  1
  Na  Na17  1  0.66585371  0.30767140  0.83671515  1
  Na  Na18  1  0.64956242  0.32368252  0.33528319  1
  Na  Na19  1  0.33228403  0.63284257  0.17138150  1
  Na  Na20  1  0.33470901  0.66888639  0.66860843  1
  Ca  Ca21  1  0.00087420  0.00222793  0.64689028  1
  Ca  Ca22  1  0.00157207  0.00406667  0.14700334  1
  Ca  Ca23  1  0.33216604  0.66675927  0.01498486  1
  Ca  Ca24  1  0.33242405  0.67598274  0.51427009  1
  Ca  Ca25  1  0.33242161  0.66464066  0.32337705  1
  Ca  Ca26  1  0.33257795  0.67274194  0.82532717  1
  Al  Al27  1  0.98215408  0.98988217  0.34569146  1
  Al  Al28  1  0.00937853  0.01297080  0.84354359  1
  Al  Al29  1  0.66866371  0.33372927  0.68648156  1
  Al  Al30  1  0.67622103  0.34325638  0.18452622  1
  Al  Al31  1  0.66354998  0.31941919  0.98466833  1
  Al  Al32  1  0.67301547  0.33196340  0.48493312  1
  P  P33  1  0.69993606  0.69147952  0.24690361  1
  P  P34  1  0.98968775  0.29607438  0.24822685  1
  P  P35  1  0.30934277  0.30072986  0.74855718  1
  P  P36  1  0.99134970  0.69746121  0.74938698  1
  P  P37  1  0.70818116  0.00773185  0.74656984  1
  P  P38  1  0.94996968  0.34164142  0.58442728  1
  P  P39  1  0.39789192  0.05736152  0.58494053  1
  P  P40  1  0.66069354  0.60586068  0.58340644  1
  P  P41  1  0.94703805  0.60735160  0.08214584  1
  P  P42  1  0.65867244  0.05108248  0.08713473  1
  P  P43  1  0.39880689  0.33911050  0.08334322  1
  P  P44  1  0.00330860  0.33637809  0.91647850  1
  P  P45  1  0.32832358  0.99207194  0.91524279  1
  P  P46  1  0.65908557  0.99152732  0.41516842  1
  P  P47  1  0.00558548  0.66904677  0.41763467  1
  S  S48  1  0.29904292  0.01086607  0.25073199  1
  S  S49  1  0.66106373  0.66866969  0.91732583  1
  S  S50  1  0.32985176  0.33620756  0.41866346  1
  O  O51  1  0.18892023  0.01594355  0.30009512  1
  O  O52  1  0.82486858  0.79826693  0.30076745  1
  O  O53  1  0.97490866  0.17010502  0.30093367  1
  O  O54  1  0.20379757  0.17855379  0.80208633  1
  O  O55  1  0.97722495  0.80569018  0.80347602  1
  O  O56  1  0.84144411  0.02697213  0.79601209  1
  O  O57  1  0.76158755  0.97349514  0.68418387  1
  O  O58  1  0.21126106  0.23683280  0.68835525  1
  O  O59  1  0.01911708  0.79130395  0.68870966  1
  O  O60  1  0.77214338  0.78640605  0.18672042  1
  O  O61  1  0.01094509  0.23114197  0.18635428  1
  O  O62  1  0.21779616  0.98904512  0.19023806  1
  O  O63  1  0.85229124  0.34272869  0.64267798  1
  O  O64  1  0.49101616  0.14862911  0.64526095  1
  O  O65  1  0.65828611  0.50782017  0.64232621  1
  O  O66  1  0.85623367  0.51108599  0.14179595  1
  O  O67  1  0.65705633  0.14440014  0.14723227  1
  O  O68  1  0.50074703  0.33884961  0.14005235  1
  O  O69  1  0.49763692  0.35085563  0.02410965  1
  O  O70  1  0.84683516  0.50488220  0.02511711  1
  O  O71  1  0.64768241  0.14866573  0.03159493  1
  O  O72  1  0.50687505  0.15545374  0.52957689  1
  O  O73  1  0.65086961  0.50228200  0.52537018  1
  O  O74  1  0.85955059  0.35440705  0.52631011  1
  O  O75  1  0.58249743  0.69099974  0.97343297  1
  O  O76  1  0.12448348  0.40891592  0.97281610  1
  O  O77  1  0.28711934  0.87031719  0.97040737  1
  O  O78  1  0.58510860  0.86892068  0.47030258  1
  O  O79  1  0.29181034  0.40473699  0.47516626  1
  O  O80  1  0.11020003  0.70195828  0.47640861  1
  O  O81  1  0.08321611  0.62212858  0.36359162  1
  O  O82  1  0.55364251  0.91664855  0.35709620  1
  O  O83  1  0.37290107  0.46180842  0.36867726  1
  O  O84  1  0.07860244  0.46000786  0.86184773  1
  O  O85  1  0.36275211  0.92151733  0.85698028  1
  O  O86  1  0.54972282  0.63715679  0.86399659  1
  O  O87  1  0.98737241  0.82997121  0.40385790  1
  O  O88  1  0.84283616  0.01428129  0.40568573  1
  O  O89  1  0.17307875  0.17147516  0.40425689  1
  O  O90  1  0.99198905  0.16143113  0.90209374  1
  O  O91  1  0.16403632  0.00913848  0.90627738  1
  O  O92  1  0.83179363  0.82285181  0.90919678  1
  O  O93  1  0.96378971  0.17723467  0.57786654  1
  O  O94  1  0.22025176  0.04327579  0.57873852  1
  O  O95  1  0.82442534  0.78354937  0.57784495  1
  O  O96  1  0.96402069  0.78732655  0.07800630  1
  O  O97  1  0.82175758  0.03633657  0.07972162  1
  O  O98  1  0.22037044  0.17495854  0.07849981  1
  O  O99  1  0.70017641  0.17898430  0.74698076  1
  O  O100  1  0.48523187  0.30523655  0.74808210  1
  O  O101  1  0.82123911  0.51890955  0.74904130  1
  O  O102  1  0.69431155  0.51363943  0.24680234  1
  O  O103  1  0.81647302  0.30204101  0.24945769  1
  O  O104  1  0.47022231  0.16800325  0.25276014  1
  O  O105  1  0.68428964  0.51475614  0.92218918  1
  O  O106  1  0.82413759  0.31538808  0.92787813  1
  O  O107  1  0.48271579  0.17555374  0.92684615  1
  O  O108  1  0.68620350  0.17494275  0.42652866  1
  O  O109  1  0.47918724  0.31172476  0.42617540  1
  O  O110  1  0.81871100  0.51116245  0.42477625  1
  O  O111  1  0.37566866  0.49884157  0.08746121  1
  O  O112  1  0.12708540  0.62642218  0.08486831  1
  O  O113  1  0.50014037  0.86878107  0.08945844  1
  O  O114  1  0.37504219  0.87428968  0.58803212  1
  O  O115  1  0.50155203  0.62866181  0.58642401  1
  O  O116  1  0.13153271  0.50104371  0.58865862  1
  O  O117  1  0.32035920  0.85775938  0.25795433  1
  O  O118  1  0.52542285  0.67624705  0.25557562  1
  O  O119  1  0.13737396  0.47894669  0.25715716  1
  O  O120  1  0.33879859  0.48301071  0.75834717  1
  O  O121  1  0.14519063  0.66968441  0.75686294  1
  O  O122  1  0.52915345  0.85466565  0.75837907  1
