# generated using pymatgen
data_Na21Ca8Ta4Si3(P5O24)3
_symmetry_space_group_name_H-M   'P 1'
_cell_length_a   9.33909790
_cell_length_b   9.36498233
_cell_length_c   22.44406095
_cell_angle_alpha   89.99365795
_cell_angle_beta   90.11762619
_cell_angle_gamma   120.18503682
_symmetry_Int_Tables_number   1
_chemical_formula_structural   Na21Ca8Ta4Si3(P5O24)3
_chemical_formula_sum   'Na21 Ca8 Ta4 Si3 P15 O72'
_cell_volume   1696.79747977
_cell_formula_units_Z   1
loop_
 _symmetry_equiv_pos_site_id
 _symmetry_equiv_pos_as_xyz
  1  'x, y, z'
loop_
 _atom_site_type_symbol
 _atom_site_label
 _atom_site_symmetry_multiplicity
 _atom_site_fract_x
 _atom_site_fract_y
 _atom_site_fract_z
 _atom_site_occupancy
  Na  Na0  1  0.66826712  0.01134299  0.24109500  1
  Na  Na1  1  0.98642633  0.64396422  0.24106919  1
  Na  Na2  1  0.66034580  0.64970548  0.74693785  1
  Na  Na3  1  0.98574059  0.33567743  0.74820003  1
  Na  Na4  1  0.35035044  0.01010608  0.74726105  1
  Na  Na5  1  0.29465134  0.33872680  0.58326976  1
  Na  Na6  1  0.04778965  0.70861269  0.57726851  1
  Na  Na7  1  0.65967788  0.95006142  0.57861645  1
  Na  Na8  1  0.29369743  0.95424779  0.08107562  1
  Na  Na9  1  0.66295247  0.70421359  0.08100027  1
  Na  Na10  1  0.04602077  0.34170494  0.07737061  1
  Na  Na11  1  0.98485452  0.68197024  0.91315050  1
  Na  Na12  1  0.98278063  0.29922916  0.40589745  1
  Na  Na13  1  0.30710134  0.00938808  0.41011544  1
  Na  Na14  1  0.70993780  0.69983225  0.40969952  1
  Na  Na15  1  0.98831408  0.98929554  0.49535274  1
  Na  Na16  1  0.00138790  0.03260803  0.99327808  1
  Na  Na17  1  0.65376527  0.31783305  0.83351458  1
  Na  Na18  1  0.65006598  0.33418783  0.32260580  1
  Na  Na19  1  0.33249864  0.64315577  0.16236559  1
  Na  Na20  1  0.33702369  0.67022628  0.66286603  1
  Ca  Ca21  1  0.00520150  0.00523336  0.34419480  1
  Ca  Ca22  1  0.99892412  0.00804382  0.85153739  1
  Ca  Ca23  1  0.99823652  0.00006443  0.65122951  1
  Ca  Ca24  1  0.00591678  0.00865666  0.15079125  1
  Ca  Ca25  1  0.66835321  0.33392945  0.68455490  1
  Ca  Ca26  1  0.65869871  0.33112212  0.18491731  1
  Ca  Ca27  1  0.33496007  0.66377084  0.01170172  1
  Ca  Ca28  1  0.33478814  0.66874464  0.51291510  1
  Ta  Ta29  1  0.66411548  0.32963948  0.97832369  1
  Ta  Ta30  1  0.66912090  0.33278695  0.47878142  1
  Ta  Ta31  1  0.33183342  0.66680737  0.32110977  1
  Ta  Ta32  1  0.33320159  0.66278308  0.82472949  1
  Si  Si33  1  0.01874653  0.36310705  0.92374003  1
  Si  Si34  1  0.63450310  0.97387394  0.42142874  1
  Si  Si35  1  0.02676873  0.66145277  0.42178770  1
  P  P36  1  0.30983616  0.98446045  0.25474987  1
  P  P37  1  0.68045014  0.69442220  0.25411368  1
  P  P38  1  0.01053333  0.32218042  0.25292808  1
  P  P39  1  0.30675357  0.32018860  0.75006202  1
  P  P40  1  0.01639365  0.69429554  0.75367388  1
  P  P41  1  0.67828893  0.98385074  0.74905711  1
  P  P42  1  0.95795565  0.32583735  0.58202420  1
  P  P43  1  0.36899004  0.04281859  0.58234696  1
  P  P44  1  0.67158853  0.62794939  0.58198668  1
  P  P45  1  0.95584594  0.62957144  0.08181324  1
  P  P46  1  0.67185088  0.04372632  0.08216995  1
  P  P47  1  0.37259481  0.32933915  0.07927673  1
  P  P48  1  0.63101305  0.65084739  0.92041119  1
  P  P49  1  0.34493572  0.97083638  0.92014388  1
  P  P50  1  0.34495668  0.37302134  0.42067193  1
  O  O51  1  0.22956430  0.00058424  0.31119042  1
  O  O52  1  0.78448553  0.78314823  0.30895082  1
  O  O53  1  0.98649718  0.21541661  0.30755647  1
  O  O54  1  0.21223532  0.19130546  0.79732512  1
  O  O55  1  0.98836010  0.77876892  0.80667807  1
  O  O56  1  0.80762407  0.01638470  0.79632255  1
  O  O57  1  0.73334750  0.94659248  0.68842433  1
  O  O58  1  0.21150695  0.26872280  0.68980628  1
  O  O59  1  0.05003398  0.79753457  0.69589658  1
  O  O60  1  0.75037798  0.80395817  0.19767628  1
  O  O61  1  0.03020071  0.24557883  0.19513158  1
  O  O62  1  0.20211981  0.95439970  0.19867726  1
  O  O63  1  0.87842073  0.33378476  0.64006798  1
  O  O64  1  0.45392406  0.12469027  0.64084342  1
  O  O65  1  0.67013655  0.54455596  0.64046239  1
  O  O66  1  0.87694124  0.53855893  0.13957873  1
  O  O67  1  0.66216518  0.12017877  0.14076413  1
  O  O68  1  0.46769598  0.34006915  0.13514527  1
  O  O69  1  0.48287314  0.32932344  0.02405693  1
  O  O70  1  0.84017400  0.51454701  0.02680401  1
  O  O71  1  0.66749253  0.15973365  0.02867049  1
  O  O72  1  0.48391428  0.15621656  0.52801009  1
  O  O73  1  0.66858341  0.51236754  0.52761221  1
  O  O74  1  0.84279744  0.32855178  0.52741332  1
  O  O75  1  0.56963785  0.67776672  0.97910641  1
  O  O76  1  0.10546061  0.44515517  0.98499177  1
  O  O77  1  0.32465329  0.88358932  0.97877885  1
  O  O78  1  0.57230176  0.87225056  0.48193277  1
  O  O79  1  0.31239159  0.42990959  0.47953602  1
  O  O80  1  0.12276583  0.68862133  0.48303634  1
  O  O81  1  0.14065504  0.63424927  0.36805954  1
  O  O82  1  0.49479268  0.85646844  0.36734716  1
  O  O83  1  0.36468889  0.50149848  0.37053610  1
  O  O84  1  0.14514393  0.50685179  0.86950010  1
  O  O85  1  0.36870133  0.86386252  0.86846190  1
  O  O86  1  0.50585097  0.63940322  0.86844382  1
  O  O87  1  0.99422050  0.81200321  0.41043017  1
  O  O88  1  0.82157508  0.01841533  0.40914652  1
  O  O89  1  0.20685160  0.19807011  0.40728609  1
  O  O90  1  0.98659144  0.18240387  0.91346650  1
  O  O91  1  0.19237749  0.98260407  0.90646590  1
  O  O92  1  0.80730569  0.78428048  0.90723859  1
  O  O93  1  0.95722241  0.16184583  0.57470609  1
  O  O94  1  0.20176555  0.03784727  0.57516419  1
  O  O95  1  0.83399952  0.79472653  0.57446560  1
  O  O96  1  0.95505796  0.79373819  0.07635600  1
  O  O97  1  0.83688670  0.04528117  0.07536505  1
  O  O98  1  0.20545389  0.16534408  0.07490743  1
  O  O99  1  0.64193347  0.12761795  0.74909645  1
  O  O100  1  0.48785562  0.35910314  0.74890556  1
  O  O101  1  0.87381422  0.51372369  0.75009183  1
  O  O102  1  0.66459749  0.52419351  0.25007832  1
  O  O103  1  0.86558529  0.35742431  0.25148500  1
  O  O104  1  0.49228482  0.12159251  0.25151778  1
  O  O105  1  0.62691205  0.47965068  0.91906856  1
  O  O106  1  0.84001943  0.37012173  0.91928672  1
  O  O107  1  0.50711164  0.14529014  0.91972472  1
  O  O108  1  0.62475344  0.15005907  0.42286727  1
  O  O109  1  0.51620718  0.37553927  0.42097703  1
  O  O110  1  0.84388822  0.48090027  0.42205486  1
  O  O111  1  0.34980099  0.48156919  0.07772811  1
  O  O112  1  0.13322062  0.65788677  0.07890630  1
  O  O113  1  0.52032150  0.86842323  0.07817896  1
  O  O114  1  0.35063133  0.86987668  0.58037235  1
  O  O115  1  0.51553561  0.64404998  0.58019013  1
  O  O116  1  0.13262055  0.47751917  0.57863967  1
  O  O117  1  0.31425450  0.81502585  0.26138271  1
  O  O118  1  0.50327776  0.67658448  0.26395348  1
  O  O119  1  0.17493876  0.49577878  0.26193874  1
  O  O120  1  0.31549453  0.49181889  0.76582322  1
  O  O121  1  0.18327814  0.68741731  0.76394174  1
  O  O122  1  0.50756774  0.81958941  0.76348059  1
