# generated using pymatgen
data_MgFe8(OF)8
_symmetry_space_group_name_H-M   'P 1'
_cell_length_a   9.80753678
_cell_length_b   9.89170623
_cell_length_c   3.04755594
_cell_angle_alpha   89.89023652
_cell_angle_beta   89.80168657
_cell_angle_gamma   89.54180347
_symmetry_Int_Tables_number   1
_chemical_formula_structural   MgFe8(OF)8
_chemical_formula_sum   'Mg1 Fe8 O8 F8'
_cell_volume   295.64162345
_cell_formula_units_Z   1
loop_
 _symmetry_equiv_pos_site_id
 _symmetry_equiv_pos_as_xyz
  1  'x, y, z'
loop_
 _atom_site_type_symbol
 _atom_site_label
 _atom_site_symmetry_multiplicity
 _atom_site_fract_x
 _atom_site_fract_y
 _atom_site_fract_z
 _atom_site_occupancy
  Mg  Mg0  1  0.98974400  0.24225500  0.47889600  1
  Fe  Fe1  1  0.02835500  0.98119600  0.98223000  1
  Fe  Fe2  1  0.01821700  0.52487200  0.98770800  1
  Fe  Fe3  1  0.25416000  0.26544100  0.50680200  1
  Fe  Fe4  1  0.23642000  0.74484200  0.48489700  1
  Fe  Fe5  1  0.51935600  0.51743700  0.99952100  1
  Fe  Fe6  1  0.49726000  0.99064900  0.00158000  1
  Fe  Fe7  1  0.71589400  0.27297100  0.49585300  1
  Fe  Fe8  1  0.75765700  0.72485800  0.49355200  1
  O  O9  1  0.09397700  0.40987000  0.48851900  1
  O  O10  1  0.11317200  0.89847300  0.48216200  1
  O  O11  1  0.11019200  0.16084300  0.98201400  1
  O  O12  1  0.16361700  0.65467100  0.98638300  1
  O  O13  1  0.59312500  0.41654100  0.49977800  1
  O  O14  1  0.65140200  0.65790800  0.99591000  1
  O  O15  1  0.84204900  0.30116200  0.99129800  1
  O  O16  1  0.90452500  0.59622500  0.48940100  1
  F  F17  1  0.36223500  0.37061700  0.00498200  1
  F  F18  1  0.35563900  0.83985000  0.98665600  1
  F  F19  1  0.38952500  0.09995600  0.50253500  1
  F  F20  1  0.40680600  0.61037600  0.49659800  1
  F  F21  1  0.61384500  0.90106300  0.49915300  1
  F  F22  1  0.62578600  0.15832800  0.00093900  1
  F  F23  1  0.85487800  0.83915200  0.98917700  1
  F  F24  1  0.89522100  0.06350000  0.48595600  1
