# generated using pymatgen
data_Na6Ca2Nb4Si3(PO6)6
_symmetry_space_group_name_H-M   'P 1'
_cell_length_a   9.08803468
_cell_length_b   9.08803437
_cell_length_c   22.68163854
_cell_angle_alpha   89.97152838
_cell_angle_beta   90.02847162
_cell_angle_gamma   120.12644921
_symmetry_Int_Tables_number   1
_chemical_formula_structural   Na6Ca2Nb4Si3(PO6)6
_chemical_formula_sum   'Na12 Ca4 Nb8 Si6 P12 O72'
_cell_volume   1620.28025194
_cell_formula_units_Z   2
loop_
 _symmetry_equiv_pos_site_id
 _symmetry_equiv_pos_as_xyz
  1  'x, y, z'
loop_
 _atom_site_type_symbol
 _atom_site_label
 _atom_site_symmetry_multiplicity
 _atom_site_fract_x
 _atom_site_fract_y
 _atom_site_fract_z
 _atom_site_occupancy
  Na  Na0  1  0.36117285  0.34753317  0.24006463  1
  Na  Na1  1  0.98455086  0.63885508  0.24131055  1
  Na  Na2  1  0.65246683  0.63882715  0.74006463  1
  Na  Na3  1  0.36114492  0.01544914  0.74131055  1
  Na  Na4  1  0.71321584  0.03283771  0.91234564  1
  Na  Na5  1  0.96716229  0.28678416  0.41234564  1
  Na  Na6  1  0.00850100  0.98755164  0.49650422  1
  Na  Na7  1  0.01244836  0.99149900  0.99650422  1
  Na  Na8  1  0.68851649  0.34839175  0.82744922  1
  Na  Na9  1  0.65160825  0.31148351  0.32744922  1
  Na  Na10  1  0.35126350  0.70591094  0.16282348  1
  Na  Na11  1  0.29408906  0.64873650  0.66282348  1
  Ca  Ca12  1  0.00039388  0.99315901  0.35844921  1
  Ca  Ca13  1  0.00684099  0.99960612  0.85844921  1
  Ca  Ca14  1  0.67637610  0.32936773  0.67844038  1
  Ca  Ca15  1  0.67063227  0.32362390  0.17844038  1
  Nb  Nb16  1  0.00302641  0.00663270  0.64423076  1
  Nb  Nb17  1  0.99336730  0.99697359  0.14423076  1
  Nb  Nb18  1  0.67150256  0.34393596  0.98449565  1
  Nb  Nb19  1  0.65606404  0.32849744  0.48449565  1
  Nb  Nb20  1  0.33749167  0.66526324  0.02087239  1
  Nb  Nb21  1  0.33473676  0.66250833  0.52087239  1
  Nb  Nb22  1  0.34175745  0.67044927  0.31277841  1
  Nb  Nb23  1  0.32955073  0.65824255  0.81277841  1
  Si  Si24  1  0.96372380  0.33292320  0.58233970  1
  Si  Si25  1  0.36209036  0.02766341  0.58721123  1
  Si  Si26  1  0.97233659  0.63790964  0.08721123  1
  Si  Si27  1  0.66707680  0.03627620  0.08233970  1
  Si  Si28  1  0.61557565  0.64884923  0.91718913  1
  Si  Si29  1  0.35115077  0.38442435  0.41718913  1
  P  P30  1  0.28859807  0.99407504  0.25095848  1
  P  P31  1  0.70157342  0.71201460  0.24971425  1
  P  P32  1  0.00757447  0.29953073  0.25499966  1
  P  P33  1  0.28798540  0.29842658  0.74971425  1
  P  P34  1  0.00592496  0.71140193  0.75095848  1
  P  P35  1  0.70046927  0.99242553  0.75499966  1
  P  P36  1  0.67039308  0.63532030  0.58491361  1
  P  P37  1  0.36467970  0.32960692  0.08491361  1
  P  P38  1  0.03537558  0.38778981  0.91897905  1
  P  P39  1  0.34887470  0.95958164  0.91775604  1
  P  P40  1  0.61221019  0.96462442  0.41897905  1
  P  P41  1  0.04041836  0.65112530  0.41775604  1
  O  O42  1  0.20800907  0.01041444  0.30656347  1
  O  O43  1  0.80625275  0.78754400  0.30393637  1
  O  O44  1  -0.00014885  0.21548105  0.31332042  1
  O  O45  1  0.21245600  0.19374725  0.80393637  1
  O  O46  1  0.98958556  0.79199093  0.80656347  1
  O  O47  1  0.78451895  0.00014885  0.81332042  1
  O  O48  1  0.80279512  0.97220066  0.70204231  1
  O  O49  1  0.17425000  0.20028915  0.69390648  1
  O  O50  1  0.02798446  0.83096965  0.69612638  1
  O  O51  1  0.79971085  0.82575000  0.19390648  1
  O  O52  1  0.02779934  0.19720488  0.20204231  1
  O  O53  1  0.16903035  0.97201554  0.19612638  1
  O  O54  1  0.91816563  0.39331987  0.64089415  1
  O  O55  1  0.45531479  0.08365941  0.64864036  1
  O  O56  1  0.62883123  0.54179179  0.64286148  1
  O  O57  1  0.91634059  0.54468521  0.14864036  1
  O  O58  1  0.60668013  0.08183437  0.14089415  1
  O  O59  1  0.45820821  0.37116877  0.14286148  1
  O  O60  1  0.46894100  0.30772156  0.03281649  1
  O  O61  1  0.83133637  0.52409633  0.03254701  1
  O  O62  1  0.69307923  0.16231424  0.02421694  1
  O  O63  1  0.47590367  0.16866363  0.53254701  1
  O  O64  1  0.69227844  0.53105900  0.53281649  1
  O  O65  1  0.83768576  0.30692077  0.52421694  1
  O  O66  1  0.48506982  0.63797603  0.96830590  1
  O  O67  1  0.13770374  0.49033709  0.97224059  1
  O  O68  1  0.34839353  0.84955289  0.96983413  1
  O  O69  1  0.50966291  0.86229626  0.47224059  1
  O  O70  1  0.36202397  0.51493018  0.46830590  1
  O  O71  1  0.15044711  0.65160647  0.46983413  1
  O  O72  1  0.13876545  0.64256734  0.36010316  1
  O  O73  1  0.50567777  0.86652499  0.36184163  1
  O  O74  1  0.36566061  0.50112790  0.35565574  1
  O  O75  1  0.13347501  0.49432223  0.86184163  1
  O  O76  1  0.35743266  0.86123455  0.86010316  1
  O  O77  1  0.49887210  0.63433939  0.85565574  1
  O  O78  1  0.01870259  0.80444521  0.42073942  1
  O  O79  1  0.79070913  0.99113142  0.41889112  1
  O  O80  1  0.17534283  0.20985598  0.42257265  1
  O  O81  1  0.00886858  0.20929087  0.91889112  1
  O  O82  1  0.19555479  0.98129741  0.92073942  1
  O  O83  1  0.79014402  0.82465717  0.92257265  1
  O  O84  1  0.96443566  0.15040672  0.59130022  1
  O  O85  1  0.17657910  0.02258088  0.58931236  1
  O  O86  1  0.83880984  0.80979475  0.58853808  1
  O  O87  1  0.97741912  0.82342090  0.08931236  1
  O  O88  1  0.84959328  0.03556434  0.09130022  1
  O  O89  1  0.19020525  0.16119016  0.08853808  1
  O  O90  1  0.66172018  0.13682670  0.74977033  1
  O  O91  1  0.47235508  0.33976521  0.74270181  1
  O  O92  1  0.84937823  0.53550864  0.74508555  1
  O  O93  1  0.66023479  0.52764492  0.24270181  1
  O  O94  1  0.86317330  0.33827982  0.24977033  1
  O  O95  1  0.46449136  0.15062177  0.24508555  1
  O  O96  1  0.62895622  0.47510799  0.92291998  1
  O  O97  1  0.85675391  0.37473451  0.92027288  1
  O  O98  1  0.52017706  0.13174557  0.91897070  1
  O  O99  1  0.62526549  0.14324609  0.42027288  1
  O  O100  1  0.52489201  0.37104378  0.42291998  1
  O  O101  1  0.86825443  0.47982294  0.41897070  1
  O  O102  1  0.32561889  0.47384979  0.07020112  1
  O  O103  1  0.16294217  0.67445058  0.07031760  1
  O  O104  1  0.52439014  0.83628950  0.06665856  1
  O  O105  1  0.32554942  0.83705783  0.57031760  1
  O  O106  1  0.52615021  0.67438111  0.57020112  1
  O  O107  1  0.16371050  0.47560986  0.56665856  1
  O  O108  1  0.29288537  0.82066901  0.25258325  1
  O  O109  1  0.52564267  0.71144014  0.25277488  1
  O  O110  1  0.18406046  0.48099585  0.25337777  1
  O  O111  1  0.28855986  0.47435733  0.75277488  1
  O  O112  1  0.17933099  0.70711463  0.75258325  1
  O  O113  1  0.51900415  0.81593954  0.75337777  1
