# generated using pymatgen
data_MgFe2Si2SbO9
_symmetry_space_group_name_H-M   'P 1'
_cell_length_a   5.38134388
_cell_length_b   5.32883809
_cell_length_c   8.08978797
_cell_angle_alpha   101.28652823
_cell_angle_beta   90.86508817
_cell_angle_gamma   121.43096871
_symmetry_Int_Tables_number   1
_chemical_formula_structural   MgFe2Si2SbO9
_chemical_formula_sum   'Mg1 Fe2 Si2 Sb1 O9'
_cell_volume   192.20560524
_cell_formula_units_Z   1
loop_
 _symmetry_equiv_pos_site_id
 _symmetry_equiv_pos_as_xyz
  1  'x, y, z'
loop_
 _atom_site_type_symbol
 _atom_site_label
 _atom_site_symmetry_multiplicity
 _atom_site_fract_x
 _atom_site_fract_y
 _atom_site_fract_z
 _atom_site_occupancy
  Mg  Mg0  1  0.39715939  0.80530543  0.30247034  1
  Fe  Fe1  1  0.62913601  0.33290966  0.99192539  1
  Fe  Fe2  1  0.30187535  0.62023034  0.95957726  1
  Si  Si3  1  0.88215191  0.52312731  0.63733997  1
  Si  Si4  1  0.56087175  0.86362404  0.65094585  1
  Sb  Sb5  1  0.06543741  0.10837871  0.26069298  1
  O  O6  1  0.04014699  0.41315171  0.16421584  1
  O  O7  1  0.36225249  0.03973181  0.14618372  1
  O  O8  1  0.67692932  0.72814004  0.16308719  1
  O  O9  1  0.93581276  0.57023656  0.83838456  1
  O  O10  1  0.61809373  0.96270839  0.85208480  1
  O  O11  1  0.33202793  0.28022843  0.84908431  1
  O  O12  1  0.20640220  0.66809920  0.55701892  1
  O  O13  1  0.68716670  0.14291935  0.54293196  1
  O  O14  1  0.70053806  0.66220902  0.56699090  1
