# generated using pymatgen
data_Na3InAs2
_symmetry_space_group_name_H-M   'P 1'
_cell_length_a   7.50027560
_cell_length_b   9.66533133
_cell_length_c   15.68565271
_cell_angle_alpha   87.13511909
_cell_angle_beta   90.00000000
_cell_angle_gamma   90.00000000
_symmetry_Int_Tables_number   1
_chemical_formula_structural   Na3InAs2
_chemical_formula_sum   'Na24 In8 As16'
_cell_volume   1135.67334878
_cell_formula_units_Z   8
loop_
 _symmetry_equiv_pos_site_id
 _symmetry_equiv_pos_as_xyz
  1  'x, y, z'
loop_
 _atom_site_type_symbol
 _atom_site_label
 _atom_site_symmetry_multiplicity
 _atom_site_fract_x
 _atom_site_fract_y
 _atom_site_fract_z
 _atom_site_occupancy
  Na  Na0  1  0.15116341  0.87356488  0.70342749  1
  Na  Na1  1  0.65116341  0.12643512  0.79657251  1
  Na  Na2  1  0.84883659  0.12643512  0.29657251  1
  Na  Na3  1  0.34883659  0.87356488  0.20342749  1
  Na  Na4  1  0.48915912  0.56060202  0.10573398  1
  Na  Na5  1  0.98915912  0.43939798  0.39426602  1
  Na  Na6  1  0.51084088  0.43939798  0.89426602  1
  Na  Na7  1  0.01084088  0.56060202  0.60573398  1
  Na  Na8  1  0.96872224  0.18716028  0.64827100  1
  Na  Na9  1  0.46872224  0.81283972  0.85172900  1
  Na  Na10  1  0.03127776  0.81283972  0.35172900  1
  Na  Na11  1  0.53127776  0.18716028  0.14827100  1
  Na  Na12  1  0.84827109  0.38296563  0.04647801  1
  Na  Na13  1  0.34827109  0.61703437  0.45352199  1
  Na  Na14  1  0.15172891  0.61703437  0.95352199  1
  Na  Na15  1  0.65172891  0.38296563  0.54647801  1
  Na  Na16  1  0.97390166  0.93378271  0.89415409  1
  Na  Na17  1  0.47390166  0.06621729  0.60584591  1
  Na  Na18  1  0.02609834  0.06621729  0.10584591  1
  Na  Na19  1  0.52609834  0.93378271  0.39415409  1
  Na  Na20  1  0.00819946  0.32129273  0.86213349  1
  Na  Na21  1  0.50819946  0.67870727  0.63786651  1
  Na  Na22  1  0.99180054  0.67870727  0.13786651  1
  Na  Na23  1  0.49180054  0.32129273  0.36213349  1
  In  In24  1  0.64047985  0.87457625  0.04184627  1
  In  In25  1  0.14047985  0.12542375  0.45815373  1
  In  In26  1  0.35952015  0.12542375  0.95815373  1
  In  In27  1  0.85952015  0.87457625  0.54184627  1
  In  In28  1  0.65284807  0.63760575  0.29080686  1
  In  In29  1  0.15284807  0.36239425  0.20919314  1
  In  In30  1  0.34715193  0.36239425  0.70919314  1
  In  In31  1  0.84715193  0.63760575  0.79080686  1
  As  As32  1  0.22255532  0.87156125  0.52338923  1
  As  As33  1  0.72255532  0.12843875  0.97661077  1
  As  As34  1  0.77744468  0.12843875  0.47661077  1
  As  As35  1  0.27744468  0.87156125  0.02338923  1
  As  As36  1  0.71129582  0.40696152  0.72525787  1
  As  As37  1  0.21129582  0.59303848  0.77474213  1
  As  As38  1  0.28870418  0.59303848  0.27474213  1
  As  As39  1  0.78870418  0.40696152  0.22525787  1
  As  As40  1  0.76208916  0.65082406  0.96022577  1
  As  As41  1  0.26208916  0.34917594  0.53977423  1
  As  As42  1  0.23791084  0.34917594  0.03977423  1
  As  As43  1  0.73791084  0.65082406  0.46022577  1
  As  As44  1  0.75819120  0.87816907  0.70772748  1
  As  As45  1  0.25819120  0.12183093  0.79227252  1
  As  As46  1  0.24180880  0.12183093  0.29227252  1
  As  As47  1  0.74180880  0.87816907  0.20772748  1
