# generated using pymatgen
data_Na5Nb2Si5Sn2PO24
_symmetry_space_group_name_H-M   'P 1'
_cell_length_a   9.01946437
_cell_length_b   9.02555427
_cell_length_c   22.61724212
_cell_angle_alpha   90.06919126
_cell_angle_beta   90.09740967
_cell_angle_gamma   120.01331886
_symmetry_Int_Tables_number   1
_chemical_formula_structural   Na5Nb2Si5Sn2PO24
_chemical_formula_sum   'Na15 Nb6 Si15 Sn6 P3 O72'
_cell_volume   1594.28056458
_cell_formula_units_Z   3
loop_
 _symmetry_equiv_pos_site_id
 _symmetry_equiv_pos_as_xyz
  1  'x, y, z'
loop_
 _atom_site_type_symbol
 _atom_site_label
 _atom_site_symmetry_multiplicity
 _atom_site_fract_x
 _atom_site_fract_y
 _atom_site_fract_z
 _atom_site_occupancy
  Na  Na0  1  0.64029544  0.00357651  0.24971560  1
  Na  Na1  1  0.36663896  0.36294097  0.24813875  1
  Na  Na2  1  0.99380872  0.63231497  0.24835002  1
  Na  Na3  1  0.99684228  0.36302680  0.74946417  1
  Na  Na4  1  0.03386436  0.69968474  0.57968302  1
  Na  Na5  1  0.66259822  0.96414698  0.57981576  1
  Na  Na6  1  0.96960724  0.66787749  0.91969974  1
  Na  Na7  1  0.70153514  0.03477849  0.91734956  1
  Na  Na8  1  0.32850862  0.29823064  0.92002093  1
  Na  Na9  1  0.00492445  0.00509834  0.49294007  1
  Na  Na10  1  0.00471770  0.00233726  0.00502668  1
  Na  Na11  1  0.65926893  0.33107230  0.83098197  1
  Na  Na12  1  0.66802360  0.33456115  0.33443662  1
  Na  Na13  1  0.32991251  0.66114327  0.16097525  1
  Na  Na14  1  0.34102227  0.66499559  0.66394289  1
  Nb  Nb15  1  0.00296623  0.00334342  0.64541755  1
  Nb  Nb16  1  0.00442440  0.99913794  0.14464065  1
  Nb  Nb17  1  0.66193569  0.33391223  0.68644360  1
  Nb  Nb18  1  0.66907940  0.33154377  0.47626936  1
  Nb  Nb19  1  0.33134935  0.66870687  0.31442392  1
  Nb  Nb20  1  0.33213160  0.67349839  0.81011197  1
  Si  Si21  1  0.29019282  0.00224312  0.25070175  1
  Si  Si22  1  0.71121040  0.71011911  0.24964146  1
  Si  Si23  1  0.99813539  0.28654778  0.24998731  1
  Si  Si24  1  0.29442772  0.29142096  0.75137880  1
  Si  Si25  1  0.99619487  0.71012579  0.75054390  1
  Si  Si26  1  0.70886756  0.99857996  0.74994933  1
  Si  Si27  1  0.95793297  0.33498280  0.58309647  1
  Si  Si28  1  0.37788688  0.04652806  0.58160965  1
  Si  Si29  1  0.66200735  0.61934050  0.58179744  1
  Si  Si30  1  0.96061424  0.62648112  0.08320947  1
  Si  Si31  1  0.37395839  0.33620786  0.08262147  1
  Si  Si32  1  0.04170658  0.37410895  0.91635127  1
  Si  Si33  1  0.33324372  0.95781095  0.91814856  1
  Si  Si34  1  0.62887038  0.95779118  0.41830706  1
  Si  Si35  1  0.04211352  0.67172421  0.41826440  1
  Sn  Sn36  1  0.99767540  0.99774280  0.35355462  1
  Sn  Sn37  1  0.00377575  0.00173132  0.85033327  1
  Sn  Sn38  1  0.66717913  0.33542476  0.18332643  1
  Sn  Sn39  1  0.66602739  0.33276760  0.98397427  1
  Sn  Sn40  1  0.32635812  0.66163031  0.02226314  1
  Sn  Sn41  1  0.33359464  0.66446072  0.51873756  1
  P  P42  1  0.66660392  0.03758217  0.08301005  1
  P  P43  1  0.62043281  0.66779432  0.91645758  1
  P  P44  1  0.33230204  0.37494998  0.41661241  1
  O  O45  1  0.21256903  0.04870113  0.30718260  1
  O  O46  1  0.83497064  0.78744035  0.30667282  1
  O  O47  1  0.95533274  0.16599115  0.30743114  1
  O  O48  1  0.22057370  0.18330432  0.81201793  1
  O  O49  1  0.96281798  0.78349208  0.81141280  1
  O  O50  1  0.82615799  0.04180298  0.80957277  1
  O  O51  1  0.80239442  0.97159511  0.69196479  1
  O  O52  1  0.16204474  0.19519799  0.69542038  1
  O  O53  1  0.02754756  0.83109355  0.69266153  1
  O  O54  1  0.79972291  0.83903600  0.19339454  1
  O  O55  1  0.03668920  0.19798338  0.19333602  1
  O  O56  1  0.16194785  0.96152346  0.19364612  1
  O  O57  1  0.86956045  0.36490937  0.64207917  1
  O  O58  1  0.50307037  0.13934218  0.63920891  1
  O  O59  1  0.64121003  0.50137095  0.64011015  1
  O  O60  1  0.87885032  0.51274462  0.14273349  1
  O  O61  1  0.63713961  0.11845044  0.13901676  1
  O  O62  1  0.48356729  0.36070287  0.14288915  1
  O  O63  1  0.44831222  0.29551388  0.02153844  1
  O  O64  1  0.84761017  0.54940239  0.02179597  1
  O  O65  1  0.69933160  0.14705743  0.02564336  1
  O  O66  1  0.47145332  0.16900640  0.52554908  1
  O  O67  1  0.70171704  0.53023549  0.52644389  1
  O  O68  1  0.82825234  0.29810972  0.52713506  1
  O  O69  1  0.54530789  0.70549986  0.97114901  1
  O  O70  1  0.17105609  0.45581714  0.97139641  1
  O  O71  1  0.29598983  0.83260936  0.97321798  1
  O  O72  1  0.54624503  0.84672336  0.47832894  1
  O  O73  1  0.30263435  0.45625001  0.47233332  1
  O  O74  1  0.15179856  0.69545584  0.47842395  1
  O  O75  1  0.13681057  0.64010510  0.35974191  1
  O  O76  1  0.50364405  0.85971978  0.35983031  1
  O  O77  1  0.35759579  0.48875971  0.36074563  1
  O  O78  1  0.13265655  0.49688090  0.85753347  1
  O  O79  1  0.36535523  0.86308951  0.86002052  1
  O  O80  1  0.50400060  0.63858265  0.86164047  1
  O  O81  1  0.02736176  0.84168599  0.41233670  1
  O  O82  1  0.81834781  0.98352971  0.41265622  1
  O  O83  1  0.17401756  0.19737222  0.41071374  1
  O  O84  1  0.01532289  0.18009592  0.91138443  1
  O  O85  1  0.16055892  0.97428446  0.91206198  1
  O  O86  1  0.80251977  0.82771963  0.91025495  1
  O  O87  1  0.96559660  0.15746474  0.59001683  1
  O  O88  1  0.18553749  0.02118269  0.59045626  1
  O  O89  1  0.83689750  0.80908528  0.59077096  1
  O  O90  1  0.97172552  0.81415270  0.09007254  1
  O  O91  1  0.83011577  0.02451418  0.08953641  1
  O  O92  1  0.18306109  0.16329920  0.08998408  1
  O  O93  1  0.69541470  0.17125959  0.74179552  1
  O  O94  1  0.48278188  0.31351144  0.74226482  1
  O  O95  1  0.83715538  0.51492747  0.74317454  1
  O  O96  1  0.68448190  0.51699595  0.24452010  1
  O  O97  1  0.83050748  0.31076091  0.24323873  1
  O  O98  1  0.48377864  0.16390890  0.24285267  1
  O  O99  1  0.63663365  0.50409485  0.91974000  1
  O  O100  1  0.85231289  0.36042211  0.92066287  1
  O  O101  1  0.50735745  0.14793033  0.92020162  1
  O  O102  1  0.63557288  0.14402628  0.42226219  1
  O  O103  1  0.49753728  0.36426975  0.42199409  1
  O  O104  1  0.85370428  0.49514905  0.42293266  1
  O  O105  1  0.36218120  0.50967369  0.07899528  1
  O  O106  1  0.15157203  0.65147394  0.08049527  1
  O  O107  1  0.50718875  0.86030209  0.07726499  1
  O  O108  1  0.35897521  0.85663860  0.57991741  1
  O  O109  1  0.49931115  0.64962896  0.57970842  1
  O  O110  1  0.14307995  0.50819999  0.57884761  1
  O  O111  1  0.30537363  0.82698115  0.25708268  1
  O  O112  1  0.51907976  0.69032793  0.25713518  1
  O  O113  1  0.17161161  0.47780996  0.25696869  1
  O  O114  1  0.30279891  0.47729127  0.75660386  1
  O  O115  1  0.16776131  0.68771607  0.75613313  1
  O  O116  1  0.52069323  0.82675509  0.75668504  1
