# generated using pymatgen
data_Si(Bi3O5)4
_symmetry_space_group_name_H-M   'P 1'
_cell_length_a   8.75209315
_cell_length_b   8.75209280
_cell_length_c   8.75209250
_cell_angle_alpha   109.47121812
_cell_angle_beta   109.47125829
_cell_angle_gamma   109.47118731
_symmetry_Int_Tables_number   1
_chemical_formula_structural   Si(Bi3O5)4
_chemical_formula_sum   'Si1 Bi12 O20'
_cell_volume   516.07621528
_cell_formula_units_Z   1
loop_
 _symmetry_equiv_pos_site_id
 _symmetry_equiv_pos_as_xyz
  1  'x, y, z'
loop_
 _atom_site_type_symbol
 _atom_site_label
 _atom_site_symmetry_multiplicity
 _atom_site_fract_x
 _atom_site_fract_y
 _atom_site_fract_z
 _atom_site_occupancy
  Si  Si0  1  -0.00000003  0.00000001  -0.00000014  1
  Bi  Bi1  1  0.16026948  0.85725533  0.66612278  1
  Bi  Bi2  1  0.80886773  0.14274376  0.30301492  1
  Bi  Bi3  1  0.83973023  0.50585353  0.69698555  1
  Bi  Bi4  1  0.49414669  0.33387669  0.19113202  1
  Bi  Bi5  1  0.33387692  0.19113262  0.49414680  1
  Bi  Bi6  1  0.66612331  0.16026996  0.85725587  1
  Bi  Bi7  1  0.14274485  0.30301466  0.80886787  1
  Bi  Bi8  1  0.69698559  0.83972988  0.50585389  1
  Bi  Bi9  1  0.85725536  0.66612281  0.16026940  1
  Bi  Bi10  1  0.30301404  0.80886781  0.14274433  1
  Bi  Bi11  1  0.50585354  0.69698541  0.83972996  1
  Bi  Bi12  1  0.19113232  0.49414659  0.33387706  1
  O  O13  1  0.00000010  -0.00000004  0.18871209  1
  O  O14  1  -0.00000003  0.18871216  -0.00000026  1
  O  O15  1  0.18871206  0.00000003  0.00000000  1
  O  O16  1  0.81128783  0.81128792  0.81128778  1
  O  O17  1  -0.00000012  -0.00000000  0.60286484  1
  O  O18  1  0.00000009  0.60286519  -0.00000001  1
  O  O19  1  0.60286503  -0.00000007  -0.00000012  1
  O  O20  1  0.39713504  0.39713507  0.39713500  1
  O  O21  1  0.64395882  0.87747292  0.25746756  1
  O  O22  1  0.37999315  0.12252529  0.76648543  1
  O  O23  1  0.35604019  0.61350783  0.23351472  1
  O  O24  1  0.38649230  0.74253189  0.62000670  1
  O  O25  1  0.74253218  0.62000715  0.38649241  1
  O  O26  1  0.62000693  0.38649372  0.74253265  1
  O  O27  1  0.61350784  0.23351453  0.35603971  1
  O  O28  1  0.76648532  0.37999319  0.12252484  1
  O  O29  1  0.87747520  0.25746832  0.64396049  1
  O  O30  1  0.23351480  0.35603987  0.61350767  1
  O  O31  1  0.12252500  0.76648562  0.37999312  1
  O  O32  1  0.25746824  0.64396033  0.87747508  1
