# generated using pymatgen
data_Na3Mg4Nb2P3(SO6)6
_symmetry_space_group_name_H-M   'P 1'
_cell_length_a   8.69418159
_cell_length_b   8.69418132
_cell_length_c   22.80164588
_cell_angle_alpha   90.00000000
_cell_angle_beta   90.00000000
_cell_angle_gamma   120.00000106
_symmetry_Int_Tables_number   1
_chemical_formula_structural   Na3Mg4Nb2P3(SO6)6
_chemical_formula_sum   'Na6 Mg8 Nb4 P6 S12 O72'
_cell_volume   1492.63707223
_cell_formula_units_Z   2
loop_
 _symmetry_equiv_pos_site_id
 _symmetry_equiv_pos_as_xyz
  1  'x, y, z'
loop_
 _atom_site_type_symbol
 _atom_site_label
 _atom_site_symmetry_multiplicity
 _atom_site_fract_x
 _atom_site_fract_y
 _atom_site_fract_z
 _atom_site_occupancy
  Na  Na0  1  0.00000000  0.00000000  0.49571076  1
  Na  Na1  1  0.00000000  0.00000000  0.99571076  1
  Na  Na2  1  0.66666700  0.33333300  0.82856046  1
  Na  Na3  1  0.66666700  0.33333300  0.32856046  1
  Na  Na4  1  0.33333300  0.66666700  0.16189767  1
  Na  Na5  1  0.33333300  0.66666700  0.66189767  1
  Mg  Mg6  1  0.00000000  0.00000000  0.35318547  1
  Mg  Mg7  1  0.00000000  0.00000000  0.85318547  1
  Mg  Mg8  1  0.00000000  0.00000000  0.64751073  1
  Mg  Mg9  1  0.00000000  0.00000000  0.14751073  1
  Mg  Mg10  1  0.66666700  0.33333300  0.68460629  1
  Mg  Mg11  1  0.66666700  0.33333300  0.18460629  1
  Mg  Mg12  1  0.33333300  0.66666700  0.01815853  1
  Mg  Mg13  1  0.33333300  0.66666700  0.51815853  1
  Nb  Nb14  1  0.66666700  0.33333300  0.97721617  1
  Nb  Nb15  1  0.66666700  0.33333300  0.47721617  1
  Nb  Nb16  1  0.33333300  0.66666700  0.31664145  1
  Nb  Nb17  1  0.33333300  0.66666700  0.81664145  1
  P  P18  1  0.62705435  0.67446083  0.91975842  1
  P  P19  1  0.04740548  0.37294565  0.91975842  1
  P  P20  1  0.32553917  0.95259452  0.91975842  1
  P  P21  1  0.62705435  0.95259452  0.41975842  1
  P  P22  1  0.32553917  0.37294565  0.41975842  1
  P  P23  1  0.04740548  0.67446083  0.41975842  1
  S  S24  1  0.29198199  0.00272868  0.24984683  1
  S  S25  1  0.71074669  0.70801801  0.24984683  1
  S  S26  1  0.99727132  0.28925331  0.24984683  1
  S  S27  1  0.29198199  0.28925331  0.74984683  1
  S  S28  1  0.99727132  0.70801801  0.74984683  1
  S  S29  1  0.71074669  0.00272868  0.74984683  1
  S  S30  1  0.95897715  0.33420983  0.58477725  1
  S  S31  1  0.37523368  0.04102285  0.58477725  1
  S  S32  1  0.66579017  0.62476632  0.58477725  1
  S  S33  1  0.95897715  0.62476632  0.08477725  1
  S  S34  1  0.66579017  0.04102285  0.08477725  1
  S  S35  1  0.37523368  0.33420983  0.08477725  1
  O  O36  1  0.21024217  0.02384430  0.30284455  1
  O  O37  1  0.81360212  0.78975783  0.30284455  1
  O  O38  1  0.97615570  0.18639788  0.30284455  1
  O  O39  1  0.21024217  0.18639788  0.80284455  1
  O  O40  1  0.97615570  0.78975783  0.80284455  1
  O  O41  1  0.81360212  0.02384430  0.80284455  1
  O  O42  1  0.78457844  0.96962180  0.69669732  1
  O  O43  1  0.18504337  0.21542156  0.69669732  1
  O  O44  1  0.03037820  0.81495663  0.69669732  1
  O  O45  1  0.78457844  0.81495663  0.19669732  1
  O  O46  1  0.03037820  0.21542156  0.19669732  1
  O  O47  1  0.18504337  0.96962180  0.19669732  1
  O  O48  1  0.87324730  0.35682523  0.63659677  1
  O  O49  1  0.48357892  0.12675270  0.63659677  1
  O  O50  1  0.64317477  0.51642108  0.63659677  1
  O  O51  1  0.87324730  0.51642108  0.13659677  1
  O  O52  1  0.64317477  0.12675270  0.13659677  1
  O  O53  1  0.48357892  0.35682523  0.13659677  1
  O  O54  1  0.46842435  0.31314138  0.03024059  1
  O  O55  1  0.84471803  0.53157565  0.03024059  1
  O  O56  1  0.68685862  0.15528197  0.03024059  1
  O  O57  1  0.46842435  0.15528197  0.53024059  1
  O  O58  1  0.68685862  0.53157565  0.53024059  1
  O  O59  1  0.84471803  0.31314138  0.53024059  1
  O  O60  1  0.54060067  0.69475916  0.97333813  1
  O  O61  1  0.15415749  0.45939933  0.97333813  1
  O  O62  1  0.30524084  0.84584251  0.97333813  1
  O  O63  1  0.54060067  0.84584251  0.47333813  1
  O  O64  1  0.30524084  0.45939933  0.47333813  1
  O  O65  1  0.15415749  0.69475916  0.47333813  1
  O  O66  1  0.13279968  0.63611022  0.36288668  1
  O  O67  1  0.50330955  0.86720032  0.36288668  1
  O  O68  1  0.36388978  0.49669045  0.36288668  1
  O  O69  1  0.13279968  0.49669045  0.86288668  1
  O  O70  1  0.36388978  0.86720032  0.86288668  1
  O  O71  1  0.50330955  0.63611022  0.86288668  1
  O  O72  1  0.01583445  0.82557594  0.40792099  1
  O  O73  1  0.80974149  0.98416555  0.40792099  1
  O  O74  1  0.17442406  0.19025851  0.40792099  1
  O  O75  1  0.01583445  0.19025851  0.90792099  1
  O  O76  1  0.17442406  0.98416555  0.90792099  1
  O  O77  1  0.80974149  0.82557594  0.90792099  1
  O  O78  1  0.96948525  0.17007821  0.58704844  1
  O  O79  1  0.20059296  0.03051475  0.58704844  1
  O  O80  1  0.82992179  0.79940704  0.58704844  1
  O  O81  1  0.96948525  0.79940704  0.08704844  1
  O  O82  1  0.82992179  0.03051475  0.08704844  1
  O  O83  1  0.20059296  0.17007821  0.08704844  1
  O  O84  1  0.68281833  0.15639053  0.74396681  1
  O  O85  1  0.47357320  0.31718167  0.74396681  1
  O  O86  1  0.84360947  0.52642680  0.74396681  1
  O  O87  1  0.68281833  0.52642680  0.24396681  1
  O  O88  1  0.84360947  0.31718167  0.24396681  1
  O  O89  1  0.47357320  0.15639053  0.24396681  1
  O  O90  1  0.63608342  0.49559500  0.92475174  1
  O  O91  1  0.85951258  0.36391658  0.92475174  1
  O  O92  1  0.50440500  0.14048742  0.92475174  1
  O  O93  1  0.63608342  0.14048742  0.42475174  1
  O  O94  1  0.50440500  0.36391658  0.42475174  1
  O  O95  1  0.85951258  0.49559500  0.42475174  1
  O  O96  1  0.35875410  0.49305342  0.07765719  1
  O  O97  1  0.13429832  0.64124590  0.07765719  1
  O  O98  1  0.50694658  0.86570168  0.07765719  1
  O  O99  1  0.35875410  0.86570168  0.57765719  1
  O  O100  1  0.50694658  0.64124590  0.57765719  1
  O  O101  1  0.13429832  0.49305342  0.57765719  1
  O  O102  1  0.31118260  0.83601379  0.25717244  1
  O  O103  1  0.52483019  0.68881740  0.25717244  1
  O  O104  1  0.16398621  0.47516981  0.25717244  1
  O  O105  1  0.31118260  0.47516981  0.75717244  1
  O  O106  1  0.16398621  0.68881740  0.75717244  1
  O  O107  1  0.52483019  0.83601379  0.75717244  1
