# generated using pymatgen
data_MgNb2(SCl)4
_symmetry_space_group_name_H-M   'P 1'
_cell_length_a   6.28824902
_cell_length_b   6.61136834
_cell_length_c   7.41839436
_cell_angle_alpha   79.32409895
_cell_angle_beta   67.07381177
_cell_angle_gamma   61.60395913
_symmetry_Int_Tables_number   1
_chemical_formula_structural   MgNb2(SCl)4
_chemical_formula_sum   'Mg1 Nb2 S4 Cl4'
_cell_volume   249.87313956
_cell_formula_units_Z   1
loop_
 _symmetry_equiv_pos_site_id
 _symmetry_equiv_pos_as_xyz
  1  'x, y, z'
loop_
 _atom_site_type_symbol
 _atom_site_label
 _atom_site_symmetry_multiplicity
 _atom_site_fract_x
 _atom_site_fract_y
 _atom_site_fract_z
 _atom_site_occupancy
  Mg  Mg0  1  0.73276300  0.00000000  0.66903900  1
  Nb  Nb1  1  0.88644700  0.24703800  0.99012500  1
  Nb  Nb2  1  0.13348400  0.75296200  0.99012500  1
  S  S3  1  0.87395700  0.00000000  0.28830800  1
  S  S4  1  0.10857900  0.00000000  0.69352700  1
  S  S5  1  0.36337100  0.00000000  0.93450400  1
  S  S6  1  0.64649300  0.00000000  0.13967300  1
  Cl  Cl7  1  0.98746700  0.44739200  0.20194800  1
  Cl  Cl8  1  0.58046000  0.43207700  0.77129400  1
  Cl  Cl9  1  0.01253700  0.56792300  0.77129400  1
  Cl  Cl10  1  0.43485900  0.55260800  0.20194800  1
