# generated using pymatgen
data_Na3TiNb(SiO4)3
_symmetry_space_group_name_H-M   'P 1'
_cell_length_a   15.76384013
_cell_length_b   8.99758545
_cell_length_c   9.00616005
_cell_angle_alpha   90.00000000
_cell_angle_beta   125.31605281
_cell_angle_gamma   90.00000000
_symmetry_Int_Tables_number   1
_chemical_formula_structural   Na3TiNb(SiO4)3
_chemical_formula_sum   'Na12 Ti4 Nb4 Si12 O48'
_cell_volume   1042.32910537
_cell_formula_units_Z   4
loop_
 _symmetry_equiv_pos_site_id
 _symmetry_equiv_pos_as_xyz
  1  'x, y, z'
loop_
 _atom_site_type_symbol
 _atom_site_label
 _atom_site_symmetry_multiplicity
 _atom_site_fract_x
 _atom_site_fract_y
 _atom_site_fract_z
 _atom_site_occupancy
  Na  Na0  1  0.24994468  0.73039509  0.99163817  1
  Na  Na1  1  0.74994468  0.76960491  0.49163817  1
  Na  Na2  1  0.74994468  0.23039509  0.99163817  1
  Na  Na3  1  0.24994468  0.26960491  0.49163817  1
  Na  Na4  1  0.49769110  0.10939184  0.74360096  1
  Na  Na5  1  0.49769110  0.89060816  0.24360096  1
  Na  Na6  1  0.99769110  0.60939184  0.74360096  1
  Na  Na7  1  0.99769110  0.39060816  0.24360096  1
  Na  Na8  1  0.18928450  0.93983355  0.28798092  1
  Na  Na9  1  0.18928450  0.06016645  0.78798092  1
  Na  Na10  1  0.68928450  0.43983355  0.28798092  1
  Na  Na11  1  0.68928450  0.56016645  0.78798092  1
  Ti  Ti12  1  0.10516706  0.74944270  0.56374152  1
  Ti  Ti13  1  0.10516706  0.25055730  0.06374152  1
  Ti  Ti14  1  0.60516706  0.24944270  0.56374152  1
  Ti  Ti15  1  0.60516706  0.75055730  0.06374152  1
  Nb  Nb16  1  0.89323424  0.75365482  0.93184396  1
  Nb  Nb17  1  0.89323424  0.24634518  0.43184396  1
  Nb  Nb18  1  0.39323424  0.25365482  0.93184396  1
  Nb  Nb19  1  0.39323424  0.74634518  0.43184396  1
  Si  Si20  1  0.00142715  0.95815470  0.75663961  1
  Si  Si21  1  0.00142715  0.04184530  0.25663961  1
  Si  Si22  1  0.50142715  0.45815470  0.75663961  1
  Si  Si23  1  0.50142715  0.54184530  0.25663961  1
  Si  Si24  1  0.35408326  0.88586670  0.75789271  1
  Si  Si25  1  0.64416504  0.89632368  0.74890604  1
  Si  Si26  1  0.64416504  0.10367632  0.24890604  1
  Si  Si27  1  0.35408326  0.11413330  0.25789271  1
  Si  Si28  1  0.85408326  0.38586670  0.75789271  1
  Si  Si29  1  0.14416504  0.39632368  0.74890604  1
  Si  Si30  1  0.14416504  0.60367632  0.24890604  1
  Si  Si31  1  0.85408326  0.61413330  0.25789271  1
  O  O32  1  0.14678475  0.57583573  0.74144138  1
  O  O33  1  0.84886133  0.57050798  0.76349889  1
  O  O34  1  0.84886133  0.42949202  0.26349889  1
  O  O35  1  0.14678475  0.42416427  0.24144138  1
  O  O36  1  0.64678475  0.07583573  0.74144138  1
  O  O37  1  0.34886133  0.07050798  0.76349889  1
  O  O38  1  0.34886133  0.92949202  0.26349889  1
  O  O39  1  0.64678475  0.92416427  0.24144138  1
  O  O40  1  0.43469843  0.57080033  0.57849605  1
  O  O41  1  0.57023515  0.56364006  0.93656694  1
  O  O42  1  0.57023515  0.43635994  0.43656694  1
  O  O43  1  0.43469843  0.42919967  0.07849605  1
  O  O44  1  0.93469843  0.07080033  0.57849605  1
  O  O45  1  0.07023515  0.06364006  0.93656694  1
  O  O46  1  0.07023515  0.93635994  0.43656694  1
  O  O47  1  0.93469843  0.92919967  0.07849605  1
  O  O48  1  0.25321370  0.82257180  0.74432504  1
  O  O49  1  0.73971538  0.81192864  0.75837609  1
  O  O50  1  0.73971538  0.18807136  0.25837609  1
  O  O51  1  0.25321370  0.17742820  0.24432504  1
  O  O52  1  0.75321370  0.32257180  0.74432504  1
  O  O53  1  0.23971538  0.31192864  0.75837609  1
  O  O54  1  0.23971538  0.68807136  0.25837609  1
  O  O55  1  0.75321370  0.67742820  0.24432504  1
  O  O56  1  0.35330052  0.85669506  0.57498889  1
  O  O57  1  0.63946442  0.84679707  0.91979944  1
  O  O58  1  0.63946442  0.15320293  0.41979944  1
  O  O59  1  0.35330052  0.14330494  0.07498889  1
  O  O60  1  0.85330052  0.35669506  0.57498889  1
  O  O61  1  0.13946442  0.34679707  0.91979944  1
  O  O62  1  0.13946442  0.65320293  0.41979944  1
  O  O63  1  0.85330052  0.64330494  0.07498889  1
  O  O64  1  0.46397582  0.82592230  0.93733570  1
  O  O65  1  0.53602871  0.82955560  0.56394711  1
  O  O66  1  0.53602871  0.17044440  0.06394711  1
  O  O67  1  0.46397582  0.17407770  0.43733570  1
  O  O68  1  0.96397582  0.32592230  0.93733570  1
  O  O69  1  0.03602871  0.32955560  0.56394711  1
  O  O70  1  0.03602871  0.67044440  0.06394711  1
  O  O71  1  0.96397582  0.67407770  0.43733570  1
  O  O72  1  0.08241426  0.85524349  0.74512093  1
  O  O73  1  0.91631050  0.85006190  0.75385964  1
  O  O74  1  0.91631050  0.14993810  0.25385964  1
  O  O75  1  0.08241426  0.14475651  0.24512093  1
  O  O76  1  0.58241426  0.35524349  0.74512093  1
  O  O77  1  0.41631050  0.35006190  0.75385964  1
  O  O78  1  0.41631050  0.64993810  0.25385964  1
  O  O79  1  0.58241426  0.64475651  0.24512093  1
