# generated using pymatgen
data_Na7Ta3Zn(SiO4)6
_symmetry_space_group_name_H-M   'P 1'
_cell_length_a   9.11737782
_cell_length_b   9.11737750
_cell_length_c   22.39254655
_cell_angle_alpha   90.00000000
_cell_angle_beta   90.00000000
_cell_angle_gamma   120.00000116
_symmetry_Int_Tables_number   1
_chemical_formula_structural   Na7Ta3Zn(SiO4)6
_chemical_formula_sum   'Na21 Ta9 Zn3 Si18 O72'
_cell_volume   1612.03327251
_cell_formula_units_Z   3
loop_
 _symmetry_equiv_pos_site_id
 _symmetry_equiv_pos_as_xyz
  1  'x, y, z'
loop_
 _atom_site_type_symbol
 _atom_site_label
 _atom_site_symmetry_multiplicity
 _atom_site_fract_x
 _atom_site_fract_y
 _atom_site_fract_z
 _atom_site_occupancy
  Na  Na0  1  0.64188097  0.02341452  0.24518402  1
  Na  Na1  1  0.38153355  0.35811903  0.24518402  1
  Na  Na2  1  0.97658548  0.61846645  0.24518402  1
  Na  Na3  1  0.63352092  0.61361574  0.74642247  1
  Na  Na4  1  0.98009481  0.36647908  0.74642247  1
  Na  Na5  1  0.38638426  0.01990519  0.74642247  1
  Na  Na6  1  0.30934218  0.33532068  0.58568368  1
  Na  Na7  1  0.02597951  0.69065782  0.58568368  1
  Na  Na8  1  0.66467932  0.97402049  0.58568368  1
  Na  Na9  1  0.31154018  0.97627681  0.08626304  1
  Na  Na10  1  0.66473763  0.68845982  0.08626304  1
  Na  Na11  1  0.02372319  0.33526237  0.08626304  1
  Na  Na12  1  0.96647486  0.27969310  0.40744455  1
  Na  Na13  1  0.31321725  0.03352514  0.40744455  1
  Na  Na14  1  0.72030690  0.68678275  0.40744455  1
  Na  Na15  1  -0.00000000  0.00000000  0.49084403  1
  Na  Na16  1  -0.00000000  0.00000000  0.99788138  1
  Na  Na17  1  0.66666700  0.33333300  0.83075185  1
  Na  Na18  1  0.66666700  0.33333300  0.32034528  1
  Na  Na19  1  0.33333300  0.66666700  0.16620142  1
  Na  Na20  1  0.33333300  0.66666700  0.66859981  1
  Ta  Ta21  1  -0.00000000  0.00000000  0.85705343  1
  Ta  Ta22  1  -0.00000000  0.00000000  0.64702036  1
  Ta  Ta23  1  -0.00000000  0.00000000  0.14839400  1
  Ta  Ta24  1  0.66666700  0.33333300  0.97758904  1
  Ta  Ta25  1  0.66666700  0.33333300  0.47932389  1
  Ta  Ta26  1  0.33333300  0.66666700  0.01740146  1
  Ta  Ta27  1  0.33333300  0.66666700  0.51899142  1
  Ta  Ta28  1  0.33333300  0.66666700  0.31088427  1
  Ta  Ta29  1  0.33333300  0.66666700  0.81438762  1
  Zn  Zn30  1  -0.00000000  0.00000000  0.34778663  1
  Zn  Zn31  1  0.66666700  0.33333300  0.68435625  1
  Zn  Zn32  1  0.66666700  0.33333300  0.18168059  1
  Si  Si33  1  0.29338683  0.00178646  0.25341554  1
  Si  Si34  1  0.70839964  0.70661317  0.25341554  1
  Si  Si35  1  0.99821354  0.29160036  0.25341554  1
  Si  Si36  1  0.28892455  0.29082025  0.75171364  1
  Si  Si37  1  0.00189570  0.71107545  0.75171364  1
  Si  Si38  1  0.70917975  0.99810430  0.75171364  1
  Si  Si39  1  0.95900568  0.33433313  0.58512935  1
  Si  Si40  1  0.37532845  0.04099432  0.58512935  1
  Si  Si41  1  0.66566687  0.62467155  0.58512935  1
  Si  Si42  1  0.95836794  0.62416563  0.08397176  1
  Si  Si43  1  0.66579869  0.04163206  0.08397176  1
  Si  Si44  1  0.37583437  0.33420131  0.08397176  1
  Si  Si45  1  0.62574131  0.66516629  0.91620403  1
  Si  Si46  1  0.03942399  0.37425869  0.91620403  1
  Si  Si47  1  0.33483371  0.96057601  0.91620403  1
  Si  Si48  1  0.62317462  0.95926056  0.41684586  1
  Si  Si49  1  0.33608493  0.37682538  0.41684586  1
  Si  Si50  1  0.04073944  0.66391507  0.41684586  1
  O  O51  1  0.21427682  0.03295353  0.31287641  1
  O  O52  1  0.81867670  0.78572318  0.31287641  1
  O  O53  1  0.96704647  0.18132330  0.31287641  1
  O  O54  1  0.18384944  0.16415799  0.80646638  1
  O  O55  1  0.98030855  0.81615056  0.80646638  1
  O  O56  1  0.83584201  0.01969145  0.80646638  1
  O  O57  1  0.80061307  0.96585625  0.69105227  1
  O  O58  1  0.16524317  0.19938693  0.69105227  1
  O  O59  1  0.03414375  0.83475683  0.69105227  1
  O  O60  1  0.80258408  0.83513354  0.19321641  1
  O  O61  1  0.03254946  0.19741592  0.19321641  1
  O  O62  1  0.16486646  0.96745054  0.19321641  1
  O  O63  1  0.89147221  0.38320720  0.64381702  1
  O  O64  1  0.49173599  0.10852779  0.64381702  1
  O  O65  1  0.61679280  0.50826401  0.64381702  1
  O  O66  1  0.89579903  0.51203031  0.14373158  1
  O  O67  1  0.61623228  0.10420097  0.14373158  1
  O  O68  1  0.48796969  0.38376772  0.14373158  1
  O  O69  1  0.47140354  0.29982277  0.02747927  1
  O  O70  1  0.82842023  0.52859646  0.02747927  1
  O  O71  1  0.70017723  0.17157977  0.02747927  1
  O  O72  1  0.46861804  0.16751872  0.52660840  1
  O  O73  1  0.69890168  0.53138196  0.52660840  1
  O  O74  1  0.83248128  0.30109832  0.52660840  1
  O  O75  1  0.52935789  0.69022919  0.97424809  1
  O  O76  1  0.16087030  0.47064211  0.97424809  1
  O  O77  1  0.30977081  0.83912970  0.97424809  1
  O  O78  1  0.52112071  0.83970324  0.47476632  1
  O  O79  1  0.31858153  0.47887929  0.47476632  1
  O  O80  1  0.16029676  0.68141847  0.47476632  1
  O  O81  1  0.13423416  0.63010145  0.35930389  1
  O  O82  1  0.49586629  0.86576584  0.35930389  1
  O  O83  1  0.36989855  0.50413371  0.35930389  1
  O  O84  1  0.13771341  0.49693667  0.85778818  1
  O  O85  1  0.35922226  0.86228659  0.85778818  1
  O  O86  1  0.50306333  0.64077774  0.85778818  1
  O  O87  1  0.02257847  0.82915598  0.41864103  1
  O  O88  1  0.80657750  0.97742153  0.41864103  1
  O  O89  1  0.17084402  0.19342250  0.41864103  1
  O  O90  1  0.02446870  0.18935706  0.90997796  1
  O  O91  1  0.16488836  0.97553130  0.90997796  1
  O  O92  1  0.81064294  0.83511164  0.90997796  1
  O  O93  1  0.97577230  0.16160325  0.58862888  1
  O  O94  1  0.18583095  0.02422770  0.58862888  1
  O  O95  1  0.83839675  0.81416905  0.58862888  1
  O  O96  1  0.97726462  0.81580205  0.08827305  1
  O  O97  1  0.83853743  0.02273538  0.08827305  1
  O  O98  1  0.18419795  0.16146257  0.08827305  1
  O  O99  1  0.69092676  0.16374394  0.74953402  1
  O  O100  1  0.47281817  0.30907324  0.74953402  1
  O  O101  1  0.83625606  0.52718183  0.74953402  1
  O  O102  1  0.67924030  0.51934025  0.24604234  1
  O  O103  1  0.84010095  0.32075970  0.24604234  1
  O  O104  1  0.48065975  0.15989905  0.24604234  1
  O  O105  1  0.63998847  0.49473526  0.92339039  1
  O  O106  1  0.85474779  0.36001153  0.92339039  1
  O  O107  1  0.50526474  0.14525221  0.92339039  1
  O  O108  1  0.63098107  0.14386930  0.42398525  1
  O  O109  1  0.51288923  0.36901893  0.42398525  1
  O  O110  1  0.85613070  0.48711077  0.42398525  1
  O  O111  1  0.34527305  0.49788524  0.07294566  1
  O  O112  1  0.15261119  0.65472695  0.07294566  1
  O  O113  1  0.50211476  0.84738881  0.07294566  1
  O  O114  1  0.34457534  0.84789725  0.57468606  1
  O  O115  1  0.50332091  0.65542466  0.57468606  1
  O  O116  1  0.15210275  0.49667909  0.57468606  1
  O  O117  1  0.29778525  0.81901293  0.25566413  1
  O  O118  1  0.52122668  0.70221475  0.25566413  1
  O  O119  1  0.18098707  0.47877332  0.25566413  1
  O  O120  1  0.29746335  0.47686739  0.75543449  1
  O  O121  1  0.17940303  0.70253665  0.75543449  1
  O  O122  1  0.52313261  0.82059697  0.75543449  1
