# generated using pymatgen
data_GdBr3
_symmetry_space_group_name_H-M   'P 1'
_cell_length_a   6.96713257
_cell_length_b   7.29662484
_cell_length_c   7.29662592
_cell_angle_alpha   119.98789115
_cell_angle_beta   99.70840809
_cell_angle_gamma   99.70839655
_symmetry_Int_Tables_number   1
_chemical_formula_structural   GdBr3
_chemical_formula_sum   'Gd2 Br6'
_cell_volume   302.46156968
_cell_formula_units_Z   2
loop_
 _symmetry_equiv_pos_site_id
 _symmetry_equiv_pos_as_xyz
  1  'x, y, z'
loop_
 _atom_site_type_symbol
 _atom_site_label
 _atom_site_symmetry_multiplicity
 _atom_site_fract_x
 _atom_site_fract_y
 _atom_site_fract_z
 _atom_site_occupancy
  Gd  Gd0  1  -0.00000000  0.83371279  0.16628721  1
  Gd  Gd1  1  0.00000000  0.16628721  0.83371279  1
  Br  Br2  1  0.75357446  0.78265575  0.78265575  1
  Br  Br3  1  0.24642554  0.21734425  0.21734425  1
  Br  Br4  1  0.24248171  0.57761051  0.93613417  1
  Br  Br5  1  0.75751829  0.06386583  0.42238949  1
  Br  Br6  1  0.75751829  0.42238949  0.06386583  1
  Br  Br7  1  0.24248171  0.93613417  0.57761051  1
