# generated using pymatgen
data_MgBi(WO4)2
_symmetry_space_group_name_H-M   'P 1'
_cell_length_a   5.26155332
_cell_length_b   6.06209362
_cell_length_c   7.13513171
_cell_angle_alpha   124.80448522
_cell_angle_beta   113.88746689
_cell_angle_gamma   89.79819198
_symmetry_Int_Tables_number   1
_chemical_formula_structural   MgBi(WO4)2
_chemical_formula_sum   'Mg1 Bi1 W2 O8'
_cell_volume   162.82094748
_cell_formula_units_Z   1
loop_
 _symmetry_equiv_pos_site_id
 _symmetry_equiv_pos_as_xyz
  1  'x, y, z'
loop_
 _atom_site_type_symbol
 _atom_site_label
 _atom_site_symmetry_multiplicity
 _atom_site_fract_x
 _atom_site_fract_y
 _atom_site_fract_z
 _atom_site_occupancy
  Mg  Mg0  1  0.64040000  0.61104400  0.14163100  1
  Bi  Bi1  1  0.12233200  0.22377800  0.10285600  1
  W  W2  1  0.87709000  0.39596800  0.61181100  1
  W  W3  1  0.37400700  0.04618900  0.58102300  1
  O  O4  1  0.13216100  0.74360100  0.84459500  1
  O  O5  1  0.63449600  0.43858400  0.36508700  1
  O  O6  1  0.19314400  0.29374700  0.83705100  1
  O  O7  1  0.58356100  0.97332700  0.38348000  1
  O  O8  1  0.61977500  0.04216400  0.84858100  1
  O  O9  1  0.07563000  0.66994900  0.32055400  1
  O  O10  1  0.06980800  0.18130200  0.40550300  1
  O  O11  1  0.66175700  0.45056300  0.79333400  1
