# generated using pymatgen
data_K2S5O16
_symmetry_space_group_name_H-M   'P 1'
_cell_length_a   9.19526705
_cell_length_b   10.79557956
_cell_length_c   14.46544765
_cell_angle_alpha   90.00000000
_cell_angle_beta   90.00000000
_cell_angle_gamma   90.00000000
_symmetry_Int_Tables_number   1
_chemical_formula_structural   K2S5O16
_chemical_formula_sum   'K8 S20 O64'
_cell_volume   1435.95948583
_cell_formula_units_Z   4
loop_
 _symmetry_equiv_pos_site_id
 _symmetry_equiv_pos_as_xyz
  1  'x, y, z'
loop_
 _atom_site_type_symbol
 _atom_site_label
 _atom_site_symmetry_multiplicity
 _atom_site_fract_x
 _atom_site_fract_y
 _atom_site_fract_z
 _atom_site_occupancy
  K  K0  1  0.24007742  0.01159649  0.04397499  1
  K  K1  1  0.74007742  0.48840351  0.95602501  1
  K  K2  1  0.75992258  0.01159649  0.45602501  1
  K  K3  1  0.25992258  0.48840351  0.54397499  1
  K  K4  1  0.75992258  0.98840351  0.95602501  1
  K  K5  1  0.25992258  0.51159649  0.04397499  1
  K  K6  1  0.24007742  0.98840351  0.54397499  1
  K  K7  1  0.74007742  0.51159649  0.45602501  1
  S  S8  1  0.00000000  0.16878202  0.25000000  1
  S  S9  1  0.50000000  0.33121798  0.75000000  1
  S  S10  1  0.00000000  0.83121798  0.75000000  1
  S  S11  1  0.50000000  0.66878202  0.25000000  1
  S  S12  1  0.22065615  0.35063158  0.29231610  1
  S  S13  1  0.72065615  0.14936842  0.70768390  1
  S  S14  1  0.77934385  0.35063158  0.20768390  1
  S  S15  1  0.27934385  0.14936842  0.79231610  1
  S  S16  1  0.93101993  0.75168383  0.07280270  1
  S  S17  1  0.43101993  0.74831617  0.92719730  1
  S  S18  1  0.06898007  0.75168383  0.42719730  1
  S  S19  1  0.56898007  0.74831617  0.57280270  1
  S  S20  1  0.06898007  0.24831617  0.92719730  1
  S  S21  1  0.56898007  0.25168383  0.07280270  1
  S  S22  1  0.93101993  0.24831617  0.57280270  1
  S  S23  1  0.43101993  0.25168383  0.42719730  1
  S  S24  1  0.72065615  0.85063158  0.20768390  1
  S  S25  1  0.22065615  0.64936842  0.79231610  1
  S  S26  1  0.27934385  0.85063158  0.29231610  1
  S  S27  1  0.77934385  0.64936842  0.70768390  1
  O  O28  1  0.60380188  0.60568859  0.30406577  1
  O  O29  1  0.10380188  0.89431141  0.69593423  1
  O  O30  1  0.39619812  0.60568859  0.19593423  1
  O  O31  1  0.89619812  0.89431141  0.80406577  1
  O  O32  1  0.39619812  0.39431141  0.69593423  1
  O  O33  1  0.89619812  0.10568859  0.30406577  1
  O  O34  1  0.60380188  0.39431141  0.80406577  1
  O  O35  1  0.10380188  0.10568859  0.19593423  1
  O  O36  1  0.70893300  0.87284884  0.30356290  1
  O  O37  1  0.20893300  0.62715116  0.69643710  1
  O  O38  1  0.29106700  0.87284884  0.19643710  1
  O  O39  1  0.79106700  0.62715116  0.80356290  1
  O  O40  1  0.29106700  0.12715116  0.69643710  1
  O  O41  1  0.79106700  0.37284884  0.30356290  1
  O  O42  1  0.70893300  0.12715116  0.80356290  1
  O  O43  1  0.20893300  0.37284884  0.19643710  1
  O  O44  1  0.70741280  0.94707473  0.14213751  1
  O  O45  1  0.20741280  0.55292527  0.85786249  1
  O  O46  1  0.29258720  0.94707473  0.35786249  1
  O  O47  1  0.79258720  0.55292527  0.64213751  1
  O  O48  1  0.29258720  0.05292527  0.85786249  1
  O  O49  1  0.79258720  0.44707473  0.14213751  1
  O  O50  1  0.97337182  0.34814248  0.90721886  1
  O  O51  1  0.70741280  0.05292527  0.64213751  1
  O  O52  1  0.02662818  0.65185752  0.09278114  1
  O  O53  1  0.52662818  0.84814248  0.90721886  1
  O  O54  1  0.97337182  0.65185752  0.40721886  1
  O  O55  1  0.47337182  0.84814248  0.59278114  1
  O  O56  1  0.07811423  0.26014221  0.32049861  1
  O  O57  1  0.57811423  0.23985779  0.67950139  1
  O  O58  1  0.92188577  0.26014221  0.17950139  1
  O  O59  1  0.42188577  0.23985779  0.82049861  1
  O  O60  1  0.92188577  0.73985779  0.67950139  1
  O  O61  1  0.42188577  0.76014221  0.32049861  1
  O  O62  1  0.07811423  0.73985779  0.82049861  1
  O  O63  1  0.57811423  0.76014221  0.17950139  1
  O  O64  1  0.34853362  0.26545796  0.31071740  1
  O  O65  1  0.84853362  0.23454204  0.68928260  1
  O  O66  1  0.65146638  0.26545796  0.18928260  1
  O  O67  1  0.15146638  0.23454204  0.81071740  1
  O  O68  1  0.65146638  0.73454204  0.68928260  1
  O  O69  1  0.15146638  0.76545796  0.31071740  1
  O  O70  1  0.34853362  0.73454204  0.81071740  1
  O  O71  1  0.84853362  0.76545796  0.18928260  1
  O  O72  1  0.49198795  0.37263105  0.43862141  1
  O  O73  1  0.99198795  0.12736895  0.56137859  1
  O  O74  1  0.50801205  0.37263105  0.06137859  1
  O  O75  1  0.00801205  0.12736895  0.93862141  1
  O  O76  1  0.50801205  0.62736895  0.56137859  1
  O  O77  1  0.00801205  0.87263105  0.43862141  1
  O  O78  1  0.49198795  0.62736895  0.93862141  1
  O  O79  1  0.99198795  0.87263105  0.06137859  1
  O  O80  1  0.30525238  0.22574628  0.48251968  1
  O  O81  1  0.80525238  0.27425372  0.51748032  1
  O  O82  1  0.69474762  0.22574628  0.01748032  1
  O  O83  1  0.19474762  0.27425372  0.98251968  1
  O  O84  1  0.69474762  0.77425372  0.51748032  1
  O  O85  1  0.19474762  0.72574628  0.48251968  1
  O  O86  1  0.30525238  0.77425372  0.98251968  1
  O  O87  1  0.80525238  0.72574628  0.01748032  1
  O  O88  1  0.52662818  0.15185752  0.40721886  1
  O  O89  1  0.02662818  0.34814248  0.59278114  1
  O  O90  1  0.47337182  0.15185752  0.09278114  1
  O  O91  1  0.20741280  0.44707473  0.35786249  1
