# generated using pymatgen
data_Na5La2Zr2SiP5O24
_symmetry_space_group_name_H-M   'P 1'
_cell_length_a   9.35856513
_cell_length_b   9.37542128
_cell_length_c   23.57240720
_cell_angle_alpha   89.85614362
_cell_angle_beta   90.01514284
_cell_angle_gamma   120.50138474
_symmetry_Int_Tables_number   1
_chemical_formula_structural   Na5La2Zr2SiP5O24
_chemical_formula_sum   'Na15 La6 Zr6 Si3 P15 O72'
_cell_volume   1782.03624106
_cell_formula_units_Z   3
loop_
 _symmetry_equiv_pos_site_id
 _symmetry_equiv_pos_as_xyz
  1  'x, y, z'
loop_
 _atom_site_type_symbol
 _atom_site_label
 _atom_site_symmetry_multiplicity
 _atom_site_fract_x
 _atom_site_fract_y
 _atom_site_fract_z
 _atom_site_occupancy
  Na  Na0  1  0.00232834  0.64368151  0.25004291  1
  Na  Na1  1  0.63261406  0.64098090  0.74901472  1
  Na  Na2  1  0.37036109  0.99685883  0.75144458  1
  Na  Na3  1  0.66608299  0.97240295  0.58734077  1
  Na  Na4  1  0.30043777  0.97169587  0.08295122  1
  Na  Na5  1  0.67956675  0.69560060  0.08120566  1
  Na  Na6  1  0.02526512  0.33354100  0.08434393  1
  Na  Na7  1  0.96224416  0.30085908  0.42047535  1
  Na  Na8  1  0.34160733  0.03700023  0.42298609  1
  Na  Na9  1  0.00828527  0.98816633  0.50196644  1
  Na  Na10  1  0.00174870  0.98954434  0.99154793  1
  Na  Na11  1  0.68228764  0.33197252  0.83679258  1
  Na  Na12  1  0.65016102  0.33198055  0.33142512  1
  Na  Na13  1  0.34262586  0.66660047  0.16986591  1
  Na  Na14  1  0.31651824  0.65222315  0.66476005  1
  La  La15  1  0.99088553  0.99437632  0.34880602  1
  La  La16  1  0.00126812  0.00452019  0.15630154  1
  La  La17  1  0.66860276  0.33942602  0.97820736  1
  La  La18  1  0.66207990  0.34599905  0.49382241  1
  La  La19  1  0.34927506  0.66728213  0.31696459  1
  La  La20  1  0.32455442  0.65970809  0.81313770  1
  Zr  Zr21  1  0.99369618  0.00306101  0.85202392  1
  Zr  Zr22  1  0.00593419  0.00449110  0.64859725  1
  Zr  Zr23  1  0.66983183  0.32596058  0.68280661  1
  Zr  Zr24  1  0.66749848  0.32981313  0.18044717  1
  Zr  Zr25  1  0.32865457  0.66706346  0.01189175  1
  Zr  Zr26  1  0.33290901  0.66520717  0.52231647  1
  Si  Si27  1  0.71779139  0.01227264  0.74696431  1
  Si  Si28  1  0.36059090  0.02448640  0.58354805  1
  Si  Si29  1  0.97422908  0.63287911  0.08400161  1
  P  P30  1  0.31885773  0.00821040  0.24872129  1
  P  P31  1  0.69029011  0.67331092  0.24264597  1
  P  P32  1  0.98682755  0.31314900  0.24792624  1
  P  P33  1  0.29638594  0.28025126  0.74822644  1
  P  P34  1  0.98591103  0.71247859  0.74861270  1
  P  P35  1  0.96966884  0.33272042  0.58420017  1
  P  P36  1  0.66496078  0.64166313  0.58923558  1
  P  P37  1  0.65482508  0.02837826  0.08223457  1
  P  P38  1  0.37476968  0.34663740  0.08295312  1
  P  P39  1  0.63814942  0.68394460  0.91441451  1
  P  P40  1  0.04171804  0.35566617  0.91729990  1
  P  P41  1  0.31466067  0.95657409  0.91371962  1
  P  P42  1  0.63285642  0.96730461  0.42436010  1
  P  P43  1  0.32677948  0.36523424  0.42167010  1
  P  P44  1  0.04605544  0.66866371  0.41863088  1
  O  O45  1  0.23302064  0.02548669  0.30270115  1
  O  O46  1  0.80531516  0.76714789  0.29387575  1
  O  O47  1  0.97531574  0.21208759  0.30172314  1
  O  O48  1  0.20872232  0.17618644  0.80202614  1
  O  O49  1  0.96830097  0.79842163  0.80237419  1
  O  O50  1  0.83054366  0.02554130  0.80323792  1
  O  O51  1  0.81160582  0.99595655  0.69203442  1
  O  O52  1  0.18945339  0.18936480  0.69656573  1
  O  O53  1  0.00131389  0.82033061  0.69711113  1
  O  O54  1  0.76879250  0.76718345  0.18726808  1
  O  O55  1  0.00528070  0.23382856  0.19363241  1
  O  O56  1  0.21328320  0.98714472  0.19555428  1
  O  O57  1  0.86775923  0.35648780  0.63224133  1
  O  O58  1  0.49912138  0.13613785  0.63453175  1
  O  O59  1  0.64510072  0.52524429  0.63962557  1
  O  O60  1  0.87946601  0.51079022  0.14029823  1
  O  O61  1  0.63211371  0.12037873  0.13397569  1
  O  O62  1  0.48859361  0.36323010  0.13449752  1
  O  O63  1  0.43985278  0.30288351  0.03079164  1
  O  O64  1  0.84721414  0.55087705  0.03233576  1
  O  O65  1  0.68909485  0.13553931  0.02987585  1
  O  O66  1  0.42590257  0.11917767  0.52352362  1
  O  O67  1  0.70223380  0.58277210  0.53416815  1
  O  O68  1  0.87233055  0.29393922  0.52835614  1
  O  O69  1  0.53792654  0.69173235  0.96747762  1
  O  O70  1  0.14851138  0.45422880  0.97120168  1
  O  O71  1  0.30631651  0.84314650  0.96637742  1
  O  O72  1  0.53252945  0.85844823  0.47660530  1
  O  O73  1  0.32964775  0.47480045  0.47223335  1
  O  O74  1  0.16166143  0.67243853  0.46820206  1
  O  O75  1  0.11877982  0.65966978  0.36115436  1
  O  O76  1  0.53770927  0.88652263  0.36973891  1
  O  O77  1  0.33419373  0.45070431  0.36561493  1
  O  O78  1  0.12453682  0.45646539  0.86442831  1
  O  O79  1  0.33147734  0.87987602  0.85873636  1
  O  O80  1  0.54542573  0.67064504  0.85944327  1
  O  O81  1  0.04302745  0.83248042  0.42207692  1
  O  O82  1  0.80795195  0.98820928  0.42386382  1
  O  O83  1  0.15959833  0.19620060  0.42411202  1
  O  O84  1  0.03766226  0.18768117  0.91459744  1
  O  O85  1  0.15171881  0.96165602  0.91325823  1
  O  O86  1  0.81066962  0.84722560  0.91350099  1
  O  O87  1  0.98644266  0.18020880  0.59653780  1
  O  O88  1  0.17778915  0.99733893  0.59613428  1
  O  O89  1  0.80982572  0.82204633  0.59747768  1
  O  O90  1  0.01608180  0.82407693  0.08952525  1
  O  O91  1  0.80045523  0.99775584  0.09044957  1
  O  O92  1  0.19288099  0.20739011  0.09130631  1
  O  O93  1  0.69380374  0.17640091  0.74150831  1
  O  O94  1  0.46828032  0.28946694  0.74217218  1
  O  O95  1  0.82481050  0.53999508  0.74246741  1
  O  O96  1  0.68540273  0.50505764  0.24119559  1
  O  O97  1  0.82469278  0.32144470  0.24413696  1
  O  O98  1  0.49137274  0.16524346  0.24190337  1
  O  O99  1  0.66192906  0.53474724  0.91787158  1
  O  O100  1  0.86667571  0.32790628  0.92056048  1
  O  O101  1  0.46595170  0.12964248  0.91945939  1
  O  O102  1  0.65034036  0.14068064  0.42661671  1
  O  O103  1  0.47208474  0.33198940  0.42275561  1
  O  O104  1  0.87544326  0.51004107  0.42407619  1
  O  O105  1  0.37755148  0.51466091  0.07655405  1
  O  O106  1  0.15224134  0.63491952  0.07438543  1
  O  O107  1  0.49018721  0.85698307  0.07648652  1
  O  O108  1  0.35905085  0.84633612  0.58045298  1
  O  O109  1  0.50542811  0.65466742  0.58312749  1
  O  O110  1  0.14310246  0.49060972  0.57994637  1
  O  O111  1  0.32979466  0.84981000  0.25087843  1
  O  O112  1  0.51645519  0.64762067  0.24694805  1
  O  O113  1  0.13260987  0.49371587  0.24994040  1
  O  O114  1  0.33027658  0.45867596  0.74863375  1
  O  O115  1  0.14413637  0.70149955  0.74923789  1
  O  O116  1  0.53120919  0.84772366  0.74812019  1
