# generated using pymatgen
data_MgMn2(FeO4)2
_symmetry_space_group_name_H-M   'P 1'
_cell_length_a   4.83763732
_cell_length_b   5.68474809
_cell_length_c   4.96802258
_cell_angle_alpha   89.98450711
_cell_angle_beta   87.48422064
_cell_angle_gamma   89.98802024
_symmetry_Int_Tables_number   1
_chemical_formula_structural   MgMn2(FeO4)2
_chemical_formula_sum   'Mg1 Mn2 Fe2 O8'
_cell_volume   136.49265411
_cell_formula_units_Z   1
loop_
 _symmetry_equiv_pos_site_id
 _symmetry_equiv_pos_as_xyz
  1  'x, y, z'
loop_
 _atom_site_type_symbol
 _atom_site_label
 _atom_site_symmetry_multiplicity
 _atom_site_fract_x
 _atom_site_fract_y
 _atom_site_fract_z
 _atom_site_occupancy
  Mg  Mg0  1  0.49997200  0.09817900  0.25013200  1
  Mn  Mn1  1  0.99999300  0.85950900  0.74998200  1
  Mn  Mn2  1  0.99995900  0.14205200  0.24996000  1
  Fe  Fe3  1  0.50022100  0.38464200  0.75005700  1
  Fe  Fe4  1  0.49983700  0.62728400  0.24993500  1
  O  O5  1  0.21880300  0.11550400  0.56462000  1
  O  O6  1  0.22284900  0.88876300  0.07785100  1
  O  O7  1  0.26946800  0.63117800  0.58540300  1
  O  O8  1  0.27904700  0.36235100  0.09124000  1
  O  O9  1  0.73064700  0.63115300  0.91466300  1
  O  O10  1  0.72093200  0.36234200  0.40868800  1
  O  O11  1  0.78100200  0.11549000  0.93533900  1
  O  O12  1  0.77726900  0.88869700  0.42213100  1
