# generated using pymatgen
data_Na2Zr4In4Si3(S3O16)3
_symmetry_space_group_name_H-M   'P 1'
_cell_length_a   17.95327639
_cell_length_b   8.95160836
_cell_length_c   23.56553023
_cell_angle_alpha   89.80157952
_cell_angle_beta   90.38194140
_cell_angle_gamma   119.94661123
_symmetry_Int_Tables_number   1
_chemical_formula_structural   Na2Zr4In4Si3(S3O16)3
_chemical_formula_sum   'Na6 Zr12 In12 Si9 S27 O144'
_cell_volume   3281.52995899
_cell_formula_units_Z   3
loop_
 _symmetry_equiv_pos_site_id
 _symmetry_equiv_pos_as_xyz
  1  'x, y, z'
loop_
 _atom_site_type_symbol
 _atom_site_label
 _atom_site_symmetry_multiplicity
 _atom_site_fract_x
 _atom_site_fract_y
 _atom_site_fract_z
 _atom_site_occupancy
  Na  Na0  1  0.99453993  0.01055793  0.50110844  1
  Na  Na1  1  0.49598066  0.98105173  0.00626263  1
  Na  Na2  1  0.32733174  0.31986266  0.84276773  1
  Na  Na3  1  0.82448173  0.32947774  0.83210645  1
  Na  Na4  1  0.32787613  0.32122560  0.33026484  1
  Na  Na5  1  0.81934121  0.32255796  0.33702394  1
  Zr  Zr6  1  0.51196326  0.01619439  0.35613194  1
  Zr  Zr7  1  0.00415184  0.99701890  0.85933588  1
  Zr  Zr8  1  0.50645629  0.02003032  0.64627465  1
  Zr  Zr9  1  0.00575929  0.99090334  0.14657724  1
  Zr  Zr10  1  0.33714785  0.33506517  0.68370576  1
  Zr  Zr11  1  0.83457761  0.33550159  0.68507879  1
  Zr  Zr12  1  0.33621669  0.33632969  0.18649519  1
  Zr  Zr13  1  0.83229691  0.33001404  0.18752891  1
  Zr  Zr14  1  0.16177820  0.67689880  0.02413967  1
  Zr  Zr15  1  0.66033483  0.66500637  0.02562038  1
  Zr  Zr16  1  0.16214392  0.65975403  0.52325664  1
  Zr  Zr17  1  0.66237031  0.65070340  0.52049495  1
  In  In18  1  0.00286835  0.99960133  0.34907939  1
  In  In19  1  0.50380767  0.00751566  0.85033167  1
  In  In20  1  0.99878974  0.01150741  0.64908979  1
  In  In21  1  0.50117439  0.97930181  0.15079565  1
  In  In22  1  0.33066878  0.33214805  0.98314582  1
  In  In23  1  0.83492363  0.33804921  0.98454988  1
  In  In24  1  0.33423404  0.32976464  0.48144579  1
  In  In25  1  0.83118770  0.32852368  0.48067336  1
  In  In26  1  0.16601003  0.67492154  0.31060227  1
  In  In27  1  0.66783800  0.66390375  0.31342352  1
  In  In28  1  0.16901806  0.67752066  0.81635658  1
  In  In29  1  0.66469746  0.65654626  0.81120444  1
  Si  Si30  1  0.14896811  0.00531626  0.25333889  1
  Si  Si31  1  0.64859563  0.99612558  0.25122689  1
  Si  Si32  1  0.64933547  0.29411921  0.75304114  1
  Si  Si33  1  0.47776324  0.33453808  0.58096886  1
  Si  Si34  1  0.97450306  0.32344433  0.58140591  1
  Si  Si35  1  0.47236927  0.62726571  0.08023623  1
  Si  Si36  1  0.97432666  0.61740839  0.08264615  1
  Si  Si37  1  0.17574418  0.96724865  0.91551889  1
  Si  Si38  1  0.67412538  0.38468229  0.41471778  1
  S  S39  1  0.35338626  0.70697759  0.25211384  1
  S  S40  1  0.85543604  0.70923939  0.24910964  1
  S  S41  1  0.99918506  0.28920052  0.25096626  1
  S  S42  1  0.49817638  0.28403342  0.24882223  1
  S  S43  1  0.14653204  0.29563897  0.75234516  1
  S  S44  1  0.00096227  0.71354672  0.74956324  1
  S  S45  1  0.49685289  0.70659622  0.75093968  1
  S  S46  1  0.35235622  0.99714745  0.74925500  1
  S  S47  1  0.85486756  0.00115482  0.75204567  1
  S  S48  1  0.18633169  0.04376805  0.58248297  1
  S  S49  1  0.68764517  0.03968964  0.58321630  1
  S  S50  1  0.33381814  0.62403671  0.58316321  1
  S  S51  1  0.83578992  0.62980431  0.58300876  1
  S  S52  1  0.33712498  0.04277198  0.08396636  1
  S  S53  1  0.83406154  0.04268002  0.08323494  1
  S  S54  1  0.18753239  0.33460167  0.08309627  1
  S  S55  1  0.68553266  0.32891417  0.08143855  1
  S  S56  1  0.31572516  0.67164272  0.91467934  1
  S  S57  1  0.81029733  0.66139732  0.91595135  1
  S  S58  1  0.01896481  0.37598028  0.91508822  1
  S  S59  1  0.52139389  0.37490501  0.91693641  1
  S  S60  1  0.66828002  0.95850493  0.91691863  1
  S  S61  1  0.31032877  0.95698873  0.41622157  1
  S  S62  1  0.81749966  0.96039444  0.41633594  1
  S  S63  1  0.16750477  0.37707792  0.41729589  1
  S  S64  1  0.02189799  0.66870074  0.41667429  1
  S  S65  1  0.51733343  0.66136356  0.41631035  1
  O  O66  1  0.11253871  0.05042858  0.31020733  1
  O  O67  1  0.60125285  0.03039709  0.30669011  1
  O  O68  1  0.40862927  0.79139264  0.30207844  1
  O  O69  1  0.90533670  0.77665386  0.30241613  1
  O  O70  1  0.48326705  0.17342850  0.29976111  1
  O  O71  1  0.97942790  0.18342789  0.30348751  1
  O  O72  1  0.10281091  0.18124928  0.80206459  1
  O  O73  1  0.61207261  0.17374314  0.80956436  1
  O  O74  1  0.47771981  0.77372949  0.80302411  1
  O  O75  1  0.98867919  0.79973724  0.80019972  1
  O  O76  1  0.40306513  0.03208262  0.80228805  1
  O  O77  1  0.91116777  0.02729531  0.80194488  1
  O  O78  1  0.39754457  0.97999074  0.69992572  1
  O  O79  1  0.89067304  0.96993308  0.70029063  1
  O  O80  1  0.09599552  0.21970994  0.70021166  1
  O  O81  1  0.58856708  0.19135738  0.69763157  1
  O  O82  1  0.01175367  0.81638005  0.69805429  1
  O  O83  1  0.50454552  0.80904928  0.70043707  1
  O  O84  1  0.38685628  0.80846772  0.19977100  1
  O  O85  1  0.90053298  0.82043020  0.20002113  1
  O  O86  1  0.00650509  0.20061118  0.20069644  1
  O  O87  1  0.50509495  0.20242417  0.19677523  1
  O  O88  1  0.08845327  0.98630251  0.19772591  1
  O  O89  1  0.59583952  0.97382546  0.19348595  1
  O  O90  1  0.42949221  0.36005160  0.63785745  1
  O  O91  1  0.93108843  0.35348787  0.63835319  1
  O  O92  1  0.24077042  0.12860357  0.63347192  1
  O  O93  1  0.74310983  0.12717437  0.63414584  1
  O  O94  1  0.31572169  0.50633083  0.63328309  1
  O  O95  1  0.82111873  0.51913938  0.63431487  1
  O  O96  1  0.42920735  0.50908147  0.13650564  1
  O  O97  1  0.92621744  0.49434756  0.13676009  1
  O  O98  1  0.32122610  0.12438516  0.13367778  1
  O  O99  1  0.81547256  0.12262997  0.13184423  1
  O  O100  1  0.24317964  0.35971925  0.13313866  1
  O  O101  1  0.73968208  0.35289448  0.13160709  1
  O  O102  1  0.21884979  0.28998109  0.03211392  1
  O  O103  1  0.72074073  0.29321645  0.02953188  1
  O  O104  1  0.41952286  0.53997530  0.02296944  1
  O  O105  1  0.92189246  0.54987242  0.02363181  1
  O  O106  1  0.34947840  0.14219631  0.03154099  1
  O  O107  1  0.84876555  0.14361606  0.03035756  1
  O  O108  1  0.22132541  0.15160973  0.53161009  1
  O  O109  1  0.71984455  0.14909252  0.53283847  1
  O  O110  1  0.34782995  0.54953834  0.53193055  1
  O  O111  1  0.84847306  0.55263196  0.53208352  1
  O  O112  1  0.41792687  0.29312014  0.52624667  1
  O  O113  1  0.91782089  0.29731707  0.52564133  1
  O  O114  1  0.27251454  0.68896611  0.96491412  1
  O  O115  1  0.77144184  0.68560068  0.96711003  1
  O  O116  1  0.07210890  0.45413512  0.96583661  1
  O  O117  1  0.57671317  0.46557029  0.96735669  1
  O  O118  1  0.15901617  0.84350855  0.97073911  1
  O  O119  1  0.66277793  0.85287994  0.96748686  1
  O  O120  1  0.26811504  0.85507506  0.46817624  1
  O  O121  1  0.77429342  0.85850076  0.46777832  1
  O  O122  1  0.16198097  0.47093672  0.46843223  1
  O  O123  1  0.66080382  0.47704179  0.47151754  1
  O  O124  1  0.07675397  0.68776416  0.46802534  1
  O  O125  1  0.57023436  0.68583249  0.46804686  1
  O  O126  1  0.06205671  0.64713370  0.36581125  1
  O  O127  1  0.55601691  0.63324800  0.36592074  1
  O  O128  1  0.25610758  0.87489197  0.36582686  1
  O  O129  1  0.76803782  0.88240010  0.36439216  1
  O  O130  1  0.17789716  0.47661514  0.36541011  1
  O  O131  1  0.68667953  0.49640523  0.35850434  1
  O  O132  1  0.05741237  0.47915238  0.86329942  1
  O  O133  1  0.56093825  0.47663225  0.86514760  1
  O  O134  1  0.18843913  0.88934763  0.85715691  1
  O  O135  1  0.67869097  0.88012826  0.86470824  1
  O  O136  1  0.26543913  0.64699008  0.86158387  1
  O  O137  1  0.75868847  0.63984042  0.86458828  1
  O  O138  1  0.01563410  0.82856173  0.41519763  1
  O  O139  1  0.50842978  0.81684761  0.41011405  1
  O  O140  1  0.39518271  0.97241389  0.40955200  1
  O  O141  1  0.90495565  0.97309321  0.41347998  1
  O  O142  1  0.08783760  0.20619438  0.41651133  1
  O  O143  1  0.58444905  0.19887006  0.40851957  1
  O  O144  1  0.01072493  0.20184816  0.90703216  1
  O  O145  1  0.51497313  0.20203607  0.91515306  1
  O  O146  1  0.08655569  0.97933162  0.90565951  1
  O  O147  1  0.58819001  0.96849343  0.91564795  1
  O  O148  1  0.40253982  0.83439442  0.91023930  1
  O  O149  1  0.89737682  0.81821435  0.90774250  1
  O  O150  1  0.48735977  0.16645024  0.59460527  1
  O  O151  1  0.99192346  0.16128458  0.58698034  1
  O  O152  1  0.09861229  0.01257807  0.59124383  1
  O  O153  1  0.59973311  0.00919374  0.59464975  1
  O  O154  1  0.40863690  0.79106367  0.59598711  1
  O  O155  1  0.91424063  0.80022612  0.59151853  1
  O  O156  1  0.48663519  0.82063485  0.08307801  1
  O  O157  1  0.98738210  0.80830547  0.09408058  1
  O  O158  1  0.41436511  0.02754133  0.09283572  1
  O  O159  1  0.90898644  0.02513459  0.09494218  1
  O  O160  1  0.09958850  0.19089213  0.09422119  1
  O  O161  1  0.59698277  0.18728484  0.08790678  1
  O  O162  1  0.34082275  0.15211998  0.74065884  1
  O  O163  1  0.84957094  0.16259764  0.74570275  1
  O  O164  1  0.23269760  0.31027759  0.74663726  1
  O  O165  1  0.74483151  0.31362435  0.74171672  1
  O  O166  1  0.41921840  0.52793275  0.74310989  1
  O  O167  1  0.92068549  0.54170479  0.74509257  1
  O  O168  1  0.34807837  0.53403324  0.24567879  1
  O  O169  1  0.84726683  0.53565655  0.24106272  1
  O  O170  1  0.41887970  0.30200946  0.24482628  1
  O  O171  1  0.92317353  0.31438627  0.24309027  1
  O  O172  1  0.24402078  0.17659456  0.24130611  1
  O  O173  1  0.74413596  0.17386495  0.24442831  1
  O  O174  1  0.32749675  0.51964926  0.91835246  1
  O  O175  1  0.82067879  0.50646421  0.91934130  1
  O  O176  1  0.43581769  0.35655667  0.92152185  1
  O  O177  1  0.93053170  0.34926739  0.91998484  1
  O  O178  1  0.25589790  0.16132252  0.92234331  1
  O  O179  1  0.74595047  0.13422840  0.92292756  1
  O  O180  1  0.31782778  0.13141747  0.41967640  1
  O  O181  1  0.82909063  0.13646961  0.41988121  1
  O  O182  1  0.24511890  0.35746651  0.42368934  1
  O  O183  1  0.75629326  0.35509569  0.42106912  1
  O  O184  1  0.42880015  0.50897856  0.42155820  1
  O  O185  1  0.93643459  0.51533702  0.42199989  1
  O  O186  1  0.18293763  0.49308855  0.07399271  1
  O  O187  1  0.68456785  0.49408408  0.07274789  1
  O  O188  1  0.06988983  0.63515115  0.07511097  1
  O  O189  1  0.56905549  0.64324982  0.07130645  1
  O  O190  1  0.26039744  0.86706795  0.07710240  1
  O  O191  1  0.75689161  0.86841867  0.07415582  1
  O  O192  1  0.18381784  0.87626771  0.57510148  1
  O  O193  1  0.68318553  0.87325769  0.57564483  1
  O  O194  1  0.25649594  0.64288523  0.57537777  1
  O  O195  1  0.76025338  0.65311027  0.57669193  1
  O  O196  1  0.07055656  0.49908254  0.57095704  1
  O  O197  1  0.57146770  0.50707149  0.57487217  1
  O  O198  1  0.15504496  0.83210805  0.25524381  1
  O  O199  1  0.66061198  0.83304851  0.26252036  1
  O  O200  1  0.26533864  0.67441358  0.26002989  1
  O  O201  1  0.76956220  0.69023201  0.25150339  1
  O  O202  1  0.07782455  0.45696058  0.25732741  1
  O  O203  1  0.57334182  0.45575221  0.25580815  1
  O  O204  1  0.15592799  0.46710220  0.76136493  1
  O  O205  1  0.65602209  0.48006583  0.75555573  1
  O  O206  1  0.07504412  0.68889413  0.75696866  1
  O  O207  1  0.57443805  0.69252176  0.75737255  1
  O  O208  1  0.26728199  0.84141575  0.75254721  1
  O  O209  1  0.76800189  0.85511766  0.76034239  1
