# generated using pymatgen
data_Na6Mg2Si5Sn6S7O48
_symmetry_space_group_name_H-M   'P 1'
_cell_length_a   17.65103905
_cell_length_b   8.89206039
_cell_length_c   22.95317858
_cell_angle_alpha   89.79260804
_cell_angle_beta   89.98669052
_cell_angle_gamma   120.23937241
_symmetry_Int_Tables_number   1
_chemical_formula_structural   Na6Mg2Si5Sn6S7O48
_chemical_formula_sum   'Na18 Mg6 Si15 Sn18 S21 O144'
_cell_volume   3112.35738000
_cell_formula_units_Z   3
loop_
 _symmetry_equiv_pos_site_id
 _symmetry_equiv_pos_as_xyz
  1  'x, y, z'
loop_
 _atom_site_type_symbol
 _atom_site_label
 _atom_site_symmetry_multiplicity
 _atom_site_fract_x
 _atom_site_fract_y
 _atom_site_fract_z
 _atom_site_occupancy
  Na  Na0  1  0.65490440  0.34811889  0.58136649  1
  Na  Na1  1  0.52078493  0.68972736  0.58404888  1
  Na  Na2  1  0.82464026  0.95600699  0.58263700  1
  Na  Na3  1  0.15318191  0.95991262  0.08436816  1
  Na  Na4  1  0.32333874  0.69241299  0.08624354  1
  Na  Na5  1  0.02050070  0.35297990  0.08734618  1
  Na  Na6  1  0.00547976  0.99098131  0.49584980  1
  Na  Na7  1  0.49371926  0.00784464  0.49984082  1
  Na  Na8  1  0.99500327  0.98133320  0.00205842  1
  Na  Na9  1  0.50369931  0.00814151  0.00028046  1
  Na  Na10  1  0.32609739  0.31817756  0.82097456  1
  Na  Na11  1  0.82929538  0.33324383  0.83413298  1
  Na  Na12  1  0.32660919  0.32347911  0.33551456  1
  Na  Na13  1  0.83422309  0.34448172  0.32520278  1
  Na  Na14  1  0.16390712  0.66536151  0.16134643  1
  Na  Na15  1  0.67373928  0.67914424  0.17306172  1
  Na  Na16  1  0.17234888  0.66670933  0.66832570  1
  Na  Na17  1  0.66562992  0.66381333  0.65628752  1
  Mg  Mg18  1  0.33265411  0.32022200  0.68960678  1
  Mg  Mg19  1  0.82993117  0.33340610  0.68061140  1
  Mg  Mg20  1  0.32789463  0.32311883  0.18355927  1
  Mg  Mg21  1  0.83556920  0.34690764  0.19247947  1
  Mg  Mg22  1  0.16613887  0.66933839  0.02394522  1
  Mg  Mg23  1  0.66717576  0.66553861  0.52293299  1
  Si  Si24  1  0.64723307  0.00445410  0.25011001  1
  Si  Si25  1  0.85522138  0.70670112  0.25187037  1
  Si  Si26  1  0.14731128  0.28938960  0.74996665  1
  Si  Si27  1  0.35652093  0.00611560  0.75213036  1
  Si  Si28  1  0.47520643  0.33701294  0.58506328  1
  Si  Si29  1  0.68882873  0.04251304  0.58547330  1
  Si  Si30  1  0.83635420  0.63062183  0.58699170  1
  Si  Si31  1  0.97490552  0.61623246  0.08521013  1
  Si  Si32  1  0.33785726  0.04436668  0.08585046  1
  Si  Si33  1  0.18638037  0.33462838  0.08681697  1
  Si  Si34  1  0.81556527  0.66927260  0.91435776  1
  Si  Si35  1  0.66556395  0.96211926  0.91720953  1
  Si  Si36  1  0.31594192  0.96050269  0.41414131  1
  Si  Si37  1  0.16690568  0.37192408  0.41690554  1
  Si  Si38  1  0.01543903  0.65910219  0.41781356  1
  Sn  Sn39  1  0.00155634  0.99246886  0.35548285  1
  Sn  Sn40  1  0.50039640  0.99974632  0.35173500  1
  Sn  Sn41  1  0.00037483  0.00003513  0.85108085  1
  Sn  Sn42  1  0.50120317  0.99708572  0.85076062  1
  Sn  Sn43  1  0.00497301  0.00239309  0.64831255  1
  Sn  Sn44  1  0.49414138  0.00654481  0.64550018  1
  Sn  Sn45  1  0.99558232  0.98365931  0.14905068  1
  Sn  Sn46  1  0.50276256  0.00839017  0.15146867  1
  Sn  Sn47  1  0.32823054  0.31589548  0.98780550  1
  Sn  Sn48  1  0.83166389  0.34418123  0.97893232  1
  Sn  Sn49  1  0.33071011  0.31697993  0.47817093  1
  Sn  Sn50  1  0.83371597  0.35016725  0.48419900  1
  Sn  Sn51  1  0.67235993  0.67966485  0.01468390  1
  Sn  Sn52  1  0.16814685  0.66704724  0.51024864  1
  Sn  Sn53  1  0.16388903  0.66043027  0.32144128  1
  Sn  Sn54  1  0.67225332  0.68187453  0.31231716  1
  Sn  Sn55  1  0.17077168  0.66121023  0.81111386  1
  Sn  Sn56  1  0.67073102  0.67735866  0.81694416  1
  S  S57  1  0.15057873  0.99892091  0.25070514  1
  S  S58  1  0.35002708  0.70008978  0.24955960  1
  S  S59  1  0.00261921  0.29399784  0.24997510  1
  S  S60  1  0.49737525  0.29636454  0.25122692  1
  S  S61  1  0.64982057  0.30142052  0.75125212  1
  S  S62  1  0.99707859  0.69966231  0.75127182  1
  S  S63  1  0.50194785  0.70534825  0.74959533  1
  S  S64  1  0.85180183  0.00309766  0.74913643  1
  S  S65  1  0.98286540  0.34021771  0.58499238  1
  S  S66  1  0.18792532  0.03484561  0.58430950  1
  S  S67  1  0.32847483  0.61700398  0.58391576  1
  S  S68  1  0.48248374  0.62424876  0.08341883  1
  S  S69  1  0.82993590  0.04260758  0.08419751  1
  S  S70  1  0.68660629  0.33883271  0.08343334  1
  S  S71  1  0.31319715  0.66049379  0.91950963  1
  S  S72  1  0.02305733  0.37809822  0.91710774  1
  S  S73  1  0.51762083  0.37397117  0.91739120  1
  S  S74  1  0.16800547  0.95691357  0.91654165  1
  S  S75  1  0.81147316  0.96200992  0.41955090  1
  S  S76  1  0.66603952  0.37842236  0.41655307  1
  S  S77  1  0.52330797  0.66737476  0.41710923  1
  O  O78  1  0.10842574  0.02503180  0.30222579  1
  O  O79  1  0.60099884  0.03667351  0.30777646  1
  O  O80  1  0.40520470  0.78769275  0.30142819  1
  O  O81  1  0.91409301  0.80607406  0.30880776  1
  O  O82  1  0.48156929  0.18379267  0.30311425  1
  O  O83  1  0.99343450  0.18773147  0.30211266  1
  O  O84  1  0.10278128  0.16768819  0.80913828  1
  O  O85  1  0.60870486  0.19333588  0.80474667  1
  O  O86  1  0.49192882  0.78839171  0.80366463  1
  O  O87  1  0.98146466  0.77859698  0.80411090  1
  O  O88  1  0.41531817  0.03208255  0.81174092  1
  O  O89  1  0.90340470  0.02074992  0.80282194  1
  O  O90  1  0.39574468  0.94885244  0.69656997  1
  O  O91  1  0.89087787  0.97177355  0.69639536  1
  O  O92  1  0.08134870  0.20378848  0.69354308  1
  O  O93  1  0.59612634  0.22163892  0.69822308  1
  O  O94  1  0.01405129  0.81046741  0.69863713  1
  O  O95  1  0.52042634  0.81745834  0.69719618  1
  O  O96  1  0.38887200  0.80944843  0.19494842  1
  O  O97  1  0.89099208  0.83540336  0.19339878  1
  O  O98  1  0.01901634  0.21957628  0.19517949  1
  O  O99  1  0.51498682  0.22181011  0.19759382  1
  O  O100  1  0.09820906  0.97237794  0.19585584  1
  O  O101  1  0.58217776  0.95735464  0.19181423  1
  O  O102  1  0.43271047  0.37842864  0.63925896  1
  O  O103  1  0.94229826  0.36148017  0.63725505  1
  O  O104  1  0.23899570  0.11767619  0.63577228  1
  O  O105  1  0.75120837  0.12314255  0.64052671  1
  O  O106  1  0.31643838  0.51583482  0.63623258  1
  O  O107  1  0.81825250  0.51176525  0.64305200  1
  O  O108  1  0.44230907  0.52028622  0.13531247  1
  O  O109  1  0.93111353  0.48367164  0.13778034  1
  O  O110  1  0.32027852  0.13231049  0.13987835  1
  O  O111  1  0.81645493  0.11851403  0.13543106  1
  O  O112  1  0.25358987  0.38092448  0.13889891  1
  O  O113  1  0.73861313  0.36423764  0.13425135  1
  O  O114  1  0.21958550  0.27685224  0.02537605  1
  O  O115  1  0.72031625  0.30538064  0.02807141  1
  O  O116  1  0.42851308  0.55117603  0.02863427  1
  O  O117  1  0.91827628  0.54072883  0.02321657  1
  O  O118  1  0.36400451  0.16121179  0.02369824  1
  O  O119  1  0.84239778  0.14182071  0.02864439  1
  O  O120  1  0.22171072  0.13708017  0.52942313  1
  O  O121  1  0.72646080  0.17025084  0.52585205  1
  O  O122  1  0.34364377  0.54386975  0.52975378  1
  O  O123  1  0.86005940  0.56266163  0.52677253  1
  O  O124  1  0.41773388  0.30015850  0.52435396  1
  O  O125  1  0.92844496  0.30384867  0.53131611  1
  O  O126  1  0.27221425  0.68485819  0.97099352  1
  O  O127  1  0.77557873  0.70473224  0.97371451  1
  O  O128  1  0.07520989  0.45837608  0.96905298  1
  O  O129  1  0.57183565  0.45286584  0.97034633  1
  O  O130  1  0.15848491  0.85754686  0.96953164  1
  O  O131  1  0.64116197  0.83710612  0.97470847  1
  O  O132  1  0.27911949  0.84854369  0.47455973  1
  O  O133  1  0.77053742  0.85208732  0.47073764  1
  O  O134  1  0.14643282  0.44596431  0.47613666  1
  O  O135  1  0.65585652  0.45806173  0.46932490  1
  O  O136  1  0.07533319  0.69941811  0.47658092  1
  O  O137  1  0.57520742  0.69136762  0.46924276  1
  O  O138  1  0.05611762  0.62640561  0.35836491  1
  O  O139  1  0.56238983  0.63816709  0.36333696  1
  O  O140  1  0.25746794  0.87867061  0.35576499  1
  O  O141  1  0.75841740  0.88511956  0.36516466  1
  O  O142  1  0.18895715  0.48898980  0.35779248  1
  O  O143  1  0.67610654  0.48210617  0.36264288  1
  O  O144  1  0.06219934  0.48701969  0.86326532  1
  O  O145  1  0.55761463  0.47916798  0.86385141  1
  O  O146  1  0.17831001  0.87435793  0.86297848  1
  O  O147  1  0.68205663  0.88103064  0.85822842  1
  O  O148  1  0.26067388  0.63155494  0.86541999  1
  O  O149  1  0.75364998  0.62908466  0.85700509  1
  O  O150  1  0.00690048  0.83322312  0.41455053  1
  O  O151  1  0.51526877  0.82675911  0.41076180  1
  O  O152  1  0.41392974  0.97710167  0.40952760  1
  O  O153  1  0.89955437  0.98170679  0.41254983  1
  O  O154  1  0.07837237  0.18150392  0.40934785  1
  O  O155  1  0.58549127  0.20159207  0.41185713  1
  O  O156  1  0.01481803  0.20285347  0.91071995  1
  O  O157  1  0.50903417  0.19976268  0.91291962  1
  O  O158  1  0.08826049  0.97474971  0.91203744  1
  O  O159  1  0.57825893  0.98499751  0.91032010  1
  O  O160  1  0.40165380  0.82038594  0.91284618  1
  O  O161  1  0.91246989  0.84904527  0.90904258  1
  O  O162  1  0.48891671  0.16367835  0.58651126  1
  O  O163  1  0.98962942  0.17723442  0.58885574  1
  O  O164  1  0.09733231  0.01343394  0.58791316  1
  O  O165  1  0.58761683  0.01857128  0.59222371  1
  O  O166  1  0.41266460  0.79386635  0.58714246  1
  O  O167  1  0.92266052  0.83783909  0.59168087  1
  O  O168  1  0.49076740  0.80034377  0.08659799  1
  O  O169  1  0.98931039  0.81702140  0.08777052  1
  O  O170  1  0.42366073  0.00873597  0.09091136  1
  O  O171  1  0.91199011  0.03061059  0.08655899  1
  O  O172  1  0.08649116  0.15827562  0.09311392  1
  O  O173  1  0.59616632  0.18024395  0.08745943  1
  O  O174  1  0.34947270  0.17542464  0.74809658  1
  O  O175  1  0.84435223  0.15867348  0.74501717  1
  O  O176  1  0.24259404  0.31717224  0.74364894  1
  O  O177  1  0.73684749  0.32133448  0.74729528  1
  O  O178  1  0.42383676  0.53656811  0.74524560  1
  O  O179  1  0.92112360  0.52557621  0.74499176  1
  O  O180  1  0.34493990  0.53162167  0.24424795  1
  O  O181  1  0.84828167  0.52326457  0.24776141  1
  O  O182  1  0.42091242  0.31668078  0.24393689  1
  O  O183  1  0.92426967  0.30671173  0.24476674  1
  O  O184  1  0.23736860  0.15522357  0.24596371  1
  O  O185  1  0.74194833  0.16747833  0.24267600  1
  O  O186  1  0.32531930  0.50499795  0.92412772  1
  O  O187  1  0.82511408  0.49726292  0.91723335  1
  O  O188  1  0.43036766  0.36160974  0.92231802  1
  O  O189  1  0.93320171  0.35243578  0.91987448  1
  O  O190  1  0.24841857  0.13662095  0.91825133  1
  O  O191  1  0.75456640  0.15000634  0.92538730  1
  O  O192  1  0.32661066  0.15307874  0.41720797  1
  O  O193  1  0.81961257  0.13560817  0.42412112  1
  O  O194  1  0.25588072  0.35898145  0.42461730  1
  O  O195  1  0.74436835  0.35737526  0.41820398  1
  O  O196  1  0.43364760  0.51395453  0.42004075  1
  O  O197  1  0.91985646  0.47748503  0.42154314  1
  O  O198  1  0.17323852  0.49778942  0.07464032  1
  O  O199  1  0.67467154  0.49583770  0.07578291  1
  O  O200  1  0.07374032  0.65115784  0.07569042  1
  O  O201  1  0.57099059  0.64019414  0.07653545  1
  O  O202  1  0.25404876  0.85378740  0.07478698  1
  O  O203  1  0.75119133  0.85926021  0.07921871  1
  O  O204  1  0.17838497  0.85811211  0.57889932  1
  O  O205  1  0.67325798  0.85084984  0.57417942  1
  O  O206  1  0.25161273  0.64502493  0.57823910  1
  O  O207  1  0.75261832  0.65571951  0.57691273  1
  O  O208  1  0.07193566  0.49662610  0.57902015  1
  O  O209  1  0.57404755  0.49886644  0.57580370  1
  O  O210  1  0.15586831  0.83663022  0.25506919  1
  O  O211  1  0.64429342  0.81626086  0.25639078  1
  O  O212  1  0.26282975  0.68712441  0.25390360  1
  O  O213  1  0.75610045  0.68616555  0.25566951  1
  O  O214  1  0.08446561  0.47201563  0.25387015  1
  O  O215  1  0.57882153  0.46667142  0.25802844  1
  O  O216  1  0.14491725  0.47258765  0.75618666  1
  O  O217  1  0.65265551  0.47336392  0.75670375  1
  O  O218  1  0.07936850  0.69336818  0.75831314  1
  O  O219  1  0.58335872  0.68884116  0.75593420  1
  O  O220  1  0.25835501  0.82765774  0.75699585  1
  O  O221  1  0.76318876  0.83926363  0.75294359  1
