# generated using pymatgen
data_Na4LaGaSi(PO6)2
_symmetry_space_group_name_H-M   'P 1'
_cell_length_a   9.32935248
_cell_length_b   9.33197120
_cell_length_c   22.77633513
_cell_angle_alpha   89.97166766
_cell_angle_beta   89.66715181
_cell_angle_gamma   120.07523886
_symmetry_Int_Tables_number   1
_chemical_formula_structural   Na4LaGaSi(PO6)2
_chemical_formula_sum   'Na24 La6 Ga6 Si6 P12 O72'
_cell_volume   1715.92741630
_cell_formula_units_Z   6
loop_
 _symmetry_equiv_pos_site_id
 _symmetry_equiv_pos_as_xyz
  1  'x, y, z'
loop_
 _atom_site_type_symbol
 _atom_site_label
 _atom_site_symmetry_multiplicity
 _atom_site_fract_x
 _atom_site_fract_y
 _atom_site_fract_z
 _atom_site_occupancy
  Na  Na0  1  0.62943766  0.99527288  0.25748411  1
  Na  Na1  1  0.36629525  0.37036285  0.25319845  1
  Na  Na2  1  0.00528631  0.62694042  0.25293311  1
  Na  Na3  1  0.63844998  0.63182576  0.74027887  1
  Na  Na4  1  0.98678724  0.35954072  0.74510197  1
  Na  Na5  1  0.38364490  0.01484190  0.74283473  1
  Na  Na6  1  0.29483059  0.32850153  0.58344804  1
  Na  Na7  1  0.04097875  0.71371318  0.58338734  1
  Na  Na8  1  0.66868723  0.96439618  0.58900458  1
  Na  Na9  1  0.29314495  0.97419310  0.08641872  1
  Na  Na10  1  0.68502734  0.70319495  0.08692491  1
  Na  Na11  1  0.02562399  0.32685386  0.09306032  1
  Na  Na12  1  0.97586833  0.67698330  0.92196529  1
  Na  Na13  1  0.69233510  0.03354695  0.91131081  1
  Na  Na14  1  0.33280774  0.29826401  0.91682405  1
  Na  Na15  1  0.96284904  0.29691385  0.41071888  1
  Na  Na16  1  0.33107406  0.03256969  0.41724351  1
  Na  Na17  1  0.70027535  0.66694415  0.41406736  1
  Na  Na18  1  0.00366109  0.99572218  0.49864503  1
  Na  Na19  1  0.00505277  0.99459137  0.00322710  1
  Na  Na20  1  0.66246008  0.32164663  0.83131134  1
  Na  Na21  1  0.67316635  0.33285336  0.34206355  1
  Na  Na22  1  0.32566994  0.66412417  0.17150947  1
  Na  Na23  1  0.33847259  0.67623654  0.66348970  1
  La  La24  1  0.99970199  -0.00036173  0.83725870  1
  La  La25  1  0.67165848  0.33276992  0.18945719  1
  La  La26  1  0.66964458  0.33654400  0.99435786  1
  La  La27  1  0.32922864  0.67124514  0.01467054  1
  La  La28  1  0.32916290  0.67230691  0.51242366  1
  La  La29  1  0.33945594  0.67663478  0.81251815  1
  Ga  Ga30  1  0.99675376  0.99348082  0.34873825  1
  Ga  Ga31  1  0.00732485  0.00078148  0.64834690  1
  Ga  Ga32  1  0.00202982  0.00212657  0.15685073  1
  Ga  Ga33  1  0.66479327  0.32542578  0.67883443  1
  Ga  Ga34  1  0.67098657  0.33949089  0.48757779  1
  Ga  Ga35  1  0.31132437  0.64754604  0.31925210  1
  Si  Si36  1  0.01404464  0.28731640  0.25555362  1
  Si  Si37  1  0.70925902  0.01518651  0.73973775  1
  Si  Si38  1  0.37527749  0.05510454  0.58453886  1
  Si  Si39  1  0.98036656  0.66343412  0.08957878  1
  Si  Si40  1  0.33431349  0.98710915  0.91583977  1
  Si  Si41  1  0.02198206  0.66711678  0.41445485  1
  P  P42  1  0.27618077  0.98410734  0.25464557  1
  P  P43  1  0.70584715  0.72221066  0.25428685  1
  P  P44  1  0.31118261  0.29853814  0.74050867  1
  P  P45  1  0.98477401  0.68811164  0.73995669  1
  P  P46  1  0.94568914  0.32307308  0.58404911  1
  P  P47  1  0.67716520  0.62056753  0.58534489  1
  P  P48  1  0.68232929  0.02074262  0.08841636  1
  P  P49  1  0.34127319  0.31970338  0.08895117  1
  P  P50  1  0.64612553  0.66515695  0.91605795  1
  P  P51  1  0.02049639  0.35294935  0.91523400  1
  P  P52  1  0.63719182  0.96828034  0.41171537  1
  P  P53  1  0.33143300  0.36069170  0.41289999  1
  O  O54  1  0.19012147  0.00623383  0.30896575  1
  O  O55  1  0.81552629  0.80361469  0.30835545  1
  O  O56  1  0.99046204  0.17111871  0.31215974  1
  O  O57  1  0.25199573  0.21171094  0.80115039  1
  O  O58  1  0.95821823  0.74766865  0.80048877  1
  O  O59  1  0.79665772  0.04598127  0.80444184  1
  O  O60  1  0.82111027  0.98626422  0.68906610  1
  O  O61  1  0.18552026  0.19480540  0.69176812  1
  O  O62  1  0.01620065  0.81777233  0.69103592  1
  O  O63  1  0.78991304  0.82357668  0.19740795  1
  O  O64  1  0.03698600  0.20331094  0.19480472  1
  O  O65  1  0.17748645  0.96580964  0.19751690  1
  O  O66  1  0.86516526  0.35167275  0.63875086  1
  O  O67  1  0.48931712  0.14073604  0.64179493  1
  O  O68  1  0.65552939  0.51231576  0.63943624  1
  O  O69  1  0.88744330  0.53160975  0.14274159  1
  O  O70  1  0.64430477  0.10577090  0.13914150  1
  O  O71  1  0.45931653  0.34679970  0.14004080  1
  O  O72  1  0.41492577  0.29584660  0.03037105  1
  O  O73  1  0.87513997  0.59248429  0.02787525  1
  O  O74  1  0.70611477  0.11868298  0.03007256  1
  O  O75  1  0.46517441  0.17007909  0.52441753  1
  O  O76  1  0.69916143  0.54063179  0.52793243  1
  O  O77  1  0.84178741  0.30368886  0.52764454  1
  O  O78  1  0.56146037  0.67650322  0.97286767  1
  O  O79  1  0.11929881  0.43479002  0.97167307  1
  O  O80  1  0.31303009  0.88149880  0.97572997  1
  O  O81  1  0.57489972  0.86694418  0.46985906  1
  O  O82  1  0.29464291  0.42720033  0.47017020  1
  O  O83  1  0.13533716  0.71958245  0.47377223  1
  O  O84  1  0.11705735  0.62446400  0.36035209  1
  O  O85  1  0.51207542  0.87293116  0.36079180  1
  O  O86  1  0.36213073  0.48561365  0.36098668  1
  O  O87  1  0.11183581  0.45585450  0.86003622  1
  O  O88  1  0.35409799  0.89509484  0.85734790  1
  O  O89  1  0.54078194  0.64839540  0.86137546  1
  O  O90  1  -0.00185340  0.83043584  0.40370843  1
  O  O91  1  0.81420000  0.99082679  0.40440559  1
  O  O92  1  0.17831252  0.18345410  0.40563469  1
  O  O93  1  -0.00037711  0.17841218  0.91439673  1
  O  O94  1  0.16661355  0.00090162  0.91430407  1
  O  O95  1  0.81704966  0.82458647  0.91401052  1
  O  O96  1  0.96286900  0.16405584  0.58710480  1
  O  O97  1  0.18281843  0.03265396  0.58964370  1
  O  O98  1  0.83530793  0.79839821  0.58836694  1
  O  O99  1  0.98750642  0.84111489  0.09873890  1
  O  O100  1  0.84599440  0.01969280  0.09612568  1
  O  O101  1  0.17203830  0.15886752  0.09490176  1
  O  O102  1  0.68907024  0.18134019  0.73511474  1
  O  O103  1  0.48785564  0.32284620  0.73460502  1
  O  O104  1  0.82712973  0.51617386  0.73290654  1
  O  O105  1  0.68069077  0.54335090  0.25290138  1
  O  O106  1  0.84904900  0.30986401  0.25625515  1
  O  O107  1  0.45241246  0.14125857  0.25357431  1
  O  O108  1  0.66451231  0.50936140  0.91598937  1
  O  O109  1  0.85010914  0.34402627  0.91655571  1
  O  O110  1  0.50358956  0.16833813  0.91690511  1
  O  O111  1  0.64869572  0.14136022  0.41786254  1
  O  O112  1  0.49469221  0.35252518  0.41741836  1
  O  O113  1  0.83822627  0.49244312  0.42461207  1
  O  O114  1  0.32035624  0.47385797  0.08699100  1
  O  O115  1  0.16541103  0.68412000  0.08881023  1
  O  O116  1  0.53358575  0.84216411  0.08602049  1
  O  O117  1  0.35307509  0.86731400  0.58348138  1
  O  O118  1  0.51870277  0.63805170  0.58320918  1
  O  O119  1  0.12414639  0.47799918  0.58173483  1
  O  O120  1  0.29660521  0.82611045  0.25830502  1
  O  O121  1  0.52981406  0.70636426  0.25850133  1
  O  O122  1  0.18417692  0.47880182  0.25874303  1
  O  O123  1  0.32083735  0.47007496  0.73983365  1
  O  O124  1  0.14159436  0.66915388  0.73999925  1
  O  O125  1  0.52607232  0.84521665  0.73747741  1
