# generated using pymatgen
data_SnH5CN2Cl3
_symmetry_space_group_name_H-M   'P 1'
_cell_length_a   6.04048700
_cell_length_b   5.66993084
_cell_length_c   5.66993084
_cell_angle_alpha   94.21239392
_cell_angle_beta   90.00000000
_cell_angle_gamma   90.00000000
_symmetry_Int_Tables_number   1
_chemical_formula_structural   SnH5CN2Cl3
_chemical_formula_sum   'Sn1 H5 C1 N2 Cl3'
_cell_volume   193.66569197
_cell_formula_units_Z   1
loop_
 _symmetry_equiv_pos_site_id
 _symmetry_equiv_pos_as_xyz
  1  'x, y, z'
loop_
 _atom_site_type_symbol
 _atom_site_label
 _atom_site_symmetry_multiplicity
 _atom_site_fract_x
 _atom_site_fract_y
 _atom_site_fract_z
 _atom_site_occupancy
  Sn  Sn0  1  0.50000000  0.37225100  0.62774900  1
  H  H1  1  0.79450400  0.72550800  0.27449200  1
  H  H2  1  0.20549600  0.72550800  0.27449200  1
  H  H3  1  0.67031700  0.91617600  0.08382400  1
  H  H4  1  0.32968300  0.91617600  0.08382400  1
  H  H5  1  0.00000000  0.05332200  0.94667800  1
  C  C6  1  0.00000000  0.92171700  0.07828300  1
  N  N7  1  0.80891400  0.84758100  0.15241900  1
  N  N8  1  0.19108600  0.84758100  0.15241900  1
  Cl  Cl9  1  0.50000000  0.85581200  0.64878500  1
  Cl  Cl10  1  0.50000000  0.35121500  0.14418800  1
  Cl  Cl11  1  0.00000000  0.39395100  0.60604900  1
