# generated using pymatgen
data_Na6Hf8Si7S5O48
_symmetry_space_group_name_H-M   'P 1'
_cell_length_a   18.04128831
_cell_length_b   8.98415553
_cell_length_c   23.26156265
_cell_angle_alpha   89.90783376
_cell_angle_beta   90.10780005
_cell_angle_gamma   119.88548926
_symmetry_Int_Tables_number   1
_chemical_formula_structural   Na6Hf8Si7S5O48
_chemical_formula_sum   'Na18 Hf24 Si21 S15 O144'
_cell_volume   3268.98854251
_cell_formula_units_Z   3
loop_
 _symmetry_equiv_pos_site_id
 _symmetry_equiv_pos_as_xyz
  1  'x, y, z'
loop_
 _atom_site_type_symbol
 _atom_site_label
 _atom_site_symmetry_multiplicity
 _atom_site_fract_x
 _atom_site_fract_y
 _atom_site_fract_z
 _atom_site_occupancy
  Na  Na0  1  0.00055727  0.63317401  0.25198127  1
  Na  Na1  1  0.49791747  0.64612415  0.24663384  1
  Na  Na2  1  0.99930998  0.35004818  0.75250164  1
  Na  Na3  1  0.50034469  0.36927113  0.75366342  1
  Na  Na4  1  0.66519435  0.31228940  0.91769214  1
  Na  Na5  1  0.16596173  0.02100169  0.41498477  1
  Na  Na6  1  0.99934826  0.98667765  0.50266841  1
  Na  Na7  1  0.49483992  0.99041902  0.49480309  1
  Na  Na8  1  0.99507326  0.99916533  0.99647211  1
  Na  Na9  1  0.49836460  0.00360721  0.00641906  1
  Na  Na10  1  0.33448973  0.33604379  0.83239855  1
  Na  Na11  1  0.83315163  0.33171057  0.83541810  1
  Na  Na12  1  0.33263623  0.33500189  0.33009424  1
  Na  Na13  1  0.83378851  0.33049708  0.32830985  1
  Na  Na14  1  0.17470087  0.67470583  0.17101432  1
  Na  Na15  1  0.66864029  0.66576065  0.16235696  1
  Na  Na16  1  0.17472756  0.68020763  0.66689451  1
  Na  Na17  1  0.67270628  0.67336040  0.67270004  1
  Hf  Hf18  1  0.99913672  0.99423770  0.34739578  1
  Hf  Hf19  1  0.49624160  0.97889101  0.35292531  1
  Hf  Hf20  1  0.99647410  0.01438741  0.85511625  1
  Hf  Hf21  1  0.49865793  0.00246230  0.84890867  1
  Hf  Hf22  1  0.99951124  0.00063367  0.64579780  1
  Hf  Hf23  1  0.49768295  0.99463639  0.65338028  1
  Hf  Hf24  1  0.99863378  0.00223563  0.15310331  1
  Hf  Hf25  1  0.49796032  0.98668002  0.14182000  1
  Hf  Hf26  1  0.32559178  0.32404578  0.69123969  1
  Hf  Hf27  1  0.82518039  0.33176416  0.68820713  1
  Hf  Hf28  1  0.33178676  0.32833545  0.18462952  1
  Hf  Hf29  1  0.82539928  0.32572216  0.19063576  1
  Hf  Hf30  1  0.34354315  0.33524219  0.98256686  1
  Hf  Hf31  1  0.83332667  0.33826287  0.97917461  1
  Hf  Hf32  1  0.33374445  0.32898350  0.47846190  1
  Hf  Hf33  1  0.83880470  0.35280614  0.48003224  1
  Hf  Hf34  1  0.16664845  0.66665914  0.02046335  1
  Hf  Hf35  1  0.66383059  0.64643103  0.02096573  1
  Hf  Hf36  1  0.17004086  0.68844977  0.51786719  1
  Hf  Hf37  1  0.66598908  0.66650827  0.51976759  1
  Hf  Hf38  1  0.16848558  0.67598519  0.31001440  1
  Hf  Hf39  1  0.66564338  0.67240281  0.31105366  1
  Hf  Hf40  1  0.16775924  0.66062217  0.81341831  1
  Hf  Hf41  1  0.66835493  0.66205217  0.81202799  1
  Si  Si42  1  0.14825909  0.00710623  0.24982453  1
  Si  Si43  1  0.64274340  0.00348740  0.25072007  1
  Si  Si44  1  0.35338033  0.70700539  0.24818957  1
  Si  Si45  1  0.85197330  0.70778506  0.24940823  1
  Si  Si46  1  0.00017538  0.29218847  0.25078980  1
  Si  Si47  1  0.14270810  0.28441256  0.75064000  1
  Si  Si48  1  0.64512414  0.28920436  0.75049081  1
  Si  Si49  1  0.50058424  0.70818072  0.75082259  1
  Si  Si50  1  0.35183789  0.99520104  0.74978759  1
  Si  Si51  1  0.85391307  -0.00156930  0.74819359  1
  Si  Si52  1  0.18780154  0.04495263  0.58315246  1
  Si  Si53  1  0.83293325  0.62888512  0.58407831  1
  Si  Si54  1  0.48105293  0.62356643  0.08421799  1
  Si  Si55  1  0.33230810  0.03866993  0.08422314  1
  Si  Si56  1  0.68829571  0.33083416  0.08334274  1
  Si  Si57  1  0.81345850  0.67236220  0.91734028  1
  Si  Si58  1  0.02139368  0.37928031  0.91724484  1
  Si  Si59  1  0.51912411  0.37246620  0.91463667  1
  Si  Si60  1  0.31531868  0.95841682  0.41562404  1
  Si  Si61  1  0.02042947  0.66756847  0.41496535  1
  Si  Si62  1  0.52161609  0.66596491  0.41696194  1
  S  S63  1  0.50009045  0.28776362  0.25082152  1
  S  S64  1  0.00037607  0.71141996  0.75014009  1
  S  S65  1  0.47893215  0.33251970  0.58305164  1
  S  S66  1  0.97873858  0.33444164  0.58331678  1
  S  S67  1  0.68754428  0.04326457  0.58206573  1
  S  S68  1  0.33364604  0.62388299  0.58289710  1
  S  S69  1  0.97895812  0.62538522  0.08311376  1
  S  S70  1  0.83458330  0.04427933  0.08294268  1
  S  S71  1  0.18706282  0.33088870  0.08182724  1
  S  S72  1  0.31131292  0.66529564  0.91749569  1
  S  S73  1  0.16670939  0.95696644  0.91655966  1
  S  S74  1  0.66609193  0.95453285  0.91736817  1
  S  S75  1  0.81133028  0.95660491  0.41763165  1
  S  S76  1  0.16570323  0.37729119  0.41813345  1
  S  S77  1  0.66673448  0.37699770  0.41712279  1
  O  O78  1  0.10355790  0.03087170  0.30850662  1
  O  O79  1  0.60144822  0.03473721  0.30827651  1
  O  O80  1  0.41530146  0.79267295  0.30557855  1
  O  O81  1  0.91422494  0.79354556  0.30569463  1
  O  O82  1  0.48785026  0.18614019  0.30300550  1
  O  O83  1  0.98360052  0.17083984  0.30721118  1
  O  O84  1  0.09988997  0.16627528  0.80691470  1
  O  O85  1  0.60337358  0.17476247  0.80832031  1
  O  O86  1  0.48364739  0.79649303  0.80661587  1
  O  O87  1  0.98579610  0.78509036  0.80164130  1
  O  O88  1  0.41449141  0.03404779  0.80534486  1
  O  O89  1  0.91655240  0.04013791  0.80457474  1
  O  O90  1  0.39674518  0.96641698  0.69290523  1
  O  O91  1  0.90046761  0.97097362  0.69264979  1
  O  O92  1  0.08197858  0.20338729  0.69419245  1
  O  O93  1  0.58414064  0.19982350  0.69397382  1
  O  O94  1  0.01398244  0.81516773  0.69788295  1
  O  O95  1  0.51503145  0.82825090  0.69347494  1
  O  O96  1  0.39953016  0.83078547  0.19385153  1
  O  O97  1  0.89731219  0.82773614  0.19304254  1
  O  O98  1  0.01499839  0.20178431  0.19395028  1
  O  O99  1  0.51461343  0.21477719  0.19875560  1
  O  O100  1  0.08368309  0.96827084  0.19465461  1
  O  O101  1  0.58205566  0.96115490  0.19514967  1
  O  O102  1  0.44278506  0.36264939  0.63533214  1
  O  O103  1  0.93928064  0.35983916  0.63546752  1
  O  O104  1  0.25036793  0.13871365  0.63782396  1
  O  O105  1  0.74065979  0.12093702  0.63447623  1
  O  O106  1  0.32316297  0.52101270  0.63483453  1
  O  O107  1  0.81932205  0.50259770  0.63853534  1
  O  O108  1  0.43574717  0.50709528  0.14179762  1
  O  O109  1  0.94285982  0.52291915  0.13553161  1
  O  O110  1  0.31456505  0.12821317  0.13935688  1
  O  O111  1  0.82456934  0.12764611  0.13486465  1
  O  O112  1  0.23931236  0.35979103  0.13421012  1
  O  O113  1  0.75148496  0.36120671  0.13779901  1
  O  O114  1  0.22713039  0.30759936  0.03011068  1
  O  O115  1  0.73386078  0.30542621  0.02527399  1
  O  O116  1  0.41836659  0.53091998  0.02808911  1
  O  O117  1  0.92541376  0.54035214  0.03170882  1
  O  O118  1  0.34297653  0.15547048  0.02696931  1
  O  O119  1  0.84813292  0.15255564  0.03128593  1
  O  O120  1  0.23284960  0.15960737  0.52510777  1
  O  O121  1  0.73003575  0.14856434  0.53078097  1
  O  O122  1  0.34687310  0.54374988  0.53126767  1
  O  O123  1  0.84475439  0.52970194  0.52769700  1
  O  O124  1  0.42530408  0.31047759  0.53174498  1
  O  O125  1  0.92318492  0.30803172  0.53187331  1
  O  O126  1  0.27011333  0.69230244  0.96869192  1
  O  O127  1  0.76862118  0.70171133  0.97319140  1
  O  O128  1  0.08343451  0.47691756  0.97211824  1
  O  O129  1  0.58136909  0.46312123  0.97036352  1
  O  O130  1  0.15593246  0.84900040  0.96829634  1
  O  O131  1  0.65434089  0.85279242  0.96911236  1
  O  O132  1  0.26968194  0.83976149  0.47309160  1
  O  O133  1  0.76986717  0.84726889  0.46932505  1
  O  O134  1  0.15423853  0.45706906  0.47012804  1
  O  O135  1  0.65712217  0.46356005  0.46911445  1
  O  O136  1  0.08114380  0.69490828  0.47165151  1
  O  O137  1  0.58324590  0.69057575  0.47272228  1
  O  O138  1  0.06254609  0.63654208  0.35813809  1
  O  O139  1  0.56635969  0.63577998  0.36032827  1
  O  O140  1  0.24990389  0.87012608  0.36213941  1
  O  O141  1  0.75841503  0.87536231  0.36589387  1
  O  O142  1  0.17969170  0.48112337  0.36607021  1
  O  O143  1  0.68314890  0.48528382  0.36597548  1
  O  O144  1  0.06540703  0.49512820  0.85900593  1
  O  O145  1  0.56304239  0.48776170  0.85714966  1
  O  O146  1  0.18079272  0.87574700  0.86513905  1
  O  O147  1  0.67993247  0.87932074  0.86514701  1
  O  O148  1  0.25826119  0.64419456  0.86525212  1
  O  O149  1  0.75098581  0.63133081  0.86140720  1
  O  O150  1  0.01412303  0.84426161  0.41232089  1
  O  O151  1  0.51518485  0.84064167  0.41270010  1
  O  O152  1  0.41139825  0.99049053  0.40999157  1
  O  O153  1  0.89681765  0.97530472  0.41237549  1
  O  O154  1  0.09027222  0.20151502  0.41276238  1
  O  O155  1  0.58999317  0.20863020  0.41220911  1
  O  O156  1  0.01520662  0.19145286  0.91235285  1
  O  O157  1  0.51403822  0.18342844  0.91045116  1
  O  O158  1  0.08837856  0.96773186  0.91068931  1
  O  O159  1  0.59063967  0.98007635  0.91114093  1
  O  O160  1  0.39653723  0.81824857  0.91131142  1
  O  O161  1  0.91052060  0.83114932  0.90876074  1
  O  O162  1  0.48879492  0.17839668  0.58728833  1
  O  O163  1  0.98549094  0.17722557  0.58772299  1
  O  O164  1  0.09305192  0.02328583  0.59066882  1
  O  O165  1  0.60199358  0.02569673  0.58799124  1
  O  O166  1  0.41068544  0.79900411  0.58801727  1
  O  O167  1  0.91762100  0.81555259  0.58944086  1
  O  O168  1  0.48723400  0.81003648  0.08734560  1
  O  O169  1  0.98867766  0.79893971  0.08730176  1
  O  O170  1  0.41718466  0.02376546  0.08976647  1
  O  O171  1  0.91246292  0.02590264  0.08826955  1
  O  O172  1  0.10054370  0.17769453  0.08824492  1
  O  O173  1  0.59392622  0.16645324  0.09071386  1
  O  O174  1  0.34989526  0.17414124  0.74215952  1
  O  O175  1  0.85242682  0.18064233  0.73905382  1
  O  O176  1  0.23910712  0.31615960  0.74354660  1
  O  O177  1  0.74005131  0.30929050  0.74346827  1
  O  O178  1  0.41828550  0.51722789  0.73965702  1
  O  O179  1  0.92543930  0.53311375  0.74178794  1
  O  O180  1  0.34997004  0.52084797  0.24265309  1
  O  O181  1  0.85021557  0.52512667  0.24236245  1
  O  O182  1  0.42464517  0.31429814  0.24509858  1
  O  O183  1  0.91837448  0.31984172  0.24057822  1
  O  O184  1  0.24202975  0.17404387  0.24380372  1
  O  O185  1  0.73991420  0.16385178  0.24475978  1
  O  O186  1  0.31611265  0.50713865  0.92308562  1
  O  O187  1  0.81777814  0.49145076  0.92463634  1
  O  O188  1  0.42379427  0.35253944  0.92116370  1
  O  O189  1  0.92594812  0.35348489  0.92544456  1
  O  O190  1  0.24201922  0.12963460  0.92349386  1
  O  O191  1  0.74344151  0.13209133  0.92300169  1
  O  O192  1  0.31798469  0.14463099  0.42499929  1
  O  O193  1  0.81789019  0.12682434  0.42566872  1
  O  O194  1  0.24298404  0.35529771  0.42436917  1
  O  O195  1  0.74342880  0.35474143  0.42564552  1
  O  O196  1  0.42639219  0.49987322  0.42676714  1
  O  O197  1  0.92503833  0.49460132  0.42424196  1
  O  O198  1  0.17816903  0.48778172  0.07553084  1
  O  O199  1  0.68230823  0.50684827  0.07818665  1
  O  O200  1  0.06574263  0.64418526  0.07473755  1
  O  O201  1  0.57636715  0.64912857  0.07561226  1
  O  O202  1  0.24627978  0.84799106  0.07389470  1
  O  O203  1  0.75754228  0.87491527  0.07688507  1
  O  O204  1  0.17795262  0.85109410  0.57780537  1
  O  O205  1  0.67931614  0.86980556  0.57608025  1
  O  O206  1  0.25538737  0.63815382  0.57668605  1
  O  O207  1  0.74677839  0.64395069  0.57414349  1
  O  O208  1  0.06460027  0.48519710  0.57572046  1
  O  O209  1  0.56595678  0.48736572  0.57462478  1
  O  O210  1  0.15055407  0.82777076  0.25532969  1
  O  O211  1  0.65050818  0.82640029  0.25924598  1
  O  O212  1  0.25917718  0.68303492  0.25821571  1
  O  O213  1  0.75760319  0.68332013  0.25973640  1
  O  O214  1  0.08345245  0.48251985  0.25724386  1
  O  O215  1  0.57687069  0.46594487  0.25796757  1
  O  O216  1  0.14965945  0.47599752  0.75832092  1
  O  O217  1  0.65108981  0.47526709  0.75496079  1
  O  O218  1  0.07690887  0.68838928  0.75627596  1
  O  O219  1  0.58379186  0.68427632  0.75656843  1
  O  O220  1  0.25670680  0.83087335  0.75859790  1
  O  O221  1  0.75937067  0.83642704  0.75699669  1
