# generated using pymatgen
data_W(ClO)2
_symmetry_space_group_name_H-M   'P 1'
_cell_length_a   3.86217300
_cell_length_b   3.87457900
_cell_length_c   8.32216400
_cell_angle_alpha   90.00000000
_cell_angle_beta   90.00000000
_cell_angle_gamma   90.00000000
_symmetry_Int_Tables_number   1
_chemical_formula_structural   W(ClO)2
_chemical_formula_sum   'W1 Cl2 O2'
_cell_volume   124.53531214
_cell_formula_units_Z   1
loop_
 _symmetry_equiv_pos_site_id
 _symmetry_equiv_pos_as_xyz
  1  'x, y, z'
loop_
 _atom_site_type_symbol
 _atom_site_label
 _atom_site_symmetry_multiplicity
 _atom_site_fract_x
 _atom_site_fract_y
 _atom_site_fract_z
 _atom_site_occupancy
  W  W0  1  0.95363800  0.50000000  0.00000000  1
  Cl  Cl1  1  0.91807400  0.50000000  0.72095900  1
  Cl  Cl2  1  0.91807400  0.50000000  0.27904100  1
  O  O3  1  0.93333000  0.00000000  0.00000000  1
  O  O4  1  0.43288200  0.50000000  0.00000000  1
