# generated using pymatgen
data_Na5YTa3Si5PO24
_symmetry_space_group_name_H-M   'P 1'
_cell_length_a   9.08910449
_cell_length_b   9.11342457
_cell_length_c   22.66943861
_cell_angle_alpha   90.11251076
_cell_angle_beta   89.98933057
_cell_angle_gamma   119.90028828
_symmetry_Int_Tables_number   1
_chemical_formula_structural   Na5YTa3Si5PO24
_chemical_formula_sum   'Na15 Y3 Ta9 Si15 P3 O72'
_cell_volume   1627.82818434
_cell_formula_units_Z   3
loop_
 _symmetry_equiv_pos_site_id
 _symmetry_equiv_pos_as_xyz
  1  'x, y, z'
loop_
 _atom_site_type_symbol
 _atom_site_label
 _atom_site_symmetry_multiplicity
 _atom_site_fract_x
 _atom_site_fract_y
 _atom_site_fract_z
 _atom_site_occupancy
  Na  Na0  1  0.99280529  0.63535748  0.24172573  1
  Na  Na1  1  0.63016689  0.62030161  0.74748399  1
  Na  Na2  1  0.98947755  0.36748603  0.74698751  1
  Na  Na3  1  0.37655475  0.00977704  0.75013812  1
  Na  Na4  1  0.32168765  0.97622190  0.08301226  1
  Na  Na5  1  0.66055978  0.68322647  0.08335161  1
  Na  Na6  1  0.96693783  0.29068565  0.41577329  1
  Na  Na7  1  0.32195337  0.03243272  0.41300888  1
  Na  Na8  1  0.70747235  0.67699890  0.41631770  1
  Na  Na9  1  0.99933944  0.99967349  0.50316764  1
  Na  Na10  1  0.99884825  0.01133098  0.99547671  1
  Na  Na11  1  0.66599804  0.33394478  0.83498954  1
  Na  Na12  1  0.64516781  0.31414498  0.32404861  1
  Na  Na13  1  0.33242890  0.65377892  0.16421839  1
  Na  Na14  1  0.33124483  0.65953451  0.66382094  1
  Y  Y15  1  0.00248512  0.00369238  0.35230404  1
  Y  Y16  1  0.66815273  0.33671025  0.68322184  1
  Y  Y17  1  0.65986197  0.32436047  0.17987729  1
  Ta  Ta18  1  0.99980146  0.99930332  0.85824424  1
  Ta  Ta19  1  0.99598839  0.99926124  0.64514195  1
  Ta  Ta20  1  0.00474276  0.00424646  0.14621234  1
  Ta  Ta21  1  0.66693191  0.33162505  0.97805392  1
  Ta  Ta22  1  0.67104046  0.33604330  0.48346038  1
  Ta  Ta23  1  0.32943476  0.66388449  0.01506187  1
  Ta  Ta24  1  0.33384660  0.66492821  0.52169861  1
  Ta  Ta25  1  0.33663652  0.66924109  0.31163377  1
  Ta  Ta26  1  0.33251716  0.66546630  0.81433777  1
  Si  Si27  1  0.29974006  0.99590256  0.25278229  1
  Si  Si28  1  0.27957569  0.28630801  0.75196373  1
  Si  Si29  1  0.00783051  0.72025733  0.75149080  1
  Si  Si30  1  0.71067033  0.99204312  0.75231552  1
  Si  Si31  1  0.96768618  0.33141215  0.58530166  1
  Si  Si32  1  0.66953611  0.63601256  0.58530280  1
  Si  Si33  1  0.96476780  0.62812674  0.08413668  1
  Si  Si34  1  0.66695232  0.03537020  0.07997958  1
  Si  Si35  1  0.37101232  0.33674493  0.08085440  1
  Si  Si36  1  0.62454165  0.66331633  0.91610002  1
  Si  Si37  1  0.03787707  0.37487462  0.91480251  1
  Si  Si38  1  0.33747392  0.96220402  0.91577102  1
  Si  Si39  1  0.61392119  0.95874051  0.41819456  1
  Si  Si40  1  0.34306509  0.38520856  0.41771159  1
  Si  Si41  1  0.04161976  0.65683223  0.41718180  1
  P  P42  1  0.70049119  0.70886352  0.25019657  1
  P  P43  1  0.01007022  0.30162494  0.25135452  1
  P  P44  1  0.36677136  0.03580469  0.58284844  1
  O  O45  1  0.21573830  0.00248203  0.31467837  1
  O  O46  1  0.79449859  0.78734906  0.30815900  1
  O  O47  1  0.98821598  0.21219794  0.31050316  1
  O  O48  1  0.18113784  0.16930784  0.80892777  1
  O  O49  1  0.98814246  0.81866250  0.80856209  1
  O  O50  1  0.83016280  0.01324882  0.80878774  1
  O  O51  1  0.80591939  0.96757306  0.69300615  1
  O  O52  1  0.16088241  0.19285479  0.69301810  1
  O  O53  1  0.03459494  0.84008941  0.69285696  1
  O  O54  1  0.79992123  0.82482082  0.19600353  1
  O  O55  1  0.01694597  0.19125936  0.19896309  1
  O  O56  1  0.16830141  0.97772310  0.19618499  1
  O  O57  1  0.90117997  0.36527636  0.64622390  1
  O  O58  1  0.46466483  0.10016765  0.63996497  1
  O  O59  1  0.62997467  0.53492090  0.64614772  1
  O  O60  1  0.90682183  0.53501782  0.14654688  1
  O  O61  1  0.59909158  0.09199988  0.13592520  1
  O  O62  1  0.49183190  0.39754050  0.13774289  1
  O  O63  1  0.46485044  0.29301881  0.02674103  1
  O  O64  1  0.82422722  0.52457471  0.03164234  1
  O  O65  1  0.69735514  0.16569371  0.02509543  1
  O  O66  1  0.46952213  0.15738463  0.52955307  1
  O  O67  1  0.68727581  0.52305017  0.52891306  1
  O  O68  1  0.83558945  0.30805756  0.52864850  1
  O  O69  1  0.52749144  0.68716929  0.97260533  1
  O  O70  1  0.16261137  0.47832299  0.96979042  1
  O  O71  1  0.31536601  0.84421509  0.97291802  1
  O  O72  1  0.51432357  0.83729001  0.47296467  1
  O  O73  1  0.32398290  0.48673725  0.47337446  1
  O  O74  1  0.16594562  0.68045077  0.47163403  1
  O  O75  1  0.13159211  0.62816225  0.35690496  1
  O  O76  1  0.49383617  0.86230861  0.35868890  1
  O  O77  1  0.36937872  0.50564349  0.35914613  1
  O  O78  1  0.13310922  0.49334155  0.85592571  1
  O  O79  1  0.35887660  0.86298244  0.85737762  1
  O  O80  1  0.50347269  0.63958600  0.85760065  1
  O  O81  1  0.01051498  0.81640607  0.41728923  1
  O  O82  1  0.80213754  0.98324131  0.41737417  1
  O  O83  1  0.17647526  0.19934848  0.41837446  1
  O  O84  1  0.02065514  0.18819861  0.91087192  1
  O  O85  1  0.16696073  0.97909192  0.91075289  1
  O  O86  1  0.81148617  0.83309109  0.91060953  1
  O  O87  1  0.98156641  0.15870649  0.58726929  1
  O  O88  1  0.19195660  0.02610561  0.58503008  1
  O  O89  1  0.84716531  0.81842236  0.58740396  1
  O  O90  1  0.97703768  0.81932005  0.09122605  1
  O  O91  1  0.83626574  0.01514045  0.09171535  1
  O  O92  1  0.18601526  0.16001804  0.09248891  1
  O  O93  1  0.68603196  0.15541942  0.75000841  1
  O  O94  1  0.46632669  0.30594513  0.75064341  1
  O  O95  1  0.84209990  0.53323516  0.75061054  1
  O  O96  1  0.68903021  0.53633989  0.24531252  1
  O  O97  1  0.86523651  0.33990536  0.24514734  1
  O  O98  1  0.48652704  0.15406869  0.24818107  1
  O  O99  1  0.64028381  0.49358727  0.92451960  1
  O  O100  1  0.85397056  0.36295010  0.92370558  1
  O  O101  1  0.50800102  0.14790616  0.92257051  1
  O  O102  1  0.62241223  0.14339798  0.42428978  1
  O  O103  1  0.51653717  0.37092071  0.42448487  1
  O  O104  1  0.85551419  0.47982705  0.42480080  1
  O  O105  1  0.33892370  0.49511841  0.06810469  1
  O  O106  1  0.16039965  0.67292488  0.07084465  1
  O  O107  1  0.50955771  0.84076794  0.06834212  1
  O  O108  1  0.34123526  0.85691967  0.57122801  1
  O  O109  1  0.51007752  0.66784649  0.57224103  1
  O  O110  1  0.15433015  0.49726522  0.57239381  1
  O  O111  1  0.29403512  0.80815437  0.25296160  1
  O  O112  1  0.52279915  0.69638459  0.25284413  1
  O  O113  1  0.18266365  0.47409847  0.25212338  1
  O  O114  1  0.29332612  0.47492059  0.75616966  1
  O  O115  1  0.18372919  0.70735100  0.75588166  1
  O  O116  1  0.52422968  0.81523571  0.75606774  1
