# generated using pymatgen
data_NaScSnP2SO12
_symmetry_space_group_name_H-M   'P 1'
_cell_length_a   8.75793632
_cell_length_b   8.78499121
_cell_length_c   23.04068103
_cell_angle_alpha   89.58178084
_cell_angle_beta   90.00000000
_cell_angle_gamma   119.89817748
_symmetry_Int_Tables_number   1
_chemical_formula_structural   NaScSnP2SO12
_chemical_formula_sum   'Na6 Sc6 Sn6 P12 S6 O72'
_cell_volume   1536.73275676
_cell_formula_units_Z   6
loop_
 _symmetry_equiv_pos_site_id
 _symmetry_equiv_pos_as_xyz
  1  'x, y, z'
loop_
 _atom_site_type_symbol
 _atom_site_label
 _atom_site_symmetry_multiplicity
 _atom_site_fract_x
 _atom_site_fract_y
 _atom_site_fract_z
 _atom_site_occupancy
  Na  Na0  1  0.98994724  0.99387653  0.50138062  1
  Na  Na1  1  0.00392929  0.99387653  0.00138062  1
  Na  Na2  1  0.65661424  0.32720953  0.83471362  1
  Na  Na3  1  0.67059629  0.32720953  0.33471362  1
  Na  Na4  1  0.32328024  0.66054353  0.16804762  1
  Na  Na5  1  0.33726229  0.66054353  0.66804762  1
  Sc  Sc6  1  0.99254069  0.00545911  0.64673114  1
  Sc  Sc7  1  0.01291842  0.00545911  0.14673114  1
  Sc  Sc8  1  0.65920769  0.33879211  0.98006414  1
  Sc  Sc9  1  0.67958542  0.33879211  0.48006414  1
  Sc  Sc10  1  0.32587369  0.67212611  0.31339814  1
  Sc  Sc11  1  0.34625142  0.67212611  0.81339814  1
  Sn  Sn12  1  0.99891959  0.00075210  0.35094990  1
  Sn  Sn13  1  0.00183251  0.00075210  0.85094990  1
  Sn  Sn14  1  0.66558659  0.33408510  0.68428290  1
  Sn  Sn15  1  0.66849951  0.33408510  0.18428290  1
  Sn  Sn16  1  0.33225259  0.66741910  0.01761690  1
  Sn  Sn17  1  0.33516551  0.66741910  0.51761690  1
  P  P18  1  0.29376684  0.00371633  0.24943547  1
  P  P19  1  0.99968563  0.29079373  0.24873587  1
  P  P20  1  0.29110811  0.29079373  0.74873587  1
  P  P21  1  0.70994949  0.00371633  0.74943547  1
  P  P22  1  0.96043384  0.33704933  0.58276847  1
  P  P23  1  0.66635263  0.62412673  0.58206887  1
  P  P24  1  0.95777511  0.62412673  0.08206887  1
  P  P25  1  0.37661649  0.33704933  0.08276847  1
  P  P26  1  0.62709984  0.67038333  0.91610247  1
  P  P27  1  0.33301863  0.95746073  0.91540287  1
  P  P28  1  0.62444111  0.95746073  0.41540287  1
  P  P29  1  0.04328249  0.67038333  0.41610247  1
  S  S30  1  0.70814435  0.70731996  0.24913389  1
  S  S31  1  0.99917561  0.70731996  0.74913389  1
  S  S32  1  0.37481135  0.04065296  0.58246689  1
  S  S33  1  0.66584261  0.04065296  0.08246689  1
  S  S34  1  0.04147735  0.37398696  0.91580089  1
  S  S35  1  0.33250861  0.37398696  0.41580089  1
  O  O36  1  0.21426468  0.03627447  0.30543988  1
  O  O37  1  0.81583962  0.78068924  0.30283197  1
  O  O38  1  0.96182374  0.17718456  0.30543049  1
  O  O39  1  0.21536081  0.17718456  0.80543049  1
  O  O40  1  0.96484962  0.78068924  0.80283197  1
  O  O41  1  0.82200979  0.03627447  0.80543988  1
  O  O42  1  0.79447249  0.97452150  0.69635412  1
  O  O43  1  0.18007032  0.20155636  0.69577819  1
  O  O44  1  0.02486794  0.81485934  0.69763999  1
  O  O45  1  0.78999141  0.81485934  0.19763999  1
  O  O46  1  0.02148604  0.20155636  0.19577819  1
  O  O47  1  0.18004901  0.97452150  0.19635412  1
  O  O48  1  0.88093168  0.36960747  0.63877288  1
  O  O49  1  0.48250662  0.11402224  0.63616497  1
  O  O50  1  0.62849074  0.51051756  0.63876349  1
  O  O51  1  0.88202781  0.51051756  0.13876349  1
  O  O52  1  0.63151662  0.11402224  0.13616497  1
  O  O53  1  0.48867679  0.36960747  0.13877288  1
  O  O54  1  0.46113949  0.30785450  0.02968712  1
  O  O55  1  0.84673732  0.53488936  0.02911119  1
  O  O56  1  0.69153494  0.14819234  0.03097299  1
  O  O57  1  0.45665841  0.14819234  0.53097299  1
  O  O58  1  0.68815304  0.53488936  0.52911119  1
  O  O59  1  0.84671601  0.30785450  0.52968712  1
  O  O60  1  0.54759768  0.70294147  0.97210688  1
  O  O61  1  0.14917262  0.44735624  0.96949897  1
  O  O62  1  0.29515674  0.84385156  0.97209749  1
  O  O63  1  0.54869381  0.84385156  0.47209749  1
  O  O64  1  0.29818262  0.44735624  0.46949897  1
  O  O65  1  0.15534279  0.70294147  0.47210688  1
  O  O66  1  0.12780549  0.64118850  0.36302112  1
  O  O67  1  0.51340332  0.86822336  0.36244519  1
  O  O68  1  0.35820094  0.48152634  0.36430699  1
  O  O69  1  0.12332441  0.48152634  0.86430699  1
  O  O70  1  0.35481904  0.86822336  0.86244519  1
  O  O71  1  0.51338201  0.64118850  0.86302112  1
  O  O72  1  0.02655317  0.83913751  0.41007139  1
  O  O73  1  0.81267808  0.97671005  0.41047386  1
  O  O74  1  0.17097518  0.19616450  0.41138554  1
  O  O75  1  0.02518932  0.19616450  0.91138554  1
  O  O76  1  0.16403196  0.97671005  0.91047386  1
  O  O77  1  0.81258434  0.83913751  0.91007139  1
  O  O78  1  0.98304139  0.17572694  0.58906185  1
  O  O79  1  0.19924474  0.02027328  0.58966174  1
  O  O80  1  0.83018271  0.80498448  0.58950411  1
  O  O81  1  0.97480177  0.80498448  0.08950411  1
  O  O82  1  0.82102854  0.02027328  0.08966174  1
  O  O83  1  0.19268555  0.17572694  0.08906185  1
  O  O84  1  0.69322017  0.17247051  0.74340439  1
  O  O85  1  0.47934508  0.31004305  0.74380686  1
  O  O86  1  0.83764218  0.52949750  0.74471854  1
  O  O87  1  0.69185632  0.52949750  0.24471854  1
  O  O88  1  0.83069896  0.31004305  0.24380686  1
  O  O89  1  0.47925134  0.17247051  0.24340439  1
  O  O90  1  0.64970839  0.50905994  0.92239485  1
  O  O91  1  0.86591174  0.35360628  0.92299474  1
  O  O92  1  0.49684971  0.13831748  0.92283711  1
  O  O93  1  0.64146877  0.13831748  0.42283711  1
  O  O94  1  0.48769554  0.35360628  0.42299474  1
  O  O95  1  0.85935255  0.50905994  0.42239485  1
  O  O96  1  0.35988617  0.50580451  0.07673839  1
  O  O97  1  0.14601108  0.64337705  0.07714086  1
  O  O98  1  0.50430818  0.86283150  0.07805254  1
  O  O99  1  0.35852232  0.86283150  0.57805254  1
  O  O100  1  0.49736496  0.64337705  0.57714086  1
  O  O101  1  0.14591734  0.50580451  0.57673839  1
  O  O102  1  0.31637439  0.84239394  0.25572885  1
  O  O103  1  0.53257774  0.68694028  0.25632874  1
  O  O104  1  0.16351571  0.47165148  0.25617111  1
  O  O105  1  0.30813477  0.47165148  0.75617111  1
  O  O106  1  0.15436154  0.68694028  0.75632874  1
  O  O107  1  0.52601855  0.84239394  0.75572885  1
