# generated using pymatgen
data_Na8Mg(FeO4)2
_symmetry_space_group_name_H-M   'P 1'
_cell_length_a   5.81743786
_cell_length_b   5.92945135
_cell_length_c   8.94638216
_cell_angle_alpha   70.65765504
_cell_angle_beta   84.73256044
_cell_angle_gamma   68.12349802
_symmetry_Int_Tables_number   1
_chemical_formula_structural   Na8Mg(FeO4)2
_chemical_formula_sum   'Na8 Mg1 Fe2 O8'
_cell_volume   270.03580301
_cell_formula_units_Z   1
loop_
 _symmetry_equiv_pos_site_id
 _symmetry_equiv_pos_as_xyz
  1  'x, y, z'
loop_
 _atom_site_type_symbol
 _atom_site_label
 _atom_site_symmetry_multiplicity
 _atom_site_fract_x
 _atom_site_fract_y
 _atom_site_fract_z
 _atom_site_occupancy
  Na  Na0  1  0.29651305  0.57770764  0.39843651  1
  Na  Na1  1  0.79113838  0.52833434  0.55991855  1
  Na  Na2  1  0.71712880  0.12658109  0.09511910  1
  Na  Na3  1  0.26201103  0.76927230  0.99357192  1
  Na  Na4  1  0.75818953  0.09766471  0.42901359  1
  Na  Na5  1  0.27814279  0.02792244  0.55176913  1
  Na  Na6  1  0.27315680  0.26839456  0.17871847  1
  Na  Na7  1  0.75809143  0.53303178  0.88670066  1
  Mg  Mg8  1  0.83800962  0.00430455  0.77823594  1
  Fe  Fe9  1  0.25902072  0.39662538  0.75356937  1
  Fe  Fe10  1  0.74782716  0.62500208  0.22258063  1
  O  O11  1  0.84067748  0.78320583  0.00729902  1
  O  O12  1  0.04492216  0.19565077  0.80252602  1
  O  O13  1  0.01626868  0.37983524  0.36570980  1
  O  O14  1  0.01820539  0.74869542  0.65098096  1
  O  O15  1  0.41905468  0.41234249  0.91483318  1
  O  O16  1  0.54852811  0.45230301  0.20411785  1
  O  O17  1  0.56049582  0.86566747  0.33185709  1
  O  O18  1  0.53095138  0.23870889  0.63285419  1
