# generated using pymatgen
data_Ti2In2SiS5O24
_symmetry_space_group_name_H-M   'P 1'
_cell_length_a   8.76742281
_cell_length_b   8.79374420
_cell_length_c   22.75877682
_cell_angle_alpha   90.01422197
_cell_angle_beta   89.98021515
_cell_angle_gamma   120.00906773
_symmetry_Int_Tables_number   1
_chemical_formula_structural   Ti2In2SiS5O24
_chemical_formula_sum   'Ti6 In6 Si3 S15 O72'
_cell_volume   1519.44719151
_cell_formula_units_Z   3
loop_
 _symmetry_equiv_pos_site_id
 _symmetry_equiv_pos_as_xyz
  1  'x, y, z'
loop_
 _atom_site_type_symbol
 _atom_site_label
 _atom_site_symmetry_multiplicity
 _atom_site_fract_x
 _atom_site_fract_y
 _atom_site_fract_z
 _atom_site_occupancy
  Ti  Ti0  1  0.99818738  0.00697070  0.64135704  1
  Ti  Ti1  1  0.00756215  0.00885406  0.14453385  1
  Ti  Ti2  1  0.67883594  0.32152141  0.47686668  1
  Ti  Ti3  1  0.33412994  0.65974719  0.02241267  1
  Ti  Ti4  1  0.33943730  0.66811274  0.52214740  1
  Ti  Ti5  1  0.34502799  0.67823871  0.31425895  1
  In  In6  1  0.99668530  0.00163557  0.35735362  1
  In  In7  1  0.00200839  0.00020079  0.85553021  1
  In  In8  1  0.67385902  0.33652777  0.68426994  1
  In  In9  1  0.66258601  0.33589219  0.18476256  1
  In  In10  1  0.65895897  0.33025892  0.98222175  1
  In  In11  1  0.33125083  0.66628527  0.81014780  1
  Si  Si12  1  0.96181672  0.33867155  0.58252463  1
  Si  Si13  1  0.37477858  0.33424360  0.08341731  1
  Si  Si14  1  0.61804896  0.95232872  0.41868508  1
  S  S15  1  0.28547069  0.99374122  0.25084275  1
  S  S16  1  0.70883683  0.71173875  0.25056618  1
  S  S17  1  0.00349099  0.29293310  0.24929141  1
  S  S18  1  0.28761261  0.28631537  0.74803592  1
  S  S19  1  -0.00117691  0.71406859  0.74869983  1
  S  S20  1  0.71342325  -0.00037092  0.74876787  1
  S  S21  1  0.37332838  0.04113051  0.58204013  1
  S  S22  1  0.66787545  0.62546265  0.58225158  1
  S  S23  1  0.96657458  0.63332578  0.08350283  1
  S  S24  1  0.66747402  0.03430553  0.08344116  1
  S  S25  1  0.62069593  0.66737854  0.91732505  1
  S  S26  1  0.04437249  0.37957434  0.91804254  1
  S  S27  1  0.33469907  0.95329389  0.91734370  1
  S  S28  1  0.34196216  0.38856822  0.41758597  1
  S  S29  1  0.04919318  0.66174389  0.41743456  1
  O  O30  1  0.21076856  0.02724681  0.30371903  1
  O  O31  1  0.81587562  0.78882110  0.30334950  1
  O  O32  1  0.96897670  0.18414026  0.30185905  1
  O  O33  1  0.21417238  0.18430906  0.80250033  1
  O  O34  1  0.97425854  0.78991335  0.80357837  1
  O  O35  1  0.81773816  0.02909921  0.80294251  1
  O  O36  1  0.80533651  0.97764341  0.69670091  1
  O  O37  1  0.17328296  0.19477785  0.69602060  1
  O  O38  1  0.02140844  0.82623819  0.69691110  1
  O  O39  1  0.78896179  0.82282542  0.19808419  1
  O  O40  1  0.02818206  0.20251391  0.19673038  1
  O  O41  1  0.17200908  0.96741482  0.19829305  1
  O  O42  1  0.88851870  0.37779981  0.64062148  1
  O  O43  1  0.47927866  0.10942623  0.63573849  1
  O  O44  1  0.62515579  0.51932036  0.63598893  1
  O  O45  1  0.89783060  0.51945128  0.13541428  1
  O  O46  1  0.62904126  0.10682654  0.13570097  1
  O  O47  1  0.49197307  0.38213476  0.14118939  1
  O  O48  1  0.44169056  0.28250727  0.02569508  1
  O  O49  1  0.85504440  0.56063668  0.03118521  1
  O  O50  1  0.71279516  0.14764338  0.03148328  1
  O  O51  1  0.45530063  0.15888196  0.53094973  1
  O  O52  1  0.69924929  0.54357997  0.53114340  1
  O  O53  1  0.82735604  0.30003611  0.52569410  1
  O  O54  1  0.52856836  0.68859051  0.96946464  1
  O  O55  1  0.15858335  0.47134667  0.97001013  1
  O  O56  1  0.31247624  0.84156837  0.96923518  1
  O  O57  1  0.51070848  0.82695690  0.47339011  1
  O  O58  1  0.30907154  0.46898041  0.46968000  1
  O  O59  1  0.15745771  0.68612009  0.46958766  1
  O  O60  1  0.12714017  0.62928160  0.36348433  1
  O  O61  1  0.48943529  0.85484781  0.35951607  1
  O  O62  1  0.36387001  0.49738459  0.36353941  1
  O  O63  1  0.11828219  0.48226632  0.86388588  1
  O  O64  1  0.35870086  0.87621682  0.86284595  1
  O  O65  1  0.51555417  0.63770400  0.86349754  1
  O  O66  1  0.03384972  0.81875020  0.41030040  1
  O  O67  1  0.80730136  0.97586371  0.41204431  1
  O  O68  1  0.18730642  0.21331896  0.41023793  1
  O  O69  1  0.03203120  0.20635530  0.91391452  1
  O  O70  1  0.17427431  0.96819127  0.91358636  1
  O  O71  1  0.79261358  0.83078343  0.91376474  1
  O  O72  1  0.97884117  0.15992011  0.59592155  1
  O  O73  1  0.19589284  0.02152214  0.59214940  1
  O  O74  1  0.82631690  0.80234762  0.59298552  1
  O  O75  1  0.98410427  0.80773544  0.09598364  1
  O  O76  1  0.82049876  0.00892006  0.09583022  1
  O  O77  1  0.17470635  0.16399189  0.09957353  1
  O  O78  1  0.68924582  0.15161667  0.74249158  1
  O  O79  1  0.46302012  0.30636663  0.74039688  1
  O  O80  1  0.84123439  0.53975316  0.74389561  1
  O  O81  1  0.68698946  0.53626291  0.24418644  1
  O  O82  1  0.84849642  0.31322768  0.23958765  1
  O  O83  1  0.46380992  0.14243240  0.24289301  1
  O  O84  1  0.64486306  0.51527463  0.92390717  1
  O  O85  1  0.86932552  0.35991042  0.92634289  1
  O  O86  1  0.49290766  0.12716703  0.92243012  1
  O  O87  1  0.62609052  0.14258787  0.42842763  1
  O  O88  1  0.50162178  0.37683247  0.42627213  1
  O  O89  1  0.86978709  0.50518511  0.42551153  1
  O  O90  1  0.34290601  0.50181478  0.06772053  1
  O  O91  1  0.14481653  0.65932175  0.07131858  1
  O  O92  1  0.51128030  0.85930958  0.07145887  1
  O  O93  1  0.34843165  0.86377827  0.57121498  1
  O  O94  1  0.51475199  0.65169832  0.57166285  1
  O  O95  1  0.15414150  0.49911477  0.56498098  1
  O  O96  1  0.29396660  0.82847315  0.25869437  1
  O  O97  1  0.52931811  0.69348005  0.25976508  1
  O  O98  1  0.16342359  0.46631712  0.25721758  1
  O  O99  1  0.30000398  0.45956845  0.75252393  1
  O  O100  1  0.15945082  0.69948770  0.75283544  1
  O  O101  1  0.54132075  0.83616847  0.75268083  1
