# generated using pymatgen
data_Na2AlGaSi(SO6)2
_symmetry_space_group_name_H-M   'P 1'
_cell_length_a   8.59902253
_cell_length_b   8.60292044
_cell_length_c   21.91439310
_cell_angle_alpha   89.89844741
_cell_angle_beta   89.92186668
_cell_angle_gamma   119.88566607
_symmetry_Int_Tables_number   1
_chemical_formula_structural   Na2AlGaSi(SO6)2
_chemical_formula_sum   'Na12 Al6 Ga6 Si6 S12 O72'
_cell_volume   1405.56887985
_cell_formula_units_Z   6
loop_
 _symmetry_equiv_pos_site_id
 _symmetry_equiv_pos_as_xyz
  1  'x, y, z'
loop_
 _atom_site_type_symbol
 _atom_site_label
 _atom_site_symmetry_multiplicity
 _atom_site_fract_x
 _atom_site_fract_y
 _atom_site_fract_z
 _atom_site_occupancy
  Na  Na0  1  -0.00003151  0.62487731  0.25023687  1
  Na  Na1  1  0.37414253  0.99938211  0.75070186  1
  Na  Na2  1  0.66289141  0.97128337  0.58910832  1
  Na  Na3  1  0.02935692  0.33928741  0.08930862  1
  Na  Na4  1  0.97934459  0.67449082  0.92172465  1
  Na  Na5  1  0.32690977  0.02350041  0.42149035  1
  Na  Na6  1  0.00767739  0.99314405  0.50049083  1
  Na  Na7  1  0.00824313  0.99193071  0.00036718  1
  Na  Na8  1  0.66182636  0.31645285  0.83474417  1
  Na  Na9  1  0.68350901  0.33762517  0.33408713  1
  Na  Na10  1  0.33598091  0.66650593  0.16631840  1
  Na  Na11  1  0.33484916  0.66438865  0.66720708  1
  Al  Al12  1  0.00631262  0.01303232  0.85339904  1
  Al  Al13  1  0.00121266  0.99347739  0.14804408  1
  Al  Al14  1  0.65778905  0.33208641  0.98206174  1
  Al  Al15  1  0.32103438  0.68306291  0.01785418  1
  Al  Al16  1  0.31910210  0.67913634  0.51847408  1
  Al  Al17  1  0.35895471  0.69159805  0.81540621  1
  Ga  Ga18  1  0.98814785  0.99431251  0.35231053  1
  Ga  Ga19  1  0.00578399  0.99905083  0.65014222  1
  Ga  Ga20  1  0.66907923  0.31414489  0.68536867  1
  Ga  Ga21  1  0.68536023  0.33152051  0.18424632  1
  Ga  Ga22  1  0.66725324  0.34074935  0.48250865  1
  Ga  Ga23  1  0.30514983  0.63651130  0.31456893  1
  Si  Si24  1  0.99902054  0.27797594  0.24792575  1
  Si  Si25  1  0.71890626  0.99790343  0.75078911  1
  Si  Si26  1  0.36802092  0.04014361  0.58190221  1
  Si  Si27  1  0.95672704  0.63133811  0.08068839  1
  Si  Si28  1  0.33788376  0.96941356  0.91509234  1
  Si  Si29  1  0.03137353  0.66307728  0.41598508  1
  S  S30  1  0.29711342  0.00780565  0.24869350  1
  S  S31  1  0.70454738  0.71040269  0.24926528  1
  S  S32  1  0.28975473  0.29955003  0.75259464  1
  S  S33  1  0.99632652  0.70247061  0.75213934  1
  S  S34  1  0.96681995  0.34152948  0.58220615  1
  S  S35  1  0.66135342  0.62036841  0.58364023  1
  S  S36  1  0.66115775  0.03671165  0.08147112  1
  S  S37  1  0.38062597  0.33595015  0.08278332  1
  S  S38  1  0.61575990  0.66593129  0.91797554  1
  S  S39  1  0.05052742  0.37864594  0.91647850  1
  S  S40  1  0.61961036  0.94801789  0.41722943  1
  S  S41  1  0.33472971  0.38440257  0.41930387  1
  O  O42  1  0.22348710  0.03347519  0.30652831  1
  O  O43  1  0.81994757  0.77920747  0.30442462  1
  O  O44  1  0.96894433  0.16293872  0.30972886  1
  O  O45  1  0.20907018  0.17497340  0.80522047  1
  O  O46  1  0.97109592  0.78637943  0.80733298  1
  O  O47  1  0.84468503  0.02539772  0.80858758  1
  O  O48  1  0.79848600  0.96945942  0.68604841  1
  O  O49  1  0.18534416  0.22527759  0.69584877  1
  O  O50  1  0.04369307  0.82206709  0.69743640  1
  O  O51  1  0.79246300  0.82145878  0.19471804  1
  O  O52  1  0.02262904  0.18735621  0.18600756  1
  O  O53  1  0.17229940  0.96829377  0.19640357  1
  O  O54  1  0.89409682  0.38070720  0.63799072  1
  O  O55  1  0.49639857  0.12115370  0.64262400  1
  O  O56  1  0.63777352  0.51384847  0.63932300  1
  O  O57  1  0.87933242  0.50335695  0.14199102  1
  O  O58  1  0.61946319  0.10559853  0.13770126  1
  O  O59  1  0.48603179  0.36189724  0.13882507  1
  O  O60  1  0.46272984  0.30315505  0.02861144  1
  O  O61  1  0.83298517  0.53034505  0.02074546  1
  O  O62  1  0.69645189  0.15850861  0.02884082  1
  O  O63  1  0.45988926  0.15966701  0.52023587  1
  O  O64  1  0.69796632  0.54518787  0.52835077  1
  O  O65  1  0.84736462  0.30322900  0.52871013  1
  O  O66  1  0.52895510  0.68898643  0.97245174  1
  O  O67  1  0.15743728  0.45471601  0.97321519  1
  O  O68  1  0.28815016  0.83027474  0.97205112  1
  O  O69  1  0.53851427  0.84134565  0.47371309  1
  O  O70  1  0.31611937  0.47575686  0.47280852  1
  O  O71  1  0.16909423  0.70827554  0.47226297  1
  O  O72  1  0.11407120  0.63526262  0.35201819  1
  O  O73  1  0.50842101  0.86510781  0.36214674  1
  O  O74  1  0.36952741  0.49002728  0.36187922  1
  O  O75  1  0.13717142  0.49503757  0.86279872  1
  O  O76  1  0.36428309  0.87551458  0.85390318  1
  O  O77  1  0.50556318  0.63445784  0.86234426  1
  O  O78  1  0.02539974  0.85259924  0.40899208  1
  O  O79  1  0.80013073  0.96833336  0.41445682  1
  O  O80  1  0.17186330  0.20469100  0.41562601  1
  O  O81  1  0.02861246  0.19713015  0.91052357  1
  O  O82  1  0.15028966  0.97799901  0.90557759  1
  O  O83  1  0.79773474  0.82673976  0.91182742  1
  O  O84  1  0.97768609  0.17523427  0.58826929  1
  O  O85  1  0.17011452  0.01948946  0.59074878  1
  O  O86  1  0.81948670  0.80529555  0.58708921  1
  O  O87  1  0.97864570  0.82863732  0.09209471  1
  O  O88  1  0.82802744  0.02659641  0.08805729  1
  O  O89  1  0.19642533  0.17582278  0.08742386  1
  O  O90  1  0.68998420  0.17562492  0.74797810  1
  O  O91  1  0.47156398  0.31964355  0.74679114  1
  O  O92  1  0.82993547  0.52941713  0.74343923  1
  O  O93  1  0.67937934  0.52713166  0.24276769  1
  O  O94  1  0.82362880  0.30951434  0.24636257  1
  O  O95  1  0.47153885  0.17257275  0.23956159  1
  O  O96  1  0.64098260  0.50639237  0.92234989  1
  O  O97  1  0.87038209  0.36395241  0.92203600  1
  O  O98  1  0.51520238  0.16428477  0.92717574  1
  O  O99  1  0.63420835  0.12803760  0.42117626  1
  O  O100  1  0.49245460  0.35654813  0.42173661  1
  O  O101  1  0.83566916  0.48446630  0.42441852  1
  O  O102  1  0.36118538  0.49725133  0.07435448  1
  O  O103  1  0.15249141  0.63868122  0.07468538  1
  O  O104  1  0.50669320  0.85421767  0.07268913  1
  O  O105  1  0.36226320  0.84632751  0.57596205  1
  O  O106  1  0.49806402  0.63628073  0.57604778  1
  O  O107  1  0.14753813  0.49670187  0.57377996  1
  O  O108  1  0.31935360  0.84693891  0.25240280  1
  O  O109  1  0.53052154  0.70424210  0.25659861  1
  O  O110  1  0.17744202  0.48346164  0.24986896  1
  O  O111  1  0.30141982  0.47484590  0.76285713  1
  O  O112  1  0.15491465  0.67669406  0.75873149  1
  O  O113  1  0.51399271  0.82201052  0.75538029  1
