# generated using pymatgen
data_MgNi2(PO4)2
_symmetry_space_group_name_H-M   'P 1'
_cell_length_a   4.92204806
_cell_length_b   4.92204964
_cell_length_c   6.51072136
_cell_angle_alpha   87.32132131
_cell_angle_beta   87.32132419
_cell_angle_gamma   67.66405395
_symmetry_Int_Tables_number   1
_chemical_formula_structural   MgNi2(PO4)2
_chemical_formula_sum   'Mg1 Ni2 P2 O8'
_cell_volume   145.66689284
_cell_formula_units_Z   1
loop_
 _symmetry_equiv_pos_site_id
 _symmetry_equiv_pos_as_xyz
  1  'x, y, z'
loop_
 _atom_site_type_symbol
 _atom_site_label
 _atom_site_symmetry_multiplicity
 _atom_site_fract_x
 _atom_site_fract_y
 _atom_site_fract_z
 _atom_site_occupancy
  Mg  Mg0  1  0.50000000  0.50000000  0.50000000  1
  Ni  Ni1  1  0.00000000  0.00000000  0.50000100  1
  Ni  Ni2  1  0.00000000  0.00000000  0.00000000  1
  P  P3  1  0.33309900  0.33309700  0.21620800  1
  P  P4  1  0.66690300  0.66690300  0.78379200  1
  O  O5  1  0.76618700  0.76618800  0.57273600  1
  O  O6  1  0.68146400  0.23012700  0.24556200  1
  O  O7  1  0.23012600  0.68146500  0.24556200  1
  O  O8  1  0.31853500  0.76987300  0.75443800  1
  O  O9  1  0.75856700  0.75856800  0.97491100  1
  O  O10  1  0.23381300  0.23381400  0.42726400  1
  O  O11  1  0.76987300  0.31853500  0.75443800  1
  O  O12  1  0.24143300  0.24143400  0.02508800  1
