# generated using pymatgen
data_Tb4Mg(WO6)2
_symmetry_space_group_name_H-M   'P 1'
_cell_length_a   5.74056031
_cell_length_b   5.47713397
_cell_length_c   8.32047915
_cell_angle_alpha   90.36441581
_cell_angle_beta   93.19906395
_cell_angle_gamma   88.88837244
_symmetry_Int_Tables_number   1
_chemical_formula_structural   Tb4Mg(WO6)2
_chemical_formula_sum   'Tb4 Mg1 W2 O12'
_cell_volume   261.15050633
_cell_formula_units_Z   1
loop_
 _symmetry_equiv_pos_site_id
 _symmetry_equiv_pos_as_xyz
  1  'x, y, z'
loop_
 _atom_site_type_symbol
 _atom_site_label
 _atom_site_symmetry_multiplicity
 _atom_site_fract_x
 _atom_site_fract_y
 _atom_site_fract_z
 _atom_site_occupancy
  Tb  Tb0  1  0.23238500  0.52555800  0.35741300  1
  Tb  Tb1  1  0.23053000  0.02938000  0.61349900  1
  Tb  Tb2  1  0.72741100  0.97498000  0.35337200  1
  Tb  Tb3  1  0.74550800  0.47582300  0.62410800  1
  Mg  Mg4  1  0.63317900  0.99223900  0.87580900  1
  W  W5  1  0.08298300  0.02570100  0.01305000  1
  W  W6  1  0.54054600  0.48956200  0.00399900  1
  O  O7  1  0.05707900  0.83722800  0.19467000  1
  O  O8  1  0.33614800  0.81980800  0.91283200  1
  O  O9  1  0.98408500  0.25561600  0.46096300  1
  O  O10  1  0.48763400  0.75519300  0.52478400  1
  O  O11  1  0.25074700  0.30661500  0.10080000  1
  O  O12  1  0.46424200  0.29981100  0.80427800  1
  O  O13  1  0.55829200  0.65142800  0.20189000  1
  O  O14  1  0.78257800  0.66286800  0.88824200  1
  O  O15  1  0.48679600  0.24696300  0.46760800  1
  O  O16  1  0.74262200  0.18622800  0.08068000  1
  O  O17  1  0.98214900  0.74845500  0.51394000  1
  O  O18  1  0.95063500  0.12164500  0.80300700  1
