# generated using pymatgen
data_NaZr2Ti2P5SO24
_symmetry_space_group_name_H-M   'P 1'
_cell_length_a   8.76368014
_cell_length_b   8.77209380
_cell_length_c   22.79022130
_cell_angle_alpha   90.05185887
_cell_angle_beta   89.90308057
_cell_angle_gamma   120.02082556
_symmetry_Int_Tables_number   1
_chemical_formula_structural   NaZr2Ti2P5SO24
_chemical_formula_sum   'Na3 Zr6 Ti6 P15 S3 O72'
_cell_volume   1516.97058950
_cell_formula_units_Z   3
loop_
 _symmetry_equiv_pos_site_id
 _symmetry_equiv_pos_as_xyz
  1  'x, y, z'
loop_
 _atom_site_type_symbol
 _atom_site_label
 _atom_site_symmetry_multiplicity
 _atom_site_fract_x
 _atom_site_fract_y
 _atom_site_fract_z
 _atom_site_occupancy
  Na  Na0  1  0.66953173  0.33681857  0.83717978  1
  Na  Na1  1  0.66726267  0.33410178  0.32849904  1
  Na  Na2  1  0.33341849  0.66787544  0.16771973  1
  Zr  Zr3  1  0.99503373  0.99988089  0.85964030  1
  Zr  Zr4  1  0.00486470  0.99960894  0.64663261  1
  Zr  Zr5  1  0.66239751  0.32712410  0.68952348  1
  Zr  Zr6  1  0.65909012  0.32775186  0.47340970  1
  Zr  Zr7  1  0.33378046  0.67239705  0.51680118  1
  Zr  Zr8  1  0.33146502  0.66136089  0.81163933  1
  Ti  Ti9  1  0.00095787  0.00003542  0.35234611  1
  Ti  Ti10  1  0.99836205  0.99979191  0.14516353  1
  Ti  Ti11  1  0.66652789  0.33174761  0.18659064  1
  Ti  Ti12  1  0.67556317  0.34169211  0.98608764  1
  Ti  Ti13  1  0.33654926  0.65612681  0.02336366  1
  Ti  Ti14  1  0.33262736  0.66576180  0.31043607  1
  P  P15  1  0.28470033  0.00015169  0.24914102  1
  P  P16  1  0.71556975  0.71467109  0.24945131  1
  P  P17  1  0.99935510  0.28420013  0.24944642  1
  P  P18  1  0.28772923  0.28748584  0.75142980  1
  P  P19  1  0.99941288  0.71056438  0.75144343  1
  P  P20  1  0.71135751  0.99919032  0.75072759  1
  P  P21  1  0.37655888  0.04201718  0.58259483  1
  P  P22  1  0.95653715  0.62301963  0.08532766  1
  P  P23  1  0.66637343  0.04622170  0.08409117  1
  P  P24  1  0.37986443  0.32917426  0.08457219  1
  P  P25  1  0.61597189  0.65583566  0.92024402  1
  P  P26  1  0.04147239  0.38406629  0.92047434  1
  P  P27  1  0.62652384  0.94975362  0.41162665  1
  P  P28  1  0.32341861  0.37527968  0.41231390  1
  P  P29  1  0.04811924  0.67443000  0.41196939  1
  S  S30  1  0.95693346  0.33367332  0.58265077  1
  S  S31  1  0.66593808  0.62272002  0.58278327  1
  S  S32  1  0.34116016  0.95847537  0.92019464  1
  O  O33  1  0.19955415  0.02917755  0.30426265  1
  O  O34  1  0.82987326  0.80079553  0.30429354  1
  O  O35  1  0.97076243  0.17030205  0.30436980  1
  O  O36  1  0.20528498  0.17238949  0.80554166  1
  O  O37  1  0.96790410  0.79481233  0.80548668  1
  O  O38  1  0.82685942  0.03187392  0.80499561  1
  O  O39  1  0.79394089  0.97393720  0.69476156  1
  O  O40  1  0.17938546  0.20586761  0.69534371  1
  O  O41  1  0.02531384  0.81953957  0.69537248  1
  O  O42  1  0.80180705  0.83075057  0.19482120  1
  O  O43  1  0.02890264  0.19827895  0.19477119  1
  O  O44  1  0.16920783  0.97110264  0.19468343  1
  O  O45  1  0.87773912  0.36275496  0.63535787  1
  O  O46  1  0.49085662  0.12895647  0.63693340  1
  O  O47  1  0.64080141  0.51616423  0.63541940  1
  O  O48  1  0.86529677  0.49951187  0.13812491  1
  O  O49  1  0.63468212  0.13577497  0.13797882  1
  O  O50  1  0.50078607  0.36546296  0.13830957  1
  O  O51  1  0.46956832  0.30597909  0.02914617  1
  O  O52  1  0.83849732  0.53355354  0.02994681  1
  O  O53  1  0.69415116  0.16453175  0.02940620  1
  O  O54  1  0.46591313  0.15920435  0.52874613  1
  O  O55  1  0.69516041  0.54165620  0.53045585  1
  O  O56  1  0.84800097  0.30853065  0.53042551  1
  O  O57  1  0.52315861  0.68548631  0.97348295  1
  O  O58  1  0.16311487  0.47879316  0.97341726  1
  O  O59  1  0.31211243  0.84604561  0.97124661  1
  O  O60  1  0.54646731  0.84468774  0.46930979  1
  O  O61  1  0.29974469  0.45567789  0.46987231  1
  O  O62  1  0.15493807  0.70048286  0.46930216  1
  O  O63  1  0.13968393  0.64069491  0.36006124  1
  O  O64  1  0.50072718  0.85985594  0.35996894  1
  O  O65  1  0.35805899  0.49962260  0.36011263  1
  O  O66  1  0.11953403  0.49406250  0.86440827  1
  O  O67  1  0.36902044  0.88191692  0.86527892  1
  O  O68  1  0.50652493  0.62853561  0.86444954  1
  O  O69  1  0.02704542  0.83440607  0.40277318  1
  O  O70  1  0.80839941  0.97271540  0.40276156  1
  O  O71  1  0.16553002  0.19288099  0.40283438  1
  O  O72  1  0.02714491  0.20376842  0.91263640  1
  O  O73  1  0.18153679  0.97487213  0.91210598  1
  O  O74  1  0.79754731  0.82112778  0.91287243  1
  O  O75  1  0.97240106  0.17566263  0.58939488  1
  O  O76  1  0.19544278  0.02476850  0.58964171  1
  O  O77  1  0.82144523  0.79850087  0.58926991  1
  O  O78  1  0.97281276  0.80294681  0.09496058  1
  O  O79  1  0.82869520  0.02718245  0.09489154  1
  O  O80  1  0.19708938  0.17025041  0.09471467  1
  O  O81  1  0.69404183  0.16542920  0.74506533  1
  O  O82  1  0.47330776  0.31030043  0.74474754  1
  O  O83  1  0.83595397  0.52711216  0.74362799  1
  O  O84  1  0.69318159  0.52793957  0.24074846  1
  O  O85  1  0.83481267  0.30691467  0.24086702  1
  O  O86  1  0.47205360  0.16518273  0.24068693  1
  O  O87  1  0.63750934  0.49281743  0.92868573  1
  O  O88  1  0.85471979  0.35920452  0.92899575  1
  O  O89  1  0.49792919  0.13737094  0.92609764  1
  O  O90  1  0.64371306  0.13453949  0.41974886  1
  O  O91  1  0.49264654  0.35991960  0.41938115  1
  O  O92  1  0.86459824  0.50714421  0.42088051  1
  O  O93  1  0.36044048  0.49641295  0.07498730  1
  O  O94  1  0.13966463  0.64122446  0.07420699  1
  O  O95  1  0.50080076  0.86206160  0.07381954  1
  O  O96  1  0.35842092  0.86011820  0.57546733  1
  O  O97  1  0.50706437  0.63867840  0.57616526  1
  O  O98  1  0.13369553  0.48990589  0.57613406  1
  O  O99  1  0.30694096  0.83550553  0.25830466  1
  O  O100  1  0.52860020  0.69320130  0.25846002  1
  O  O101  1  0.16451928  0.47129148  0.25834396  1
  O  O102  1  0.30776588  0.46934570  0.75704257  1
  O  O103  1  0.16255239  0.69310921  0.75810550  1
  O  O104  1  0.52888037  0.83974504  0.75852575  1
