# generated using pymatgen
data_SrH2
_symmetry_space_group_name_H-M   'P 1'
_cell_length_a   3.85318502
_cell_length_b   6.34859877
_cell_length_c   7.30273785
_cell_angle_alpha   90.00000000
_cell_angle_beta   90.00000000
_cell_angle_gamma   90.00000000
_symmetry_Int_Tables_number   1
_chemical_formula_structural   SrH2
_chemical_formula_sum   'Sr4 H8'
_cell_volume   178.64195163
_cell_formula_units_Z   4
loop_
 _symmetry_equiv_pos_site_id
 _symmetry_equiv_pos_as_xyz
  1  'x, y, z'
loop_
 _atom_site_type_symbol
 _atom_site_label
 _atom_site_symmetry_multiplicity
 _atom_site_fract_x
 _atom_site_fract_y
 _atom_site_fract_z
 _atom_site_occupancy
  Sr  Sr0  1  0.25000000  0.76059628  0.61146613  1
  Sr  Sr1  1  0.75000000  0.23940372  0.38853387  1
  Sr  Sr2  1  0.25000000  0.26059628  0.88853387  1
  Sr  Sr3  1  0.75000000  0.73940372  0.11146613  1
  H  H4  1  0.25000000  0.52640633  0.32140788  1
  H  H5  1  0.75000000  0.47359367  0.67859212  1
  H  H6  1  0.25000000  0.02640633  0.17859212  1
  H  H7  1  0.75000000  0.97359367  0.82140788  1
  H  H8  1  0.75000000  0.35496629  0.07235457  1
  H  H9  1  0.25000000  0.64503371  0.92764543  1
  H  H10  1  0.75000000  0.85496629  0.42764543  1
  H  H11  1  0.25000000  0.14503371  0.57235457  1
