# generated using pymatgen
data_MgFe2S2(O4F)2
_symmetry_space_group_name_H-M   'P 1'
_cell_length_a   5.43255704
_cell_length_b   5.43448225
_cell_length_c   7.72976369
_cell_angle_alpha   68.54836201
_cell_angle_beta   72.66019112
_cell_angle_gamma   91.96954964
_symmetry_Int_Tables_number   1
_chemical_formula_structural   MgFe2S2(O4F)2
_chemical_formula_sum   'Mg1 Fe2 S2 O8 F2'
_cell_volume   200.08834852
_cell_formula_units_Z   1
loop_
 _symmetry_equiv_pos_site_id
 _symmetry_equiv_pos_as_xyz
  1  'x, y, z'
loop_
 _atom_site_type_symbol
 _atom_site_label
 _atom_site_symmetry_multiplicity
 _atom_site_fract_x
 _atom_site_fract_y
 _atom_site_fract_z
 _atom_site_occupancy
  Mg  Mg0  1  0.67527900  0.42275600  0.86434800  1
  Fe  Fe1  1  0.05593900  0.46472700  0.46805100  1
  Fe  Fe2  1  0.99133400  0.97737800  0.01846300  1
  S  S3  1  0.57500800  0.91696900  0.76213100  1
  S  S4  1  0.40316100  0.08449700  0.24457900  1
  O  O5  1  0.66844100  0.77366100  0.62981000  1
  O  O6  1  0.29800500  0.20682500  0.38544600  1
  O  O7  1  0.67399400  0.21165900  0.66611400  1
  O  O8  1  0.35438800  0.79274000  0.33750000  1
  O  O9  1  0.28709500  0.87262000  0.83447700  1
  O  O10  1  0.69591600  0.18047000  0.14250300  1
  O  O11  1  0.68024500  0.78784900  0.93010300  1
  O  O12  1  0.30198000  0.19336100  0.07064200  1
  F  F13  1  0.91190500  0.64210200  0.25945800  1
  F  F14  1  0.03981000  0.37238600  0.76137600  1
