# generated using pymatgen
data_K4MgTi2O6
_symmetry_space_group_name_H-M   'P 1'
_cell_length_a   5.66354348
_cell_length_b   6.98095404
_cell_length_c   6.98095290
_cell_angle_alpha   108.77241106
_cell_angle_beta   97.99176144
_cell_angle_gamma   97.99176393
_symmetry_Int_Tables_number   1
_chemical_formula_structural   K4MgTi2O6
_chemical_formula_sum   'K4 Mg1 Ti2 O6'
_cell_volume   253.76577172
_cell_formula_units_Z   1
loop_
 _symmetry_equiv_pos_site_id
 _symmetry_equiv_pos_as_xyz
  1  'x, y, z'
loop_
 _atom_site_type_symbol
 _atom_site_label
 _atom_site_symmetry_multiplicity
 _atom_site_fract_x
 _atom_site_fract_y
 _atom_site_fract_z
 _atom_site_occupancy
  K  K0  1  0.16438414  0.52122776  0.94051804  1
  K  K1  1  0.28900073  0.86971130  0.51240445  1
  K  K2  1  0.71099927  0.48759555  0.13028870  1
  K  K3  1  0.83561586  0.05948196  0.47877224  1
  Mg  Mg4  1  0.50000000  0.43585250  0.56414750  1
  Ti  Ti5  1  0.72779750  0.93055115  0.93127131  1
  Ti  Ti6  1  0.27220250  0.06872869  0.06944885  1
  O  O7  1  0.64615957  0.73174063  0.67568352  1
  O  O8  1  0.35384043  0.32431648  0.26825937  1
  O  O9  1  0.50000000  0.10383214  0.89616786  1
  O  O10  1  1.00000000  0.88265261  0.11734739  1
  O  O11  1  1.00000000  0.10772554  0.89227446  1
  O  O12  1  0.50000000  0.88283370  0.11716630  1
