# generated using pymatgen
data_Na10Y6Nb2Si7S5O48
_symmetry_space_group_name_H-M   'P 1'
_cell_length_a   18.61516065
_cell_length_b   9.33603105
_cell_length_c   23.20465575
_cell_angle_alpha   90.01997264
_cell_angle_beta   90.13586488
_cell_angle_gamma   120.13813130
_symmetry_Int_Tables_number   1
_chemical_formula_structural   Na10Y6Nb2Si7S5O48
_chemical_formula_sum   'Na30 Y18 Nb6 Si21 S15 O144'
_cell_volume   3487.60063965
_cell_formula_units_Z   3
loop_
 _symmetry_equiv_pos_site_id
 _symmetry_equiv_pos_as_xyz
  1  'x, y, z'
loop_
 _atom_site_type_symbol
 _atom_site_label
 _atom_site_symmetry_multiplicity
 _atom_site_fract_x
 _atom_site_fract_y
 _atom_site_fract_z
 _atom_site_occupancy
  Na  Na0  1  0.31404759  0.99901697  0.24113321  1
  Na  Na1  1  0.81908091  0.02226504  0.24013350  1
  Na  Na2  1  0.18427596  0.36601493  0.24572185  1
  Na  Na3  1  0.32257057  0.62063017  0.74169491  1
  Na  Na4  1  0.81300849  0.62845810  0.74094054  1
  Na  Na5  1  0.68511818  0.00344692  0.74734711  1
  Na  Na6  1  0.17084008  0.34115639  0.58962513  1
  Na  Na7  1  0.66102426  0.33552428  0.57654134  1
  Na  Na8  1  0.00687455  0.69573782  0.57038299  1
  Na  Na9  1  0.16567600  0.99386446  0.08457308  1
  Na  Na10  1  0.66999657  0.99943446  0.08829902  1
  Na  Na11  1  0.50626096  0.31756605  0.06881062  1
  Na  Na12  1  0.84744243  0.00861356  0.92161135  1
  Na  Na13  1  0.66275690  0.31373896  0.91927347  1
  Na  Na14  1  0.48911841  0.29434863  0.42461372  1
  Na  Na15  1  0.16491000  0.01422637  0.42165463  1
  Na  Na16  1  0.66767611  0.05673593  0.41490700  1
  Na  Na17  1  0.84893935  0.65034310  0.41405853  1
  Na  Na18  1  0.99777398  0.98275673  0.50186644  1
  Na  Na19  1  0.47837990  0.97580324  0.49546481  1
  Na  Na20  1  0.98860845  0.98007507  0.99924682  1
  Na  Na21  1  0.48365959  0.00966552  0.99734766  1
  Na  Na22  1  0.34322915  0.33938371  0.83053626  1
  Na  Na23  1  0.83647340  0.33964447  0.83233049  1
  Na  Na24  1  0.32956797  0.34850160  0.33241433  1
  Na  Na25  1  0.83966818  0.34666099  0.32988563  1
  Na  Na26  1  0.17060064  0.64486694  0.16240551  1
  Na  Na27  1  0.68119868  0.67326705  0.16026532  1
  Na  Na28  1  0.18367050  0.69625562  0.65949984  1
  Na  Na29  1  0.67054732  0.69722547  0.66127653  1
  Y  Y30  1  0.00424306  0.00831778  0.35047325  1
  Y  Y31  1  0.50145826  0.99257994  0.34944498  1
  Y  Y32  1  0.00511279  0.01139154  0.85086450  1
  Y  Y33  1  0.49919025  0.00094363  0.85199255  1
  Y  Y34  1  0.33186687  0.32790928  0.68447868  1
  Y  Y35  1  0.82980915  0.31985160  0.68350815  1
  Y  Y36  1  0.32902699  0.33685390  0.18251238  1
  Y  Y37  1  0.83211576  0.33902023  0.18396693  1
  Y  Y38  1  0.33555920  0.32086791  0.98145671  1
  Y  Y39  1  0.82845861  0.33548951  0.98744544  1
  Y  Y40  1  0.32507468  0.32994943  0.48761564  1
  Y  Y41  1  0.83575035  0.34491702  0.48398695  1
  Y  Y42  1  0.16929428  0.66071245  0.02120065  1
  Y  Y43  1  0.67282440  0.65915134  0.01843577  1
  Y  Y44  1  0.17647116  0.69158642  0.51699939  1
  Y  Y45  1  0.66897067  0.66744066  0.52242039  1
  Y  Y46  1  0.66306358  0.65966005  0.31012958  1
  Y  Y47  1  0.16246065  0.65229863  0.81083073  1
  Nb  Nb48  1  0.99819011  0.00920725  0.65202345  1
  Nb  Nb49  1  0.50694485  0.98489236  0.64886846  1
  Nb  Nb50  1  0.00681077  0.02964939  0.14875531  1
  Nb  Nb51  1  0.49727537  0.98449124  0.15180893  1
  Nb  Nb52  1  0.16385171  0.68577445  0.30940190  1
  Nb  Nb53  1  0.66286311  0.64061768  0.80922869  1
  Si  Si54  1  0.14686279  0.00041288  0.24954699  1
  Si  Si55  1  0.65126632  0.99498340  0.25248406  1
  Si  Si56  1  0.34713158  0.69963246  0.25284385  1
  Si  Si57  1  0.00225367  0.30711019  0.25363030  1
  Si  Si58  1  0.15145358  0.30533771  0.74953852  1
  Si  Si59  1  0.64553975  0.29069075  0.75009127  1
  Si  Si60  1  0.50300481  0.70025366  0.75417068  1
  Si  Si61  1  0.84903286  0.99533068  0.75650145  1
  Si  Si62  1  0.17495107  0.02707619  0.58404889  1
  Si  Si63  1  0.67947753  0.02725181  0.58384738  1
  Si  Si64  1  0.33496267  0.63901461  0.58908804  1
  Si  Si65  1  0.83825783  0.64429841  0.58834266  1
  Si  Si66  1  0.33772488  0.03384967  0.08989530  1
  Si  Si67  1  0.83569983  0.03354354  0.08502623  1
  Si  Si68  1  0.18174873  0.32876023  0.08540621  1
  Si  Si69  1  0.67480221  0.32248030  0.08447944  1
  Si  Si70  1  0.81634332  0.66061525  0.91110471  1
  Si  Si71  1  0.51513080  0.37197353  0.91702855  1
  Si  Si72  1  0.31595493  0.97900353  0.41013881  1
  Si  Si73  1  0.66644711  0.36817714  0.41966893  1
  Si  Si74  1  0.01630318  0.66137568  0.41652209  1
  S  S75  1  0.85602804  0.71838325  0.24933455  1
  S  S76  1  0.50205575  0.29134756  0.24582307  1
  S  S77  1  0.00300819  0.71472575  0.74595270  1
  S  S78  1  0.35428353  0.99264615  0.74811839  1
  S  S79  1  0.48314943  0.31776502  0.58331795  1
  S  S80  1  0.98401393  0.32290662  0.58455556  1
  S  S81  1  0.48260487  0.64247843  0.08401594  1
  S  S82  1  0.98467235  0.65097019  0.08478047  1
  S  S83  1  0.31480479  0.66230579  0.91506270  1
  S  S84  1  0.01319867  0.36824232  0.91736902  1
  S  S85  1  0.16617623  0.95891946  0.91800380  1
  S  S86  1  0.66902738  0.95875529  0.91530411  1
  S  S87  1  0.81395629  0.96124286  0.41474328  1
  S  S88  1  0.16842498  0.37963294  0.41512786  1
  S  S89  1  0.51679569  0.65821628  0.41722027  1
  O  O90  1  0.10923765  0.02821796  0.30808379  1
  O  O91  1  0.61174982  0.99768604  0.31430648  1
  O  O92  1  0.39921019  0.79176319  0.30892355  1
  O  O93  1  0.89447653  0.78451885  0.30653082  1
  O  O94  1  0.49630379  0.20166738  0.29944157  1
  O  O95  1  0.98122556  0.17771890  0.30504628  1
  O  O96  1  0.10479689  0.20616655  0.80668944  1
  O  O97  1  0.60778956  0.18527027  0.80807402  1
  O  O98  1  0.48308535  0.78926510  0.80555981  1
  O  O99  1  0.99278355  0.79418748  0.79758825  1
  O  O100  1  0.39689453  0.00733160  0.80312929  1
  O  O101  1  0.89749902  0.01043379  0.81569910  1
  O  O102  1  0.40249859  0.97879717  0.69930550  1
  O  O103  1  0.90820196  0.98402625  0.70189862  1
  O  O104  1  0.08820822  0.19011378  0.69316209  1
  O  O105  1  0.58616414  0.18981931  0.69382986  1
  O  O106  1  0.00835718  0.81447786  0.69358903  1
  O  O107  1  0.51701517  0.83153006  0.69592038  1
  O  O108  1  0.40259618  0.82205906  0.19628181  1
  O  O109  1  0.90872810  0.83139054  0.20252879  1
  O  O110  1  0.01649754  0.20297613  0.19581166  1
  O  O111  1  0.50438781  0.19390595  0.19501654  1
  O  O112  1  0.08770279  0.98511985  0.19339846  1
  O  O113  1  0.58276141  0.98594701  0.19952270  1
  O  O114  1  0.43939711  0.33320034  0.63299111  1
  O  O115  1  0.94577279  0.35035400  0.63579112  1
  O  O116  1  0.23883432  0.13010022  0.63470228  1
  O  O117  1  0.72921838  0.11229089  0.64297971  1
  O  O118  1  0.32526931  0.53256262  0.64658452  1
  O  O119  1  0.83164474  0.53260620  0.64363957  1
  O  O120  1  0.44525800  0.53898841  0.13554268  1
  O  O121  1  0.94839064  0.55343404  0.13699157  1
  O  O122  1  0.32427634  0.11247660  0.14839869  1
  O  O123  1  0.82763249  0.13207911  0.13984082  1
  O  O124  1  0.22517282  0.34642540  0.14763388  1
  O  O125  1  0.73917142  0.35161339  0.13524640  1
  O  O126  1  0.22858654  0.28614626  0.03502212  1
  O  O127  1  0.70966802  0.28543196  0.02390559  1
  O  O128  1  0.43142753  0.56702823  0.03218989  1
  O  O129  1  0.93438344  0.56709599  0.03289605  1
  O  O130  1  0.36568037  0.17035385  0.03729678  1
  O  O131  1  0.85019705  0.13854316  0.02503891  1
  O  O132  1  0.20727789  0.13500245  0.52356054  1
  O  O133  1  0.72271400  0.14750319  0.52832308  1
  O  O134  1  0.35025363  0.55208418  0.53285348  1
  O  O135  1  0.86264782  0.57356571  0.53047511  1
  O  O136  1  0.43857067  0.30657752  0.52805068  1
  O  O137  1  0.93321256  0.29631529  0.53242974  1
  O  O138  1  0.26700525  0.67135591  0.96451944  1
  O  O139  1  0.76989781  0.68833059  0.96532569  1
  O  O140  1  0.05989349  0.46217239  0.96848123  1
  O  O141  1  0.56303064  0.46222604  0.97605417  1
  O  O142  1  0.16495464  0.87297441  0.97231720  1
  O  O143  1  0.66150481  0.86846865  0.96906904  1
  O  O144  1  0.27043901  0.87562323  0.46742416  1
  O  O145  1  0.76712525  0.85511339  0.46409808  1
  O  O146  1  0.16326356  0.45805529  0.46879683  1
  O  O147  1  0.65692250  0.44910266  0.47972824  1
  O  O148  1  0.06572398  0.67391148  0.47536547  1
  O  O149  1  0.56823637  0.67389499  0.46787160  1
  O  O150  1  0.07873014  0.66523561  0.36047406  1
  O  O151  1  0.55869354  0.64801602  0.36395527  1
  O  O152  1  0.25487994  0.86004181  0.35315213  1
  O  O153  1  0.76814880  0.88656811  0.35999142  1
  O  O154  1  0.16976652  0.47281592  0.36277066  1
  O  O155  1  0.67412365  0.48859510  0.36526478  1
  O  O156  1  0.05703226  0.45918662  0.86415546  1
  O  O157  1  0.57901762  0.49599179  0.86085517  1
  O  O158  1  0.16584923  0.85983240  0.86743365  1
  O  O159  1  0.67261843  0.86772620  0.86365025  1
  O  O160  1  0.27137626  0.65981405  0.86029032  1
  O  O161  1  0.75577547  0.65281541  0.85291912  1
  O  O162  1  0.00791027  0.82978960  0.41392531  1
  O  O163  1  0.50719247  0.80669694  0.41633171  1
  O  O164  1  0.41057916  0.01594482  0.40718431  1
  O  O165  1  0.89594177  0.96903334  0.41500505  1
  O  O166  1  0.09503843  0.20619252  0.41453614  1
  O  O167  1  0.58466542  0.18141853  0.41574573  1
  O  O168  1  0.00553835  0.20060442  0.91912504  1
  O  O169  1  0.51566878  0.19649165  0.91457602  1
  O  O170  1  0.09139951  0.97668788  0.91759322  1
  O  O171  1  0.59908781  0.99269065  0.91283340  1
  O  O172  1  0.39869688  0.81357703  0.91772814  1
  O  O173  1  0.90856680  0.82316990  0.90963566  1
  O  O174  1  0.49154486  0.16708441  0.58733539  1
  O  O175  1  0.98925104  0.16765417  0.59168007  1
  O  O176  1  0.08228815  0.01791736  0.59557374  1
  O  O177  1  0.58659407  0.02415095  0.59109280  1
  O  O178  1  0.41579503  0.83180531  0.60013058  1
  O  O179  1  0.91947442  0.83362772  0.59784883  1
  O  O180  1  0.48938570  0.80945414  0.09164480  1
  O  O181  1  0.99267411  0.81842652  0.08885751  1
  O  O182  1  0.41919311  0.00717838  0.09738296  1
  O  O183  1  0.91590369  0.00120668  0.09965066  1
  O  O184  1  0.08656447  0.14975976  0.09078384  1
  O  O185  1  0.58356232  0.14386238  0.09654164  1
  O  O186  1  0.34182700  0.13447855  0.74238459  1
  O  O187  1  0.83096646  0.14740935  0.74966057  1
  O  O188  1  0.24429055  0.33074840  0.74728674  1
  O  O189  1  0.74163796  0.33431745  0.74515478  1
  O  O190  1  0.42765407  0.51643068  0.74443474  1
  O  O191  1  0.92920417  0.54661031  0.74210241  1
  O  O192  1  0.32950660  0.51124407  0.24844081  1
  O  O193  1  0.84408393  0.55208617  0.24347873  1
  O  O194  1  0.42761671  0.30906277  0.24240866  1
  O  O195  1  0.92660515  0.33864154  0.24361249  1
  O  O196  1  0.24225913  0.15016005  0.24527529  1
  O  O197  1  0.74323626  0.15953729  0.24691796  1
  O  O198  1  0.32068502  0.51097618  0.91798624  1
  O  O199  1  0.81103580  0.47955645  0.91319194  1
  O  O200  1  0.42488849  0.35584245  0.91114124  1
  O  O201  1  0.92794630  0.34479178  0.91652286  1
  O  O202  1  0.24289084  0.12413147  0.91604259  1
  O  O203  1  0.74928532  0.12297627  0.91589478  1
  O  O204  1  0.31359700  0.15366609  0.41035637  1
  O  O205  1  0.82259743  0.12671966  0.42043823  1
  O  O206  1  0.24450932  0.36369664  0.41471861  1
  O  O207  1  0.75180091  0.35500569  0.41980593  1
  O  O208  1  0.43530263  0.50193935  0.42023142  1
  O  O209  1  0.92462388  0.49886395  0.41174562  1
  O  O210  1  0.16002451  0.47517077  0.07871586  1
  O  O211  1  0.65022030  0.46685656  0.08324099  1
  O  O212  1  0.07182282  0.68164918  0.07851707  1
  O  O213  1  0.56878185  0.67566161  0.07812459  1
  O  O214  1  0.25167410  0.85906971  0.07860254  1
  O  O215  1  0.74880685  0.85568007  0.08284365  1
  O  O216  1  0.15151762  0.83422051  0.58281252  1
  O  O217  1  0.65661452  0.83703425  0.58088508  1
  O  O218  1  0.24868088  0.64393981  0.58281646  1
  O  O219  1  0.75246710  0.64929381  0.58380078  1
  O  O220  1  0.06976208  0.46241150  0.57852049  1
  O  O221  1  0.56913619  0.46475273  0.58268275  1
  O  O222  1  0.15099372  0.82382915  0.25324881  1
  O  O223  1  0.66110368  0.83083271  0.24298379  1
  O  O224  1  0.25634238  0.69596166  0.25216858  1
  O  O225  1  0.77460774  0.71480952  0.24610611  1
  O  O226  1  0.09357895  0.47678375  0.26036161  1
  O  O227  1  0.57818014  0.45625813  0.24420432  1
  O  O228  1  0.15942145  0.48966618  0.74444813  1
  O  O229  1  0.65038065  0.47653191  0.75370101  1
  O  O230  1  0.07962448  0.70377584  0.74805908  1
  O  O231  1  0.59452726  0.71287698  0.76047050  1
  O  O232  1  0.27168650  0.83358465  0.74813859  1
  O  O233  1  0.75845689  0.81818233  0.75303982  1
