# generated using pymatgen
data_Na4Nb3AlSi5SO24
_symmetry_space_group_name_H-M   'P 1'
_cell_length_a   8.91133235
_cell_length_b   8.89833448
_cell_length_c   22.59908969
_cell_angle_alpha   89.72102171
_cell_angle_beta   90.72463513
_cell_angle_gamma   119.70003794
_symmetry_Int_Tables_number   1
_chemical_formula_structural   Na4Nb3AlSi5SO24
_chemical_formula_sum   'Na12 Nb9 Al3 Si15 S3 O72'
_cell_volume   1556.47602289
_cell_formula_units_Z   3
loop_
 _symmetry_equiv_pos_site_id
 _symmetry_equiv_pos_as_xyz
  1  'x, y, z'
loop_
 _atom_site_type_symbol
 _atom_site_label
 _atom_site_symmetry_multiplicity
 _atom_site_fract_x
 _atom_site_fract_y
 _atom_site_fract_z
 _atom_site_occupancy
  Na  Na0  1  0.63547238  0.62908454  0.74659197  1
  Na  Na1  1  0.99334173  0.36255098  0.74834309  1
  Na  Na2  1  0.37185797  0.00623921  0.74677444  1
  Na  Na3  1  0.66409680  0.69233652  0.08402039  1
  Na  Na4  1  0.02788852  0.33688662  0.08367485  1
  Na  Na5  1  0.32747583  0.02831315  0.41597704  1
  Na  Na6  1  0.99220632  0.99607211  0.49592716  1
  Na  Na7  1  0.00607555  0.99740079  0.99629587  1
  Na  Na8  1  0.66696029  0.33298161  0.83398153  1
  Na  Na9  1  0.68035505  0.33788182  0.32897179  1
  Na  Na10  1  0.33071558  0.67079676  0.16804975  1
  Na  Na11  1  0.33764667  0.66993114  0.66283370  1
  Nb  Nb12  1  0.99852819  0.00069485  0.85460863  1
  Nb  Nb13  1  0.00155539  0.99143544  0.64424361  1
  Nb  Nb14  1  0.00833080  0.01220355  0.14549092  1
  Nb  Nb15  1  0.66608650  0.33419896  0.97845418  1
  Nb  Nb16  1  0.66119480  0.34109823  0.47682965  1
  Nb  Nb17  1  0.33247110  0.67016324  0.02110542  1
  Nb  Nb18  1  0.34692743  0.67997717  0.51888694  1
  Nb  Nb19  1  0.32119794  0.65485544  0.31488767  1
  Nb  Nb20  1  0.33385063  0.66667813  0.81450775  1
  Al  Al21  1  0.99049088  0.01403023  0.35920778  1
  Al  Al22  1  0.65005778  0.32882548  0.68843562  1
  Al  Al23  1  0.68459820  0.33271302  0.18117968  1
  Si  Si24  1  0.98555287  0.28464416  0.25336190  1
  Si  Si25  1  0.29168086  0.28817595  0.74869764  1
  Si  Si26  1  0.99218771  0.70075358  0.74933049  1
  Si  Si27  1  0.71077331  0.00692119  0.74707052  1
  Si  Si28  1  0.38527874  0.05105517  0.58621250  1
  Si  Si29  1  0.66337046  0.61467925  0.58753566  1
  Si  Si30  1  0.95269845  0.61983438  0.08625057  1
  Si  Si31  1  0.65948401  0.04846038  0.08651594  1
  Si  Si32  1  0.39168939  0.33227609  0.08797369  1
  Si  Si33  1  0.62594303  0.66773945  0.91784557  1
  Si  Si34  1  0.04143830  0.37586662  0.91716607  1
  Si  Si35  1  0.33411470  0.95998358  0.91629723  1
  Si  Si36  1  0.63248446  0.95821868  0.41339146  1
  Si  Si37  1  0.32096209  0.37128350  0.41706900  1
  Si  Si38  1  0.03840587  0.67332907  0.41564970  1
  S  S39  1  0.29306621  0.00568478  0.25184505  1
  S  S40  1  0.71464578  0.71065245  0.25140422  1
  S  S41  1  0.95329968  0.33499295  0.58501854  1
  O  O42  1  0.20994816  0.02343805  0.30437576  1
  O  O43  1  0.82309719  0.79548849  0.30322438  1
  O  O44  1  0.97383766  0.16127461  0.30711132  1
  O  O45  1  0.19925782  0.16250752  0.80602037  1
  O  O46  1  0.95979519  0.79610318  0.80552589  1
  O  O47  1  0.83524277  0.03804243  0.80560493  1
  O  O48  1  0.80214429  0.96334946  0.69249184  1
  O  O49  1  0.15937706  0.19934744  0.69261527  1
  O  O50  1  0.03850319  0.83590640  0.69314877  1
  O  O51  1  0.79393440  0.81674685  0.19565889  1
  O  O52  1  0.02355513  0.19524974  0.19283102  1
  O  O53  1  0.17875325  0.97497864  0.19727720  1
  O  O54  1  0.87539491  0.35862227  0.63896206  1
  O  O55  1  0.50002311  0.13637238  0.64489944  1
  O  O56  1  0.64141406  0.50153973  0.64563165  1
  O  O57  1  0.86859640  0.49491631  0.14149605  1
  O  O58  1  0.63223509  0.13501951  0.14324428  1
  O  O59  1  0.51663472  0.36980958  0.14401531  1
  O  O60  1  0.46986282  0.30062095  0.02686273  1
  O  O61  1  0.83082641  0.53669645  0.02673675  1
  O  O62  1  0.70830446  0.17050403  0.02736034  1
  O  O63  1  0.47296921  0.16425527  0.52559068  1
  O  O64  1  0.69552607  0.52733729  0.52781822  1
  O  O65  1  0.84617144  0.30804670  0.53103489  1
  O  O66  1  0.53344496  0.69493295  0.97599547  1
  O  O67  1  0.16245231  0.46606205  0.97604886  1
  O  O68  1  0.30487182  0.83372827  0.97350515  1
  O  O69  1  0.53363399  0.83574889  0.47259477  1
  O  O70  1  0.29954533  0.46923423  0.47430362  1
  O  O71  1  0.16946373  0.70525070  0.47235460  1
  O  O72  1  0.13459707  0.63416098  0.35908859  1
  O  O73  1  0.49361319  0.86464815  0.35839103  1
  O  O74  1  0.36480451  0.50070594  0.35933595  1
  O  O75  1  0.13382115  0.49594031  0.85790946  1
  O  O76  1  0.36191496  0.86791461  0.85727848  1
  O  O77  1  0.50541088  0.63819285  0.85801878  1
  O  O78  1  0.03086137  0.84704640  0.40249352  1
  O  O79  1  0.81623577  0.97109160  0.40912781  1
  O  O80  1  0.16608916  0.17763726  0.40736678  1
  O  O81  1  0.02722731  0.18760227  0.91008991  1
  O  O82  1  0.16003844  0.97313873  0.91029657  1
  O  O83  1  0.81314387  0.83981635  0.91031646  1
  O  O84  1  0.97118572  0.17641291  0.58897512  1
  O  O85  1  0.18967552  0.03092459  0.59027219  1
  O  O86  1  0.83380939  0.81241573  0.59027701  1
  O  O87  1  0.96924185  0.81124554  0.09364672  1
  O  O88  1  0.83379184  0.02084383  0.09313104  1
  O  O89  1  0.18939169  0.16530609  0.09214001  1
  O  O90  1  0.69307002  0.17858098  0.74047990  1
  O  O91  1  0.48228880  0.30951102  0.74382713  1
  O  O92  1  0.82652142  0.51120190  0.74001730  1
  O  O93  1  0.69219867  0.53556647  0.24415244  1
  O  O94  1  0.81953205  0.31055948  0.24203303  1
  O  O95  1  0.46340788  0.16042463  0.24354239  1
  O  O96  1  0.64043255  0.49379901  0.92209756  1
  O  O97  1  0.85346298  0.36010797  0.92259991  1
  O  O98  1  0.50662297  0.14634405  0.92250459  1
  O  O99  1  0.63779595  0.14297136  0.42493259  1
  O  O100  1  0.49788295  0.35390747  0.42268108  1
  O  O101  1  0.85504477  0.49496597  0.42436389  1
  O  O102  1  0.35809372  0.49861199  0.07881611  1
  O  O103  1  0.14379827  0.63710970  0.07732977  1
  O  O104  1  0.50101957  0.84883849  0.07830746  1
  O  O105  1  0.35409900  0.85236417  0.57739960  1
  O  O106  1  0.49166330  0.63712526  0.57764393  1
  O  O107  1  0.12787541  0.48975266  0.57890973  1
  O  O108  1  0.30863551  0.84445633  0.25404613  1
  O  O109  1  0.53926368  0.69815728  0.25488791  1
  O  O110  1  0.16888049  0.47954038  0.25640545  1
  O  O111  1  0.30903060  0.48064977  0.75546365  1
  O  O112  1  0.17060591  0.69004821  0.75510890  1
  O  O113  1  0.52061165  0.83126372  0.75537144  1
