# generated using pymatgen
data_MgV4P2O13
_symmetry_space_group_name_H-M   'P 1'
_cell_length_a   4.98045443
_cell_length_b   5.24454493
_cell_length_c   8.88370096
_cell_angle_alpha   88.48439102
_cell_angle_beta   99.02947418
_cell_angle_gamma   78.59180185
_symmetry_Int_Tables_number   1
_chemical_formula_structural   MgV4P2O13
_chemical_formula_sum   'Mg1 V4 P2 O13'
_cell_volume   224.24445126
_cell_formula_units_Z   1
loop_
 _symmetry_equiv_pos_site_id
 _symmetry_equiv_pos_as_xyz
  1  'x, y, z'
loop_
 _atom_site_type_symbol
 _atom_site_label
 _atom_site_symmetry_multiplicity
 _atom_site_fract_x
 _atom_site_fract_y
 _atom_site_fract_z
 _atom_site_occupancy
  Mg  Mg0  1  0.63818900  0.72068200  0.20957900  1
  V  V1  1  0.24498100  0.05173700  0.68722400  1
  V  V2  1  0.09247900  0.84133400  0.37439500  1
  V  V3  1  0.56080900  0.51915300  0.91470700  1
  V  V4  1  0.39386600  0.27507200  0.29011600  1
  P  P5  1  0.01946300  0.97020400  0.00500900  1
  P  P6  1  0.74923300  0.57884500  0.58259600  1
  O  O7  1  0.97857600  0.74153400  0.57137000  1
  O  O8  1  0.20334600  0.84717600  0.88571000  1
  O  O9  1  0.05047700  0.54066200  0.29314200  1
  O  O10  1  0.28412900  0.08247700  0.47380500  1
  O  O11  1  0.40218400  0.26203700  0.78691300  1
  O  O12  1  0.21977100  0.96095000  0.16831100  1
  O  O13  1  0.56930600  0.70932000  0.70193600  1
  O  O14  1  0.54985600  0.58461600  0.42466200  1
  O  O15  1  0.47108300  0.45100900  0.10893400  1
  O  O16  1  0.74334500  0.03116800  0.31017900  1
  O  O17  1  0.91257400  0.25785200  0.95831700  1
  O  O18  1  0.87506100  0.29586300  0.63604200  1
  O  O19  1  0.79425000  0.81108700  0.01767200  1
