# generated using pymatgen
data_Na2Ca2Ti2SiS5O24
_symmetry_space_group_name_H-M   'P 1'
_cell_length_a   8.95847980
_cell_length_b   8.92135748
_cell_length_c   23.18751021
_cell_angle_alpha   90.03469999
_cell_angle_beta   90.17878810
_cell_angle_gamma   119.97893664
_symmetry_Int_Tables_number   1
_chemical_formula_structural   Na2Ca2Ti2SiS5O24
_chemical_formula_sum   'Na6 Ca6 Ti6 Si3 S15 O72'
_cell_volume   1605.23521695
_cell_formula_units_Z   3
loop_
 _symmetry_equiv_pos_site_id
 _symmetry_equiv_pos_as_xyz
  1  'x, y, z'
loop_
 _atom_site_type_symbol
 _atom_site_label
 _atom_site_symmetry_multiplicity
 _atom_site_fract_x
 _atom_site_fract_y
 _atom_site_fract_z
 _atom_site_occupancy
  Na  Na0  1  0.01404601  0.00680250  0.50062620  1
  Na  Na1  1  0.99905381  0.00439431  0.99950032  1
  Na  Na2  1  0.66411121  0.30678704  0.82587689  1
  Na  Na3  1  0.64697039  0.32340181  0.33418425  1
  Na  Na4  1  0.31748162  0.66092549  0.16706653  1
  Na  Na5  1  0.32827803  0.66740425  0.66306447  1
  Ca  Ca6  1  0.01021244  0.00527030  0.34523093  1
  Ca  Ca7  1  0.00036307  0.00188787  0.85484073  1
  Ca  Ca8  1  0.66258266  0.32948379  0.68494686  1
  Ca  Ca9  1  0.65973544  0.32994804  0.48344684  1
  Ca  Ca10  1  0.33164222  0.66778728  0.02626261  1
  Ca  Ca11  1  0.33451391  0.66819556  0.52069122  1
  Ti  Ti12  1  0.98550102  0.99897128  0.65473420  1
  Ti  Ti13  1  0.01294973  0.98166779  0.14926627  1
  Ti  Ti14  1  0.67161212  0.33315202  0.18571736  1
  Ti  Ti15  1  0.68532801  0.35359353  0.98237719  1
  Ti  Ti16  1  0.32770645  0.67798662  0.31457739  1
  Ti  Ti17  1  0.34461337  0.68197848  0.80975722  1
  Si  Si18  1  0.30762870  0.00221402  0.24928808  1
  Si  Si19  1  0.70329258  0.00067457  0.75485495  1
  Si  Si20  1  0.95023974  0.62444245  0.08764941  1
  S  S21  1  0.69937302  0.69852281  0.24551574  1
  S  S22  1  0.00203191  0.29961703  0.24534533  1
  S  S23  1  0.28708131  0.30560339  0.75193404  1
  S  S24  1  0.01488267  0.71321229  0.75118718  1
  S  S25  1  0.97000873  0.32016207  0.58742501  1
  S  S26  1  0.34366612  0.02820222  0.58721341  1
  S  S27  1  0.68160411  0.65218045  0.58762995  1
  S  S28  1  0.68735302  0.06404915  0.08415358  1
  S  S29  1  0.37755050  0.31553749  0.08586530  1
  S  S30  1  0.61636721  0.64907960  0.91884411  1
  S  S31  1  0.03175418  0.37940973  0.91992218  1
  S  S32  1  0.35297783  0.96561725  0.91663043  1
  S  S33  1  0.62173556  0.95904849  0.41166170  1
  S  S34  1  0.33700665  0.38326425  0.41100047  1
  S  S35  1  0.03767691  0.66107679  0.41275773  1
  O  O36  1  0.24603347  0.05734675  0.30444296  1
  O  O37  1  0.79908486  0.76136181  0.29859410  1
  O  O38  1  0.95942183  0.20198645  0.29888924  1
  O  O39  1  0.22043428  0.20411038  0.80416778  1
  O  O40  1  0.99594631  0.78731142  0.80436635  1
  O  O41  1  0.80420132  0.01194699  0.81112582  1
  O  O42  1  0.80906592  0.97409080  0.69720799  1
  O  O43  1  0.17665491  0.21463277  0.70013948  1
  O  O44  1  0.03686331  0.82556971  0.69974587  1
  O  O45  1  0.79375547  0.81587727  0.19541968  1
  O  O46  1  0.02517342  0.20635808  0.19603061  1
  O  O47  1  0.16423964  0.96252405  0.19373512  1
  O  O48  1  0.88533875  0.34291786  0.63722463  1
  O  O49  1  0.45357372  0.11490667  0.63674661  1
  O  O50  1  0.66006888  0.54707102  0.63801471  1
  O  O51  1  0.82708243  0.50120168  0.13874505  1
  O  O52  1  0.67009694  0.15066041  0.13644144  1
  O  O53  1  0.47781403  0.32337067  0.13769440  1
  O  O54  1  0.45815749  0.29519927  0.03234547  1
  O  O55  1  0.83087127  0.52905317  0.02691694  1
  O  O56  1  0.69590217  0.16656300  0.03113237  1
  O  O57  1  0.41655456  0.12264504  0.53226226  1
  O  O58  1  0.70347032  0.57761812  0.53336937  1
  O  O59  1  0.87326221  0.29293604  0.53286534  1
  O  O60  1  0.53757007  0.67080848  0.97053331  1
  O  O61  1  0.13086324  0.46391117  0.97169720  1
  O  O62  1  0.33383879  0.86419883  0.96806658  1
  O  O63  1  0.53938752  0.86992890  0.46458065  1
  O  O64  1  0.33710089  0.46898577  0.46449159  1
  O  O65  1  0.13075692  0.66956064  0.46500570  1
  O  O66  1  0.14602288  0.66376210  0.35982793  1
  O  O67  1  0.51091612  0.85170083  0.35907595  1
  O  O68  1  0.33591366  0.48832545  0.35897117  1
  O  O69  1  0.10785316  0.47916257  0.86687100  1
  O  O70  1  0.36150407  0.86716249  0.86316551  1
  O  O71  1  0.51183359  0.62854955  0.86584539  1
  O  O72  1  0.01630185  0.81319172  0.40939981  1
  O  O73  1  0.79108442  0.97411456  0.40637954  1
  O  O74  1  0.18058310  0.21117660  0.40995199  1
  O  O75  1  0.99989897  0.20113508  0.91816171  1
  O  O76  1  0.20508869  0.99303713  0.91217162  1
  O  O77  1  0.79582135  0.78974995  0.91504987  1
  O  O78  1  0.98301937  0.15739990  0.59551816  1
  O  O79  1  0.17286612  0.01853073  0.59486312  1
  O  O80  1  0.84844889  0.82471216  0.59463037  1
  O  O81  1  0.95784882  0.81577787  0.09394715  1
  O  O82  1  0.84838222  0.05641223  0.08737767  1
  O  O83  1  0.19994167  0.15744819  0.09038563  1
  O  O84  1  0.65183888  0.14498467  0.74714254  1
  O  O85  1  0.46592476  0.35052275  0.74294009  1
  O  O86  1  0.87150826  0.53752716  0.74336559  1
  O  O87  1  0.67074041  0.51880605  0.23553949  1
  O  O88  1  0.85380400  0.33109329  0.23369264  1
  O  O89  1  0.49866686  0.15614447  0.22965971  1
  O  O90  1  0.61925754  0.47768621  0.92500094  1
  O  O91  1  0.85243847  0.36619748  0.92598322  1
  O  O92  1  0.51720379  0.13480975  0.91836941  1
  O  O93  1  0.62931799  0.12809401  0.40745072  1
  O  O94  1  0.49628570  0.37183875  0.40681458  1
  O  O95  1  0.87241986  0.49741308  0.40733656  1
  O  O96  1  0.36310830  0.47211954  0.08476855  1
  O  O97  1  0.13569598  0.64493121  0.08932265  1
  O  O98  1  0.53494859  0.89055065  0.08224303  1
  O  O99  1  0.31501822  0.84959301  0.58432754  1
  O  O100  1  0.53764194  0.68777512  0.58432454  1
  O  O101  1  0.14837011  0.46647603  0.58409167  1
  O  O102  1  0.31754277  0.82066107  0.25826398  1
  O  O103  1  0.52745919  0.68479408  0.24900825  1
  O  O104  1  0.16073958  0.47408788  0.25107265  1
  O  O105  1  0.28238635  0.47352428  0.75839614  1
  O  O106  1  0.18194516  0.70583180  0.75465451  1
  O  O107  1  0.51089118  0.80698328  0.76159280  1
