# generated using pymatgen
data_Rb3BS3
_symmetry_space_group_name_H-M   'P 1'
_cell_length_a   6.41125936
_cell_length_b   10.41909508
_cell_length_c   13.12362994
_cell_angle_alpha   75.37836597
_cell_angle_beta   90.00000000
_cell_angle_gamma   90.00000000
_symmetry_Int_Tables_number   1
_chemical_formula_structural   Rb3BS3
_chemical_formula_sum   'Rb12 B4 S12'
_cell_volume   848.26086729
_cell_formula_units_Z   4
loop_
 _symmetry_equiv_pos_site_id
 _symmetry_equiv_pos_as_xyz
  1  'x, y, z'
loop_
 _atom_site_type_symbol
 _atom_site_label
 _atom_site_symmetry_multiplicity
 _atom_site_fract_x
 _atom_site_fract_y
 _atom_site_fract_z
 _atom_site_occupancy
  Rb  Rb0  1  0.64270157  0.25081511  0.50802566  1
  Rb  Rb1  1  0.14270157  0.74918489  0.99197434  1
  Rb  Rb2  1  0.35729843  0.74918489  0.49197434  1
  Rb  Rb3  1  0.85729843  0.25081511  0.00802566  1
  Rb  Rb4  1  0.28545385  0.02790801  0.14088254  1
  Rb  Rb5  1  0.78545385  0.97209199  0.35911746  1
  Rb  Rb6  1  0.71454615  0.97209199  0.85911746  1
  Rb  Rb7  1  0.21454615  0.02790801  0.64088254  1
  Rb  Rb8  1  0.43663060  0.40477749  0.19601474  1
  Rb  Rb9  1  0.93663060  0.59522251  0.30398526  1
  Rb  Rb10  1  0.56336940  0.59522251  0.80398526  1
  Rb  Rb11  1  0.06336940  0.40477749  0.69601474  1
  B  B12  1  0.11675527  0.23416957  0.37216311  1
  B  B13  1  0.61675527  0.76583043  0.12783689  1
  B  B14  1  0.88324473  0.76583043  0.62783689  1
  B  B15  1  0.38324473  0.23416957  0.87216311  1
  S  S16  1  0.92356515  0.28602680  0.26628138  1
  S  S17  1  0.42356515  0.71397320  0.23371862  1
  S  S18  1  0.07643485  0.71397320  0.73371862  1
  S  S19  1  0.57643485  0.28602680  0.76628138  1
  S  S20  1  0.28598859  0.09031605  0.37792767  1
  S  S21  1  0.78598859  0.90968395  0.12207233  1
  S  S22  1  0.71401141  0.90968395  0.62207233  1
  S  S23  1  0.21401141  0.09031605  0.87792767  1
  S  S24  1  0.35360305  0.33068696  0.97007566  1
  S  S25  1  0.85360305  0.66931304  0.52992434  1
  S  S26  1  0.64639695  0.66931304  0.02992434  1
  S  S27  1  0.14639695  0.33068696  0.47007566  1
