# generated using pymatgen
data_Na3Ta2Ga2SiP5O24
_symmetry_space_group_name_H-M   'P 1'
_cell_length_a   8.73392642
_cell_length_b   8.70873134
_cell_length_c   22.35536385
_cell_angle_alpha   90.08919353
_cell_angle_beta   89.84076735
_cell_angle_gamma   119.89593410
_symmetry_Int_Tables_number   1
_chemical_formula_structural   Na3Ta2Ga2SiP5O24
_chemical_formula_sum   'Na9 Ta6 Ga6 Si3 P15 O72'
_cell_volume   1474.10891643
_cell_formula_units_Z   3
loop_
 _symmetry_equiv_pos_site_id
 _symmetry_equiv_pos_as_xyz
  1  'x, y, z'
loop_
 _atom_site_type_symbol
 _atom_site_label
 _atom_site_symmetry_multiplicity
 _atom_site_fract_x
 _atom_site_fract_y
 _atom_site_fract_z
 _atom_site_occupancy
  Na  Na0  1  0.36097892  0.99231169  0.75275170  1
  Na  Na1  1  0.67155338  0.97232322  0.58791358  1
  Na  Na2  1  0.67596734  0.70147764  0.08432687  1
  Na  Na3  1  0.01676121  0.00126405  0.50598358  1
  Na  Na4  1  0.01376287  0.00839625  0.00611934  1
  Na  Na5  1  0.67747253  0.34329194  0.84066061  1
  Na  Na6  1  0.66538922  0.33213447  0.33990396  1
  Na  Na7  1  0.32109130  0.66573577  0.17443040  1
  Na  Na8  1  0.32516192  0.64770340  0.67320985  1
  Ta  Ta9  1  0.00028758  0.99990522  0.35546070  1
  Ta  Ta10  1  0.99518953  0.00003857  0.85626460  1
  Ta  Ta11  1  0.66814830  0.33320982  0.68811582  1
  Ta  Ta12  1  0.67079615  0.33390372  0.18979427  1
  Ta  Ta13  1  0.32730763  0.66657680  0.02131368  1
  Ta  Ta14  1  0.32937859  0.66652596  0.52074137  1
  Ga  Ga15  1  0.00377324  0.99918433  0.64802131  1
  Ga  Ga16  1  0.00738395  0.00081590  0.14824295  1
  Ga  Ga17  1  0.66982880  0.33829147  0.98137461  1
  Ga  Ga18  1  0.65852107  0.32961529  0.48019415  1
  Ga  Ga19  1  0.33221920  0.66629691  0.31436352  1
  Ga  Ga20  1  0.33986010  0.66651413  0.81460986  1
  Si  Si21  1  0.70855770  0.98962289  0.74695400  1
  Si  Si22  1  0.36747793  0.05058719  0.58153305  1
  Si  Si23  1  0.95364744  0.62704844  0.08216608  1
  P  P24  1  0.28538763  0.99138609  0.24922597  1
  P  P25  1  0.70545058  0.71516366  0.24860453  1
  P  P26  1  0.00808342  0.29017810  0.24864660  1
  P  P27  1  0.28267507  0.29270295  0.74941387  1
  P  P28  1  0.00250832  0.71179210  0.75018928  1
  P  P29  1  0.95281555  0.33145070  0.58102606  1
  P  P30  1  0.67247156  0.62185321  0.58021052  1
  P  P31  1  0.67368064  0.05198636  0.08156441  1
  P  P32  1  0.37494202  0.32365468  0.08197400  1
  P  P33  1  0.61790869  0.65735268  0.91628042  1
  P  P34  1  0.04296834  0.38420071  0.91448192  1
  P  P35  1  0.34273917  0.96380663  0.91453802  1
  P  P36  1  0.61807755  0.95891277  0.41483835  1
  P  P37  1  0.34178654  0.38341443  0.41395120  1
  P  P38  1  0.03856165  0.65614850  0.41454670  1
  O  O39  1  0.19673765  0.02305208  0.30578200  1
  O  O40  1  0.82759223  0.80437941  0.30376017  1
  O  O41  1  0.97713288  0.17326841  0.30545432  1
  O  O42  1  0.20383576  0.16859610  0.80518156  1
  O  O43  1  0.97498323  0.80061199  0.80720313  1
  O  O44  1  0.83591603  0.02546477  0.80618747  1
  O  O45  1  0.79433649  0.96745937  0.68648251  1
  O  O46  1  0.17603674  0.20808904  0.69359820  1
  O  O47  1  0.04091068  0.82999465  0.69552300  1
  O  O48  1  0.78714794  0.81872236  0.19114716  1
  O  O49  1  0.02943563  0.20296816  0.19305546  1
  O  O50  1  0.17609473  0.96644595  0.19370398  1
  O  O51  1  0.86944790  0.36600159  0.63831475  1
  O  O52  1  0.49850204  0.13333613  0.64256829  1
  O  O53  1  0.64130991  0.50785742  0.63741855  1
  O  O54  1  0.86141560  0.49850992  0.14204231  1
  O  O55  1  0.63506848  0.13087208  0.13866871  1
  O  O56  1  0.49705023  0.36277404  0.13790693  1
  O  O57  1  0.45589285  0.29544498  0.02584499  1
  O  O58  1  0.82656901  0.54053675  0.02577212  1
  O  O59  1  0.69654959  0.15945388  0.02593837  1
  O  O60  1  0.46413414  0.16387350  0.52394704  1
  O  O61  1  0.70006964  0.53899239  0.52475165  1
  O  O62  1  0.83815420  0.30173433  0.52660229  1
  O  O63  1  0.53881121  0.69047974  0.97411052  1
  O  O64  1  0.16078580  0.47046397  0.97140076  1
  O  O65  1  0.31215117  0.83888112  0.97020558  1
  O  O66  1  0.53632609  0.84412762  0.47295711  1
  O  O67  1  0.30828446  0.46755417  0.47073209  1
  O  O68  1  0.15952068  0.69138291  0.47120724  1
  O  O69  1  0.12563667  0.63311608  0.35929656  1
  O  O70  1  0.50553346  0.86952472  0.36053186  1
  O  O71  1  0.36175948  0.49168437  0.35848884  1
  O  O72  1  0.13094021  0.49493348  0.85961361  1
  O  O73  1  0.36299216  0.88001237  0.85705514  1
  O  O74  1  0.50942531  0.63906933  0.86119156  1
  O  O75  1  0.02657560  0.83028158  0.40976189  1
  O  O76  1  0.80333327  0.96999635  0.40929887  1
  O  O77  1  0.16795800  0.19483951  0.40922647  1
  O  O78  1  0.03329219  0.19890362  0.91054321  1
  O  O79  1  0.17002025  0.97476172  0.91164004  1
  O  O80  1  0.80652505  0.83105784  0.91097237  1
  O  O81  1  0.97187727  0.16847016  0.58891692  1
  O  O82  1  0.17377657  0.01921427  0.59103370  1
  O  O83  1  0.82468987  0.81097103  0.58723291  1
  O  O84  1  0.97480505  0.82000560  0.09108756  1
  O  O85  1  0.83005483  0.02193110  0.08995591  1
  O  O86  1  0.18932235  0.17173432  0.09100693  1
  O  O87  1  0.69164868  0.17439815  0.74391133  1
  O  O88  1  0.46954810  0.30659741  0.74367544  1
  O  O89  1  0.82989280  0.53122990  0.74466154  1
  O  O90  1  0.69097190  0.52720946  0.24465316  1
  O  O91  1  0.83215510  0.30006594  0.24451678  1
  O  O92  1  0.46946721  0.16408744  0.24430982  1
  O  O93  1  0.64141259  0.49630573  0.92151383  1
  O  O94  1  0.85821908  0.35604235  0.92256993  1
  O  O95  1  0.50358147  0.14556125  0.92344211  1
  O  O96  1  0.64775013  0.14531268  0.42194936  1
  O  O97  1  0.50141934  0.35886919  0.42063275  1
  O  O98  1  0.85549637  0.49823263  0.42353304  1
  O  O99  1  0.37012418  0.50268094  0.07622680  1
  O  O100  1  0.14864918  0.64081760  0.07683050  1
  O  O101  1  0.50538468  0.86066611  0.07588941  1
  O  O102  1  0.36314158  0.85439379  0.57604038  1
  O  O103  1  0.49877994  0.63665832  0.57535475  1
  O  O104  1  0.13854056  0.50013373  0.57627810  1
  O  O105  1  0.30982348  0.83149028  0.25753087  1
  O  O106  1  0.52187556  0.69076251  0.25683437  1
  O  O107  1  0.16503037  0.47572277  0.25615649  1
  O  O108  1  0.30608239  0.47535393  0.75809440  1
  O  O109  1  0.16193700  0.68630728  0.75825923  1
  O  O110  1  0.50840910  0.82915170  0.75553731  1
