# generated using pymatgen
data_Na6Zr2Si5Sn2SO24
_symmetry_space_group_name_H-M   'P 1'
_cell_length_a   9.14527293
_cell_length_b   9.14836422
_cell_length_c   22.74541761
_cell_angle_alpha   89.89693456
_cell_angle_beta   89.72795523
_cell_angle_gamma   119.98743079
_symmetry_Int_Tables_number   1
_chemical_formula_structural   Na6Zr2Si5Sn2SO24
_chemical_formula_sum   'Na18 Zr6 Si15 Sn6 S3 O72'
_cell_volume   1648.19928963
_cell_formula_units_Z   3
loop_
 _symmetry_equiv_pos_site_id
 _symmetry_equiv_pos_as_xyz
  1  'x, y, z'
loop_
 _atom_site_type_symbol
 _atom_site_label
 _atom_site_symmetry_multiplicity
 _atom_site_fract_x
 _atom_site_fract_y
 _atom_site_fract_z
 _atom_site_occupancy
  Na  Na0  1  0.64097138  0.00386486  0.25306298  1
  Na  Na1  1  0.36139991  0.36457854  0.24685474  1
  Na  Na2  1  0.99806038  0.63357300  0.25123615  1
  Na  Na3  1  0.63676061  0.63535241  0.74650329  1
  Na  Na4  1  0.99728131  0.36535379  0.74983511  1
  Na  Na5  1  0.36723322  0.00286835  0.75039648  1
  Na  Na6  1  0.30008650  0.33226734  0.58614479  1
  Na  Na7  1  0.03234882  0.70256306  0.58336263  1
  Na  Na8  1  0.67114327  0.96856536  0.58284671  1
  Na  Na9  1  0.03888039  0.33681200  0.08759948  1
  Na  Na10  1  0.97803498  0.66536447  0.91667821  1
  Na  Na11  1  0.33191696  0.02509623  0.41732341  1
  Na  Na12  1  0.97861065  0.98770567  0.49804770  1
  Na  Na13  1  0.02689613  0.01045954  0.99986291  1
  Na  Na14  1  0.65950117  0.31075752  0.83328699  1
  Na  Na15  1  0.68935879  0.34127934  0.33759960  1
  Na  Na16  1  0.33641615  0.66390195  0.16549456  1
  Na  Na17  1  0.33391852  0.66812212  0.66651568  1
  Zr  Zr18  1  0.01094159  0.01325674  0.85136990  1
  Zr  Zr19  1  0.00786252  0.99275943  0.14743374  1
  Zr  Zr20  1  0.66480903  0.34050200  0.18635157  1
  Zr  Zr21  1  0.65589685  0.32769284  0.97905986  1
  Zr  Zr22  1  0.31880028  0.65934447  0.01927325  1
  Zr  Zr23  1  0.32878937  0.67108646  0.31617856  1
  Si  Si24  1  0.29192559  0.00204141  0.25469802  1
  Si  Si25  1  0.70754173  0.70951124  0.25027838  1
  Si  Si26  1  0.99928579  0.28683189  0.24996287  1
  Si  Si27  1  0.29848023  0.29825400  0.74716969  1
  Si  Si28  1  0.99729114  0.70634104  0.74952813  1
  Si  Si29  1  0.70672948  0.99900648  0.74857383  1
  Si  Si30  1  0.96318064  0.33268619  0.58424974  1
  Si  Si31  1  0.37632061  0.04575507  0.58295747  1
  Si  Si32  1  0.66573747  0.62380285  0.58279206  1
  Si  Si33  1  0.95671171  0.62902630  0.08105312  1
  Si  Si34  1  0.36912577  0.33519862  0.08421509  1
  Si  Si35  1  0.03552523  0.36880804  0.91578291  1
  Si  Si36  1  0.33430537  0.96057454  0.91362032  1
  Si  Si37  1  0.63367589  0.96678525  0.41843701  1
  Si  Si38  1  0.03159827  0.66706967  0.41849215  1
  Sn  Sn39  1  0.98518107  0.98666580  0.35241663  1
  Sn  Sn40  1  0.00013348  0.00083440  0.64832929  1
  Sn  Sn41  1  0.67033772  0.33613786  0.68400317  1
  Sn  Sn42  1  0.68052934  0.33392531  0.48309559  1
  Sn  Sn43  1  0.33662581  0.67748820  0.51903541  1
  Sn  Sn44  1  0.32668390  0.66974584  0.81304932  1
  S  S45  1  0.66565990  0.03943008  0.08345908  1
  S  S46  1  0.62448686  0.66723224  0.91544903  1
  S  S47  1  0.33329567  0.37187057  0.41801976  1
  O  O48  1  0.21458867  0.04486419  0.31311067  1
  O  O49  1  0.83255741  0.77869512  0.30711115  1
  O  O50  1  0.95892639  0.16029413  0.30615587  1
  O  O51  1  0.20922540  0.17026457  0.80255936  1
  O  O52  1  0.96336069  0.78964521  0.80734729  1
  O  O53  1  0.83472513  0.03502535  0.80271030  1
  O  O54  1  0.78010628  0.95760125  0.68830968  1
  O  O55  1  0.17853128  0.22405418  0.68872281  1
  O  O56  1  0.03739730  0.82618489  0.69066739  1
  O  O57  1  0.79072686  0.83622756  0.19436466  1
  O  O58  1  0.03310499  0.20902118  0.19019219  1
  O  O59  1  0.16624708  0.96267848  0.19881081  1
  O  O60  1  0.89166410  0.38103109  0.64342454  1
  O  O61  1  0.49644188  0.12482143  0.64092633  1
  O  O62  1  0.62307266  0.50940905  0.64318280  1
  O  O63  1  0.87107332  0.50912894  0.13985518  1
  O  O64  1  0.64144561  0.11393896  0.13840894  1
  O  O65  1  0.47387676  0.34793032  0.14437576  1
  O  O66  1  0.46812070  0.31064611  0.02871183  1
  O  O67  1  0.84829401  0.53039694  0.02310431  1
  O  O68  1  0.68790257  0.14902433  0.03240863  1
  O  O69  1  0.45651293  0.16572300  0.52441273  1
  O  O70  1  0.70812127  0.53615285  0.52814557  1
  O  O71  1  0.83390172  0.28083924  0.52920470  1
  O  O72  1  0.53742751  0.68277937  0.96697205  1
  O  O73  1  0.15145482  0.46042530  0.97405638  1
  O  O74  1  0.31368360  0.83724107  0.96898919  1
  O  O75  1  0.54892480  0.85252282  0.47827449  1
  O  O76  1  0.31315684  0.45235264  0.47189270  1
  O  O77  1  0.15215948  0.69920921  0.47682629  1
  O  O78  1  0.12249542  0.64292303  0.35979296  1
  O  O79  1  0.51379834  0.87289215  0.36106844  1
  O  O80  1  0.34980009  0.47275176  0.36509241  1
  O  O81  1  0.12328496  0.48932874  0.85675181  1
  O  O82  1  0.36627529  0.88352329  0.85225385  1
  O  O83  1  0.52746450  0.64442143  0.86010080  1
  O  O84  1  0.03629432  0.85064636  0.41419591  1
  O  O85  1  0.82309998  0.99103870  0.41430091  1
  O  O86  1  0.18164523  0.20036921  0.41498723  1
  O  O87  1  0.01423784  0.18176034  0.91303532  1
  O  O88  1  0.15275329  0.95706856  0.91217625  1
  O  O89  1  0.79462022  0.81640415  0.91228781  1
  O  O90  1  0.98267608  0.16443361  0.58976170  1
  O  O91  1  0.18758696  0.02558370  0.58843284  1
  O  O92  1  0.83475432  0.81298584  0.58757504  1
  O  O93  1  0.97331529  0.81410838  0.08456571  1
  O  O94  1  0.82435220  0.03337391  0.08659680  1
  O  O95  1  0.17457591  0.17525245  0.08521723  1
  O  O96  1  0.68644197  0.16784266  0.74430495  1
  O  O97  1  0.48397284  0.31241144  0.74347555  1
  O  O98  1  0.82753652  0.51853552  0.74469699  1
  O  O99  1  0.68617738  0.52053318  0.24375076  1
  O  O100  1  0.83139193  0.30805787  0.24496826  1
  O  O101  1  0.48097392  0.16390659  0.24643755  1
  O  O102  1  0.64477153  0.51506439  0.91956250  1
  O  O103  1  0.85556770  0.36709445  0.92015337  1
  O  O104  1  0.49772449  0.14914486  0.91942905  1
  O  O105  1  0.62720767  0.14520718  0.42157921  1
  O  O106  1  0.48639726  0.35471727  0.42022973  1
  O  O107  1  0.84419744  0.49908493  0.42137421  1
  O  O108  1  0.35580369  0.50733054  0.08050330  1
  O  O109  1  0.14424742  0.64222726  0.07939508  1
  O  O110  1  0.51861887  0.87038409  0.07745990  1
  O  O111  1  0.35626822  0.85581617  0.57921245  1
  O  O112  1  0.49359722  0.63901460  0.57558987  1
  O  O113  1  0.15199271  0.50066983  0.57514669  1
  O  O114  1  0.31033531  0.83237164  0.25745033  1
  O  O115  1  0.51769115  0.68285310  0.25771950  1
  O  O116  1  0.16816188  0.47422907  0.25744386  1
  O  O117  1  0.32083520  0.48711361  0.75643184  1
  O  O118  1  0.16728352  0.68626192  0.75219481  1
  O  O119  1  0.52008841  0.82694907  0.75574218  1
