# generated using pymatgen
data_Na8Ca3Hf(PO4)6
_symmetry_space_group_name_H-M   'P 1'
_cell_length_a   9.39486446
_cell_length_b   9.39486412
_cell_length_c   22.90328175
_cell_angle_alpha   90.00000000
_cell_angle_beta   90.00000000
_cell_angle_gamma   120.00000121
_symmetry_Int_Tables_number   1
_chemical_formula_structural   Na8Ca3Hf(PO4)6
_chemical_formula_sum   'Na24 Ca9 Hf3 P18 O72'
_cell_volume   1750.69045523
_cell_formula_units_Z   3
loop_
 _symmetry_equiv_pos_site_id
 _symmetry_equiv_pos_as_xyz
  1  'x, y, z'
loop_
 _atom_site_type_symbol
 _atom_site_label
 _atom_site_symmetry_multiplicity
 _atom_site_fract_x
 _atom_site_fract_y
 _atom_site_fract_z
 _atom_site_occupancy
  Na  Na0  1  0.63531047  0.99964013  0.25277658  1
  Na  Na1  1  0.36432966  0.36468953  0.25277658  1
  Na  Na2  1  0.00035987  0.63567034  0.25277658  1
  Na  Na3  1  0.64964600  0.63914580  0.74064785  1
  Na  Na4  1  0.98949980  0.35035400  0.74064785  1
  Na  Na5  1  0.36085420  0.01050020  0.74064785  1
  Na  Na6  1  0.29557640  0.33574393  0.57716341  1
  Na  Na7  1  0.04016853  0.70442360  0.57716341  1
  Na  Na8  1  0.66425607  0.95983147  0.57716341  1
  Na  Na9  1  0.29710907  0.96057610  0.09280394  1
  Na  Na10  1  0.66346803  0.70289093  0.09280394  1
  Na  Na11  1  0.03942390  0.33653197  0.09280394  1
  Na  Na12  1  0.97567392  0.68083922  0.91379877  1
  Na  Na13  1  0.70516430  0.02432608  0.91379877  1
  Na  Na14  1  0.31916078  0.29483570  0.91379877  1
  Na  Na15  1  0.98307863  0.30424324  0.40613845  1
  Na  Na16  1  0.32116361  0.01692137  0.40613845  1
  Na  Na17  1  0.69575676  0.67883639  0.40613845  1
  Na  Na18  1  0.00000000  0.00000000  0.49565556  1
  Na  Na19  1  0.00000000  0.00000000  0.00716857  1
  Na  Na20  1  0.66666700  0.33333300  0.82685774  1
  Na  Na21  1  0.66666700  0.33333300  0.32308775  1
  Na  Na22  1  0.33333300  0.66666700  0.17812227  1
  Na  Na23  1  0.33333300  0.66666700  0.65494099  1
  Ca  Ca24  1  0.00000000  0.00000000  0.34544304  1
  Ca  Ca25  1  0.00000000  0.00000000  0.84638393  1
  Ca  Ca26  1  0.00000000  0.00000000  0.65141603  1
  Ca  Ca27  1  0.00000000  0.00000000  0.15208000  1
  Ca  Ca28  1  0.66666700  0.33333300  0.68088536  1
  Ca  Ca29  1  0.66666700  0.33333300  0.18230792  1
  Ca  Ca30  1  0.33333300  0.66666700  0.01605227  1
  Ca  Ca31  1  0.33333300  0.66666700  0.51133478  1
  Ca  Ca32  1  0.33333300  0.66666700  0.32218932  1
  Hf  Hf33  1  0.66666700  0.33333300  0.98220875  1
  Hf  Hf34  1  0.66666700  0.33333300  0.48576596  1
  Hf  Hf35  1  0.33333300  0.66666700  0.81925796  1
  P  P36  1  0.30691843  0.99678500  0.24955025  1
  P  P37  1  0.68986657  0.69308157  0.24955025  1
  P  P38  1  0.00321500  0.31013343  0.24955025  1
  P  P39  1  0.30636782  0.31515466  0.75406546  1
  P  P40  1  0.00878684  0.69363218  0.75406546  1
  P  P41  1  0.68484534  0.99121316  0.75406546  1
  P  P42  1  0.96508987  0.33311287  0.58457717  1
  P  P43  1  0.36802400  0.03491013  0.58457717  1
  P  P44  1  0.66688713  0.63197600  0.58457717  1
  P  P45  1  0.95976419  0.62992347  0.07990814  1
  P  P46  1  0.67016028  0.04023581  0.07990814  1
  P  P47  1  0.37007653  0.32983972  0.07990814  1
  P  P48  1  0.62944029  0.65853136  0.91749178  1
  P  P49  1  0.02909006  0.37055971  0.91749178  1
  P  P50  1  0.34146864  0.97090994  0.91749178  1
  P  P51  1  0.64309349  0.98291041  0.42082643  1
  P  P52  1  0.33981592  0.35690651  0.42082643  1
  P  P53  1  0.01708959  0.66018408  0.42082643  1
  O  O54  1  0.21927636  0.00991008  0.30461919  1
  O  O55  1  0.79063371  0.78072364  0.30461919  1
  O  O56  1  0.99008992  0.20936629  0.30461919  1
  O  O57  1  0.22723216  0.21087464  0.80863250  1
  O  O58  1  0.98364248  0.77276784  0.80863250  1
  O  O59  1  0.78912536  0.01635752  0.80863250  1
  O  O60  1  0.75958742  0.95703328  0.69928425  1
  O  O61  1  0.19744586  0.24041258  0.69928425  1
  O  O62  1  0.04296672  0.80255414  0.69928425  1
  O  O63  1  0.77421749  0.79187996  0.19332139  1
  O  O64  1  0.01766246  0.22578251  0.19332139  1
  O  O65  1  0.20812004  0.98233754  0.19332139  1
  O  O66  1  0.89096227  0.34698916  0.64243367  1
  O  O67  1  0.45602789  0.10903773  0.64243367  1
  O  O68  1  0.65301084  0.54397211  0.64243367  1
  O  O69  1  0.87962916  0.53349838  0.13538702  1
  O  O70  1  0.65387022  0.12037084  0.13538702  1
  O  O71  1  0.46650162  0.34612978  0.13538702  1
  O  O72  1  0.47614525  0.32519671  0.02530260  1
  O  O73  1  0.84905246  0.52385475  0.02530260  1
  O  O74  1  0.67480329  0.15094754  0.02530260  1
  O  O75  1  0.47848916  0.14888227  0.53306615  1
  O  O76  1  0.67039410  0.52151084  0.53306615  1
  O  O77  1  0.85111773  0.32960590  0.53306615  1
  O  O78  1  0.55558224  0.68379856  0.97288073  1
  O  O79  1  0.12821531  0.44441776  0.97288073  1
  O  O80  1  0.31620144  0.87178469  0.97288073  1
  O  O81  1  0.56359927  0.87776580  0.47534456  1
  O  O82  1  0.31416554  0.43640073  0.47534456  1
  O  O83  1  0.12223420  0.68583446  0.47534456  1
  O  O84  1  0.09148635  0.62476195  0.36637915  1
  O  O85  1  0.53327461  0.90851365  0.36637915  1
  O  O86  1  0.37523805  0.46672539  0.36637915  1
  O  O87  1  0.12737267  0.48805617  0.86454253  1
  O  O88  1  0.36068250  0.87262733  0.86454253  1
  O  O89  1  0.51194383  0.63931750  0.86454253  1
  O  O90  1  0.99194058  0.80996853  0.41488705  1
  O  O91  1  0.81802795  0.00805942  0.41488705  1
  O  O92  1  0.19003147  0.18197205  0.41488705  1
  O  O93  1  0.00011285  0.19594921  0.90937839  1
  O  O94  1  0.19583635  0.99988715  0.90937839  1
  O  O95  1  0.80405079  0.80416365  0.90937839  1
  O  O96  1  0.97118434  0.17130094  0.58040349  1
  O  O97  1  0.20011660  0.02881566  0.58040349  1
  O  O98  1  0.82869906  0.79988340  0.58040349  1
  O  O99  1  0.96450535  0.79665302  0.07610666  1
  O  O100  1  0.83214768  0.03549465  0.07610666  1
  O  O101  1  0.20334698  0.16785232  0.07610666  1
  O  O102  1  0.65797677  0.14040056  0.74876226  1
  O  O103  1  0.48242479  0.34202323  0.74876226  1
  O  O104  1  0.85959944  0.51757521  0.74876226  1
  O  O105  1  0.67166328  0.51906320  0.24932758  1
  O  O106  1  0.84740092  0.32833672  0.24932758  1
  O  O107  1  0.48093680  0.15259908  0.24932758  1
  O  O108  1  0.63621280  0.49303541  0.91892614  1
  O  O109  1  0.85682361  0.36378720  0.91892614  1
  O  O110  1  0.50696459  0.14317639  0.91892614  1
  O  O111  1  0.66177575  0.15954213  0.42843784  1
  O  O112  1  0.49776738  0.33822425  0.42843784  1
  O  O113  1  0.84045787  0.50223262  0.42843784  1
  O  O114  1  0.34790974  0.48147949  0.07586448  1
  O  O115  1  0.13356874  0.65209026  0.07586448  1
  O  O116  1  0.51852051  0.86643126  0.07586448  1
  O  O117  1  0.34648365  0.86072545  0.57941834  1
  O  O118  1  0.51424080  0.65351635  0.57941834  1
  O  O119  1  0.13927455  0.48575920  0.57941834  1
  O  O120  1  0.32385715  0.84024209  0.25194641  1
  O  O121  1  0.51638394  0.67614285  0.25194641  1
  O  O122  1  0.15975791  0.48361606  0.25194641  1
  O  O123  1  0.32221005  0.49086730  0.76187999  1
  O  O124  1  0.16865625  0.67778995  0.76187999  1
  O  O125  1  0.50913270  0.83134375  0.76187999  1
