# generated using pymatgen
data_CaGe3P2(SO6)4
_symmetry_space_group_name_H-M   'P 1'
_cell_length_a   8.53013906
_cell_length_b   8.55123483
_cell_length_c   22.07221903
_cell_angle_alpha   89.82513221
_cell_angle_beta   90.01261301
_cell_angle_gamma   119.99081711
_symmetry_Int_Tables_number   1
_chemical_formula_structural   CaGe3P2(SO6)4
_chemical_formula_sum   'Ca3 Ge9 P6 S12 O72'
_cell_volume   1394.43808652
_cell_formula_units_Z   3
loop_
 _symmetry_equiv_pos_site_id
 _symmetry_equiv_pos_as_xyz
  1  'x, y, z'
loop_
 _atom_site_type_symbol
 _atom_site_label
 _atom_site_symmetry_multiplicity
 _atom_site_fract_x
 _atom_site_fract_y
 _atom_site_fract_z
 _atom_site_occupancy
  Ca  Ca0  1  0.99738480  0.00319378  0.36784294  1
  Ca  Ca1  1  0.67203206  0.33479392  0.69400261  1
  Ca  Ca2  1  0.66473770  0.33328124  0.18374808  1
  Ge  Ge3  1  0.00078584  0.00128651  0.86403434  1
  Ge  Ge4  1  0.99654592  0.00571903  0.64647532  1
  Ge  Ge5  1  0.01010841  0.00936730  0.14333940  1
  Ge  Ge6  1  0.65329624  0.32874070  0.97743950  1
  Ge  Ge7  1  0.67145631  0.31790226  0.48034619  1
  Ge  Ge8  1  0.33207419  0.66052586  0.01255549  1
  Ge  Ge9  1  0.33164239  0.66202560  0.52181071  1
  Ge  Ge10  1  0.34303406  0.67851337  0.30942065  1
  Ge  Ge11  1  0.32849721  0.66368626  0.82006339  1
  P  P12  1  0.96727365  0.33322361  0.58326592  1
  P  P13  1  0.36614269  0.33742948  0.07949119  1
  P  P14  1  0.61807620  0.65993041  0.91521548  1
  P  P15  1  0.03409739  0.37945700  0.91576151  1
  P  P16  1  0.33888234  0.95606223  0.91565801  1
  P  P17  1  0.59183306  0.95430937  0.42015863  1
  S  S18  1  0.27665878  0.97612913  0.25004286  1
  S  S19  1  0.70482346  0.72713938  0.24869040  1
  S  S20  1  0.02779425  0.30700409  0.25057643  1
  S  S21  1  0.26529429  0.29285256  0.75507986  1
  S  S22  1  0.02709223  0.73934849  0.75444166  1
  S  S23  1  0.70603386  0.97096268  0.75491348  1
  S  S24  1  0.36013460  0.03079312  0.58324211  1
  S  S25  1  0.67132473  0.63613914  0.58256725  1
  S  S26  1  0.97316555  0.63976354  0.07870810  1
  S  S27  1  0.66564405  0.02603997  0.07877589  1
  S  S28  1  0.37096396  0.40210754  0.42059877  1
  S  S29  1  0.03809838  0.63370102  0.41937630  1
  O  O30  1  0.19459755  0.99960426  0.30345669  1
  O  O31  1  0.80755291  0.80874865  0.30259163  1
  O  O32  1  -0.00066503  0.19974622  0.30410274  1
  O  O33  1  0.18231009  0.17826682  0.80920316  1
  O  O34  1  0.00078138  0.82532782  0.80843684  1
  O  O35  1  0.82467940  0.00309966  0.80756986  1
  O  O36  1  0.78645893  0.94306843  0.69698277  1
  O  O37  1  0.15413176  0.21118656  0.69820278  1
  O  O38  1  0.05628318  0.85021862  0.69712514  1
  O  O39  1  0.79075109  0.83794766  0.19097326  1
  O  O40  1  0.05477007  0.22263323  0.19322714  1
  O  O41  1  0.16860518  0.95390390  0.19201461  1
  O  O42  1  0.90148811  0.38215724  0.63837731  1
  O  O43  1  0.47012530  0.09943576  0.63681793  1
  O  O44  1  0.62740820  0.52698193  0.63665190  1
  O  O45  1  0.91221212  0.53546674  0.13376161  1
  O  O46  1  0.62779328  0.08903868  0.13424936  1
  O  O47  1  0.47296824  0.38250476  0.13628891  1
  O  O48  1  0.45629425  0.29011322  0.02455257  1
  O  O49  1  0.84839535  0.55421507  0.02576920  1
  O  O50  1  0.70926583  0.15448445  0.02611912  1
  O  O51  1  0.44112989  0.15400873  0.52911536  1
  O  O52  1  0.70902907  0.55479977  0.52876826  1
  O  O53  1  0.83437056  0.28652411  0.52696228  1
  O  O54  1  0.53813563  0.70978213  0.96871089  1
  O  O55  1  0.16646189  0.46239417  0.96828962  1
  O  O56  1  0.29337828  0.82716101  0.96928703  1
  O  O57  1  0.49613730  0.84202997  0.47708173  1
  O  O58  1  0.33619774  0.48113050  0.47547868  1
  O  O59  1  0.13955536  0.65025673  0.47587347  1
  O  O60  1  0.12117646  0.60512579  0.36406064  1
  O  O61  1  0.47772507  0.86853586  0.36097760  1
  O  O62  1  0.39426266  0.50984908  0.36476784  1
  O  O63  1  0.11100131  0.50401893  0.85826483  1
  O  O64  1  0.38381764  0.87799954  0.85832165  1
  O  O65  1  0.49080977  0.61092920  0.85873432  1
  O  O66  1  0.01523416  0.78857377  0.41728069  1
  O  O67  1  0.77772471  0.98268582  0.42035376  1
  O  O68  1  0.22518989  0.21879038  0.41824273  1
  O  O69  1  0.01284776  0.19011064  0.90630013  1
  O  O70  1  0.17189815  0.98061078  0.90741991  1
  O  O71  1  0.80812777  0.82676669  0.90580121  1
  O  O72  1  0.98008869  0.15762599  0.59158585  1
  O  O73  1  0.17858322  0.01724466  0.59044764  1
  O  O74  1  0.84034314  0.81714746  0.59031029  1
  O  O75  1  0.98925136  0.82219642  0.08579506  1
  O  O76  1  0.82923417  0.00382877  0.08519074  1
  O  O77  1  0.17366455  0.16353264  0.08685722  1
  O  O78  1  0.67932578  0.12402068  0.75036799  1
  O  O79  1  0.44462565  0.31835245  0.74948279  1
  O  O80  1  0.87007163  0.56210045  0.75038096  1
  O  O81  1  0.66749248  0.54429390  0.24244806  1
  O  O82  1  0.88577945  0.34958640  0.24231889  1
  O  O83  1  0.46236365  0.11707263  0.24349116  1
  O  O84  1  0.63918992  0.49440309  0.92590502  1
  O  O85  1  0.84855127  0.35943796  0.92831382  1
  O  O86  1  0.50738605  0.14140987  0.92520803  1
  O  O87  1  0.58966313  0.13579556  0.42577468  1
  O  O88  1  0.54972001  0.41077922  0.42859234  1
  O  O89  1  0.85970594  0.46177315  0.42376140  1
  O  O90  1  0.33730676  0.49656071  0.06329687  1
  O  O91  1  0.15724416  0.66851619  0.06594344  1
  O  O92  1  0.50622604  0.84685184  0.06559689  1
  O  O93  1  0.32344204  0.84337598  0.57255025  1
  O  O94  1  0.52011252  0.67447177  0.57219098  1
  O  O95  1  0.16364923  0.48622115  0.56953163  1
  O  O96  1  0.26533645  0.79196934  0.25335305  1
  O  O97  1  0.52780956  0.73147344  0.25191831  1
  O  O98  1  0.21170361  0.47971932  0.25632139  1
  O  O99  1  0.26498399  0.46719582  0.76004428  1
  O  O100  1  0.19978650  0.73466179  0.75881450  1
  O  O101  1  0.53201216  0.79671946  0.75999681  1
