# generated using pymatgen
data_Sr2MgZrCoO6
_symmetry_space_group_name_H-M   'P 1'
_cell_length_a   5.76681597
_cell_length_b   6.44425385
_cell_length_c   6.44425385
_cell_angle_alpha   102.00780232
_cell_angle_beta   116.57793760
_cell_angle_gamma   116.57793760
_symmetry_Int_Tables_number   1
_chemical_formula_structural   Sr2MgZrCoO6
_chemical_formula_sum   'Sr2 Mg1 Zr1 Co1 O6'
_cell_volume   164.71819871
_cell_formula_units_Z   1
loop_
 _symmetry_equiv_pos_site_id
 _symmetry_equiv_pos_as_xyz
  1  'x, y, z'
loop_
 _atom_site_type_symbol
 _atom_site_label
 _atom_site_symmetry_multiplicity
 _atom_site_fract_x
 _atom_site_fract_y
 _atom_site_fract_z
 _atom_site_occupancy
  Sr  Sr0  1  0.50000000  0.18119300  0.81880700  1
  Sr  Sr1  1  0.50000000  0.81880700  0.18119300  1
  Mg  Mg2  1  0.50000000  0.50000000  0.50000000  1
  Zr  Zr3  1  0.00000000  0.50000000  0.50000000  1
  Co  Co4  1  0.00000000  0.00000000  0.00000000  1
  O  O5  1  0.00502200  0.24558200  0.24558200  1
  O  O6  1  0.99497800  0.75441800  0.75441800  1
  O  O7  1  0.48621800  0.24557800  0.24557800  1
  O  O8  1  0.51378200  0.75442200  0.75442200  1
  O  O9  1  0.00000000  0.71493700  0.28506300  1
  O  O10  1  0.00000000  0.28506300  0.71493700  1
