# generated using pymatgen
data_MgV2O4
_symmetry_space_group_name_H-M   'P 1'
_cell_length_a   3.09162927
_cell_length_b   3.04719759
_cell_length_c   10.55730898
_cell_angle_alpha   103.33135229
_cell_angle_beta   77.38443559
_cell_angle_gamma   120.12140397
_symmetry_Int_Tables_number   1
_chemical_formula_structural   MgV2O4
_chemical_formula_sum   'Mg1 V2 O4'
_cell_volume   83.08423364
_cell_formula_units_Z   1
loop_
 _symmetry_equiv_pos_site_id
 _symmetry_equiv_pos_as_xyz
  1  'x, y, z'
loop_
 _atom_site_type_symbol
 _atom_site_label
 _atom_site_symmetry_multiplicity
 _atom_site_fract_x
 _atom_site_fract_y
 _atom_site_fract_z
 _atom_site_occupancy
  Mg  Mg0  1  0.81726540  0.09747557  0.75636142  1
  V  V1  1  0.01785763  0.06149374  0.48860428  1
  V  V2  1  0.04701263  -0.06978628  0.01056141  1
  O  O3  1  0.72379401  0.35561352  0.41169298  1
  O  O4  1  0.67748949  0.30923357  0.08848547  1
  O  O5  1  0.22895578  0.72448678  0.63433866  1
  O  O6  1  0.43263206  0.49908910  0.87241477  1
