# generated using pymatgen
data_NbGe(PO4)3
_symmetry_space_group_name_H-M   'P 1'
_cell_length_a   8.58782334
_cell_length_b   8.58782308
_cell_length_c   21.99081758
_cell_angle_alpha   90.00000000
_cell_angle_beta   90.00000000
_cell_angle_gamma   120.00000102
_symmetry_Int_Tables_number   1
_chemical_formula_structural   NbGe(PO4)3
_chemical_formula_sum   'Nb6 Ge6 P18 O72'
_cell_volume   1404.55320082
_cell_formula_units_Z   6
loop_
 _symmetry_equiv_pos_site_id
 _symmetry_equiv_pos_as_xyz
  1  'x, y, z'
loop_
 _atom_site_type_symbol
 _atom_site_label
 _atom_site_symmetry_multiplicity
 _atom_site_fract_x
 _atom_site_fract_y
 _atom_site_fract_z
 _atom_site_occupancy
  Nb  Nb0  1  -0.00000000  -0.00000000  0.63733733  1
  Nb  Nb1  1  -0.00000000  -0.00000000  0.13733733  1
  Nb  Nb2  1  0.66666700  0.33333300  0.97067033  1
  Nb  Nb3  1  0.66666700  0.33333300  0.47067033  1
  Nb  Nb4  1  0.33333300  0.66666700  0.30400433  1
  Nb  Nb5  1  0.33333300  0.66666700  0.80400433  1
  Ge  Ge6  1  -0.00000000  -0.00000000  0.35494645  1
  Ge  Ge7  1  -0.00000000  -0.00000000  0.85494645  1
  Ge  Ge8  1  0.66666700  0.33333300  0.68827945  1
  Ge  Ge9  1  0.66666700  0.33333300  0.18827945  1
  Ge  Ge10  1  0.33333300  0.66666700  0.02161345  1
  Ge  Ge11  1  0.33333300  0.66666700  0.52161345  1
  P  P12  1  0.29089734  0.02089913  0.25043543  1
  P  P13  1  0.73000179  0.70910266  0.25043543  1
  P  P14  1  0.97910087  0.26999821  0.25043543  1
  P  P15  1  0.29089734  0.26999821  0.75043543  1
  P  P16  1  0.97910087  0.70910266  0.75043543  1
  P  P17  1  0.73000179  0.02089913  0.75043543  1
  P  P18  1  0.95756434  0.35423213  0.58376843  1
  P  P19  1  0.39666879  0.04243566  0.58376843  1
  P  P20  1  0.64576787  0.60333121  0.58376843  1
  P  P21  1  0.95756434  0.60333121  0.08376843  1
  P  P22  1  0.64576787  0.04243566  0.08376843  1
  P  P23  1  0.39666879  0.35423213  0.08376843  1
  P  P24  1  0.62423034  0.68756613  0.91710243  1
  P  P25  1  0.06333479  0.37576966  0.91710243  1
  P  P26  1  0.31243387  0.93666521  0.91710243  1
  P  P27  1  0.62423034  0.93666521  0.41710243  1
  P  P28  1  0.31243387  0.37576966  0.41710243  1
  P  P29  1  0.06333479  0.68756613  0.41710243  1
  O  O30  1  0.20806891  0.05263005  0.30780749  1
  O  O31  1  0.84456114  0.79193109  0.30780749  1
  O  O32  1  0.94736995  0.15543886  0.30780749  1
  O  O33  1  0.20806891  0.15543886  0.80780749  1
  O  O34  1  0.94736995  0.79193109  0.80780749  1
  O  O35  1  0.84456114  0.05263005  0.80780749  1
  O  O36  1  0.80773876  0.97904560  0.69408986  1
  O  O37  1  0.17130684  0.19226124  0.69408986  1
  O  O38  1  0.02095440  0.82869316  0.69408986  1
  O  O39  1  0.80773876  0.82869316  0.19408986  1
  O  O40  1  0.02095440  0.19226124  0.19408986  1
  O  O41  1  0.17130684  0.97904560  0.19408986  1
  O  O42  1  0.87473591  0.38596305  0.64114049  1
  O  O43  1  0.51122814  0.12526409  0.64114049  1
  O  O44  1  0.61403695  0.48877186  0.64114049  1
  O  O45  1  0.87473591  0.48877186  0.14114049  1
  O  O46  1  0.61403695  0.12526409  0.14114049  1
  O  O47  1  0.51122814  0.38596305  0.14114049  1
  O  O48  1  0.47440576  0.31237860  0.02742286  1
  O  O49  1  0.83797384  0.52559424  0.02742286  1
  O  O50  1  0.68762140  0.16202616  0.02742286  1
  O  O51  1  0.47440576  0.16202616  0.52742286  1
  O  O52  1  0.68762140  0.52559424  0.52742286  1
  O  O53  1  0.83797384  0.31237860  0.52742286  1
  O  O54  1  0.54140191  0.71929705  0.97447449  1
  O  O55  1  0.17789414  0.45859809  0.97447449  1
  O  O56  1  0.28070295  0.82210586  0.97447449  1
  O  O57  1  0.54140191  0.82210586  0.47447449  1
  O  O58  1  0.28070295  0.45859809  0.47447449  1
  O  O59  1  0.17789414  0.71929705  0.47447449  1
  O  O60  1  0.14107176  0.64571260  0.36075686  1
  O  O61  1  0.50463984  0.85892824  0.36075686  1
  O  O62  1  0.35428740  0.49536016  0.36075686  1
  O  O63  1  0.14107176  0.49536016  0.86075686  1
  O  O64  1  0.35428740  0.85892824  0.86075686  1
  O  O65  1  0.50463984  0.64571260  0.86075686  1
  O  O66  1  0.04033776  0.85100850  0.40783676  1
  O  O67  1  0.81067074  0.95966224  0.40783676  1
  O  O68  1  0.14899150  0.18932926  0.40783676  1
  O  O69  1  0.04033776  0.18932926  0.90783676  1
  O  O70  1  0.14899150  0.95966224  0.90783676  1
  O  O71  1  0.81067074  0.85100850  0.90783676  1
  O  O72  1  0.97760877  0.18438455  0.59240254  1
  O  O73  1  0.20677578  0.02239123  0.59240254  1
  O  O74  1  0.81561545  0.79322422  0.59240254  1
  O  O75  1  0.97760877  0.79322422  0.09240254  1
  O  O76  1  0.81561545  0.02239123  0.09240254  1
  O  O77  1  0.20677578  0.18438455  0.09240254  1
  O  O78  1  0.70700476  0.18434150  0.74116976  1
  O  O79  1  0.47733774  0.29299524  0.74116976  1
  O  O80  1  0.81565850  0.52266226  0.74116976  1
  O  O81  1  0.70700476  0.52266226  0.24116976  1
  O  O82  1  0.81565850  0.29299524  0.24116976  1
  O  O83  1  0.47733774  0.18434150  0.24116976  1
  O  O84  1  0.64427577  0.51771755  0.92573554  1
  O  O85  1  0.87344278  0.35572423  0.92573554  1
  O  O86  1  0.48228245  0.12655722  0.92573554  1
  O  O87  1  0.64427577  0.12655722  0.42573554  1
  O  O88  1  0.48228245  0.35572423  0.42573554  1
  O  O89  1  0.87344278  0.51771755  0.42573554  1
  O  O90  1  0.37367076  0.51767550  0.07450376  1
  O  O91  1  0.14400374  0.62632924  0.07450376  1
  O  O92  1  0.48232450  0.85599626  0.07450376  1
  O  O93  1  0.37367076  0.85599626  0.57450376  1
  O  O94  1  0.48232450  0.62632924  0.57450376  1
  O  O95  1  0.14400374  0.51767550  0.57450376  1
  O  O96  1  0.31094177  0.85105155  0.25906954  1
  O  O97  1  0.54010878  0.68905823  0.25906954  1
  O  O98  1  0.14894845  0.45989122  0.25906954  1
  O  O99  1  0.31094177  0.45989122  0.75906954  1
  O  O100  1  0.14894845  0.68905823  0.75906954  1
  O  O101  1  0.54010878  0.85105155  0.75906954  1
