# generated using pymatgen
data_SBr
_symmetry_space_group_name_H-M   'P 1'
_cell_length_a   4.33974767
_cell_length_b   4.33974673
_cell_length_c   13.93579439
_cell_angle_alpha   90.00000000
_cell_angle_beta   90.00000000
_cell_angle_gamma   105.31080255
_symmetry_Int_Tables_number   1
_chemical_formula_structural   SBr
_chemical_formula_sum   'S4 Br4'
_cell_volume   253.14320247
_cell_formula_units_Z   4
loop_
 _symmetry_equiv_pos_site_id
 _symmetry_equiv_pos_as_xyz
  1  'x, y, z'
loop_
 _atom_site_type_symbol
 _atom_site_label
 _atom_site_symmetry_multiplicity
 _atom_site_fract_x
 _atom_site_fract_y
 _atom_site_fract_z
 _atom_site_occupancy
  S  S0  1  0.19325076  0.40321265  0.95483162  1
  S  S1  1  0.40321265  0.19325076  0.04516838  1
  S  S2  1  0.69325076  0.90321265  0.54516838  1
  S  S3  1  0.90321265  0.69325076  0.45483162  1
  Br  Br4  1  0.94331910  0.05921648  0.83807498  1
  Br  Br5  1  0.05921648  0.94331910  0.16192502  1
  Br  Br6  1  0.44331910  0.55921648  0.66192502  1
  Br  Br7  1  0.55921648  0.44331910  0.33807498  1
