# generated using pymatgen
data_ZrPb3F10
_symmetry_space_group_name_H-M   'P 1'
_cell_length_a   8.25996798
_cell_length_b   8.25996798
_cell_length_c   6.01292982
_cell_angle_alpha   90.00000000
_cell_angle_beta   90.00000000
_cell_angle_gamma   100.79430538
_symmetry_Int_Tables_number   1
_chemical_formula_structural   ZrPb3F10
_chemical_formula_sum   'Zr2 Pb6 F20'
_cell_volume   402.98566908
_cell_formula_units_Z   2
loop_
 _symmetry_equiv_pos_site_id
 _symmetry_equiv_pos_as_xyz
  1  'x, y, z'
loop_
 _atom_site_type_symbol
 _atom_site_label
 _atom_site_symmetry_multiplicity
 _atom_site_fract_x
 _atom_site_fract_y
 _atom_site_fract_z
 _atom_site_occupancy
  Zr  Zr0  1  0.81789085  0.18210915  0.25000000  1
  Zr  Zr1  1  0.18210915  0.81789085  0.75000000  1
  Pb  Pb2  1  0.10879261  0.32114206  0.75000000  1
  Pb  Pb3  1  0.89120739  0.67885794  0.25000000  1
  Pb  Pb4  1  0.32114206  0.10879261  0.25000000  1
  Pb  Pb5  1  0.67885794  0.89120739  0.75000000  1
  Pb  Pb6  1  0.38869589  0.61130411  0.25000000  1
  Pb  Pb7  1  0.61130411  0.38869589  0.75000000  1
  F  F8  1  0.92246110  0.74241320  0.75000000  1
  F  F9  1  0.07753890  0.25758680  0.25000000  1
  F  F10  1  0.74241320  0.92246110  0.25000000  1
  F  F11  1  0.25758680  0.07753890  0.75000000  1
  F  F12  1  0.89858630  0.10141370  0.54585717  1
  F  F13  1  0.10141370  0.89858630  0.04585717  1
  F  F14  1  0.10141370  0.89858630  0.45414283  1
  F  F15  1  0.89858630  0.10141370  0.95414283  1
  F  F16  1  0.63620790  0.63620790  0.00000000  1
  F  F17  1  0.36379210  0.36379210  0.50000000  1
  F  F18  1  0.36379210  0.36379210  0.00000000  1
  F  F19  1  0.63620790  0.63620790  0.50000000  1
  F  F20  1  0.39550126  0.84685163  0.96076163  1
  F  F21  1  0.60449874  0.15314837  0.46076163  1
  F  F22  1  0.84685163  0.39550126  0.03923837  1
  F  F23  1  0.15314837  0.60449874  0.53923837  1
  F  F24  1  0.60449874  0.15314837  0.03923837  1
  F  F25  1  0.39550126  0.84685163  0.53923837  1
  F  F26  1  0.15314837  0.60449874  0.96076163  1
  F  F27  1  0.84685163  0.39550126  0.46076163  1
