# generated using pymatgen
data_MgFe4(HO2)4
_symmetry_space_group_name_H-M   'P 1'
_cell_length_a   7.73133742
_cell_length_b   7.73133742
_cell_length_c   7.73115799
_cell_angle_alpha   92.30469315
_cell_angle_beta   92.30194941
_cell_angle_gamma   156.87094741
_symmetry_Int_Tables_number   1
_chemical_formula_structural   MgFe4(HO2)4
_chemical_formula_sum   'Mg1 Fe4 H4 O8'
_cell_volume   177.83679084
_cell_formula_units_Z   1
loop_
 _symmetry_equiv_pos_site_id
 _symmetry_equiv_pos_as_xyz
  1  'x, y, z'
loop_
 _atom_site_type_symbol
 _atom_site_label
 _atom_site_symmetry_multiplicity
 _atom_site_fract_x
 _atom_site_fract_y
 _atom_site_fract_z
 _atom_site_occupancy
  Mg  Mg0  1  0.50000000  0.50000000  0.00000000  1
  Fe  Fe1  1  0.35110100  0.85329600  0.20439700  1
  Fe  Fe2  1  0.64889900  0.14670400  0.79560300  1
  Fe  Fe3  1  0.14671600  0.35108500  0.49780200  1
  Fe  Fe4  1  0.85328400  0.64891500  0.50219800  1
  H  H5  1  0.09181600  0.84660600  0.93842300  1
  H  H6  1  0.90818400  0.15339400  0.06157700  1
  H  H7  1  0.15338200  0.09179100  0.24517200  1
  H  H8  1  0.84661800  0.90820900  0.75482800  1
  O  O9  1  0.16157000  0.78636100  0.94793100  1
  O  O10  1  0.83843000  0.21363900  0.05206900  1
  O  O11  1  0.21364900  0.16158400  0.37523300  1
  O  O12  1  0.78635100  0.83841600  0.62476700  1
  O  O13  1  0.53431700  0.82826100  0.36257900  1
  O  O14  1  0.46568300  0.17173900  0.63742100  1
  O  O15  1  0.17172000  0.53433200  0.70605200  1
  O  O16  1  0.82828000  0.46566800  0.29394800  1
