# generated using pymatgen
data_CsAlH24(SeO10)2
_symmetry_space_group_name_H-M   'P 1'
_cell_length_a   12.47514700
_cell_length_b   12.47514700
_cell_length_c   12.47514700
_cell_angle_alpha   90.00000000
_cell_angle_beta   90.00000000
_cell_angle_gamma   90.00000000
_symmetry_Int_Tables_number   1
_chemical_formula_structural   CsAlH24(SeO10)2
_chemical_formula_sum   'Cs4 Al4 H96 Se8 O80'
_cell_volume   1941.49830358
_cell_formula_units_Z   4
loop_
 _symmetry_equiv_pos_site_id
 _symmetry_equiv_pos_as_xyz
  1  'x, y, z'
loop_
 _atom_site_type_symbol
 _atom_site_label
 _atom_site_symmetry_multiplicity
 _atom_site_fract_x
 _atom_site_fract_y
 _atom_site_fract_z
 _atom_site_occupancy
  Cs  Cs0  1  0.50000000  0.00000000  -0.00000000  1
  Cs  Cs1  1  0.00000000  0.00000000  0.50000000  1
  Cs  Cs2  1  0.00000000  0.50000000  -0.00000000  1
  Cs  Cs3  1  0.50000000  0.50000000  0.50000000  1
  Al  Al4  1  0.00000000  0.50000000  0.50000000  1
  Al  Al5  1  0.00000000  0.00000000  -0.00000000  1
  Al  Al6  1  0.50000000  0.00000000  0.50000000  1
  Al  Al7  1  0.50000000  0.50000000  -0.00000000  1
  H  H8  1  0.70143435  0.02464820  0.45194441  1
  H  H9  1  0.20143435  0.47535180  0.54805559  1
  H  H10  1  0.29856565  0.52464820  0.04805559  1
  H  H11  1  0.47535180  0.54805559  0.20143435  1
  H  H12  1  0.04805559  0.29856565  0.52464820  1
  H  H13  1  0.54805559  0.20143435  0.47535180  1
  H  H14  1  0.02464820  0.45194441  0.70143435  1
  H  H15  1  0.45194441  0.70143435  0.02464820  1
  H  H16  1  0.52464820  0.04805559  0.29856565  1
  H  H17  1  0.97535180  0.95194441  0.79856565  1
  H  H18  1  0.95194441  0.79856565  0.97535180  1
  H  H19  1  0.79856565  0.97535180  0.95194441  1
  H  H20  1  0.29856565  0.97535180  0.54805559  1
  H  H21  1  0.79856565  0.52464820  0.45194441  1
  H  H22  1  0.70143435  0.47535180  0.95194441  1
  H  H23  1  0.52464820  0.45194441  0.79856565  1
  H  H24  1  0.95194441  0.70143435  0.47535180  1
  H  H25  1  0.45194441  0.79856565  0.52464820  1
  H  H26  1  0.97535180  0.54805559  0.29856565  1
  H  H27  1  0.54805559  0.29856565  0.97535180  1
  H  H28  1  0.47535180  0.95194441  0.70143435  1
  H  H29  1  0.02464820  0.04805559  0.20143435  1
  H  H30  1  0.04805559  0.20143435  0.02464820  1
  H  H31  1  0.20143435  0.02464820  0.04805559  1
  H  H32  1  0.68574023  0.03366112  0.58085110  1
  H  H33  1  0.18574023  0.46633888  0.41914890  1
  H  H34  1  0.31425977  0.53366112  0.91914890  1
  H  H35  1  0.46633888  0.41914890  0.18574023  1
  H  H36  1  0.91914890  0.31425977  0.53366112  1
  H  H37  1  0.41914890  0.18574023  0.46633888  1
  H  H38  1  0.03366112  0.58085110  0.68574023  1
  H  H39  1  0.58085110  0.68574023  0.03366112  1
  H  H40  1  0.53366112  0.91914890  0.31425977  1
  H  H41  1  0.96633888  0.08085110  0.81425977  1
  H  H42  1  0.08085110  0.81425977  0.96633888  1
  H  H43  1  0.81425977  0.96633888  0.08085110  1
  H  H44  1  0.31425977  0.96633888  0.41914890  1
  H  H45  1  0.81425977  0.53366112  0.58085110  1
  H  H46  1  0.68574023  0.46633888  0.08085110  1
  H  H47  1  0.53366112  0.58085110  0.81425977  1
  H  H48  1  0.08085110  0.68574023  0.46633888  1
  H  H49  1  0.58085110  0.81425977  0.53366112  1
  H  H50  1  0.96633888  0.41914890  0.31425977  1
  H  H51  1  0.41914890  0.31425977  0.96633888  1
  H  H52  1  0.46633888  0.08085110  0.68574023  1
  H  H53  1  0.03366112  0.91914890  0.18574023  1
  H  H54  1  0.91914890  0.18574023  0.03366112  1
  H  H55  1  0.61716806  0.16561280  0.22054777  1
  H  H56  1  0.49759250  0.19814506  0.22495086  1
  H  H57  1  0.99759250  0.30185494  0.77504914  1
  H  H58  1  0.50240750  0.69814506  0.27504914  1
  H  H59  1  0.30185494  0.77504914  0.99759250  1
  H  H60  1  0.27504914  0.50240750  0.69814506  1
  H  H61  1  0.77504914  0.99759250  0.30185494  1
  H  H62  1  0.19814506  0.22495086  0.49759250  1
  H  H63  1  0.22495086  0.49759250  0.19814506  1
  H  H64  1  0.69814506  0.27504914  0.50240750  1
  H  H65  1  0.80185494  0.72495086  0.00240750  1
  H  H66  1  0.72495086  0.00240750  0.80185494  1
  H  H67  1  0.00240750  0.80185494  0.72495086  1
  H  H68  1  0.50240750  0.80185494  0.77504914  1
  H  H69  1  0.00240750  0.69814506  0.22495086  1
  H  H70  1  0.49759250  0.30185494  0.72495086  1
  H  H71  1  0.69814506  0.22495086  0.00240750  1
  H  H72  1  0.72495086  0.49759250  0.30185494  1
  H  H73  1  0.22495086  0.00240750  0.69814506  1
  H  H74  1  0.80185494  0.77504914  0.50240750  1
  H  H75  1  0.77504914  0.50240750  0.80185494  1
  H  H76  1  0.30185494  0.72495086  0.49759250  1
  H  H77  1  0.19814506  0.27504914  0.99759250  1
  H  H78  1  0.27504914  0.99759250  0.19814506  1
  H  H79  1  0.99759250  0.19814506  0.27504914  1
  H  H80  1  0.11716806  0.16561280  0.27945223  1
  H  H81  1  0.27945223  0.11716806  0.16561280  1
  H  H82  1  0.16561280  0.27945223  0.11716806  1
  H  H83  1  0.33438720  0.72054777  0.61716806  1
  H  H84  1  0.77945223  0.38283194  0.83438720  1
  H  H85  1  0.83438720  0.77945223  0.38283194  1
  H  H86  1  0.22054777  0.88283194  0.66561280  1
  H  H87  1  0.72054777  0.61716806  0.33438720  1
  H  H88  1  0.66561280  0.22054777  0.88283194  1
  H  H89  1  0.61716806  0.33438720  0.72054777  1
  H  H90  1  0.88283194  0.66561280  0.22054777  1
  H  H91  1  0.38283194  0.83438720  0.77945223  1
  H  H92  1  0.88283194  0.83438720  0.72054777  1
  H  H93  1  0.72054777  0.88283194  0.83438720  1
  H  H94  1  0.83438720  0.72054777  0.88283194  1
  H  H95  1  0.66561280  0.27945223  0.38283194  1
  H  H96  1  0.22054777  0.61716806  0.16561280  1
  H  H97  1  0.16561280  0.22054777  0.61716806  1
  H  H98  1  0.77945223  0.11716806  0.33438720  1
  H  H99  1  0.27945223  0.38283194  0.66561280  1
  H  H100  1  0.33438720  0.77945223  0.11716806  1
  H  H101  1  0.38283194  0.66561280  0.27945223  1
  H  H102  1  0.11716806  0.33438720  0.77945223  1
  H  H103  1  0.18574023  0.03366112  0.91914890  1
  Se  Se104  1  0.31010955  0.18989045  0.81010955  1
  Se  Se105  1  0.81010955  0.18989045  0.68989045  1
  Se  Se106  1  0.18989045  0.68989045  0.81010955  1
  Se  Se107  1  0.31010955  0.31010955  0.31010955  1
  Se  Se108  1  0.68989045  0.81010955  0.18989045  1
  Se  Se109  1  0.68989045  0.68989045  0.68989045  1
  Se  Se110  1  0.18989045  0.81010955  0.31010955  1
  Se  Se111  1  0.81010955  0.31010955  0.18989045  1
  O  O112  1  0.54482630  0.13632431  0.21136371  1
  O  O113  1  0.04482630  0.36367569  0.78863629  1
  O  O114  1  0.45517370  0.63632431  0.28863629  1
  O  O115  1  0.36367569  0.78863629  0.04482630  1
  O  O116  1  0.28863629  0.45517370  0.63632431  1
  O  O117  1  0.78863629  0.04482630  0.36367569  1
  O  O118  1  0.13632431  0.21136371  0.54482630  1
  O  O119  1  0.21136371  0.54482630  0.13632431  1
  O  O120  1  0.63632431  0.28863629  0.45517370  1
  O  O121  1  0.86367569  0.71136371  0.95517370  1
  O  O122  1  0.71136371  0.95517370  0.86367569  1
  O  O123  1  0.95517370  0.86367569  0.71136371  1
  O  O124  1  0.45517370  0.86367569  0.78863629  1
  O  O125  1  0.95517370  0.63632431  0.21136371  1
  O  O126  1  0.54482630  0.36367569  0.71136371  1
  O  O127  1  0.63632431  0.21136371  0.95517370  1
  O  O128  1  0.71136371  0.54482630  0.36367569  1
  O  O129  1  0.21136371  0.95517370  0.63632431  1
  O  O130  1  0.86367569  0.78863629  0.45517370  1
  O  O131  1  0.78863629  0.45517370  0.86367569  1
  O  O132  1  0.36367569  0.71136371  0.54482630  1
  O  O133  1  0.13632431  0.28863629  0.04482630  1
  O  O134  1  0.28863629  0.04482630  0.13632431  1
  O  O135  1  0.04482630  0.13632431  0.28863629  1
  O  O136  1  0.14967542  0.01337278  0.98683909  1
  O  O137  1  0.98683909  0.14967542  0.01337278  1
  O  O138  1  0.01337278  0.98683909  0.14967542  1
  O  O139  1  0.48662722  0.01316091  0.64967542  1
  O  O140  1  0.48683909  0.35032458  0.98662722  1
  O  O141  1  0.98662722  0.48683909  0.35032458  1
  O  O142  1  0.51316091  0.85032458  0.51337278  1
  O  O143  1  0.01316091  0.64967542  0.48662722  1
  O  O144  1  0.51337278  0.51316091  0.85032458  1
  O  O145  1  0.64967542  0.48662722  0.01316091  1
  O  O146  1  0.85032458  0.51337278  0.51316091  1
  O  O147  1  0.35032458  0.98662722  0.48683909  1
  O  O148  1  0.85032458  0.98662722  0.01316091  1
  O  O149  1  0.01316091  0.85032458  0.98662722  1
  O  O150  1  0.98662722  0.01316091  0.85032458  1
  O  O151  1  0.51337278  0.98683909  0.35032458  1
  O  O152  1  0.51316091  0.64967542  0.01337278  1
  O  O153  1  0.01337278  0.51316091  0.64967542  1
  O  O154  1  0.48683909  0.14967542  0.48662722  1
  O  O155  1  0.98683909  0.35032458  0.51337278  1
  O  O156  1  0.48662722  0.48683909  0.14967542  1
  O  O157  1  0.35032458  0.51337278  0.98683909  1
  O  O158  1  0.14967542  0.48662722  0.48683909  1
  O  O159  1  0.64967542  0.01337278  0.51316091  1
  O  O160  1  0.81428663  0.26076860  0.06700766  1
  O  O161  1  0.31428663  0.23923140  0.93299234  1
  O  O162  1  0.18571337  0.76076860  0.43299234  1
  O  O163  1  0.23923140  0.93299234  0.31428663  1
  O  O164  1  0.43299234  0.18571337  0.76076860  1
  O  O165  1  0.93299234  0.31428663  0.23923140  1
  O  O166  1  0.26076860  0.06700766  0.81428663  1
  O  O167  1  0.06700766  0.81428663  0.26076860  1
  O  O168  1  0.76076860  0.43299234  0.18571337  1
  O  O169  1  0.73923140  0.56700766  0.68571337  1
  O  O170  1  0.56700766  0.68571337  0.73923140  1
  O  O171  1  0.68571337  0.73923140  0.56700766  1
  O  O172  1  0.18571337  0.73923140  0.93299234  1
  O  O173  1  0.68571337  0.76076860  0.06700766  1
  O  O174  1  0.81428663  0.23923140  0.56700766  1
  O  O175  1  0.76076860  0.06700766  0.68571337  1
  O  O176  1  0.56700766  0.81428663  0.23923140  1
  O  O177  1  0.06700766  0.68571337  0.76076860  1
  O  O178  1  0.73923140  0.93299234  0.18571337  1
  O  O179  1  0.93299234  0.18571337  0.73923140  1
  O  O180  1  0.23923140  0.56700766  0.81428663  1
  O  O181  1  0.26076860  0.43299234  0.31428663  1
  O  O182  1  0.43299234  0.31428663  0.26076860  1
  O  O183  1  0.31428663  0.26076860  0.43299234  1
  O  O184  1  0.23329132  0.23329132  0.23329132  1
  O  O185  1  0.26670868  0.73329132  0.23329132  1
  O  O186  1  0.73329132  0.23329132  0.26670868  1
  O  O187  1  0.76670868  0.76670868  0.76670868  1
  O  O188  1  0.76670868  0.73329132  0.26670868  1
  O  O189  1  0.73329132  0.26670868  0.76670868  1
  O  O190  1  0.26670868  0.76670868  0.73329132  1
  O  O191  1  0.23329132  0.26670868  0.73329132  1
