# generated using pymatgen
data_Na6Ti4Ga4Si5S7O48
_symmetry_space_group_name_H-M   'P 1'
_cell_length_a   17.44352617
_cell_length_b   8.73068384
_cell_length_c   22.31310457
_cell_angle_alpha   90.10625097
_cell_angle_beta   89.85875740
_cell_angle_gamma   120.18342688
_symmetry_Int_Tables_number   1
_chemical_formula_structural   Na6Ti4Ga4Si5S7O48
_chemical_formula_sum   'Na18 Ti12 Ga12 Si15 S21 O144'
_cell_volume   2937.42004804
_cell_formula_units_Z   3
loop_
 _symmetry_equiv_pos_site_id
 _symmetry_equiv_pos_as_xyz
  1  'x, y, z'
loop_
 _atom_site_type_symbol
 _atom_site_label
 _atom_site_symmetry_multiplicity
 _atom_site_fract_x
 _atom_site_fract_y
 _atom_site_fract_z
 _atom_site_occupancy
  Na  Na0  1  0.00003931  0.62860256  0.25465494  1
  Na  Na1  1  0.49894402  0.64076240  0.25031902  1
  Na  Na2  1  0.00080374  0.36580243  0.74794651  1
  Na  Na3  1  0.49812576  0.36352143  0.75254414  1
  Na  Na4  1  0.66555278  0.29897098  0.91619266  1
  Na  Na5  1  0.16667827  0.02647639  0.42609465  1
  Na  Na6  1  0.99896327  0.99746658  0.50395463  1
  Na  Na7  1  0.50092999  0.98886511  0.50106759  1
  Na  Na8  1  0.00291775  0.01001189  0.99545431  1
  Na  Na9  1  0.49999732  0.00170550  0.99985668  1
  Na  Na10  1  0.32993418  0.32615276  0.83497307  1
  Na  Na11  1  0.82790992  0.32596617  0.82573418  1
  Na  Na12  1  0.33642403  0.34226416  0.33025354  1
  Na  Na13  1  0.82696267  0.33145922  0.33789894  1
  Na  Na14  1  0.18205032  0.66427747  0.16710199  1
  Na  Na15  1  0.67526104  0.66453052  0.16429793  1
  Na  Na16  1  0.17675635  0.68762399  0.66597540  1
  Na  Na17  1  0.68042516  0.68748748  0.67253323  1
  Ti  Ti18  1  0.49812820  0.01514203  0.35105345  1
  Ti  Ti19  1  0.99851587  0.98104064  0.85081330  1
  Ti  Ti20  1  0.99911311  0.98464987  0.64885031  1
  Ti  Ti21  1  0.50893837  0.00102623  0.64172972  1
  Ti  Ti22  1  0.00173811  0.01483715  0.13878078  1
  Ti  Ti23  1  0.49781632  0.01296811  0.14817579  1
  Ti  Ti24  1  0.32652450  0.32030257  0.97478611  1
  Ti  Ti25  1  0.82809399  0.33565440  0.47540710  1
  Ti  Ti26  1  0.16484278  0.66481797  0.01886278  1
  Ti  Ti27  1  0.66459772  0.65021236  0.02430016  1
  Ti  Ti28  1  0.16340332  0.67776525  0.52636893  1
  Ti  Ti29  1  0.66400646  0.66099131  0.52070041  1
  Ga  Ga30  1  0.99636012  0.98589008  0.35431561  1
  Ga  Ga31  1  0.50189615  0.01750103  0.85230805  1
  Ga  Ga32  1  0.31973042  0.33315118  0.67819106  1
  Ga  Ga33  1  0.82236806  0.30470225  0.69668581  1
  Ga  Ga34  1  0.33247231  0.35290003  0.19061871  1
  Ga  Ga35  1  0.81681540  0.30856020  0.17650330  1
  Ga  Ga36  1  0.82647698  0.30659578  0.98677993  1
  Ga  Ga37  1  0.33020848  0.34990002  0.49214876  1
  Ga  Ga38  1  0.17108104  0.66639428  0.31772915  1
  Ga  Ga39  1  0.66424514  0.64138876  0.31518353  1
  Ga  Ga40  1  0.16824683  0.69265768  0.81344199  1
  Ga  Ga41  1  0.66665452  0.65289121  0.81013261  1
  Si  Si42  1  0.35091520  0.71538454  0.25249770  1
  Si  Si43  1  0.49913855  0.29976736  0.24795894  1
  Si  Si44  1  0.64338626  0.28681759  0.75165475  1
  Si  Si45  1  0.00188450  0.70121838  0.74753171  1
  Si  Si46  1  0.85303208  0.98860140  0.75256532  1
  Si  Si47  1  0.18588409  0.04945316  0.58281415  1
  Si  Si48  1  0.69665846  0.04952702  0.58345117  1
  Si  Si49  1  0.33324342  0.63051295  0.58312338  1
  Si  Si50  1  0.83033037  0.04038680  0.08259951  1
  Si  Si51  1  0.19556738  0.34286830  0.08435511  1
  Si  Si52  1  0.68524170  0.32391623  0.08214350  1
  Si  Si53  1  0.52117570  0.38084571  0.91389443  1
  Si  Si54  1  0.16163433  0.95176103  0.91677178  1
  Si  Si55  1  0.66258135  0.37192026  0.41614892  1
  Si  Si56  1  0.02335318  0.66245502  0.41240906  1
  S  S57  1  0.14369319  0.00275773  0.25021022  1
  S  S58  1  0.64914358  0.00581727  0.25226742  1
  S  S59  1  0.85558681  0.71025358  0.24862100  1
  S  S60  1  0.99687750  0.28277810  0.25085233  1
  S  S61  1  0.14897246  0.29260312  0.75263514  1
  S  S62  1  0.49464402  0.70839146  0.75074042  1
  S  S63  1  0.35371674  0.99971197  0.74908768  1
  S  S64  1  0.47817422  0.33410232  0.58404949  1
  S  S65  1  0.97579349  0.33049782  0.58306899  1
  S  S66  1  0.83223811  0.62145571  0.58242161  1
  S  S67  1  0.47729706  0.62325101  0.08332422  1
  S  S68  1  0.97866401  0.62227249  0.08563396  1
  S  S69  1  0.33150346  0.04447723  0.08352316  1
  S  S70  1  0.31046648  0.66902568  0.91335930  1
  S  S71  1  0.81389734  0.66413256  0.91903680  1
  S  S72  1  0.01819256  0.37793176  0.91638058  1
  S  S73  1  0.66713622  0.95266546  0.91587129  1
  S  S74  1  0.31409476  0.96313150  0.41852527  1
  S  S75  1  0.80978679  0.95135127  0.41344918  1
  S  S76  1  0.16716383  0.37395117  0.41505165  1
  S  S77  1  0.51825436  0.65934841  0.41649806  1
  O  O78  1  0.10460578  0.02737190  0.30712087  1
  O  O79  1  0.60609700  0.02906232  0.30640192  1
  O  O80  1  0.41850621  0.81361320  0.30962657  1
  O  O81  1  0.91067423  0.79013044  0.30407228  1
  O  O82  1  0.48925604  0.17771848  0.30699785  1
  O  O83  1  0.98661655  0.17672393  0.30569930  1
  O  O84  1  0.10611601  0.18343718  0.80679370  1
  O  O85  1  0.60464055  0.17565300  0.81427488  1
  O  O86  1  0.47908988  0.78551473  0.80557163  1
  O  O87  1  0.99182719  0.80353532  0.80700992  1
  O  O88  1  0.40663513  0.02654809  0.80497927  1
  O  O89  1  0.92049764  0.02238653  0.80993791  1
  O  O90  1  0.39515744  0.97971676  0.69492067  1
  O  O91  1  0.90601992  0.96852170  0.69358061  1
  O  O92  1  0.09468951  0.21377947  0.69783145  1
  O  O93  1  0.57478555  0.17810063  0.69579733  1
  O  O94  1  0.02190690  0.83676014  0.69081823  1
  O  O95  1  0.50047354  0.81086768  0.69628684  1
  O  O96  1  0.40390941  0.83760804  0.19332517  1
  O  O97  1  0.90122430  0.81564452  0.19535954  1
  O  O98  1  0.00375842  0.19062282  0.19662400  1
  O  O99  1  0.51889634  0.20564543  0.19083750  1
  O  O100  1  0.08458075  0.97826317  0.19897072  1
  O  O101  1  0.59456391  0.97597707  0.19762424  1
  O  O102  1  0.44007534  0.36050099  0.63990429  1
  O  O103  1  0.94309487  0.36528205  0.63946290  1
  O  O104  1  0.24940661  0.12456530  0.64071596  1
  O  O105  1  0.75593737  0.12675341  0.64226747  1
  O  O106  1  0.31287798  0.51122069  0.64280929  1
  O  O107  1  0.81971369  0.51906494  0.63661300  1
  O  O108  1  0.44444824  0.52269706  0.14085987  1
  O  O109  1  0.94044666  0.51924366  0.14188758  1
  O  O110  1  0.31938330  0.12254659  0.13795174  1
  O  O111  1  0.81544830  0.11787584  0.14475097  1
  O  O112  1  0.25133232  0.37388779  0.14457811  1
  O  O113  1  0.74715824  0.37886126  0.14145794  1
  O  O114  1  0.23931903  0.30884201  0.02542598  1
  O  O115  1  0.72686943  0.29978266  0.01960672  1
  O  O116  1  0.42102438  0.53125583  0.03167023  1
  O  O117  1  0.92385843  0.54143779  0.03228695  1
  O  O118  1  0.34438645  0.14985471  0.02868671  1
  O  O119  1  0.86196308  0.16965006  0.02510862  1
  O  O120  1  0.22741214  0.15326163  0.51916531  1
  O  O121  1  0.74104716  0.17139055  0.52388669  1
  O  O122  1  0.36304475  0.56345359  0.52400802  1
  O  O123  1  0.84490338  0.54183506  0.52706782  1
  O  O124  1  0.42411362  0.31096697  0.53001715  1
  O  O125  1  0.92157751  0.31239660  0.53008833  1
  O  O126  1  0.26753532  0.69272824  0.96810343  1
  O  O127  1  0.77324432  0.68880833  0.97372983  1
  O  O128  1  0.07570125  0.47045519  0.97009177  1
  O  O129  1  0.59055431  0.48092311  0.96987613  1
  O  O130  1  0.15219809  0.82800740  0.97545820  1
  O  O131  1  0.66323181  0.85647920  0.97061657  1
  O  O132  1  0.27247169  0.85549276  0.47231347  1
  O  O133  1  0.76811532  0.84201359  0.46728443  1
  O  O134  1  0.15815426  0.45883069  0.46833383  1
  O  O135  1  0.65153314  0.47458096  0.47431174  1
  O  O136  1  0.09291241  0.70304197  0.46752493  1
  O  O137  1  0.57537246  0.68096719  0.46911155  1
  O  O138  1  0.06564228  0.63764204  0.34926390  1
  O  O139  1  0.55935398  0.64332909  0.35932025  1
  O  O140  1  0.25732403  0.88464123  0.36391656  1
  O  O141  1  0.75641083  0.87257333  0.35847185  1
  O  O142  1  0.18134195  0.47837016  0.35890296  1
  O  O143  1  0.68822462  0.49458396  0.35718341  1
  O  O144  1  0.06047169  0.47721921  0.86033618  1
  O  O145  1  0.56211071  0.49269212  0.85224501  1
  O  O146  1  0.18713937  0.87853928  0.85888247  1
  O  O147  1  0.67911355  0.87341048  0.86076690  1
  O  O148  1  0.25542716  0.63727659  0.85930801  1
  O  O149  1  0.75762753  0.62936672  0.86502716  1
  O  O150  1  0.01592552  0.84570570  0.40920080  1
  O  O151  1  0.50941610  0.81867825  0.41442683  1
  O  O152  1  0.40125451  0.97288010  0.41193159  1
  O  O153  1  0.90037957  0.97040923  0.40900625  1
  O  O154  1  0.08433765  0.19378727  0.40944357  1
  O  O155  1  0.57556030  0.17286415  0.41149317  1
  O  O156  1  0.00906194  0.20096640  0.91533416  1
  O  O157  1  0.51164218  0.18218490  0.91292430  1
  O  O158  1  0.07575076  0.97759276  0.91323558  1
  O  O159  1  0.58451949  0.96650726  0.91424162  1
  O  O160  1  0.39959222  0.82992740  0.90893888  1
  O  O161  1  0.90145203  0.82872182  0.91308540  1
  O  O162  1  0.48914797  0.17723221  0.58684199  1
  O  O163  1  0.98483485  0.17071321  0.58690833  1
  O  O164  1  0.08886751  0.03497616  0.58931461  1
  O  O165  1  0.59631761  0.02549879  0.58968915  1
  O  O166  1  0.41698259  0.83090812  0.59413369  1
  O  O167  1  0.91256046  0.80331366  0.58571416  1
  O  O168  1  0.48540085  0.80044443  0.08834654  1
  O  O169  1  0.99145657  0.80408237  0.09155767  1
  O  O170  1  0.41185386  0.02331832  0.08712211  1
  O  O171  1  0.91707853  0.00961198  0.09267822  1
  O  O172  1  0.09413399  0.16467569  0.09205439  1
  O  O173  1  0.58792972  0.14331138  0.09064290  1
  O  O174  1  0.34595895  0.16338004  0.74611161  1
  O  O175  1  0.85436539  0.17442189  0.74952168  1
  O  O176  1  0.23786694  0.30740161  0.74845938  1
  O  O177  1  0.74120228  0.31492681  0.74708114  1
  O  O178  1  0.41757896  0.52052187  0.74543390  1
  O  O179  1  0.91505672  0.51136761  0.73992101  1
  O  O180  1  0.34759517  0.52537867  0.24951941  1
  O  O181  1  0.84778591  0.53114390  0.24563022  1
  O  O182  1  0.40980632  0.31106950  0.24100457  1
  O  O183  1  0.91893544  0.30888643  0.24719014  1
  O  O184  1  0.23270032  0.15769402  0.24538927  1
  O  O185  1  0.73831476  0.17035132  0.24804743  1
  O  O186  1  0.32032826  0.51053508  0.92064114  1
  O  O187  1  0.82637965  0.50761700  0.92444322  1
  O  O188  1  0.42499927  0.36410452  0.92693006  1
  O  O189  1  0.93159502  0.37153960  0.92242115  1
  O  O190  1  0.25012231  0.14998995  0.92427922  1
  O  O191  1  0.74627943  0.14171855  0.91814126  1
  O  O192  1  0.32660019  0.14377173  0.42329390  1
  O  O193  1  0.82121306  0.13037873  0.41970523  1
  O  O194  1  0.24507129  0.34482339  0.41791816  1
  O  O195  1  0.75067060  0.35062040  0.42424501  1
  O  O196  1  0.43090673  0.49257465  0.42169466  1
  O  O197  1  0.92697296  0.48832088  0.42373157  1
  O  O198  1  0.17875657  0.51004053  0.07235050  1
  O  O199  1  0.67057375  0.49652076  0.07675210  1
  O  O200  1  0.06898094  0.64176441  0.07958379  1
  O  O201  1  0.56759837  0.64764591  0.07562504  1
  O  O202  1  0.25235598  0.86189236  0.07670067  1
  O  O203  1  0.74314042  0.84755992  0.07261521  1
  O  O204  1  0.17119411  0.84634707  0.57760382  1
  O  O205  1  0.67915616  0.84797778  0.56972427  1
  O  O206  1  0.24337134  0.64181326  0.57054965  1
  O  O207  1  0.75291248  0.64498777  0.57524333  1
  O  O208  1  0.06739890  0.48858703  0.57461084  1
  O  O209  1  0.56845847  0.49752722  0.57821106  1
  O  O210  1  0.14853476  0.83738350  0.25270158  1
  O  O211  1  0.65862559  0.84718913  0.25851900  1
  O  O212  1  0.25388444  0.69881095  0.25909203  1
  O  O213  1  0.76861354  0.69984882  0.25329820  1
  O  O214  1  0.07907837  0.45948299  0.25174708  1
  O  O215  1  0.58416241  0.50202835  0.25416490  1
  O  O216  1  0.15822212  0.47040942  0.75900868  1
  O  O217  1  0.64393007  0.47556030  0.75059947  1
  O  O218  1  0.08800592  0.67325036  0.75345781  1
  O  O219  1  0.57731018  0.70054882  0.75277292  1
  O  O220  1  0.26516537  0.83596808  0.75386992  1
  O  O221  1  0.75528482  0.81830627  0.75914343  1
