# generated using pymatgen
data_NaNb2Si2PO12
_symmetry_space_group_name_H-M   'P 1'
_cell_length_a   8.87742204
_cell_length_b   8.87742174
_cell_length_c   22.99025834
_cell_angle_alpha   89.78103814
_cell_angle_beta   90.21896185
_cell_angle_gamma   119.93131354
_symmetry_Int_Tables_number   1
_chemical_formula_structural   NaNb2Si2PO12
_chemical_formula_sum   'Na6 Nb12 Si12 P6 O72'
_cell_volume   1570.16084680
_cell_formula_units_Z   6
loop_
 _symmetry_equiv_pos_site_id
 _symmetry_equiv_pos_as_xyz
  1  'x, y, z'
loop_
 _atom_site_type_symbol
 _atom_site_label
 _atom_site_symmetry_multiplicity
 _atom_site_fract_x
 _atom_site_fract_y
 _atom_site_fract_z
 _atom_site_occupancy
  Na  Na0  1  0.99907060  0.00131231  0.49988223  1
  Na  Na1  1  0.99868769  0.00092940  0.99988223  1
  Na  Na2  1  0.66573760  0.33464531  0.83321523  1
  Na  Na3  1  0.66535469  0.33426240  0.33321523  1
  Na  Na4  1  0.33240360  0.66797931  0.16654923  1
  Na  Na5  1  0.33202069  0.66759640  0.66654923  1
  Nb  Nb6  1  0.00270187  0.99995107  0.35509690  1
  Nb  Nb7  1  0.00004893  0.99729813  0.85509690  1
  Nb  Nb8  1  0.00839521  0.00519913  0.64473937  1
  Nb  Nb9  1  0.99480087  0.99160479  0.14473937  1
  Nb  Nb10  1  0.66936887  0.33328407  0.68842990  1
  Nb  Nb11  1  0.66671593  0.33063113  0.18842990  1
  Nb  Nb12  1  0.67506221  0.33853213  0.97807237  1
  Nb  Nb13  1  0.66146787  0.32493779  0.47807237  1
  Nb  Nb14  1  0.33603487  0.66661807  0.02176390  1
  Nb  Nb15  1  0.33338193  0.66396513  0.52176390  1
  Nb  Nb16  1  0.34172821  0.67186613  0.31140637  1
  Nb  Nb17  1  0.32813387  0.65827179  0.81140637  1
  Si  Si18  1  0.28743013  0.99991643  0.25003687  1
  Si  Si19  1  0.71319395  0.71078303  0.25041405  1
  Si  Si20  1  0.28921697  0.28680605  0.75041405  1
  Si  Si21  1  0.00008357  0.71256987  0.75003687  1
  Si  Si22  1  0.95409713  0.33324943  0.58336987  1
  Si  Si23  1  0.37986095  0.04411603  0.58374705  1
  Si  Si24  1  0.95588397  0.62013905  0.08374705  1
  Si  Si25  1  0.66675057  0.04590287  0.08336987  1
  Si  Si26  1  0.62076313  0.66658343  0.91670387  1
  Si  Si27  1  0.04652695  0.37745003  0.91708105  1
  Si  Si28  1  0.62254997  0.95347305  0.41708105  1
  Si  Si29  1  0.33341657  0.37923687  0.41670387  1
  P  P30  1  0.00135867  0.28637260  0.24971057  1
  P  P31  1  0.71362740  0.99864133  0.74971057  1
  P  P32  1  0.66802567  0.61970560  0.58304357  1
  P  P33  1  0.38029440  0.33197433  0.08304357  1
  P  P34  1  0.33469167  0.95303960  0.91637757  1
  P  P35  1  0.04696040  0.66530833  0.41637757  1
  O  O36  1  0.19593914  0.02990037  0.30713588  1
  O  O37  1  0.83369806  0.80628247  0.30717600  1
  O  O38  1  0.97168732  0.17276446  0.30465563  1
  O  O39  1  0.19371753  0.16630194  0.80717600  1
  O  O40  1  0.97009963  0.80406086  0.80713588  1
  O  O41  1  0.82723554  0.02831268  0.80465563  1
  O  O42  1  0.79758507  0.97164637  0.69534599  1
  O  O43  1  0.16573537  0.19678619  0.69296932  1
  O  O44  1  0.02563926  0.83357811  0.69292326  1
  O  O45  1  0.80321381  0.83426463  0.19296932  1
  O  O46  1  0.02835363  0.20241493  0.19534599  1
  O  O47  1  0.16642189  0.97436074  0.19292326  1
  O  O48  1  0.86260614  0.36323337  0.64046888  1
  O  O49  1  0.50036506  0.13961547  0.64050900  1
  O  O50  1  0.63835432  0.50609746  0.63798863  1
  O  O51  1  0.86038453  0.49963494  0.14050900  1
  O  O52  1  0.63676663  0.13739386  0.14046888  1
  O  O53  1  0.49390254  0.36164568  0.13798863  1
  O  O54  1  0.46425207  0.30497937  0.02867899  1
  O  O55  1  0.83240237  0.53011919  0.02630232  1
  O  O56  1  0.69230626  0.16691111  0.02625626  1
  O  O57  1  0.46988081  0.16759763  0.52630232  1
  O  O58  1  0.69502063  0.53574793  0.52867899  1
  O  O59  1  0.83308889  0.30769374  0.52625626  1
  O  O60  1  0.52927214  0.69656737  0.97380288  1
  O  O61  1  0.16703106  0.47294947  0.97384300  1
  O  O62  1  0.30502032  0.83943146  0.97132263  1
  O  O63  1  0.52705053  0.83296894  0.47384300  1
  O  O64  1  0.30343263  0.47072786  0.47380288  1
  O  O65  1  0.16056854  0.69497968  0.47132263  1
  O  O66  1  0.13091807  0.63831337  0.36201299  1
  O  O67  1  0.49906837  0.86345319  0.35963632  1
  O  O68  1  0.35897226  0.50024511  0.35959026  1
  O  O69  1  0.13654681  0.50093163  0.85963632  1
  O  O70  1  0.36168663  0.86908193  0.86201299  1
  O  O71  1  0.49975489  0.64102774  0.85959026  1
  O  O72  1  0.02896463  0.83034878  0.40992679  1
  O  O73  1  0.81392986  0.97451408  0.40888675  1
  O  O74  1  0.16279023  0.18683267  0.40919804  1
  O  O75  1  0.02548592  0.18607014  0.90888675  1
  O  O76  1  0.16965122  0.97103537  0.90992679  1
  O  O77  1  0.81316733  0.83720977  0.90919804  1
  O  O78  1  0.96871809  0.15807302  0.59078660  1
  O  O79  1  0.18647589  0.02388085  0.59026787  1
  O  O80  1  0.82738643  0.80255783  0.59084788  1
  O  O81  1  0.97611915  0.81352411  0.09026787  1
  O  O82  1  0.84192698  0.03128191  0.09078660  1
  O  O83  1  0.19744217  0.17261357  0.09084788  1
  O  O84  1  0.69563163  0.16368178  0.74325979  1
  O  O85  1  0.48059686  0.30784708  0.74221975  1
  O  O86  1  0.82945723  0.52016567  0.74253104  1
  O  O87  1  0.69215292  0.51940314  0.24221975  1
  O  O88  1  0.83631822  0.30436837  0.24325979  1
  O  O89  1  0.47983433  0.17054277  0.24253104  1
  O  O90  1  0.63538509  0.49140602  0.92411960  1
  O  O91  1  0.85314289  0.35721385  0.92360087  1
  O  O92  1  0.49405343  0.13589083  0.92418088  1
  O  O93  1  0.64278615  0.14685711  0.42360087  1
  O  O94  1  0.50859398  0.36461491  0.42411960  1
  O  O95  1  0.86410917  0.50594657  0.42418088  1
  O  O96  1  0.36229763  0.49701578  0.07659379  1
  O  O97  1  0.14726286  0.64118108  0.07555375  1
  O  O98  1  0.49612323  0.85349967  0.07586504  1
  O  O99  1  0.35881892  0.85273714  0.57555375  1
  O  O100  1  0.50298422  0.63770237  0.57659379  1
  O  O101  1  0.14650033  0.50387677  0.57586504  1
  O  O102  1  0.30205109  0.82474002  0.25745360  1
  O  O103  1  0.51980889  0.69054785  0.25693487  1
  O  O104  1  0.16071943  0.46922483  0.25751488  1
  O  O105  1  0.30945215  0.48019111  0.75693487  1
  O  O106  1  0.17525998  0.69794891  0.75745360  1
  O  O107  1  0.53077517  0.83928057  0.75751488  1
