# generated using pymatgen
data_Na3Ca2P(SO6)2
_symmetry_space_group_name_H-M   'P 1'
_cell_length_a   9.40064337
_cell_length_b   9.41235270
_cell_length_c   23.24708381
_cell_angle_alpha   90.17120415
_cell_angle_beta   90.00000000
_cell_angle_gamma   119.95885609
_symmetry_Int_Tables_number   1
_chemical_formula_structural   Na3Ca2P(SO6)2
_chemical_formula_sum   'Na18 Ca12 P6 S12 O72'
_cell_volume   1782.10055867
_cell_formula_units_Z   6
loop_
 _symmetry_equiv_pos_site_id
 _symmetry_equiv_pos_as_xyz
  1  'x, y, z'
loop_
 _atom_site_type_symbol
 _atom_site_label
 _atom_site_symmetry_multiplicity
 _atom_site_fract_x
 _atom_site_fract_y
 _atom_site_fract_z
 _atom_site_occupancy
  Na  Na0  1  0.62411987  0.99408395  0.25664233  1
  Na  Na1  1  0.01247457  0.65024525  0.24231818  1
  Na  Na2  1  0.63777068  0.65024525  0.74231818  1
  Na  Na3  1  0.36996408  0.99408395  0.75664233  1
  Na  Na4  1  0.31849370  0.34495550  0.58490577  1
  Na  Na5  1  0.66004605  0.95511358  0.58316058  1
  Na  Na6  1  0.29506852  0.95511358  0.08316058  1
  Na  Na7  1  0.02646281  0.34495550  0.08490577  1
  Na  Na8  1  0.98329438  0.67701784  0.92494364  1
  Na  Na9  1  0.68345933  0.02656451  0.90716130  1
  Na  Na10  1  0.34310417  0.02656451  0.40716130  1
  Na  Na11  1  0.69372246  0.67701784  0.42494364  1
  Na  Na12  1  0.97493436  0.98720271  0.50002272  1
  Na  Na13  1  0.01226835  0.98720271  0.00002272  1
  Na  Na14  1  0.65669249  0.31013580  0.83336463  1
  Na  Na15  1  0.65344432  0.31013580  0.33336463  1
  Na  Na16  1  0.33384179  0.66245039  0.16670182  1
  Na  Na17  1  0.32860760  0.66245039  0.66670182  1
  Ca  Ca18  1  0.00717024  0.01359525  0.34786893  1
  Ca  Ca19  1  0.00642501  0.01359525  0.84786893  1
  Ca  Ca20  1  0.98915043  0.99098859  0.65181807  1
  Ca  Ca21  1  0.00183816  0.99098859  0.15181807  1
  Ca  Ca22  1  0.68178330  0.33863751  0.68149182  1
  Ca  Ca23  1  0.65685520  0.33863751  0.18149182  1
  Ca  Ca24  1  0.65852914  0.33894431  0.98537701  1
  Ca  Ca25  1  0.68041617  0.33894431  0.48537701  1
  Ca  Ca26  1  0.33716274  0.66787348  0.01422885  1
  Ca  Ca27  1  0.33070974  0.66787348  0.51422885  1
  Ca  Ca28  1  0.33113324  0.66177411  0.31924811  1
  Ca  Ca29  1  0.33063988  0.66177411  0.81924811  1
  P  P30  1  0.30873695  0.99563678  0.25122696  1
  P  P31  1  0.68689983  0.99563678  0.75122696  1
  P  P32  1  0.66136262  0.63847056  0.58298798  1
  P  P33  1  0.97710894  0.63847056  0.08298798  1
  P  P34  1  0.33330178  0.97085892  0.91659242  1
  P  P35  1  0.63755614  0.97085892  0.41659242  1
  S  S36  1  0.69990251  0.70016648  0.25314680  1
  S  S37  1  0.99598783  0.30573575  0.24589231  1
  S  S38  1  0.30974792  0.30573575  0.74589231  1
  S  S39  1  0.00026398  0.70016648  0.75314680  1
  S  S40  1  0.97623673  0.33032737  0.58376659  1
  S  S41  1  0.36565050  0.03493889  0.58325840  1
  S  S42  1  0.66928939  0.03493889  0.08325840  1
  S  S43  1  0.35409164  0.33032737  0.08376659  1
  S  S44  1  0.64334992  0.66975863  0.91384804  1
  S  S45  1  0.02394180  0.36043738  0.91951195  1
  S  S46  1  0.33649457  0.36043738  0.41951195  1
  S  S47  1  0.02640771  0.66975863  0.41384804  1
  O  O48  1  0.22439997  0.00600842  0.30702009  1
  O  O49  1  0.79223746  0.77877276  0.30688967  1
  O  O50  1  0.98180955  0.20115278  0.29542932  1
  O  O51  1  0.21934323  0.20115278  0.79542932  1
  O  O52  1  0.98653530  0.77877276  0.80688967  1
  O  O53  1  0.78160845  0.00600842  0.80702009  1
  O  O54  1  0.77726540  0.98320374  0.69738359  1
  O  O55  1  0.22162748  0.22998799  0.69140253  1
  O  O56  1  0.02177612  0.80721487  0.70329956  1
  O  O57  1  0.78543875  0.80721487  0.20329956  1
  O  O58  1  0.00836051  0.22998799  0.19140253  1
  O  O59  1  0.20593834  0.98320374  0.19738359  1
  O  O60  1  0.89652472  0.34409813  0.63605126  1
  O  O61  1  0.46706858  0.11707822  0.63512672  1
  O  O62  1  0.65219639  0.53955737  0.63757179  1
  O  O63  1  0.88736198  0.53955737  0.13757179  1
  O  O64  1  0.65001064  0.11707822  0.13512672  1
  O  O65  1  0.44757442  0.34409813  0.13605126  1
  O  O66  1  0.43710138  0.31302750  0.03235259  1
  O  O67  1  0.88238901  0.55105544  0.02760197  1
  O  O68  1  0.68281755  0.13197674  0.03095159  1
  O  O69  1  0.44916020  0.13197674  0.53095159  1
  O  O70  1  0.66866743  0.55105544  0.52760197  1
  O  O71  1  0.87592711  0.31302750  0.53235259  1
  O  O72  1  0.55000227  0.67750453  0.96372656  1
  O  O73  1  0.11382162  0.43489457  0.97383419  1
  O  O74  1  0.31700053  0.86714552  0.97091060  1
  O  O75  1  0.55014399  0.86714552  0.47091060  1
  O  O76  1  0.32107196  0.43489457  0.47383419  1
  O  O77  1  0.12750125  0.67750453  0.46372656  1
  O  O78  1  0.10024417  0.65328514  0.35971894  1
  O  O79  1  0.53423870  0.88343147  0.36189167  1
  O  O80  1  0.34343678  0.46069766  0.36988529  1
  O  O81  1  0.11725988  0.46069766  0.86988529  1
  O  O82  1  0.34919177  0.88343147  0.86189167  1
  O  O83  1  0.55303996  0.65328514  0.85971894  1
  O  O84  1  0.01964861  0.82616135  0.41422317  1
  O  O85  1  0.80831743  0.98141528  0.41447209  1
  O  O86  1  0.19674399  0.18906107  0.41580234  1
  O  O87  1  0.99231708  0.18906107  0.91580234  1
  O  O88  1  0.17309785  0.98141528  0.91447209  1
  O  O89  1  0.80651273  0.82616135  0.91422317  1
  O  O90  1  0.99299905  0.17943548  0.58539917  1
  O  O91  1  0.20358126  0.02610192  0.58705357  1
  O  O92  1  0.81001152  0.81741431  0.58334584  1
  O  O93  1  0.00740280  0.81741431  0.08334584  1
  O  O94  1  0.82252066  0.02610192  0.08705357  1
  O  O95  1  0.18643644  0.17943548  0.08539917  1
  O  O96  1  0.65614938  0.14387075  0.74942974  1
  O  O97  1  0.47635731  0.32035315  0.74619264  1
  O  O98  1  0.84596881  0.53981981  0.74784735  1
  O  O99  1  0.69385200  0.53981981  0.24784735  1
  O  O100  1  0.84399683  0.32035315  0.24619264  1
  O  O101  1  0.48772237  0.14387075  0.24942974  1
  O  O102  1  0.67600419  0.53086113  0.91763608  1
  O  O103  1  0.86020039  0.35259701  0.91916204  1
  O  O104  1  0.49433179  0.14053685  0.91882401  1
  O  O105  1  0.64620607  0.14053685  0.41882401  1
  O  O106  1  0.49239762  0.35259701  0.41916204  1
  O  O107  1  0.85485794  0.53086113  0.41763608  1
  O  O108  1  0.33001501  0.47477721  0.08027494  1
  O  O109  1  0.15107458  0.65059711  0.08366159  1
  O  O110  1  0.52076598  0.86895399  0.08017564  1
  O  O111  1  0.34818701  0.86895399  0.58017564  1
  O  O112  1  0.49952152  0.65059711  0.58366159  1
  O  O113  1  0.14476120  0.47477721  0.58027494  1
  O  O114  1  0.31995276  0.83346935  0.25051004  1
  O  O115  1  0.53258904  0.67957581  0.25466303  1
  O  O116  1  0.14047288  0.47369202  0.25079358  1
  O  O117  1  0.33321814  0.47369202  0.75079358  1
  O  O118  1  0.14698577  0.67957581  0.75466303  1
  O  O119  1  0.51351559  0.83346935  0.75051004  1
