# generated using pymatgen
data_MgZr(MoO4)2
_symmetry_space_group_name_H-M   'P 1'
_cell_length_a   6.38244485
_cell_length_b   5.68307114
_cell_length_c   5.68338953
_cell_angle_alpha   62.63590216
_cell_angle_beta   82.34476990
_cell_angle_gamma   82.38484699
_symmetry_Int_Tables_number   1
_chemical_formula_structural   MgZr(MoO4)2
_chemical_formula_sum   'Mg1 Zr1 Mo2 O8'
_cell_volume   180.85233270
_cell_formula_units_Z   1
loop_
 _symmetry_equiv_pos_site_id
 _symmetry_equiv_pos_as_xyz
  1  'x, y, z'
loop_
 _atom_site_type_symbol
 _atom_site_label
 _atom_site_symmetry_multiplicity
 _atom_site_fract_x
 _atom_site_fract_y
 _atom_site_fract_z
 _atom_site_occupancy
  Mg  Mg0  1  0.88044078  0.70740801  0.70776217  1
  Zr  Zr1  1  0.02623900  0.00467596  0.00521649  1
  Mo  Mo2  1  0.70109839  0.36094942  0.36246682  1
  Mo  Mo3  1  0.34033884  0.63235485  0.63265745  1
  O  O4  1  0.11178277  0.83445550  0.38220483  1
  O  O5  1  0.11143347  0.38186488  0.83506150  1
  O  O6  1  0.82836969  0.10257557  0.66084588  1
  O  O7  1  0.82900116  0.65881742  0.10386694  1
  O  O8  1  0.73802773  0.17265439  0.17540110  1
  O  O9  1  0.24398577  0.83415063  0.83410943  1
  O  O10  1  0.41794850  0.40149589  0.40133575  1
  O  O11  1  0.64633390  0.59609749  0.59698864  1
