# generated using pymatgen
data_Na3Nb2Zn2P5SO24
_symmetry_space_group_name_H-M   'P 1'
_cell_length_a   8.84423917
_cell_length_b   8.81619771
_cell_length_c   22.48826010
_cell_angle_alpha   90.09983542
_cell_angle_beta   89.88657073
_cell_angle_gamma   119.86985753
_symmetry_Int_Tables_number   1
_chemical_formula_structural   Na3Nb2Zn2P5SO24
_chemical_formula_sum   'Na9 Nb6 Zn6 P15 S3 O72'
_cell_volume   1520.53111869
_cell_formula_units_Z   3
loop_
 _symmetry_equiv_pos_site_id
 _symmetry_equiv_pos_as_xyz
  1  'x, y, z'
loop_
 _atom_site_type_symbol
 _atom_site_label
 _atom_site_symmetry_multiplicity
 _atom_site_fract_x
 _atom_site_fract_y
 _atom_site_fract_z
 _atom_site_occupancy
  Na  Na0  1  0.01136832  0.36918766  0.75354415  1
  Na  Na1  1  0.68001871  0.97950226  0.58671324  1
  Na  Na2  1  0.68078823  0.70372541  0.08686968  1
  Na  Na3  1  0.01423954  0.00441014  0.50790566  1
  Na  Na4  1  0.01055827  0.01190201  0.00724319  1
  Na  Na5  1  0.66196382  0.33972367  0.84278679  1
  Na  Na6  1  0.65719454  0.32611509  0.34158494  1
  Na  Na7  1  0.32865839  0.67458792  0.17631507  1
  Na  Na8  1  0.33407861  0.67057050  0.67557222  1
  Nb  Nb9  1  0.00015185  0.99815629  0.35429427  1
  Nb  Nb10  1  0.99398872  0.99744423  0.85360011  1
  Nb  Nb11  1  0.66217430  0.33456269  0.68701892  1
  Nb  Nb12  1  0.66139748  0.33121089  0.18714932  1
  Nb  Nb13  1  0.33097144  0.66101416  0.02082499  1
  Nb  Nb14  1  0.33587631  0.65986519  0.52077563  1
  Zn  Zn15  1  0.00667688  0.99904820  0.64958105  1
  Zn  Zn16  1  0.00618121  0.99894310  0.14920409  1
  Zn  Zn17  1  0.67426809  0.33865850  0.98286667  1
  Zn  Zn18  1  0.65785867  0.32630791  0.48254538  1
  Zn  Zn19  1  0.35172207  0.67742301  0.31505194  1
  Zn  Zn20  1  0.33920857  0.66559022  0.81579378  1
  P  P21  1  0.28850691  0.99373524  0.24847092  1
  P  P22  1  0.70715537  0.71015724  0.24647984  1
  P  P23  1  0.28863219  0.28978340  0.74875847  1
  P  P24  1  0.00302752  0.71066992  0.74811975  1
  P  P25  1  0.70247629  0.99393447  0.74672865  1
  P  P26  1  0.95645953  0.33343940  0.58175988  1
  P  P27  1  0.36959781  0.04181114  0.58104950  1
  P  P28  1  0.67301205  0.62479392  0.57989974  1
  P  P29  1  0.95741247  0.62443282  0.08221188  1
  P  P30  1  0.66963076  0.04564196  0.08056078  1
  P  P31  1  0.37111092  0.32423080  0.08068490  1
  P  P32  1  0.62254756  0.66094218  0.91521368  1
  P  P33  1  0.03778008  0.37578761  0.91295479  1
  P  P34  1  0.62485675  0.96292310  0.41535923  1
  P  P35  1  0.33736249  0.37678905  0.41257166  1
  S  S36  1  0.00072641  0.29242960  0.24909232  1
  S  S37  1  0.33360452  0.95819807  0.91524403  1
  S  S38  1  0.04334041  0.66350657  0.41476246  1
  O  O39  1  0.19814791  0.02639233  0.30520814  1
  O  O40  1  0.83005701  0.80717729  0.30218791  1
  O  O41  1  0.97362213  0.17912930  0.30372353  1
  O  O42  1  0.19907127  0.17029485  0.80541162  1
  O  O43  1  0.97380726  0.80039617  0.80518151  1
  O  O44  1  0.83075617  0.02820486  0.80217806  1
  O  O45  1  0.78385462  0.97569182  0.69005937  1
  O  O46  1  0.17565176  0.20910651  0.69489129  1
  O  O47  1  0.02438363  0.81480265  0.69323217  1
  O  O48  1  0.78737629  0.81139503  0.18998051  1
  O  O49  1  0.02137265  0.21145079  0.19586129  1
  O  O50  1  0.18559315  0.97742311  0.19364796  1
  O  O51  1  0.87090326  0.36359706  0.64023389  1
  O  O52  1  0.49645803  0.13268413  0.63735345  1
  O  O53  1  0.64071573  0.50643669  0.63724445  1
  O  O54  1  0.86708849  0.50357871  0.13870956  1
  O  O55  1  0.63911615  0.13430749  0.13783072  1
  O  O56  1  0.49631269  0.36404337  0.13749195  1
  O  O57  1  0.45734223  0.30567468  0.02618332  1
  O  O58  1  0.84499975  0.54486330  0.02825307  1
  O  O59  1  0.69122364  0.15064426  0.02591595  1
  O  O60  1  0.45441113  0.14593419  0.52633238  1
  O  O61  1  0.69410022  0.54076996  0.52535698  1
  O  O62  1  0.84220373  0.30493914  0.52877608  1
  O  O63  1  0.53658142  0.69350191  0.97340927  1
  O  O64  1  0.16315989  0.47396285  0.96871912  1
  O  O65  1  0.30752555  0.84559695  0.96980287  1
  O  O66  1  0.53572482  0.84216986  0.47297398  1
  O  O67  1  0.30651053  0.46753819  0.47050531  1
  O  O68  1  0.15538946  0.69382995  0.46938778  1
  O  O69  1  0.12462705  0.64517696  0.36156122  1
  O  O70  1  0.51578079  0.87852510  0.36157041  1
  O  O71  1  0.35032548  0.48220871  0.35890236  1
  O  O72  1  0.11928604  0.47726388  0.85667367  1
  O  O73  1  0.35194877  0.87624887  0.86189928  1
  O  O74  1  0.51665879  0.64526280  0.86137994  1
  O  O75  1  0.03224713  0.83253363  0.41166411  1
  O  O76  1  0.80793641  0.96775910  0.40927526  1
  O  O77  1  0.16154797  0.19166124  0.40911706  1
  O  O78  1  0.03287958  0.19253573  0.91031453  1
  O  O79  1  0.16641092  0.96751977  0.91283016  1
  O  O80  1  0.80773722  0.83709667  0.90999595  1
  O  O81  1  0.98201998  0.17679088  0.58989086  1
  O  O82  1  0.18840277  0.01120009  0.58996877  1
  O  O83  1  0.81713296  0.81204118  0.58836565  1
  O  O84  1  0.98300905  0.80669536  0.09034395  1
  O  O85  1  0.81783856  0.00783095  0.08960339  1
  O  O86  1  0.18814422  0.17847964  0.09066691  1
  O  O87  1  0.70238125  0.17489617  0.74461954  1
  O  O88  1  0.47169879  0.30034243  0.74337998  1
  O  O89  1  0.82862456  0.52391173  0.74429199  1
  O  O90  1  0.70097852  0.52619751  0.24351324  1
  O  O91  1  0.83304028  0.30015342  0.24631704  1
  O  O92  1  0.47444498  0.16904327  0.24368620  1
  O  O93  1  0.65071305  0.50730764  0.92295234  1
  O  O94  1  0.85581657  0.34447956  0.92219737  1
  O  O95  1  0.48158291  0.13304026  0.92263542  1
  O  O96  1  0.66076661  0.14747548  0.42363428  1
  O  O97  1  0.49088498  0.34978962  0.42141444  1
  O  O98  1  0.86788009  0.51758751  0.42257663  1
  O  O99  1  0.36867071  0.50607879  0.07691661  1
  O  O100  1  0.14067858  0.63538342  0.07630545  1
  O  O101  1  0.49511022  0.85798967  0.07603050  1
  O  O102  1  0.36774880  0.85933299  0.57744123  1
  O  O103  1  0.49591308  0.63547207  0.57659576  1
  O  O104  1  0.13965991  0.50625859  0.57567755  1
  O  O105  1  0.31379721  0.83842379  0.25746334  1
  O  O106  1  0.52375609  0.67728212  0.25445475  1
  O  O107  1  0.14731302  0.46771792  0.25724375  1
  O  O108  1  0.31480565  0.47240703  0.75667863  1
  O  O109  1  0.15185357  0.67352420  0.75653582  1
  O  O110  1  0.52123625  0.84434735  0.75687365  1
