# generated using pymatgen
data_Rb4MgV4O10
_symmetry_space_group_name_H-M   'P 1'
_cell_length_a   5.80427581
_cell_length_b   6.10057740
_cell_length_c   9.68276942
_cell_angle_alpha   107.24471817
_cell_angle_beta   107.54993829
_cell_angle_gamma   89.23265963
_symmetry_Int_Tables_number   1
_chemical_formula_structural   Rb4MgV4O10
_chemical_formula_sum   'Rb4 Mg1 V4 O10'
_cell_volume   311.11827087
_cell_formula_units_Z   1
loop_
 _symmetry_equiv_pos_site_id
 _symmetry_equiv_pos_as_xyz
  1  'x, y, z'
loop_
 _atom_site_type_symbol
 _atom_site_label
 _atom_site_symmetry_multiplicity
 _atom_site_fract_x
 _atom_site_fract_y
 _atom_site_fract_z
 _atom_site_occupancy
  Rb  Rb0  1  0.60127679  0.09956649  0.22328209  1
  Rb  Rb1  1  0.38224009  0.90086431  0.77961683  1
  Rb  Rb2  1  0.15091698  0.59439051  0.32497635  1
  Rb  Rb3  1  0.81407244  0.40360109  0.67189505  1
  Mg  Mg4  1  0.99560350  0.49972019  0.99897891  1
  V  V5  1  0.99683548  0.00245906  0.00644225  1
  V  V6  1  0.49600849  0.50081859  0.00126587  1
  V  V7  1  0.20985549  0.14827208  0.44849730  1
  V  V8  1  0.76798484  0.84836092  0.55310374  1
  O  O9  1  0.26198993  0.29030876  0.00762764  1
  O  O10  1  0.22450405  0.72998698  0.99337313  1
  O  O11  1  0.76535879  0.26953795  0.00453762  1
  O  O12  1  0.73172482  0.71286287  0.99803538  1
  O  O13  1  0.11091491  0.09652488  0.23894366  1
  O  O14  1  0.87264282  0.89858573  0.75789522  1
  O  O15  1  0.72733787  0.57359915  0.42915709  1
  O  O16  1  0.29694351  0.42738401  0.56321692  1
  O  O17  1  0.97040076  0.01438410  0.49226230  1
  O  O18  1  0.47916844  0.98877132  0.50689165  1
