# generated using pymatgen
data_USeO5
_symmetry_space_group_name_H-M   'P 1'
_cell_length_a   9.39021640
_cell_length_b   4.22698188
_cell_length_c   5.44588122
_cell_angle_alpha   82.96061837
_cell_angle_beta   90.00000000
_cell_angle_gamma   90.00000000
_symmetry_Int_Tables_number   1
_chemical_formula_structural   USeO5
_chemical_formula_sum   'U2 Se2 O10'
_cell_volume   214.53003566
_cell_formula_units_Z   2
loop_
 _symmetry_equiv_pos_site_id
 _symmetry_equiv_pos_as_xyz
  1  'x, y, z'
loop_
 _atom_site_type_symbol
 _atom_site_label
 _atom_site_symmetry_multiplicity
 _atom_site_fract_x
 _atom_site_fract_y
 _atom_site_fract_z
 _atom_site_occupancy
  U  U0  1  0.50000000  0.00000000  -0.00000000  1
  U  U1  1  0.00000000  0.00000000  -0.00000000  1
  Se  Se2  1  0.75000000  0.37409020  0.31288161  1
  Se  Se3  1  0.25000000  0.62590980  0.68711839  1
  O  O4  1  0.40858432  0.95630574  0.29009772  1
  O  O5  1  0.90858432  0.04369426  0.70990228  1
  O  O6  1  0.59141568  0.04369426  0.70990228  1
  O  O7  1  0.09141568  0.95630574  0.29009772  1
  O  O8  1  0.25000000  -0.00149267  0.78489415  1
  O  O9  1  0.75000000  0.00149267  0.21510585  1
  O  O10  1  0.10622894  0.50890777  0.87330992  1
  O  O11  1  0.60622894  0.49109223  0.12669008  1
  O  O12  1  0.89377106  0.49109223  0.12669008  1
  O  O13  1  0.39377106  0.50890777  0.87330992  1
