# generated using pymatgen
data_MgHg2(MoO4)2
_symmetry_space_group_name_H-M   'P 1'
_cell_length_a   5.51676718
_cell_length_b   6.58938899
_cell_length_c   6.25909141
_cell_angle_alpha   116.02419697
_cell_angle_beta   114.33975868
_cell_angle_gamma   84.70104445
_symmetry_Int_Tables_number   1
_chemical_formula_structural   MgHg2(MoO4)2
_chemical_formula_sum   'Mg1 Hg2 Mo2 O8'
_cell_volume   185.19760893
_cell_formula_units_Z   1
loop_
 _symmetry_equiv_pos_site_id
 _symmetry_equiv_pos_as_xyz
  1  'x, y, z'
loop_
 _atom_site_type_symbol
 _atom_site_label
 _atom_site_symmetry_multiplicity
 _atom_site_fract_x
 _atom_site_fract_y
 _atom_site_fract_z
 _atom_site_occupancy
  Mg  Mg0  1  0.11182633  0.31241403  0.56477821  1
  Hg  Hg1  1  0.56883035  0.55021223  0.50778094  1
  Hg  Hg2  1  0.95849229  0.72358488  0.26491791  1
  Mo  Mo3  1  0.70140852  0.15408705  0.96295522  1
  Mo  Mo4  1  0.26258738  0.89468700  0.01477593  1
  O  O5  1  0.96961811  0.41586608  0.27511163  1
  O  O6  1  0.49493313  0.27905133  0.75711828  1
  O  O7  1  0.03806916  0.59821764  0.80238234  1
  O  O8  1  0.48765786  0.81431488  0.26211495  1
  O  O9  1  0.01635674  0.01554323  0.23718622  1
  O  O10  1  0.48090482  0.84738962  0.79781287  1
  O  O11  1  0.97702602  0.03865955  0.82200439  1
  O  O12  1  0.51978928  0.21013949  0.20106112  1
