# generated using pymatgen
data_NaMg2Ti2PS5O24
_symmetry_space_group_name_H-M   'P 1'
_cell_length_a   8.62112495
_cell_length_b   8.63671133
_cell_length_c   22.40297969
_cell_angle_alpha   89.79470693
_cell_angle_beta   89.91227941
_cell_angle_gamma   120.09319653
_symmetry_Int_Tables_number   1
_chemical_formula_structural   NaMg2Ti2PS5O24
_chemical_formula_sum   'Na3 Mg6 Ti6 P3 S15 O72'
_cell_volume   1443.22533363
_cell_formula_units_Z   3
loop_
 _symmetry_equiv_pos_site_id
 _symmetry_equiv_pos_as_xyz
  1  'x, y, z'
loop_
 _atom_site_type_symbol
 _atom_site_label
 _atom_site_symmetry_multiplicity
 _atom_site_fract_x
 _atom_site_fract_y
 _atom_site_fract_z
 _atom_site_occupancy
  Na  Na0  1  0.66695820  0.33211273  0.82827384  1
  Na  Na1  1  0.66285287  0.33403898  0.33182795  1
  Na  Na2  1  0.33498385  0.66712032  0.16364121  1
  Mg  Mg3  1  0.99864330  0.00170123  0.85500278  1
  Mg  Mg4  1  0.66621399  0.33167077  0.68427447  1
  Mg  Mg5  1  0.66214052  0.33298727  0.18851726  1
  Mg  Mg6  1  0.66608874  0.33406537  0.48471161  1
  Mg  Mg7  1  0.33356130  0.66479076  0.01785007  1
  Mg  Mg8  1  0.33357309  0.66671747  0.52432657  1
  Ti  Ti9  1  0.00321142  0.99288699  0.35454389  1
  Ti  Ti10  1  0.99692936  0.99958755  0.64141281  1
  Ti  Ti11  1  0.99902184  0.99041395  0.14300187  1
  Ti  Ti12  1  0.67091685  0.33168153  0.97473098  1
  Ti  Ti13  1  0.34212467  0.67415580  0.31179442  1
  Ti  Ti14  1  0.31963942  0.65595178  0.80957088  1
  P  P15  1  0.28698665  0.99954972  0.25011781  1
  P  P16  1  0.71598224  0.71360506  0.25036411  1
  P  P17  1  0.04908292  0.37654159  0.91825090  1
  S  S18  1  0.00126761  0.28670886  0.25045766  1
  S  S19  1  0.28983464  0.28673229  0.75063684  1
  S  S20  1  0.99732465  0.71189842  0.75097665  1
  S  S21  1  0.70951431  0.99902545  0.75113089  1
  S  S22  1  0.95747579  0.33411359  0.58388975  1
  S  S23  1  0.37538328  0.04183138  0.58414078  1
  S  S24  1  0.66593144  0.62349784  0.58404299  1
  S  S25  1  0.95580429  0.61914893  0.08426841  1
  S  S26  1  0.66648568  0.04449447  0.08461351  1
  S  S27  1  0.37793643  0.33474992  0.08447403  1
  S  S28  1  0.62165056  0.66712036  0.91683082  1
  S  S29  1  0.33158206  0.95338410  0.91675403  1
  S  S30  1  0.62476285  0.95816675  0.41655242  1
  S  S31  1  0.33225921  0.37751497  0.41583600  1
  S  S32  1  0.04434628  0.66387606  0.41624794  1
  O  O33  1  0.19209582  0.02113917  0.30601070  1
  O  O34  1  0.82937085  0.81111360  0.30608219  1
  O  O35  1  0.97743225  0.17846567  0.30476437  1
  O  O36  1  0.21071772  0.18023520  0.80407720  1
  O  O37  1  0.97205873  0.79099378  0.80449024  1
  O  O38  1  0.81874787  0.02734842  0.80373193  1
  O  O39  1  0.79246287  0.96996689  0.69668818  1
  O  O40  1  0.17835381  0.20903471  0.69674500  1
  O  O41  1  0.02953606  0.82312000  0.69684640  1
  O  O42  1  0.79999961  0.83364769  0.19406381  1
  O  O43  1  0.03272703  0.20768930  0.19631113  1
  O  O44  1  0.16644017  0.96839234  0.19451770  1
  O  O45  1  0.87650718  0.36011409  0.63719373  1
  O  O46  1  0.48339913  0.12278366  0.63713676  1
  O  O47  1  0.63956159  0.51598504  0.63739486  1
  O  O48  1  0.87529157  0.51340736  0.13788788  1
  O  O49  1  0.63878821  0.12456893  0.13766520  1
  O  O50  1  0.48465033  0.36080889  0.13784808  1
  O  O51  1  0.45863088  0.30346782  0.03037870  1
  O  O52  1  0.84399332  0.53931096  0.03019105  1
  O  O53  1  0.69588785  0.15751669  0.02990505  1
  O  O54  1  0.44459961  0.15397048  0.53032005  1
  O  O55  1  0.70962400  0.55557028  0.53042806  1
  O  O56  1  0.84573735  0.29102099  0.53033527  1
  O  O57  1  0.54491886  0.69284157  0.97100516  1
  O  O58  1  0.15329736  0.46311749  0.97327715  1
  O  O59  1  0.31131719  0.85353127  0.97128004  1
  O  O60  1  0.54574502  0.84731472  0.46879202  1
  O  O61  1  0.30125552  0.45427921  0.46854860  1
  O  O62  1  0.15255278  0.69686634  0.46900478  1
  O  O63  1  0.13354038  0.64266886  0.36145727  1
  O  O64  1  0.50838658  0.86693771  0.36147610  1
  O  O65  1  0.35710033  0.49341005  0.36110674  1
  O  O66  1  0.13463622  0.50424766  0.86119633  1
  O  O67  1  0.37269665  0.87731435  0.86317485  1
  O  O68  1  0.50484678  0.62963118  0.86344810  1
  O  O69  1  0.02654620  0.82798048  0.40646766  1
  O  O70  1  0.80288281  0.97555593  0.40506584  1
  O  O71  1  0.16940192  0.19921220  0.40458116  1
  O  O72  1  0.01342843  0.19272532  0.90581357  1
  O  O73  1  0.18063778  0.97967900  0.90752426  1
  O  O74  1  0.80112513  0.81491993  0.90725032  1
  O  O75  1  0.97596002  0.16792213  0.59466071  1
  O  O76  1  0.19093423  0.02395050  0.59532795  1
  O  O77  1  0.83267973  0.80824066  0.59471934  1
  O  O78  1  0.96827240  0.80091634  0.09078155  1
  O  O79  1  0.83370316  0.03208794  0.09158582  1
  O  O80  1  0.19567581  0.16833193  0.09259929  1
  O  O81  1  0.68384286  0.15432424  0.74314691  1
  O  O82  1  0.47255336  0.31694861  0.74312724  1
  O  O83  1  0.84531773  0.52907191  0.74383108  1
  O  O84  1  0.69637330  0.53083780  0.24657599  1
  O  O85  1  0.84352884  0.30677454  0.24523006  1
  O  O86  1  0.47173126  0.16105164  0.24631582  1
  O  O87  1  0.63436725  0.49601402  0.92425185  1
  O  O88  1  0.85614361  0.36551465  0.92549551  1
  O  O89  1  0.50133119  0.13972978  0.92356029  1
  O  O90  1  0.64136081  0.13532699  0.41918401  1
  O  O91  1  0.49161917  0.35765983  0.41868641  1
  O  O92  1  0.86404754  0.50648398  0.41948563  1
  O  O93  1  0.35188680  0.48963171  0.07779230  1
  O  O94  1  0.13900639  0.65149289  0.07778388  1
  O  O95  1  0.51202380  0.86352840  0.07681915  1
  O  O96  1  0.34629284  0.86235938  0.57580958  1
  O  O97  1  0.51581655  0.65336175  0.57585961  1
  O  O98  1  0.13780308  0.48430702  0.57567293  1
  O  O99  1  0.29602726  0.82416260  0.25858481  1
  O  O100  1  0.52803711  0.69958084  0.25861998  1
  O  O101  1  0.16707584  0.46756863  0.25712563  1
  O  O102  1  0.30567023  0.46967658  0.75856363  1
  O  O103  1  0.16692355  0.69948154  0.75821253  1
  O  O104  1  0.52926122  0.83324669  0.75937391  1
