# generated using pymatgen
data_MgV4O5F7
_symmetry_space_group_name_H-M   'P 1'
_cell_length_a   5.30503694
_cell_length_b   5.44742218
_cell_length_c   8.88279491
_cell_angle_alpha   76.25408029
_cell_angle_beta   90.32898953
_cell_angle_gamma   60.49735384
_symmetry_Int_Tables_number   1
_chemical_formula_structural   MgV4O5F7
_chemical_formula_sum   'Mg1 V4 O5 F7'
_cell_volume   214.71713131
_cell_formula_units_Z   1
loop_
 _symmetry_equiv_pos_site_id
 _symmetry_equiv_pos_as_xyz
  1  'x, y, z'
loop_
 _atom_site_type_symbol
 _atom_site_label
 _atom_site_symmetry_multiplicity
 _atom_site_fract_x
 _atom_site_fract_y
 _atom_site_fract_z
 _atom_site_occupancy
  Mg  Mg0  1  0.05488700  0.90585100  0.34895700  1
  V  V1  1  0.71340700  0.53613400  0.23480700  1
  V  V2  1  0.49946000  0.97515400  0.51509500  1
  V  V3  1  0.29596600  0.48460400  0.74960100  1
  V  V4  1  0.04037100  0.00869200  0.00247800  1
  O  O5  1  0.95863600  0.22889700  0.14024600  1
  O  O6  1  0.49255500  0.76477900  0.37626500  1
  O  O7  1  0.41381100  0.76178900  0.06268900  1
  O  O8  1  0.42958400  0.70686200  0.67436400  1
  O  O9  1  0.46576300  0.20543400  0.63013100  1
  F  F10  1  0.95003000  0.73155300  0.55264700  1
  F  F11  1  0.95654000  0.74023900  0.19470300  1
  F  F12  1  0.59885600  0.21274100  0.33546900  1
  F  F13  1  0.59276900  0.22463200  0.92755600  1
  F  F14  1  0.03454300  0.75387700  0.86898500  1
  F  F15  1  0.06755500  0.28259400  0.82496800  1
  F  F16  1  0.06026600  0.22617000  0.43246600  1
