# generated using pymatgen
data_Na4Mg(BiO3)2
_symmetry_space_group_name_H-M   'P 1'
_cell_length_a   6.02377366
_cell_length_b   6.02377366
_cell_length_c   6.15958036
_cell_angle_alpha   79.67039969
_cell_angle_beta   100.32960031
_cell_angle_gamma   62.13434426
_symmetry_Int_Tables_number   1
_chemical_formula_structural   Na4Mg(BiO3)2
_chemical_formula_sum   'Na4 Mg1 Bi2 O6'
_cell_volume   185.27749477
_cell_formula_units_Z   1
loop_
 _symmetry_equiv_pos_site_id
 _symmetry_equiv_pos_as_xyz
  1  'x, y, z'
loop_
 _atom_site_type_symbol
 _atom_site_label
 _atom_site_symmetry_multiplicity
 _atom_site_fract_x
 _atom_site_fract_y
 _atom_site_fract_z
 _atom_site_occupancy
  Na  Na0  1  0.27793800  0.14304700  0.49127800  1
  Na  Na1  1  0.85695300  0.72206200  0.49127800  1
  Na  Na2  1  0.40890000  0.59110000  0.45074300  1
  Na  Na3  1  0.98257900  0.01742100  0.10006000  1
  Mg  Mg4  1  0.87724800  0.12275200  0.63498500  1
  Bi  Bi5  1  0.65443900  0.68032200  0.99375000  1
  Bi  Bi6  1  0.31967800  0.34556100  0.99375000  1
  O  O7  1  0.21026300  0.78973700  0.69813200  1
  O  O8  1  0.06711700  0.56252300  0.21374000  1
  O  O9  1  0.43747700  0.93288300  0.21374000  1
  O  O10  1  0.94316200  0.36762500  0.78129500  1
  O  O11  1  0.63237500  0.05683800  0.78129500  1
  O  O12  1  0.70687100  0.29312900  0.29136900  1
