# generated using pymatgen
data_Na3TaSi3GeO12
_symmetry_space_group_name_H-M   'P 1'
_cell_length_a   15.50318620
_cell_length_b   8.86548736
_cell_length_c   8.93172258
_cell_angle_alpha   90.00000000
_cell_angle_beta   124.93899391
_cell_angle_gamma   90.00000000
_symmetry_Int_Tables_number   1
_chemical_formula_structural   Na3TaSi3GeO12
_chemical_formula_sum   'Na12 Ta4 Si12 Ge4 O48'
_cell_volume   1006.34465645
_cell_formula_units_Z   4
loop_
 _symmetry_equiv_pos_site_id
 _symmetry_equiv_pos_as_xyz
  1  'x, y, z'
loop_
 _atom_site_type_symbol
 _atom_site_label
 _atom_site_symmetry_multiplicity
 _atom_site_fract_x
 _atom_site_fract_y
 _atom_site_fract_z
 _atom_site_occupancy
  Na  Na0  1  0.24948167  0.72444203  0.99247951  1
  Na  Na1  1  0.74948167  0.77555797  0.49247951  1
  Na  Na2  1  0.74948167  0.22444203  0.99247951  1
  Na  Na3  1  0.24948167  0.27555797  0.49247951  1
  Na  Na4  1  0.49707708  0.11773829  0.74352892  1
  Na  Na5  1  0.49707708  0.88226171  0.24352892  1
  Na  Na6  1  0.99707708  0.61773829  0.74352892  1
  Na  Na7  1  0.99707708  0.38226171  0.24352892  1
  Na  Na8  1  0.19297653  0.94666449  0.27865222  1
  Na  Na9  1  0.19297653  0.05333551  0.77865222  1
  Na  Na10  1  0.69297653  0.44666449  0.27865222  1
  Na  Na11  1  0.69297653  0.55333551  0.77865222  1
  Ta  Ta12  1  0.89164229  0.75403865  0.92934970  1
  Ta  Ta13  1  0.89164229  0.24596135  0.42934970  1
  Ta  Ta14  1  0.39164229  0.25403865  0.92934970  1
  Ta  Ta15  1  0.39164229  0.74596135  0.42934970  1
  Si  Si16  1  0.00469920  0.96168529  0.75834572  1
  Si  Si17  1  0.00469920  0.03831471  0.25834572  1
  Si  Si18  1  0.50469920  0.46168529  0.75834572  1
  Si  Si19  1  0.50469920  0.53831471  0.25834572  1
  Si  Si20  1  0.35445833  0.87898858  0.75901887  1
  Si  Si21  1  0.63983494  0.89817116  0.74819893  1
  Si  Si22  1  0.63983494  0.10182884  0.24819893  1
  Si  Si23  1  0.35445833  0.12101142  0.25901887  1
  Si  Si24  1  0.85445833  0.37898858  0.75901887  1
  Si  Si25  1  0.13983494  0.39817116  0.74819893  1
  Si  Si26  1  0.13983494  0.60182884  0.24819893  1
  Si  Si27  1  0.85445833  0.62101142  0.25901887  1
  Ge  Ge28  1  0.10486664  0.74817281  0.56591350  1
  Ge  Ge29  1  0.10486664  0.25182719  0.06591350  1
  Ge  Ge30  1  0.60486664  0.24817281  0.56591350  1
  Ge  Ge31  1  0.60486664  0.75182719  0.06591350  1
  O  O32  1  0.14310850  0.58093078  0.73441539  1
  O  O33  1  0.84722015  0.56650181  0.76640065  1
  O  O34  1  0.84722015  0.43349819  0.26640065  1
  O  O35  1  0.14310850  0.41906922  0.23441539  1
  O  O36  1  0.64310850  0.08093078  0.73441539  1
  O  O37  1  0.34722015  0.06650181  0.76640065  1
  O  O38  1  0.34722015  0.93349819  0.26640065  1
  O  O39  1  0.64310850  0.91906922  0.23441539  1
  O  O40  1  0.43653787  0.56995439  0.57848671  1
  O  O41  1  0.57944352  0.56447497  0.94135463  1
  O  O42  1  0.57944352  0.43552503  0.44135463  1
  O  O43  1  0.43653787  0.43004561  0.07848671  1
  O  O44  1  0.93653787  0.06995439  0.57848671  1
  O  O45  1  0.07944352  0.06447497  0.94135463  1
  O  O46  1  0.07944352  0.93552503  0.44135463  1
  O  O47  1  0.93653787  0.93004561  0.07848671  1
  O  O48  1  0.25078308  0.81123613  0.74004717  1
  O  O49  1  0.73896782  0.81362398  0.76219583  1
  O  O50  1  0.73896782  0.18637602  0.26219583  1
  O  O51  1  0.25078308  0.18876387  0.24004717  1
  O  O52  1  0.75078308  0.31123613  0.74004717  1
  O  O53  1  0.23896782  0.31362398  0.76219583  1
  O  O54  1  0.23896782  0.68637602  0.26219583  1
  O  O55  1  0.75078308  0.68876387  0.24004717  1
  O  O56  1  0.35468984  0.85430429  0.57682835  1
  O  O57  1  0.63354809  0.86145413  0.92055030  1
  O  O58  1  0.63354809  0.13854587  0.42055030  1
  O  O59  1  0.35468984  0.14569571  0.07682835  1
  O  O60  1  0.85468984  0.35430429  0.57682835  1
  O  O61  1  0.13354809  0.36145413  0.92055030  1
  O  O62  1  0.13354809  0.63854587  0.42055030  1
  O  O63  1  0.85468984  0.64569571  0.07682835  1
  O  O64  1  0.46162160  0.81483142  0.94282451  1
  O  O65  1  0.53420994  0.83052842  0.56033445  1
  O  O66  1  0.53420994  0.16947158  0.06033445  1
  O  O67  1  0.46162160  0.18516858  0.44282451  1
  O  O68  1  0.96162160  0.31483142  0.94282451  1
  O  O69  1  0.03420994  0.33052842  0.56033445  1
  O  O70  1  0.03420994  0.66947158  0.06033445  1
  O  O71  1  0.96162160  0.68516858  0.44282451  1
  O  O72  1  0.08622648  0.85411422  0.74449586  1
  O  O73  1  0.91860642  0.85141930  0.75657877  1
  O  O74  1  0.91860642  0.14858070  0.25657877  1
  O  O75  1  0.08622648  0.14588578  0.24449586  1
  O  O76  1  0.58622648  0.35411422  0.74449586  1
  O  O77  1  0.41860642  0.35141930  0.75657877  1
  O  O78  1  0.41860642  0.64858070  0.25657877  1
  O  O79  1  0.58622648  0.64588578  0.24449586  1
