# generated using pymatgen
data_TiBrN
_symmetry_space_group_name_H-M   'P 1'
_cell_length_a   3.36527321
_cell_length_b   3.93536345
_cell_length_c   8.61130710
_cell_angle_alpha   90.00000000
_cell_angle_beta   90.00000000
_cell_angle_gamma   90.00000000
_symmetry_Int_Tables_number   1
_chemical_formula_structural   TiBrN
_chemical_formula_sum   'Ti2 Br2 N2'
_cell_volume   114.04447584
_cell_formula_units_Z   2
loop_
 _symmetry_equiv_pos_site_id
 _symmetry_equiv_pos_as_xyz
  1  'x, y, z'
loop_
 _atom_site_type_symbol
 _atom_site_label
 _atom_site_symmetry_multiplicity
 _atom_site_fract_x
 _atom_site_fract_y
 _atom_site_fract_z
 _atom_site_occupancy
  Ti  Ti0  1  0.25000000  0.75000000  0.91242514  1
  Ti  Ti1  1  0.75000000  0.25000000  0.08757486  1
  Br  Br2  1  0.75000000  0.75000000  0.68187274  1
  Br  Br3  1  0.25000000  0.25000000  0.31812726  1
  N  N4  1  0.25000000  0.25000000  0.96013541  1
  N  N5  1  0.75000000  0.75000000  0.03986459  1
