# generated using pymatgen
data_Na3TiNb(SiO4)3
_symmetry_space_group_name_H-M   'P 1'
_cell_length_a   9.04778298
_cell_length_b   9.04371623
_cell_length_c   22.18530725
_cell_angle_alpha   89.99999999
_cell_angle_beta   90.19476688
_cell_angle_gamma   119.98513488
_symmetry_Int_Tables_number   1
_chemical_formula_structural   Na3TiNb(SiO4)3
_chemical_formula_sum   'Na18 Ti6 Nb6 Si18 O72'
_cell_volume   1572.34147619
_cell_formula_units_Z   6
loop_
 _symmetry_equiv_pos_site_id
 _symmetry_equiv_pos_as_xyz
  1  'x, y, z'
loop_
 _atom_site_type_symbol
 _atom_site_label
 _atom_site_symmetry_multiplicity
 _atom_site_fract_x
 _atom_site_fract_y
 _atom_site_fract_z
 _atom_site_occupancy
  Na  Na0  1  0.98832649  0.97282350  0.49492516  1
  Na  Na1  1  0.98832649  0.01550299  0.99492516  1
  Na  Na2  1  0.66529861  0.33491039  0.82829515  1
  Na  Na3  1  0.66529861  0.33038721  0.32829515  1
  Na  Na4  1  0.33064309  0.66396910  0.16167653  1
  Na  Na5  1  0.33064309  0.66667500  0.66167653  1
  Na  Na6  1  0.37299506  0.36957803  0.24804367  1
  Na  Na7  1  0.99223455  0.62620596  0.24704957  1
  Na  Na8  1  0.99223455  0.36602859  0.74704957  1
  Na  Na9  1  0.37299506  0.00341703  0.74804367  1
  Na  Na10  1  0.29810604  0.34122032  0.58007157  1
  Na  Na11  1  0.66347437  0.96262785  0.58091195  1
  Na  Na12  1  0.29810604  0.95688472  0.08007157  1
  Na  Na13  1  0.66347437  0.70084552  0.08091195  1
  Na  Na14  1  0.96722319  0.67628310  0.91441784  1
  Na  Na15  1  0.33045169  0.29317524  0.91405845  1
  Na  Na16  1  0.96722319  0.29094108  0.41441784  1
  Na  Na17  1  0.33045169  0.03727745  0.41405845  1
  Ti  Ti18  1  0.99564770  0.99703586  0.35417871  1
  Ti  Ti19  1  0.99564770  0.99861183  0.85417871  1
  Ti  Ti20  1  0.66714267  0.33851408  0.68762562  1
  Ti  Ti21  1  0.66714267  0.32862759  0.18762562  1
  Ti  Ti22  1  0.32924102  0.65974030  0.02092586  1
  Ti  Ti23  1  0.32924102  0.66950172  0.52092586  1
  Nb  Nb24  1  -0.00025181  0.99705723  0.64426553  1
  Nb  Nb25  1  -0.00025181  0.00269096  0.14426553  1
  Nb  Nb26  1  0.66813590  0.32870264  0.97748676  1
  Nb  Nb27  1  0.66813590  0.33943226  0.47748676  1
  Nb  Nb28  1  0.33783574  0.67037271  0.31093559  1
  Nb  Nb29  1  0.33783574  0.66746403  0.81093559  1
  Si  Si30  1  0.29155394  0.00470697  0.25158338  1
  Si  Si31  1  0.71253651  0.71226983  0.24977917  1
  Si  Si32  1  0.99215394  0.28484168  0.25316937  1
  Si  Si33  1  0.29155394  0.28684697  0.75158338  1
  Si  Si34  1  0.99215394  0.70731226  0.75316937  1
  Si  Si35  1  0.71253651  0.00026669  0.74977917  1
  Si  Si36  1  0.95840214  0.34147128  0.58515289  1
  Si  Si37  1  0.37968151  0.04238785  0.58493045  1
  Si  Si38  1  0.66529977  0.62165309  0.58471672  1
  Si  Si39  1  0.95840214  0.61692986  0.08515289  1
  Si  Si40  1  0.66529977  0.04364568  0.08471672  1
  Si  Si41  1  0.37968151  0.33729266  0.08493045  1
  Si  Si42  1  0.62633955  0.67606995  0.92056381  1
  Si  Si43  1  0.04599541  0.37639394  0.91574237  1
  Si  Si44  1  0.33264978  0.95439771  0.91813553  1
  Si  Si45  1  0.62633955  0.95027060  0.42056381  1
  Si  Si46  1  0.33264978  0.37825306  0.41813553  1
  Si  Si47  1  0.04599541  0.66960247  0.41574237  1
  O  O48  1  0.19784337  0.02988754  0.31077707  1
  O  O49  1  0.84042863  0.81859525  0.30588754  1
  O  O50  1  0.97925866  0.17817925  0.31416864  1
  O  O51  1  0.19784337  0.16795583  0.81077707  1
  O  O52  1  0.97925866  0.80107941  0.81416864  1
  O  O53  1  0.84042863  0.02183338  0.80588754  1
  O  O54  1  0.80022074  0.97847760  0.68776686  1
  O  O55  1  0.16923314  0.19770975  0.69128897  1
  O  O56  1  0.02147309  0.83637951  0.69542316  1
  O  O57  1  0.80022074  0.82174315  0.18776686  1
  O  O58  1  0.02147309  0.18509358  0.19542316  1
  O  O59  1  0.16923314  0.97152340  0.19128897  1
  O  O60  1  0.86092768  0.35377007  0.64523677  1
  O  O61  1  0.49799618  0.13563794  0.64445965  1
  O  O62  1  0.64293202  0.49603232  0.64128750  1
  O  O63  1  0.86092768  0.50715661  0.14523677  1
  O  O64  1  0.64293202  0.14689870  0.14128750  1
  O  O65  1  0.49799618  0.36235724  0.14445965  1
  O  O66  1  0.47169341  0.30826051  0.02488256  1
  O  O67  1  0.83652424  0.52855179  0.02494776  1
  O  O68  1  0.68834769  0.16201412  0.02457826  1
  O  O69  1  0.47169341  0.16343190  0.52488256  1
  O  O70  1  0.68834769  0.52633257  0.52457826  1
  O  O71  1  0.83652424  0.30797145  0.52494776  1
  O  O72  1  0.53421248  0.69214944  0.98129085  1
  O  O73  1  0.17318396  0.48019593  0.97263680  1
  O  O74  1  0.31274812  0.83691968  0.97702596  1
  O  O75  1  0.53421248  0.84206404  0.48129085  1
  O  O76  1  0.31274812  0.47582943  0.47702596  1
  O  O77  1  0.17318396  0.69298903  0.47263680  1
  O  O78  1  0.13102477  0.63720295  0.35478169  1
  O  O79  1  0.49610083  0.85251142  0.36252406  1
  O  O80  1  0.35250707  0.49098255  0.35684317  1
  O  O81  1  0.13102477  0.49382282  0.85478169  1
  O  O82  1  0.35250707  0.86152552  0.85684317  1
  O  O83  1  0.49610083  0.64359041  0.86252406  1
  O  O84  1  0.03396092  0.84227415  0.41175968  1
  O  O85  1  0.81781289  0.97937943  0.41342748  1
  O  O86  1  0.16330751  0.18778996  0.41517766  1
  O  O87  1  0.03396092  0.19168676  0.91175968  1
  O  O88  1  0.16330751  0.97551755  0.91517766  1
  O  O89  1  0.81781289  0.83843346  0.91342748  1
  O  O90  1  0.97351576  0.16512955  0.58701839  1
  O  O91  1  0.19379380  0.03503637  0.58792168  1
  O  O92  1  0.83478579  0.81317025  0.58661654  1
  O  O93  1  0.97351576  0.80838622  0.08701839  1
  O  O94  1  0.83478579  0.02161554  0.08661654  1
  O  O95  1  0.19379380  0.15875742  0.08792168  1
  O  O96  1  0.69330803  0.17010952  0.74833444  1
  O  O97  1  0.47684584  0.29977499  0.74572156  1
  O  O98  1  0.83016141  0.51519159  0.74660592  1
  O  O99  1  0.69330803  0.52319751  0.24833444  1
  O  O100  1  0.83016141  0.31496881  0.24660592  1
  O  O101  1  0.47684584  0.17706985  0.24572156  1
  O  O102  1  0.63809172  0.49848026  0.92099262  1
  O  O103  1  0.86130264  0.36984974  0.92086034  1
  O  O104  1  0.50105178  0.14904019  0.91933717  1
  O  O105  1  0.63809172  0.13961046  0.42099262  1
  O  O106  1  0.50105178  0.35201060  0.41933717  1
  O  O107  1  0.86130264  0.49145190  0.42086034  1
  O  O108  1  0.36393540  0.50841299  0.07961730  1
  O  O109  1  0.15096659  0.64689205  0.07952174  1
  O  O110  1  0.49490075  0.85626857  0.08146697  1
  O  O111  1  0.36393540  0.85552341  0.57961730  1
  O  O112  1  0.49490075  0.63863318  0.58146697  1
  O  O113  1  0.15096659  0.50407554  0.57952174  1
  O  O114  1  0.29979772  0.82669842  0.25471688  1
  O  O115  1  0.51963772  0.68822958  0.25380096  1
  O  O116  1  0.16975079  0.47412671  0.25265377  1
  O  O117  1  0.29979772  0.47310030  0.75471688  1
  O  O118  1  0.16975079  0.69562507  0.75265377  1
  O  O119  1  0.51963772  0.83140914  0.75380096  1
