# generated using pymatgen
data_Na14Mg5Ti3Si6(SO8)6
_symmetry_space_group_name_H-M   'P 1'
_cell_length_a   18.09678688
_cell_length_b   9.02212168
_cell_length_c   22.15540549
_cell_angle_alpha   90.16339275
_cell_angle_beta   89.88952863
_cell_angle_gamma   120.13275336
_symmetry_Int_Tables_number   1
_chemical_formula_structural   Na14Mg5Ti3Si6(SO8)6
_chemical_formula_sum   'Na42 Mg15 Ti9 Si18 S18 O144'
_cell_volume   3128.49980873
_cell_formula_units_Z   3
loop_
 _symmetry_equiv_pos_site_id
 _symmetry_equiv_pos_as_xyz
  1  'x, y, z'
loop_
 _atom_site_type_symbol
 _atom_site_label
 _atom_site_symmetry_multiplicity
 _atom_site_fract_x
 _atom_site_fract_y
 _atom_site_fract_z
 _atom_site_occupancy
  Na  Na0  1  0.19272613  0.35830153  0.24711206  1
  Na  Na1  1  0.68713553  0.35361551  0.24599004  1
  Na  Na2  1  0.99696921  0.64090673  0.25376245  1
  Na  Na3  1  0.49526827  0.63357796  0.24454809  1
  Na  Na4  1  0.31709192  0.63249957  0.74923673  1
  Na  Na5  1  0.81625530  0.62787927  0.73940568  1
  Na  Na6  1  0.18909302  0.02533290  0.74691215  1
  Na  Na7  1  0.69141805  0.02630907  0.74688390  1
  Na  Na8  1  0.15223526  0.32355201  0.57864536  1
  Na  Na9  1  0.66464805  0.34472639  0.57814533  1
  Na  Na10  1  0.01202821  0.70062747  0.58088598  1
  Na  Na11  1  0.52035698  0.70423185  0.58283431  1
  Na  Na12  1  0.32442507  0.97068562  0.59004764  1
  Na  Na13  1  0.82312616  0.95647007  0.58905594  1
  Na  Na14  1  0.15580782  0.97887523  0.07879673  1
  Na  Na15  1  0.64865922  0.96622526  0.07529340  1
  Na  Na16  1  0.82252629  0.67824255  0.08830555  1
  Na  Na17  1  0.01941487  0.33448282  0.08130183  1
  Na  Na18  1  0.52176102  0.34708045  0.08705494  1
  Na  Na19  1  0.49109975  0.67630127  0.92141874  1
  Na  Na20  1  0.99101276  0.67796637  0.91688831  1
  Na  Na21  1  0.84700365  0.03328959  0.90855278  1
  Na  Na22  1  0.16392608  0.28508006  0.90892934  1
  Na  Na23  1  0.66422956  0.28024968  0.91656401  1
  Na  Na24  1  0.49219344  0.30722841  0.41771838  1
  Na  Na25  1  0.98849391  0.30112304  0.42035341  1
  Na  Na26  1  0.16501342  0.05024011  0.41648120  1
  Na  Na27  1  0.66647269  0.05110114  0.41574143  1
  Na  Na28  1  0.34962177  0.66064047  0.40795316  1
  Na  Na29  1  0.84815489  0.65744175  0.41801098  1
  Na  Na30  1  0.00441491  0.99893937  0.50132196  1
  Na  Na31  1  0.51256552  0.01604757  0.49791146  1
  Na  Na32  1  0.00752002  0.00528779  0.99702524  1
  Na  Na33  1  0.50059484  0.99761116  0.00008744  1
  Na  Na34  1  0.33305194  0.30721409  0.82952601  1
  Na  Na35  1  0.82890542  0.31414252  0.82656536  1
  Na  Na36  1  0.32581536  0.32851777  0.32597856  1
  Na  Na37  1  0.82174920  0.32402507  0.32853254  1
  Na  Na38  1  0.18381155  0.67822123  0.16378711  1
  Na  Na39  1  0.66415609  0.66629007  0.16205214  1
  Na  Na40  1  0.16188050  0.66642138  0.66585193  1
  Na  Na41  1  0.67180759  0.66893058  0.66205808  1
  Mg  Mg42  1  0.00483884  0.00369758  0.34890160  1
  Mg  Mg43  1  0.50564249  0.00554695  0.34699981  1
  Mg  Mg44  1  0.00571559  0.00906378  0.84732702  1
  Mg  Mg45  1  0.50287706  0.00971064  0.85158211  1
  Mg  Mg46  1  0.32751557  0.31446018  0.68659309  1
  Mg  Mg47  1  0.82510624  0.32162444  0.68355129  1
  Mg  Mg48  1  0.32996521  0.33964547  0.18497507  1
  Mg  Mg49  1  0.82385630  0.32901845  0.18575616  1
  Mg  Mg50  1  0.81925921  0.31032600  0.98246739  1
  Mg  Mg51  1  0.32131513  0.32781310  0.48226898  1
  Mg  Mg52  1  0.82040221  0.34128004  0.48685910  1
  Mg  Mg53  1  0.17186597  0.67017169  0.01619865  1
  Mg  Mg54  1  0.65894409  0.66177218  0.01896955  1
  Mg  Mg55  1  0.16392732  0.66537050  0.51645565  1
  Mg  Mg56  1  0.67058660  0.66503515  0.51945355  1
  Ti  Ti57  1  0.99966557  0.00705619  0.64962314  1
  Ti  Ti58  1  0.50757549  0.02370950  0.65437305  1
  Ti  Ti59  1  0.00651355  0.99347718  0.15390094  1
  Ti  Ti60  1  0.50347350  0.97225307  0.14769608  1
  Ti  Ti61  1  0.32394849  0.32361823  0.98667319  1
  Ti  Ti62  1  0.17897587  0.67295477  0.30986286  1
  Ti  Ti63  1  0.67743318  0.66895898  0.30815826  1
  Ti  Ti64  1  0.17530722  0.68611321  0.80925983  1
  Ti  Ti65  1  0.67365838  0.68283148  0.80921443  1
  Si  Si66  1  0.15282048  0.99842252  0.25488951  1
  Si  Si67  1  0.65022077  0.99584462  0.25370561  1
  Si  Si68  1  0.35902423  0.71429946  0.25324685  1
  Si  Si69  1  0.85797930  0.71068870  0.25230537  1
  Si  Si70  1  0.14715504  0.30069860  0.75186956  1
  Si  Si71  1  0.64919489  0.30249829  0.75684300  1
  Si  Si72  1  0.36027903  0.01084142  0.75188941  1
  Si  Si73  1  0.85975217  0.01381950  0.75408521  1
  Si  Si74  1  0.18335190  0.03018228  0.58317966  1
  Si  Si75  1  0.68128934  0.03046914  0.58342771  1
  Si  Si76  1  0.83645671  0.63424684  0.58493329  1
  Si  Si77  1  0.47612573  0.61698329  0.08503556  1
  Si  Si78  1  0.18292220  0.33845849  0.08707996  1
  Si  Si79  1  0.68258262  0.33367146  0.08380392  1
  Si  Si80  1  0.16683707  0.95938937  0.91986183  1
  Si  Si81  1  0.66529447  0.95972794  0.91750592  1
  Si  Si82  1  0.16483940  0.37232104  0.41809675  1
  Si  Si83  1  0.66358784  0.37044594  0.41719031  1
  S  S84  1  -0.00032157  0.29139781  0.25025383  1
  S  S85  1  0.49883130  0.29135113  0.25160024  1
  S  S86  1  0.00092775  0.70669424  0.75121316  1
  S  S87  1  0.50026416  0.70738300  0.75006757  1
  S  S88  1  0.47662046  0.33138826  0.58294486  1
  S  S89  1  0.97848234  0.33345442  0.58290277  1
  S  S90  1  0.33565496  0.62968063  0.58302486  1
  S  S91  1  0.97915116  0.62470107  0.08351522  1
  S  S92  1  0.33256692  0.04289803  0.08410356  1
  S  S93  1  0.83775143  0.04510872  0.08294158  1
  S  S94  1  0.31249312  0.66690794  0.91625509  1
  S  S95  1  0.81381631  0.66810597  0.91728637  1
  S  S96  1  0.02095560  0.37841977  0.91812113  1
  S  S97  1  0.51961340  0.37500528  0.91660660  1
  S  S98  1  0.31332088  0.95916757  0.41734719  1
  S  S99  1  0.81339015  0.95976270  0.41597316  1
  S  S100  1  0.02045024  0.66339394  0.41605515  1
  S  S101  1  0.51986673  0.66298449  0.41830813  1
  O  O102  1  0.10769932  0.03376697  0.31070996  1
  O  O103  1  0.60867799  0.03337585  0.31125423  1
  O  O104  1  0.40894750  0.79768177  0.31465949  1
  O  O105  1  0.91167068  0.79948601  0.31159930  1
  O  O106  1  0.48935309  0.19422629  0.30720548  1
  O  O107  1  0.98679639  0.19202991  0.30516175  1
  O  O108  1  0.11047659  0.18027579  0.81022712  1
  O  O109  1  0.60657000  0.17434314  0.81174926  1
  O  O110  1  0.48595838  0.78005493  0.80547863  1
  O  O111  1  0.98794489  0.78308141  0.80637814  1
  O  O112  1  0.41053970  0.00517886  0.80879679  1
  O  O113  1  0.90647645  0.01368669  0.81502857  1
  O  O114  1  0.40054132  0.96769707  0.68938672  1
  O  O115  1  0.90279202  0.97042879  0.69463257  1
  O  O116  1  0.08478054  0.20015659  0.69208388  1
  O  O117  1  0.58600278  0.20392695  0.69461376  1
  O  O118  1  0.01648995  0.81939507  0.69736614  1
  O  O119  1  0.51557327  0.82285936  0.69631737  1
  O  O120  1  0.40643467  0.84009249  0.19440791  1
  O  O121  1  0.90532868  0.83500725  0.19105222  1
  O  O122  1  0.01488712  0.20755008  0.19592909  1
  O  O123  1  0.51434396  0.21338001  0.19744794  1
  O  O124  1  0.08408578  0.96480083  0.19385612  1
  O  O125  1  0.58468372  0.95804074  0.19271847  1
  O  O126  1  0.43524947  0.35826623  0.63552628  1
  O  O127  1  0.93755988  0.35793458  0.63555720  1
  O  O128  1  0.24510357  0.11404233  0.64094386  1
  O  O129  1  0.74007088  0.10988786  0.64239386  1
  O  O130  1  0.32563359  0.52676893  0.63730437  1
  O  O131  1  0.82347157  0.51691892  0.64313715  1
  O  O132  1  0.43658960  0.49910155  0.14313404  1
  O  O133  1  0.93917927  0.51943482  0.13767012  1
  O  O134  1  0.31799605  0.12039748  0.13725808  1
  O  O135  1  0.82775499  0.13240928  0.13570076  1
  O  O136  1  0.23590227  0.35432823  0.14582916  1
  O  O137  1  0.74423227  0.37340487  0.14171243  1
  O  O138  1  0.22975314  0.29771665  0.02660323  1
  O  O139  1  0.71859635  0.28503416  0.02362447  1
  O  O140  1  0.41362721  0.51591788  0.02393065  1
  O  O141  1  0.92787395  0.54549172  0.02844017  1
  O  O142  1  0.34374522  0.15362662  0.02895251  1
  O  O143  1  0.85338379  0.14967163  0.02725213  1
  O  O144  1  0.22002377  0.14737579  0.52239257  1
  O  O145  1  0.71620595  0.14888074  0.52298456  1
  O  O146  1  0.34932421  0.55058556  0.52834164  1
  O  O147  1  0.86183000  0.56754004  0.52379014  1
  O  O148  1  0.42610686  0.30352301  0.52706204  1
  O  O149  1  0.92906222  0.30690349  0.52640559  1
  O  O150  1  0.27118615  0.68565195  0.96919090  1
  O  O151  1  0.77280783  0.69096706  0.97129942  1
  O  O152  1  0.07263128  0.45406688  0.97333833  1
  O  O153  1  0.57063078  0.44997684  0.97221904  1
  O  O154  1  0.15080129  0.84223174  0.97842095  1
  O  O155  1  0.65543582  0.84490598  0.97541343  1
  O  O156  1  0.27292489  0.85574140  0.47182028  1
  O  O157  1  0.77362857  0.85802654  0.47084822  1
  O  O158  1  0.15235529  0.46300500  0.47690800  1
  O  O159  1  0.64819400  0.45917141  0.47530960  1
  O  O160  1  0.07309631  0.69111732  0.47059930  1
  O  O161  1  0.57294820  0.68980812  0.47246342  1
  O  O162  1  0.06409839  0.64682590  0.36143610  1
  O  O163  1  0.56051780  0.64137422  0.36324353  1
  O  O164  1  0.25657371  0.87405368  0.36336028  1
  O  O165  1  0.75671695  0.87370335  0.36223604  1
  O  O166  1  0.17585506  0.50518232  0.35860395  1
  O  O167  1  0.67510058  0.50331191  0.35774523  1
  O  O168  1  0.06453261  0.48594835  0.86476670  1
  O  O169  1  0.56379823  0.48671479  0.86392214  1
  O  O170  1  0.17732373  0.85559082  0.85920478  1
  O  O171  1  0.67508555  0.84958249  0.85758421  1
  O  O172  1  0.25946578  0.64025414  0.86035505  1
  O  O173  1  0.75949856  0.64081063  0.86229165  1
  O  O174  1  0.00828244  0.81459617  0.41269718  1
  O  O175  1  0.50737623  0.81414574  0.41479903  1
  O  O176  1  0.39824586  0.97502688  0.41107302  1
  O  O177  1  0.89856458  0.97491354  0.40964323  1
  O  O178  1  0.07833286  0.18386066  0.41231102  1
  O  O179  1  0.57746976  0.18103015  0.41161772  1
  O  O180  1  0.00842974  0.20197565  0.91355825  1
  O  O181  1  0.50962140  0.20215071  0.91137020  1
  O  O182  1  0.08194821  0.98031501  0.91307022  1
  O  O183  1  0.57863315  0.97360517  0.91301697  1
  O  O184  1  0.40055545  0.81326985  0.91079143  1
  O  O185  1  0.90027434  0.82260279  0.91207839  1
  O  O186  1  0.48391271  0.17068785  0.58898023  1
  O  O187  1  0.98724731  0.17482863  0.58785973  1
  O  O188  1  0.08726751  0.01414396  0.59336832  1
  O  O189  1  0.58171850  0.01306061  0.59429578  1
  O  O190  1  0.41256010  0.80519765  0.58696246  1
  O  O191  1  0.92214755  0.83307664  0.59393565  1
  O  O192  1  0.48473615  0.81174429  0.08709144  1
  O  O193  1  0.98530350  0.79963014  0.08828224  1
  O  O194  1  0.41225291  0.03495622  0.08631252  1
  O  O195  1  0.91521190  0.02461079  0.08830678  1
  O  O196  1  0.08554384  0.15238450  0.08996654  1
  O  O197  1  0.58385225  0.16079514  0.09508184  1
  O  O198  1  0.34130657  0.16518923  0.74655512  1
  O  O199  1  0.84126932  0.16793811  0.74584182  1
  O  O200  1  0.24446630  0.33852628  0.74185386  1
  O  O201  1  0.74395448  0.33209013  0.74716124  1
  O  O202  1  0.42490745  0.53877836  0.73936954  1
  O  O203  1  0.92682272  0.53605823  0.74323331  1
  O  O204  1  0.34460648  0.52297942  0.24753431  1
  O  O205  1  0.84917589  0.52418966  0.24451426  1
  O  O206  1  0.42575793  0.31793235  0.24628868  1
  O  O207  1  0.92766764  0.32023977  0.24036565  1
  O  O208  1  0.24450664  0.16042994  0.24302360  1
  O  O209  1  0.74319309  0.15947614  0.24344541  1
  O  O210  1  0.31811256  0.50434144  0.91927706  1
  O  O211  1  0.82454755  0.51484461  0.92098228  1
  O  O212  1  0.43441244  0.36465553  0.92106955  1
  O  O213  1  0.93558836  0.36604596  0.92334112  1
  O  O214  1  0.25419043  0.15596873  0.92370958  1
  O  O215  1  0.75453482  0.14581705  0.91429689  1
  O  O216  1  0.32356365  0.13300766  0.42053542  1
  O  O217  1  0.82440702  0.13419700  0.41947539  1
  O  O218  1  0.25334559  0.36372849  0.41520699  1
  O  O219  1  0.75189762  0.36122351  0.41466953  1
  O  O220  1  0.43406198  0.50339468  0.42384117  1
  O  O221  1  0.93630637  0.50217067  0.41964960  1
  O  O222  1  0.16490431  0.49418935  0.07589797  1
  O  O223  1  0.67354964  0.50483288  0.07657044  1
  O  O224  1  0.06703257  0.65349642  0.07959123  1
  O  O225  1  0.57332169  0.65503170  0.07820157  1
  O  O226  1  0.25616747  0.87084020  0.07602323  1
  O  O227  1  0.76106506  0.87206774  0.07788486  1
  O  O228  1  0.16942009  0.83522783  0.57721090  1
  O  O229  1  0.66387663  0.83532634  0.57632544  1
  O  O230  1  0.25761679  0.64587238  0.57823414  1
  O  O231  1  0.75159217  0.65463688  0.57978175  1
  O  O232  1  0.06683608  0.48432466  0.57877436  1
  O  O233  1  0.56401434  0.48054538  0.57879037  1
  O  O234  1  0.14790348  0.80938159  0.25814559  1
  O  O235  1  0.64853760  0.80972156  0.25966861  1
  O  O236  1  0.25878633  0.68958245  0.25612294  1
  O  O237  1  0.75906809  0.68597151  0.25440680  1
  O  O238  1  0.08022040  0.46473771  0.25375176  1
  O  O239  1  0.57964373  0.46906836  0.25600167  1
  O  O240  1  0.15481045  0.49297135  0.76009371  1
  O  O241  1  0.65491326  0.49133685  0.76007650  1
  O  O242  1  0.08191766  0.69779952  0.75555288  1
  O  O243  1  0.58002226  0.69605528  0.75372265  1
  O  O244  1  0.25904308  0.82687931  0.75565408  1
  O  O245  1  0.75939865  0.82710765  0.75709816  1
