# generated using pymatgen
data_Cs4Na2MgV2O8
_symmetry_space_group_name_H-M   'P 1'
_cell_length_a   6.34447875
_cell_length_b   6.78249974
_cell_length_c   8.26413902
_cell_angle_alpha   86.68567175
_cell_angle_beta   90.82992976
_cell_angle_gamma   92.55673710
_symmetry_Int_Tables_number   1
_chemical_formula_structural   Cs4Na2MgV2O8
_chemical_formula_sum   'Cs4 Na2 Mg1 V2 O8'
_cell_volume   354.64418977
_cell_formula_units_Z   1
loop_
 _symmetry_equiv_pos_site_id
 _symmetry_equiv_pos_as_xyz
  1  'x, y, z'
loop_
 _atom_site_type_symbol
 _atom_site_label
 _atom_site_symmetry_multiplicity
 _atom_site_fract_x
 _atom_site_fract_y
 _atom_site_fract_z
 _atom_site_occupancy
  Cs  Cs0  1  0.77427838  0.29684765  0.51482345  1
  Cs  Cs1  1  0.22572162  0.70315235  0.48517655  1
  Cs  Cs2  1  0.69625286  0.86611767  0.20565757  1
  Cs  Cs3  1  0.30374714  0.13388233  0.79434243  1
  Na  Na4  1  0.09927902  0.73215492  0.98353515  1
  Na  Na5  1  0.90072098  0.26784508  0.01646485  1
  Mg  Mg6  1  0.50000000  0.50000000  0.00000000  1
  V  V7  1  0.29749076  0.23050068  0.23897131  1
  V  V8  1  0.70250924  0.76949932  0.76102869  1
  O  O9  1  0.15533357  0.01851828  0.16738717  1
  O  O10  1  0.78262312  0.54732405  0.89137860  1
  O  O11  1  0.84466643  0.98148172  0.83261283  1
  O  O12  1  0.21737688  0.45267595  0.10862140  1
  O  O13  1  0.42389309  0.72995843  0.84539940  1
  O  O14  1  0.70392578  0.73521261  0.55016483  1
  O  O15  1  0.57610691  0.27004157  0.15460060  1
  O  O16  1  0.29607422  0.26478739  0.44983517  1
