# generated using pymatgen
data_Mn(HO)2
_symmetry_space_group_name_H-M   'P 1'
_cell_length_a   3.31717326
_cell_length_b   9.25299269
_cell_length_c   3.31452325
_cell_angle_alpha   90.10072750
_cell_angle_beta   60.00327512
_cell_angle_gamma   90.01551495
_symmetry_Int_Tables_number   1
_chemical_formula_structural   Mn(HO)2
_chemical_formula_sum   'Mn2 H4 O4'
_cell_volume   88.10805818
_cell_formula_units_Z   2
loop_
 _symmetry_equiv_pos_site_id
 _symmetry_equiv_pos_as_xyz
  1  'x, y, z'
loop_
 _atom_site_type_symbol
 _atom_site_label
 _atom_site_symmetry_multiplicity
 _atom_site_fract_x
 _atom_site_fract_y
 _atom_site_fract_z
 _atom_site_occupancy
  Mn  Mn0  1  0.91278469  0.98894769  0.01101120  1
  Mn  Mn1  1  0.91301095  0.48879505  0.01087477  1
  H  H2  1  0.57918925  0.26855287  0.67933320  1
  H  H3  1  0.57907987  0.76854679  0.67940136  1
  H  H4  1  0.24476182  0.20943049  0.34806399  1
  H  H5  1  0.24489867  0.70943697  0.34806329  1
  O  O6  1  0.57900008  0.37306851  0.67815757  1
  O  O7  1  0.57882584  0.87305960  0.67828476  1
  O  O8  1  0.24548751  0.10488510  0.34598892  1
  O  O9  1  0.24568433  0.60488093  0.34586394  1
