# generated using pymatgen
data_Na4CaY(PO4)3
_symmetry_space_group_name_H-M   'P 1'
_cell_length_a   9.49145284
_cell_length_b   9.49145249
_cell_length_c   22.68326270
_cell_angle_alpha   90.00000000
_cell_angle_beta   90.00000000
_cell_angle_gamma   120.00000123
_symmetry_Int_Tables_number   1
_chemical_formula_structural   Na4CaY(PO4)3
_chemical_formula_sum   'Na24 Ca6 Y6 P18 O72'
_cell_volume   1769.70762057
_cell_formula_units_Z   6
loop_
 _symmetry_equiv_pos_site_id
 _symmetry_equiv_pos_as_xyz
  1  'x, y, z'
loop_
 _atom_site_type_symbol
 _atom_site_label
 _atom_site_symmetry_multiplicity
 _atom_site_fract_x
 _atom_site_fract_y
 _atom_site_fract_z
 _atom_site_occupancy
  Na  Na0  1  0.63983331  0.01093420  0.24591474  1
  Na  Na1  1  0.37110089  0.36016669  0.24591474  1
  Na  Na2  1  0.98906580  0.62889911  0.24591474  1
  Na  Na3  1  0.63983331  0.62889911  0.74591474  1
  Na  Na4  1  0.98906580  0.36016669  0.74591474  1
  Na  Na5  1  0.37110089  0.01093420  0.74591474  1
  Na  Na6  1  0.30650031  0.34426720  0.57924774  1
  Na  Na7  1  0.03776789  0.69349969  0.57924774  1
  Na  Na8  1  0.65573280  0.96223211  0.57924774  1
  Na  Na9  1  0.30650031  0.96223211  0.07924774  1
  Na  Na10  1  0.65573280  0.69349969  0.07924774  1
  Na  Na11  1  0.03776789  0.34426720  0.07924774  1
  Na  Na12  1  0.97316631  0.67760120  0.91258174  1
  Na  Na13  1  0.70443389  0.02683369  0.91258174  1
  Na  Na14  1  0.32239880  0.29556611  0.91258174  1
  Na  Na15  1  0.97316631  0.29556611  0.41258174  1
  Na  Na16  1  0.32239880  0.02683369  0.41258174  1
  Na  Na17  1  0.70443389  0.67760120  0.41258174  1
  Na  Na18  1  -0.00000000  -0.00000000  0.49576789  1
  Na  Na19  1  -0.00000000  -0.00000000  0.99576789  1
  Na  Na20  1  0.66666700  0.33333300  0.82910089  1
  Na  Na21  1  0.66666700  0.33333300  0.32910089  1
  Na  Na22  1  0.33333300  0.66666700  0.16243489  1
  Na  Na23  1  0.33333300  0.66666700  0.66243489  1
  Ca  Ca24  1  -0.00000000  -0.00000000  0.34638169  1
  Ca  Ca25  1  -0.00000000  -0.00000000  0.84638169  1
  Ca  Ca26  1  0.66666700  0.33333300  0.67971469  1
  Ca  Ca27  1  0.66666700  0.33333300  0.17971469  1
  Ca  Ca28  1  0.33333300  0.66666700  0.01304869  1
  Ca  Ca29  1  0.33333300  0.66666700  0.51304869  1
  Y  Y30  1  -0.00000000  -0.00000000  0.65258985  1
  Y  Y31  1  -0.00000000  -0.00000000  0.15258985  1
  Y  Y32  1  0.66666700  0.33333300  0.98592285  1
  Y  Y33  1  0.66666700  0.33333300  0.48592285  1
  Y  Y34  1  0.33333300  0.66666700  0.31925685  1
  Y  Y35  1  0.33333300  0.66666700  0.81925685  1
  P  P36  1  0.30838617  0.99693801  0.25159801  1
  P  P37  1  0.68855184  0.69161383  0.25159801  1
  P  P38  1  0.00306199  0.31144816  0.25159801  1
  P  P39  1  0.30838617  0.31144816  0.75159801  1
  P  P40  1  0.00306199  0.69161383  0.75159801  1
  P  P41  1  0.68855184  0.99693801  0.75159801  1
  P  P42  1  0.97505317  0.33027101  0.58493101  1
  P  P43  1  0.35521884  0.02494683  0.58493101  1
  P  P44  1  0.66972899  0.64478116  0.58493101  1
  P  P45  1  0.97505317  0.64478116  0.08493101  1
  P  P46  1  0.66972899  0.02494683  0.08493101  1
  P  P47  1  0.35521884  0.33027101  0.08493101  1
  P  P48  1  0.64171917  0.66360501  0.91826501  1
  P  P49  1  0.02188484  0.35828083  0.91826501  1
  P  P50  1  0.33639499  0.97811516  0.91826501  1
  P  P51  1  0.64171917  0.97811516  0.41826501  1
  P  P52  1  0.33639499  0.35828083  0.41826501  1
  P  P53  1  0.02188484  0.66360501  0.41826501  1
  O  O54  1  0.22594904  0.01024267  0.30779386  1
  O  O55  1  0.78429362  0.77405096  0.30779386  1
  O  O56  1  0.98975733  0.21570638  0.30779386  1
  O  O57  1  0.22594904  0.21570638  0.80779386  1
  O  O58  1  0.98975733  0.77405096  0.80779386  1
  O  O59  1  0.78429362  0.01024267  0.80779386  1
  O  O60  1  0.78092945  0.98420411  0.69655182  1
  O  O61  1  0.20327465  0.21907055  0.69655182  1
  O  O62  1  0.01579589  0.79672535  0.69655182  1
  O  O63  1  0.78092945  0.79672535  0.19655182  1
  O  O64  1  0.01579589  0.21907055  0.19655182  1
  O  O65  1  0.20327465  0.98420411  0.19655182  1
  O  O66  1  0.89261604  0.34357567  0.64112686  1
  O  O67  1  0.45096062  0.10738396  0.64112686  1
  O  O68  1  0.65642433  0.54903938  0.64112686  1
  O  O69  1  0.89261604  0.54903938  0.14112686  1
  O  O70  1  0.65642433  0.10738396  0.14112686  1
  O  O71  1  0.45096062  0.34357567  0.14112686  1
  O  O72  1  0.44759645  0.31753711  0.02988482  1
  O  O73  1  0.86994165  0.55240355  0.02988482  1
  O  O74  1  0.68246289  0.13005835  0.02988482  1
  O  O75  1  0.44759645  0.13005835  0.52988482  1
  O  O76  1  0.68246289  0.55240355  0.52988482  1
  O  O77  1  0.86994165  0.31753711  0.52988482  1
  O  O78  1  0.55928204  0.67690967  0.97446086  1
  O  O79  1  0.11762662  0.44071796  0.97446086  1
  O  O80  1  0.32309033  0.88237338  0.97446086  1
  O  O81  1  0.55928204  0.88237338  0.47446086  1
  O  O82  1  0.32309033  0.44071796  0.47446086  1
  O  O83  1  0.11762662  0.67690967  0.47446086  1
  O  O84  1  0.11426245  0.65087111  0.36321882  1
  O  O85  1  0.53660765  0.88573755  0.36321882  1
  O  O86  1  0.34912889  0.46339235  0.36321882  1
  O  O87  1  0.11426245  0.46339235  0.86321882  1
  O  O88  1  0.34912889  0.88573755  0.86321882  1
  O  O89  1  0.53660765  0.65087111  0.86321882  1
  O  O90  1  -0.00128887  0.81408986  0.41537547  1
  O  O91  1  0.81537873  0.00128887  0.41537547  1
  O  O92  1  0.18591014  0.18462127  0.41537547  1
  O  O93  1  -0.00128887  0.18462127  0.91537547  1
  O  O94  1  0.18591014  0.00128887  0.91537547  1
  O  O95  1  0.81537873  0.81408986  0.91537547  1
  O  O96  1  0.98834846  0.17187614  0.58451961  1
  O  O97  1  0.18352767  0.01165154  0.58451961  1
  O  O98  1  0.82812386  0.81647233  0.58451961  1
  O  O99  1  0.98834846  0.81647233  0.08451961  1
  O  O100  1  0.82812386  0.01165154  0.08451961  1
  O  O101  1  0.18352767  0.17187614  0.08451961  1
  O  O102  1  0.66537813  0.14742286  0.74870847  1
  O  O103  1  0.48204573  0.33462187  0.74870847  1
  O  O104  1  0.85257714  0.51795427  0.74870847  1
  O  O105  1  0.66537813  0.51795427  0.24870847  1
  O  O106  1  0.85257714  0.33462187  0.24870847  1
  O  O107  1  0.48204573  0.14742286  0.24870847  1
  O  O108  1  0.65501546  0.50520914  0.91785261  1
  O  O109  1  0.85019467  0.34498454  0.91785261  1
  O  O110  1  0.49479086  0.14980533  0.91785261  1
  O  O111  1  0.65501546  0.14980533  0.41785261  1
  O  O112  1  0.49479086  0.34498454  0.41785261  1
  O  O113  1  0.85019467  0.50520914  0.41785261  1
  O  O114  1  0.33204413  0.48075686  0.08204247  1
  O  O115  1  0.14871173  0.66795587  0.08204247  1
  O  O116  1  0.51924314  0.85128827  0.08204247  1
  O  O117  1  0.33204413  0.85128827  0.58204247  1
  O  O118  1  0.51924314  0.66795587  0.58204247  1
  O  O119  1  0.14871173  0.48075686  0.58204247  1
  O  O120  1  0.32168146  0.83854314  0.25118661  1
  O  O121  1  0.51686067  0.67831854  0.25118661  1
  O  O122  1  0.16145686  0.48313933  0.25118661  1
  O  O123  1  0.32168146  0.48313933  0.75118661  1
  O  O124  1  0.16145686  0.67831854  0.75118661  1
  O  O125  1  0.51686067  0.83854314  0.75118661  1
