# generated using pymatgen
data_Na4MgZrSi2SO12
_symmetry_space_group_name_H-M   'P 1'
_cell_length_a   9.23174949
_cell_length_b   9.21782314
_cell_length_c   22.54211336
_cell_angle_alpha   90.01598100
_cell_angle_beta   90.00000000
_cell_angle_gamma   120.04998971
_symmetry_Int_Tables_number   1
_chemical_formula_structural   Na4MgZrSi2SO12
_chemical_formula_sum   'Na24 Mg6 Zr6 Si12 S6 O72'
_cell_volume   1660.42259085
_cell_formula_units_Z   6
loop_
 _symmetry_equiv_pos_site_id
 _symmetry_equiv_pos_as_xyz
  1  'x, y, z'
loop_
 _atom_site_type_symbol
 _atom_site_label
 _atom_site_symmetry_multiplicity
 _atom_site_fract_x
 _atom_site_fract_y
 _atom_site_fract_z
 _atom_site_occupancy
  Na  Na0  1  0.64267282  0.02403886  0.25424446  1
  Na  Na1  1  0.36005557  0.34925196  0.24432248  1
  Na  Na2  1  0.99311206  0.62024450  0.24251876  1
  Na  Na3  1  0.62713244  0.62024450  0.74251876  1
  Na  Na4  1  0.98919639  0.34925196  0.74432248  1
  Na  Na5  1  0.38136604  0.02403886  0.75424446  1
  Na  Na6  1  0.30933982  0.35737186  0.58757746  1
  Na  Na7  1  0.02672257  0.68258496  0.57765548  1
  Na  Na8  1  0.65977906  0.95357750  0.57585176  1
  Na  Na9  1  0.29379944  0.95357750  0.07585176  1
  Na  Na10  1  0.65586339  0.68258496  0.07765548  1
  Na  Na11  1  0.04803304  0.35737186  0.08757746  1
  Na  Na12  1  0.97600582  0.69070586  0.92091146  1
  Na  Na13  1  0.69338857  0.01591896  0.91098948  1
  Na  Na14  1  0.32644506  0.28691150  0.90918576  1
  Na  Na15  1  0.96046544  0.28691150  0.40918576  1
  Na  Na16  1  0.32252939  0.01591896  0.41098948  1
  Na  Na17  1  0.71469904  0.69070586  0.42091146  1
  Na  Na18  1  0.98010440  0.98499762  0.49410865  1
  Na  Na19  1  0.00489322  0.98499762  0.99410865  1
  Na  Na20  1  0.64677140  0.31833062  0.82744165  1
  Na  Na21  1  0.67156022  0.31833062  0.32744165  1
  Na  Na22  1  0.31343740  0.65166462  0.16077565  1
  Na  Na23  1  0.33822622  0.65166462  0.66077565  1
  Mg  Mg24  1  0.00000311  0.00279601  0.35009662  1
  Mg  Mg25  1  0.00279289  0.00279601  0.85009662  1
  Mg  Mg26  1  0.66667011  0.33612901  0.68342962  1
  Mg  Mg27  1  0.66945989  0.33612901  0.18342962  1
  Mg  Mg28  1  0.33333611  0.66946301  0.01676362  1
  Mg  Mg29  1  0.33612589  0.66946301  0.51676362  1
  Zr  Zr30  1  0.98761942  0.00630919  0.64890843  1
  Zr  Zr31  1  0.01868977  0.00630919  0.14890843  1
  Zr  Zr32  1  0.65428642  0.33964219  0.98224143  1
  Zr  Zr33  1  0.68535677  0.33964219  0.48224143  1
  Zr  Zr34  1  0.32095242  0.67297619  0.31557543  1
  Zr  Zr35  1  0.35202277  0.67297619  0.81557543  1
  Si  Si36  1  0.30223328  0.00778276  0.25363160  1
  Si  Si37  1  0.99699897  0.29334860  0.25254595  1
  Si  Si38  1  0.29634963  0.29334860  0.75254595  1
  Si  Si39  1  0.70554948  0.00778276  0.75363160  1
  Si  Si40  1  0.96890028  0.34111576  0.58696460  1
  Si  Si41  1  0.66366597  0.62668160  0.58587895  1
  Si  Si42  1  0.96301663  0.62668160  0.08587895  1
  Si  Si43  1  0.37221648  0.34111576  0.08696460  1
  Si  Si44  1  0.63556628  0.67444976  0.92029860  1
  Si  Si45  1  0.33033197  0.96001560  0.91921295  1
  Si  Si46  1  0.62968263  0.96001560  0.41921295  1
  Si  Si47  1  0.03888248  0.67444976  0.42029860  1
  S  S48  1  0.70668843  0.70611781  0.25116815  1
  S  S49  1  0.99942938  0.70611781  0.75116815  1
  S  S50  1  0.37335543  0.03945081  0.58450115  1
  S  S51  1  0.66609638  0.03945081  0.08450115  1
  S  S52  1  0.04002143  0.37278481  0.91783515  1
  S  S53  1  0.33276238  0.37278481  0.41783515  1
  O  O54  1  0.21046165  0.03073659  0.31042334  1
  O  O55  1  0.81051153  0.78795615  0.30383839  1
  O  O56  1  0.96835723  0.17767875  0.30985098  1
  O  O57  1  0.20932153  0.17767875  0.80985098  1
  O  O58  1  0.97744462  0.78795615  0.80383839  1
  O  O59  1  0.82027494  0.03073659  0.81042334  1
  O  O60  1  0.78727049  0.96594221  0.69383900  1
  O  O61  1  0.17784924  0.20204342  0.69252903  1
  O  O62  1  0.02942467  0.81217438  0.69695008  1
  O  O63  1  0.78274971  0.81217438  0.19695008  1
  O  O64  1  0.02419418  0.20204342  0.19252903  1
  O  O65  1  0.17867172  0.96594221  0.19383900  1
  O  O66  1  0.87712865  0.36406959  0.64375634  1
  O  O67  1  0.47717853  0.12128915  0.63717139  1
  O  O68  1  0.63502423  0.51101175  0.64318398  1
  O  O69  1  0.87598853  0.51101175  0.14318398  1
  O  O70  1  0.64411162  0.12128915  0.13717139  1
  O  O71  1  0.48694194  0.36406959  0.14375634  1
  O  O72  1  0.45393749  0.29927521  0.02717200  1
  O  O73  1  0.84451624  0.53537642  0.02586203  1
  O  O74  1  0.69609167  0.14550738  0.03028308  1
  O  O75  1  0.44941671  0.14550738  0.53028308  1
  O  O76  1  0.69086118  0.53537642  0.52586203  1
  O  O77  1  0.84533872  0.29927521  0.52717200  1
  O  O78  1  0.54379465  0.69740359  0.97709034  1
  O  O79  1  0.14384453  0.45462315  0.97050539  1
  O  O80  1  0.30169023  0.84434575  0.97651798  1
  O  O81  1  0.54265453  0.84434575  0.47651798  1
  O  O82  1  0.31077762  0.45462315  0.47050539  1
  O  O83  1  0.15360794  0.69740359  0.47709034  1
  O  O84  1  0.12060349  0.63260921  0.36050600  1
  O  O85  1  0.51118224  0.86871042  0.35919603  1
  O  O86  1  0.36275767  0.47884138  0.36361708  1
  O  O87  1  0.11608271  0.47884138  0.86361708  1
  O  O88  1  0.35752718  0.86871042  0.85919603  1
  O  O89  1  0.51200472  0.63260921  0.86050600  1
  O  O90  1  0.01631454  0.83698451  0.41162818  1
  O  O91  1  0.81823398  0.98881413  0.41259328  1
  O  O92  1  0.18301020  0.20540914  0.41192257  1
  O  O93  1  0.02239893  0.20540914  0.91192257  1
  O  O94  1  0.17058015  0.98881413  0.91259328  1
  O  O95  1  0.82066997  0.83698451  0.91162818  1
  O  O96  1  0.98359308  0.16632535  0.58734426  1
  O  O97  1  0.20268573  0.02031516  0.58945935  1
  O  O98  1  0.84470399  0.81073292  0.58807644  1
  O  O99  1  0.96602893  0.81073292  0.08807644  1
  O  O100  1  0.81762943  0.02031516  0.08945935  1
  O  O101  1  0.18273227  0.16632535  0.08734426  1
  O  O102  1  0.68298154  0.17031751  0.74496118  1
  O  O103  1  0.48490098  0.32214713  0.74592628  1
  O  O104  1  0.84967720  0.53874214  0.74525557  1
  O  O105  1  0.68906593  0.53874214  0.24525557  1
  O  O106  1  0.83724715  0.32214713  0.24592628  1
  O  O107  1  0.48733697  0.17031751  0.24496118  1
  O  O108  1  0.65026008  0.49965835  0.92067726  1
  O  O109  1  0.86935273  0.35364816  0.92279235  1
  O  O110  1  0.51137099  0.14406592  0.92140944  1
  O  O111  1  0.63269593  0.14406592  0.42140944  1
  O  O112  1  0.48429643  0.35364816  0.42279235  1
  O  O113  1  0.84939927  0.49965835  0.42067726  1
  O  O114  1  0.34964754  0.50365151  0.07829518  1
  O  O115  1  0.15156698  0.65548113  0.07926028  1
  O  O116  1  0.51634320  0.87207614  0.07858957  1
  O  O117  1  0.35573193  0.87207614  0.57858957  1
  O  O118  1  0.50391315  0.65548113  0.57926028  1
  O  O119  1  0.15400297  0.50365151  0.57829518  1
  O  O120  1  0.31692608  0.83299235  0.25401126  1
  O  O121  1  0.53601873  0.68698216  0.25612635  1
  O  O122  1  0.17803699  0.47739992  0.25474344  1
  O  O123  1  0.29936193  0.47739992  0.75474344  1
  O  O124  1  0.15096243  0.68698216  0.75612635  1
  O  O125  1  0.51606527  0.83299235  0.75401126  1
