# generated using pymatgen
data_Na2Hf8Si5S7O48
_symmetry_space_group_name_H-M   'P 1'
_cell_length_a   17.91904501
_cell_length_b   8.97006032
_cell_length_c   23.32183376
_cell_angle_alpha   89.93513714
_cell_angle_beta   90.07501950
_cell_angle_gamma   120.12169137
_symmetry_Int_Tables_number   1
_chemical_formula_structural   Na2Hf8Si5S7O48
_chemical_formula_sum   'Na6 Hf24 Si15 S21 O144'
_cell_volume   3242.41989425
_cell_formula_units_Z   3
loop_
 _symmetry_equiv_pos_site_id
 _symmetry_equiv_pos_as_xyz
  1  'x, y, z'
loop_
 _atom_site_type_symbol
 _atom_site_label
 _atom_site_symmetry_multiplicity
 _atom_site_fract_x
 _atom_site_fract_y
 _atom_site_fract_z
 _atom_site_occupancy
  Na  Na0  1  0.99466344  0.99938008  0.49891188  1
  Na  Na1  1  0.49383363  0.99203584  0.99307719  1
  Na  Na2  1  0.34214139  0.34993872  0.83538676  1
  Na  Na3  1  0.83359197  0.34245731  0.82934514  1
  Na  Na4  1  0.33614652  0.32872659  0.33105611  1
  Na  Na5  1  0.83623690  0.33263928  0.33989659  1
  Hf  Hf6  1  0.00114089  0.99044247  0.35645759  1
  Hf  Hf7  1  0.49844322  0.00503692  0.35754972  1
  Hf  Hf8  1  0.99756641  0.99124364  0.85704505  1
  Hf  Hf9  1  0.49952173  0.00067512  0.85230052  1
  Hf  Hf10  1  0.99979565  0.99685805  0.64764307  1
  Hf  Hf11  1  0.50295452  0.99369326  0.64768814  1
  Hf  Hf12  1  0.00255452  0.99874808  0.14351302  1
  Hf  Hf13  1  0.49862830  0.00240415  0.14658629  1
  Hf  Hf14  1  0.33774602  0.35129951  0.68651874  1
  Hf  Hf15  1  0.83847480  0.34537026  0.69012828  1
  Hf  Hf16  1  0.33960222  0.33153762  0.18936336  1
  Hf  Hf17  1  0.83232797  0.32370354  0.18371214  1
  Hf  Hf18  1  0.34197235  0.35590110  0.97611191  1
  Hf  Hf19  1  0.83856928  0.32539586  0.97825008  1
  Hf  Hf20  1  0.33963802  0.35208458  0.48144485  1
  Hf  Hf21  1  0.84053709  0.32563879  0.47820140  1
  Hf  Hf22  1  0.16869948  0.65574939  0.01640207  1
  Hf  Hf23  1  0.65994826  0.66226327  0.02469427  1
  Hf  Hf24  1  0.16060109  0.65987734  0.52727787  1
  Hf  Hf25  1  0.66776759  0.68251528  0.51841973  1
  Hf  Hf26  1  0.16048685  0.67422212  0.31072365  1
  Hf  Hf27  1  0.66077613  0.66542112  0.31356311  1
  Hf  Hf28  1  0.16236118  0.65668993  0.81234644  1
  Hf  Hf29  1  0.65554099  0.64453903  0.80731941  1
  Si  Si30  1  0.14473474  0.00717843  0.24959621  1
  Si  Si31  1  0.50288482  0.29089159  0.25070717  1
  Si  Si32  1  0.64440513  0.28224636  0.74911200  1
  Si  Si33  1  0.00276215  0.71421116  0.75083995  1
  Si  Si34  1  0.49920887  0.71264068  0.75154441  1
  Si  Si35  1  0.97597774  0.32408262  0.58524251  1
  Si  Si36  1  0.33515338  0.63192752  0.58353961  1
  Si  Si37  1  0.47670105  0.62715555  0.08466529  1
  Si  Si38  1  0.83403208  0.03896289  0.08274617  1
  Si  Si39  1  0.31306172  0.67067782  0.91443713  1
  Si  Si40  1  0.02210735  0.37490666  0.91543721  1
  Si  Si41  1  0.52362147  0.37282802  0.91753352  1
  Si  Si42  1  0.81125662  0.95466850  0.41455098  1
  Si  Si43  1  0.02285381  0.66563983  0.41819335  1
  Si  Si44  1  0.52068005  0.66688868  0.41606350  1
  S  S45  1  0.64457391  0.00296360  0.25012577  1
  S  S46  1  0.35562714  0.71151550  0.25110934  1
  S  S47  1  0.85554565  0.70999676  0.24935267  1
  S  S48  1  0.99945403  0.28765675  0.24986133  1
  S  S49  1  0.14404068  0.28506732  0.75030099  1
  S  S50  1  0.35441082  0.00009914  0.74923050  1
  S  S51  1  0.85621110  -0.00044717  0.75107450  1
  S  S52  1  0.47844663  0.33239992  0.58317930  1
  S  S53  1  0.18956696  0.04686190  0.58333328  1
  S  S54  1  0.69006101  0.04814795  0.58334249  1
  S  S55  1  0.83173719  0.62039093  0.58275647  1
  S  S56  1  0.97758130  0.62114423  0.08313045  1
  S  S57  1  0.33137668  0.04257270  0.08285803  1
  S  S58  1  0.19010623  0.33391072  0.08377667  1
  S  S59  1  0.68962752  0.33341423  0.08304638  1
  S  S60  1  0.80947572  0.66487045  0.91714505  1
  S  S61  1  0.16702849  0.95396962  0.91707319  1
  S  S62  1  0.66747733  0.95530495  0.91671183  1
  S  S63  1  0.30899839  0.95333780  0.41696947  1
  S  S64  1  0.16768943  0.37959517  0.41640751  1
  S  S65  1  0.66717794  0.38080147  0.41716172  1
  O  O66  1  0.09724044  0.03225074  0.30531380  1
  O  O67  1  0.60505913  0.03029577  0.30136170  1
  O  O68  1  0.41122299  0.79249542  0.30199353  1
  O  O69  1  0.91047531  0.78959068  0.30093214  1
  O  O70  1  0.48726593  0.16447749  0.30557095  1
  O  O71  1  0.98211204  0.18143584  0.30141187  1
  O  O72  1  0.10294019  0.17860835  0.80152742  1
  O  O73  1  0.59949614  0.16639690  0.80611846  1
  O  O74  1  0.47998318  0.79442119  0.80742058  1
  O  O75  1  0.98722395  0.80958200  0.80558442  1
  O  O76  1  0.40899982  0.03453294  0.80116088  1
  O  O77  1  0.91277108  0.03208247  0.80194345  1
  O  O78  1  0.39476576  0.97515786  0.69793876  1
  O  O79  1  0.89819438  0.97760256  0.69891138  1
  O  O80  1  0.09084040  0.20553421  0.69804560  1
  O  O81  1  0.58446324  0.19961620  0.69260978  1
  O  O82  1  0.01143521  0.83079181  0.69423403  1
  O  O83  1  0.51060462  0.82422279  0.69402884  1
  O  O84  1  0.39642559  0.81797929  0.19912931  1
  O  O85  1  0.89688059  0.81680222  0.19785985  1
  O  O86  1  0.01053553  0.20663493  0.19823427  1
  O  O87  1  0.51146107  0.19144070  0.19440661  1
  O  O88  1  0.08318611  0.97303410  0.19393893  1
  O  O89  1  0.59247121  0.97878969  0.19796112  1
  O  O90  1  0.43623416  0.35972373  0.63403745  1
  O  O91  1  0.92869073  0.35237043  0.63947093  1
  O  O92  1  0.24140266  0.12604701  0.63507748  1
  O  O93  1  0.74351638  0.12582229  0.63435228  1
  O  O94  1  0.31848475  0.49978320  0.63770534  1
  O  O95  1  0.81975219  0.51665680  0.63480704  1
  O  O96  1  0.42933626  0.50544045  0.13987523  1
  O  O97  1  0.93454134  0.51251702  0.13501931  1
  O  O98  1  0.31969638  0.12262427  0.13528512  1
  O  O99  1  0.82003158  0.13961870  0.13858458  1
  O  O100  1  0.24294003  0.36087615  0.13520188  1
  O  O101  1  0.74302623  0.35649451  0.13554653  1
  O  O102  1  0.22661173  0.30045767  0.03227061  1
  O  O103  1  0.72993788  0.30654668  0.03221621  1
  O  O104  1  0.41617081  0.53670985  0.02837116  1
  O  O105  1  0.92201554  0.54137348  0.03233545  1
  O  O106  1  0.34622525  0.15005063  0.03195928  1
  O  O107  1  0.84889758  0.17030197  0.02933639  1
  O  O108  1  0.22944398  0.15243190  0.53133630  1
  O  O109  1  0.72965127  0.15430307  0.53130830  1
  O  O110  1  0.34838993  0.53020941  0.52848542  1
  O  O111  1  0.84633813  0.54193466  0.53143668  1
  O  O112  1  0.42247194  0.30570694  0.53152912  1
  O  O113  1  0.91718697  0.29625478  0.52767907  1
  O  O114  1  0.26612609  0.69431401  0.97262917  1
  O  O115  1  0.77225103  0.69416211  0.96898343  1
  O  O116  1  0.07879239  0.46855277  0.97318424  1
  O  O117  1  0.58351536  0.47009491  0.97332190  1
  O  O118  1  0.15182289  0.84584059  0.96901137  1
  O  O119  1  0.65750075  0.85285435  0.96887489  1
  O  O120  1  0.27149515  0.84879675  0.46786058  1
  O  O121  1  0.76685288  0.83644615  0.47228279  1
  O  O122  1  0.15609632  0.46059927  0.46769214  1
  O  O123  1  0.65212686  0.45746937  0.46869137  1
  O  O124  1  0.08462612  0.69697502  0.47225297  1
  O  O125  1  0.57944785  0.68959100  0.47268522  1
  O  O126  1  0.06696158  0.63452805  0.36073263  1
  O  O127  1  0.56518188  0.63379945  0.36026161  1
  O  O128  1  0.25697676  0.87060404  0.36420726  1
  O  O129  1  0.75285815  0.86080689  0.35855924  1
  O  O130  1  0.18242675  0.48416903  0.36419575  1
  O  O131  1  0.68142103  0.48675280  0.36526277  1
  O  O132  1  0.06608477  0.49820680  0.86024482  1
  O  O133  1  0.56671990  0.49740515  0.86183559  1
  O  O134  1  0.18145662  0.87644586  0.86559335  1
  O  O135  1  0.68469340  0.88432769  0.86553004  1
  O  O136  1  0.25232300  0.64512020  0.85957019  1
  O  O137  1  0.75886026  0.64152748  0.86521335  1
  O  O138  1  0.01282091  0.83674751  0.40992277  1
  O  O139  1  0.51058955  0.83364684  0.40342605  1
  O  O140  1  0.39624492  0.97422150  0.40752752  1
  O  O141  1  0.90876290  0.98561112  0.40755194  1
  O  O142  1  0.08878201  0.20671783  0.40968455  1
  O  O143  1  0.58980358  0.20707192  0.40808358  1
  O  O144  1  0.01079179  0.18698463  0.90411131  1
  O  O145  1  0.51278639  0.18303645  0.91131441  1
  O  O146  1  0.08960450  0.97205819  0.90845900  1
  O  O147  1  0.59016041  0.97330990  0.91184569  1
  O  O148  1  0.40878597  0.83685836  0.91181845  1
  O  O149  1  0.89772010  0.81847175  0.90904481  1
  O  O150  1  0.48542821  0.17939248  0.59060569  1
  O  O151  1  0.98853520  0.15600138  0.59193067  1
  O  O152  1  0.10184012  0.02743009  0.58985867  1
  O  O153  1  0.60336534  0.02611210  0.58977752  1
  O  O154  1  0.41817063  0.81756089  0.59344573  1
  O  O155  1  0.90983802  0.79650080  0.59035971  1
  O  O156  1  0.48905984  0.82017003  0.09331254  1
  O  O157  1  0.98446801  0.79115346  0.09197824  1
  O  O158  1  0.40946791  0.02270472  0.09113443  1
  O  O159  1  0.91904416  0.02741195  0.09751396  1
  O  O160  1  0.10174042  0.18239061  0.09286382  1
  O  O161  1  0.60306546  0.17738057  0.09135329  1
  O  O162  1  0.34350788  0.15369983  0.74075928  1
  O  O163  1  0.84727294  0.15415145  0.74338804  1
  O  O164  1  0.22982946  0.29869333  0.74290029  1
  O  O165  1  0.73952022  0.30022866  0.74028894  1
  O  O166  1  0.41478071  0.51432696  0.74300247  1
  O  O167  1  0.91644901  0.52288539  0.74424594  1
  O  O168  1  0.34580811  0.53866063  0.24341942  1
  O  O169  1  0.84726049  0.53575580  0.24134128  1
  O  O170  1  0.41657465  0.30976996  0.24427097  1
  O  O171  1  0.92323933  0.31529571  0.24143958  1
  O  O172  1  0.23957176  0.17581820  0.24092660  1
  O  O173  1  0.73233366  0.16247120  0.24251993  1
  O  O174  1  0.31544948  0.49026331  0.92239361  1
  O  O175  1  0.82052304  0.51115215  0.92542706  1
  O  O176  1  0.42580973  0.34821152  0.92457126  1
  O  O177  1  0.92630353  0.35829730  0.92339901  1
  O  O178  1  0.24257238  0.12666036  0.92578146  1
  O  O179  1  0.74395217  0.13544870  0.92536551  1
  O  O180  1  0.31889137  0.12720895  0.42283080  1
  O  O181  1  0.81597358  0.14174890  0.42218481  1
  O  O182  1  0.24289432  0.35184607  0.42392897  1
  O  O183  1  0.74287773  0.35869791  0.42469762  1
  O  O184  1  0.42498699  0.49229880  0.42314817  1
  O  O185  1  0.92464631  0.50049546  0.42339200  1
  O  O186  1  0.17958180  0.48736093  0.07577534  1
  O  O187  1  0.68183675  0.48708305  0.07722285  1
  O  O188  1  0.06307894  0.64143147  0.07607812  1
  O  O189  1  0.57044391  0.64627893  0.07433372  1
  O  O190  1  0.25492356  0.87028887  0.07585318  1
  O  O191  1  0.75186080  0.85458694  0.07083562  1
  O  O192  1  0.18013062  0.87542032  0.57578808  1
  O  O193  1  0.68063944  0.87367448  0.57493534  1
  O  O194  1  0.25088570  0.64591833  0.56966915  1
  O  O195  1  0.75530448  0.63933697  0.57488287  1
  O  O196  1  0.06939582  0.49353315  0.57425955  1
  O  O197  1  0.56374725  0.48728762  0.57394655  1
  O  O198  1  0.15643669  0.83822498  0.26040972  1
  O  O199  1  0.65619820  0.85326937  0.25663321  1
  O  O200  1  0.27015676  0.69309366  0.26000445  1
  O  O201  1  0.77036500  0.68948715  0.25766048  1
  O  O202  1  0.07742056  0.45924505  0.25742697  1
  O  O203  1  0.58800866  0.47654008  0.25975901  1
  O  O204  1  0.15478747  0.45776311  0.75654130  1
  O  O205  1  0.66019714  0.47600664  0.75959047  1
  O  O206  1  0.08787810  0.69961130  0.75985951  1
  O  O207  1  0.58498027  0.69737879  0.75848112  1
  O  O208  1  0.26919786  0.84766881  0.75847878  1
  O  O209  1  0.77238206  0.84742037  0.75972745  1
