# generated using pymatgen
data_Na6Nb4Si9Ge4(SO16)3
_symmetry_space_group_name_H-M   'P 1'
_cell_length_a   17.51174654
_cell_length_b   8.78484228
_cell_length_c   22.42271763
_cell_angle_alpha   89.74246427
_cell_angle_beta   89.58049791
_cell_angle_gamma   120.05153693
_symmetry_Int_Tables_number   1
_chemical_formula_structural   Na6Nb4Si9Ge4(SO16)3
_chemical_formula_sum   'Na18 Nb12 Si27 Ge12 S9 O144'
_cell_volume   2985.55853997
_cell_formula_units_Z   3
loop_
 _symmetry_equiv_pos_site_id
 _symmetry_equiv_pos_as_xyz
  1  'x, y, z'
loop_
 _atom_site_type_symbol
 _atom_site_label
 _atom_site_symmetry_multiplicity
 _atom_site_fract_x
 _atom_site_fract_y
 _atom_site_fract_z
 _atom_site_occupancy
  Na  Na0  1  0.00057252  0.63839618  0.24705948  1
  Na  Na1  1  0.50090449  0.63310016  0.24811293  1
  Na  Na2  1  0.00063022  0.36863495  0.74823794  1
  Na  Na3  1  0.50098177  0.36261651  0.74766912  1
  Na  Na4  1  0.33449639  0.96468459  0.58679366  1
  Na  Na5  1  0.83260230  0.70283053  0.08176464  1
  Na  Na6  1  0.99832888  0.00691473  0.50224596  1
  Na  Na7  1  0.50372116  0.99848633  0.50506713  1
  Na  Na8  1  0.00268665  0.00893735  0.00126458  1
  Na  Na9  1  0.49885125  0.99082065  0.99788665  1
  Na  Na10  1  0.32983231  0.33643691  0.82875034  1
  Na  Na11  1  0.82690844  0.33414554  0.83021080  1
  Na  Na12  1  0.32874593  0.32180235  0.33201976  1
  Na  Na13  1  0.82622045  0.32083605  0.33132225  1
  Na  Na14  1  0.17068249  0.67306131  0.16514896  1
  Na  Na15  1  0.66523896  0.66234929  0.16732898  1
  Na  Na16  1  0.16671966  0.67074008  0.66885170  1
  Na  Na17  1  0.66762928  0.66567416  0.66848094  1
  Nb  Nb18  1  0.00340509  0.00447264  0.35497933  1
  Nb  Nb19  1  0.50317753  0.01032839  0.35595188  1
  Nb  Nb20  1  0.00140731  0.99441380  0.85529040  1
  Nb  Nb21  1  0.50201016  0.98723438  0.85086599  1
  Nb  Nb22  1  0.00660565  0.00094057  0.64191359  1
  Nb  Nb23  1  0.50592776  0.01159691  0.14121108  1
  Nb  Nb24  1  0.33053411  0.34392755  0.98324812  1
  Nb  Nb25  1  0.83146728  0.34063974  0.97135005  1
  Nb  Nb26  1  0.33303305  0.32491232  0.47420240  1
  Nb  Nb27  1  0.82991034  0.31677891  0.48419641  1
  Nb  Nb28  1  0.16814520  0.65049952  0.02645664  1
  Nb  Nb29  1  0.66773029  0.68557115  0.52791335  1
  Si  Si30  1  0.15208398  0.00196571  0.24989691  1
  Si  Si31  1  0.65181793  0.00987986  0.24765986  1
  Si  Si32  1  0.85382279  0.71532409  0.24852015  1
  Si  Si33  1  0.49968934  0.29756669  0.24970963  1
  Si  Si34  1  0.15059402  0.29243786  0.74783994  1
  Si  Si35  1  0.65184583  0.29980419  0.74983988  1
  Si  Si36  1  0.99936972  0.70081713  0.75020357  1
  Si  Si37  1  0.50070107  0.70776685  0.74495590  1
  Si  Si38  1  0.35378596  0.99047861  0.74896175  1
  Si  Si39  1  0.47539139  0.32647673  0.58725224  1
  Si  Si40  1  0.98068107  0.34343579  0.58702133  1
  Si  Si41  1  0.19421295  0.04346379  0.58351326  1
  Si  Si42  1  0.68533274  0.05427408  0.59295003  1
  Si  Si43  1  0.83374147  0.61940050  0.58275466  1
  Si  Si44  1  0.48079666  0.61772026  0.08653870  1
  Si  Si45  1  0.97400695  0.61345372  0.08629558  1
  Si  Si46  1  0.33252216  0.04664808  0.08280194  1
  Si  Si47  1  0.18619658  0.31725786  0.09265113  1
  Si  Si48  1  0.69097903  0.34510685  0.08033327  1
  Si  Si49  1  0.30853607  0.66860889  0.91283450  1
  Si  Si50  1  0.80215548  0.67241068  0.91623347  1
  Si  Si51  1  0.02821107  0.38642324  0.91298715  1
  Si  Si52  1  0.66548557  0.93897529  0.91635410  1
  Si  Si53  1  0.30636100  0.94192456  0.41906075  1
  Si  Si54  1  0.80619574  0.94918889  0.41293106  1
  Si  Si55  1  0.16733394  0.39640762  0.41641110  1
  Si  Si56  1  0.52786263  0.66799291  0.41301069  1
  Ge  Ge57  1  0.50905900  0.02138766  0.65371550  1
  Ge  Ge58  1  0.00661597  0.97588983  0.14844396  1
  Ge  Ge59  1  0.33445634  0.31596680  0.69122545  1
  Ge  Ge60  1  0.83157730  0.35063413  0.68411197  1
  Ge  Ge61  1  0.33277581  0.31191444  0.18330657  1
  Ge  Ge62  1  0.82512882  0.35299515  0.18540643  1
  Ge  Ge63  1  0.66232824  0.66641829  0.01944782  1
  Ge  Ge64  1  0.16749058  0.65845543  0.52353462  1
  Ge  Ge65  1  0.17770003  0.68758618  0.31724970  1
  Ge  Ge66  1  0.66808070  0.68240249  0.30737217  1
  Ge  Ge67  1  0.16864849  0.65292234  0.80687120  1
  Ge  Ge68  1  0.66772629  0.66994033  0.81229312  1
  S  S69  1  0.35167205  0.70864266  0.25080166  1
  S  S70  1  0.00095929  0.29008141  0.24816286  1
  S  S71  1  0.85246726  0.99588117  0.75003989  1
  S  S72  1  0.33325890  0.61871014  0.58386866  1
  S  S73  1  0.83422019  0.04909040  0.08545207  1
  S  S74  1  0.52302274  0.37918640  0.91700821  1
  S  S75  1  0.16889637  0.95177859  0.91586023  1
  S  S76  1  0.66925606  0.38719298  0.41560798  1
  S  S77  1  0.02331762  0.66422913  0.41612078  1
  O  O78  1  0.10262753  0.02989986  0.30788620  1
  O  O79  1  0.60185932  0.03777865  0.30600001  1
  O  O80  1  0.40730420  0.79211825  0.30438033  1
  O  O81  1  0.92163703  0.80763052  0.30454258  1
  O  O82  1  0.48238869  0.16809321  0.30799300  1
  O  O83  1  0.98785344  0.18168541  0.30344995  1
  O  O84  1  0.09906941  0.16488772  0.80633272  1
  O  O85  1  0.60320014  0.17186091  0.80814715  1
  O  O86  1  0.48291621  0.79289758  0.80589465  1
  O  O87  1  0.98228054  0.79629541  0.80816613  1
  O  O88  1  0.42028910  0.03601487  0.80593720  1
  O  O89  1  0.90863736  0.02467441  0.80391058  1
  O  O90  1  0.39891818  0.96184432  0.68832213  1
  O  O91  1  0.89313785  0.96923417  0.69651197  1
  O  O92  1  0.08110244  0.19989159  0.69298046  1
  O  O93  1  0.58337594  0.21994062  0.69347542  1
  O  O94  1  0.01313932  0.83083009  0.69349570  1
  O  O95  1  0.51977279  0.84234376  0.68969269  1
  O  O96  1  0.39091091  0.81624046  0.19691054  1
  O  O97  1  0.90090532  0.83863731  0.18817031  1
  O  O98  1  0.01587386  0.20928881  0.19558783  1
  O  O99  1  0.51325916  0.19525012  0.19337360  1
  O  O100  1  0.08222686  0.94456565  0.19427660  1
  O  O101  1  0.58295960  0.96562992  0.19287648  1
  O  O102  1  0.43335506  0.36750161  0.64574325  1
  O  O103  1  0.93434744  0.37033194  0.64601767  1
  O  O104  1  0.25620913  0.13167957  0.64110260  1
  O  O105  1  0.75561933  0.14439978  0.64533156  1
  O  O106  1  0.31733323  0.51149894  0.63761753  1
  O  O107  1  0.81461253  0.50198804  0.64202375  1
  O  O108  1  0.43435137  0.49854155  0.14621807  1
  O  O109  1  0.93129399  0.49382622  0.14774983  1
  O  O110  1  0.31368725  0.12465805  0.14247951  1
  O  O111  1  0.81924738  0.12863398  0.13925639  1
  O  O112  1  0.25475743  0.36470455  0.14628413  1
  O  O113  1  0.75124316  0.38669954  0.14020173  1
  O  O114  1  0.22821406  0.29167667  0.02912761  1
  O  O115  1  0.73448081  0.30179806  0.02431119  1
  O  O116  1  0.41716935  0.53106394  0.02718389  1
  O  O117  1  0.91121091  0.52710238  0.02883859  1
  O  O118  1  0.34916657  0.16826705  0.02336554  1
  O  O119  1  0.84733451  0.15302195  0.03046819  1
  O  O120  1  0.23433268  0.16663594  0.52423153  1
  O  O121  1  0.72951132  0.16337411  0.52857157  1
  O  O122  1  0.34463228  0.53916851  0.52896464  1
  O  O123  1  0.84939879  0.53040529  0.52275763  1
  O  O124  1  0.41307542  0.29616512  0.52832790  1
  O  O125  1  0.91808730  0.30490944  0.52682018  1
  O  O126  1  0.26445694  0.69349015  0.97437240  1
  O  O127  1  0.76252971  0.69828774  0.97914712  1
  O  O128  1  0.08495242  0.47378857  0.97326936  1
  O  O129  1  0.57652822  0.45911576  0.97098921  1
  O  O130  1  0.15384635  0.84885671  0.97058728  1
  O  O131  1  0.64726916  0.82214607  0.97704095  1
  O  O132  1  0.26284670  0.82578399  0.47902261  1
  O  O133  1  0.76643668  0.83493922  0.47403065  1
  O  O134  1  0.14677114  0.47556373  0.47574484  1
  O  O135  1  0.65387523  0.45838304  0.46986635  1
  O  O136  1  0.07702350  0.69401832  0.46973765  1
  O  O137  1  0.58592064  0.69806783  0.47258386  1
  O  O138  1  0.06220192  0.64005276  0.35991124  1
  O  O139  1  0.56832374  0.63244745  0.35269609  1
  O  O140  1  0.24998037  0.87262438  0.35808381  1
  O  O141  1  0.74635417  0.85916121  0.35520450  1
  O  O142  1  0.17953258  0.51018348  0.35467390  1
  O  O143  1  0.68097363  0.48663443  0.36050572  1
  O  O144  1  0.06880350  0.50509904  0.85312381  1
  O  O145  1  0.56039326  0.48415800  0.86128496  1
  O  O146  1  0.18079357  0.87603678  0.86129799  1
  O  O147  1  0.68145953  0.85478690  0.85640936  1
  O  O148  1  0.24583288  0.63282844  0.85627357  1
  O  O149  1  0.74422538  0.63430780  0.85686108  1
  O  O150  1  0.01482706  0.82576864  0.41153523  1
  O  O151  1  0.51508493  0.84082102  0.40659493  1
  O  O152  1  0.40532258  0.96778743  0.41074420  1
  O  O153  1  0.90602764  0.97521268  0.40602913  1
  O  O154  1  0.08130398  0.19627591  0.40769444  1
  O  O155  1  0.58853497  0.20382201  0.41176283  1
  O  O156  1  0.01492820  0.18822327  0.90788619  1
  O  O157  1  0.51423298  0.20419878  0.91293339  1
  O  O158  1  0.08794643  0.97266259  0.91231697  1
  O  O159  1  0.58148004  0.97194616  0.91115690  1
  O  O160  1  0.40617495  0.84246715  0.91044147  1
  O  O161  1  0.90328366  0.84130260  0.91014324  1
  O  O162  1  0.48103002  0.14568670  0.59246633  1
  O  O163  1  0.98756050  0.16580142  0.59139544  1
  O  O164  1  0.09626482  0.02282593  0.58828794  1
  O  O165  1  0.58714748  0.02824521  0.59413446  1
  O  O166  1  0.41037017  0.79750602  0.58679850  1
  O  O167  1  0.91853112  0.81539122  0.58960375  1
  O  O168  1  0.48733799  0.80879905  0.09258688  1
  O  O169  1  0.98001470  0.80838944  0.09101479  1
  O  O170  1  0.41764871  0.02095275  0.09061808  1
  O  O171  1  0.91338986  0.02756441  0.09001302  1
  O  O172  1  0.08514911  0.14911212  0.09806715  1
  O  O173  1  0.59493708  0.16874500  0.08748937  1
  O  O174  1  0.34892937  0.17268219  0.74461515  1
  O  O175  1  0.84668228  0.15694801  0.74662983  1
  O  O176  1  0.24592735  0.31030010  0.73926274  1
  O  O177  1  0.74608953  0.30794866  0.74256659  1
  O  O178  1  0.41428880  0.51092031  0.74037681  1
  O  O179  1  0.91360678  0.50304187  0.74313875  1
  O  O180  1  0.34480342  0.53548177  0.24730565  1
  O  O181  1  0.85079144  0.52329080  0.24334996  1
  O  O182  1  0.41346884  0.32402579  0.24301950  1
  O  O183  1  0.92116639  0.30734311  0.24571052  1
  O  O184  1  0.24595086  0.17949238  0.24257991  1
  O  O185  1  0.75002043  0.18282401  0.23831354  1
  O  O186  1  0.31947600  0.49161127  0.92090334  1
  O  O187  1  0.81709279  0.50019181  0.92100140  1
  O  O188  1  0.43393301  0.36213425  0.92230331  1
  O  O189  1  0.92988068  0.36128538  0.92301383  1
  O  O190  1  0.24661675  0.13301214  0.92057750  1
  O  O191  1  0.75353120  0.13574706  0.92381698  1
  O  O192  1  0.31914204  0.13970904  0.42209923  1
  O  O193  1  0.81996916  0.14956785  0.41982551  1
  O  O194  1  0.25316050  0.37161146  0.42239305  1
  O  O195  1  0.74696476  0.36105402  0.41975782  1
  O  O196  1  0.42910226  0.49931632  0.42233515  1
  O  O197  1  0.93440019  0.50895176  0.41992144  1
  O  O198  1  0.17819783  0.49405354  0.08205732  1
  O  O199  1  0.68215144  0.52053365  0.07352815  1
  O  O200  1  0.07230461  0.64309316  0.07923956  1
  O  O201  1  0.57761601  0.63771080  0.07610250  1
  O  O202  1  0.24571632  0.85380982  0.07596373  1
  O  O203  1  0.75488471  0.86723244  0.08127527  1
  O  O204  1  0.18414273  0.84818510  0.57467529  1
  O  O205  1  0.67914357  0.86263444  0.58185244  1
  O  O206  1  0.25175032  0.64022265  0.57935313  1
  O  O207  1  0.74641339  0.63723256  0.57522219  1
  O  O208  1  0.07767320  0.51807893  0.57616508  1
  O  O209  1  0.57252405  0.49870562  0.57666159  1
  O  O210  1  0.15231227  0.81078515  0.26007671  1
  O  O211  1  0.65376328  0.82737948  0.25400115  1
  O  O212  1  0.26207562  0.69162367  0.25628362  1
  O  O213  1  0.75632575  0.68767881  0.25761632  1
  O  O214  1  0.07925455  0.47037545  0.25477236  1
  O  O215  1  0.58766507  0.48953047  0.25746588  1
  O  O216  1  0.15191687  0.47829130  0.75401654  1
  O  O217  1  0.65530729  0.49040437  0.75939287  1
  O  O218  1  0.08766557  0.68614489  0.75766847  1
  O  O219  1  0.58708822  0.68252022  0.75790677  1
  O  O220  1  0.25575691  0.82169523  0.75811984  1
  O  O221  1  0.76436675  0.83609749  0.75547158  1
