# generated using pymatgen
data_Na6MgSi2Ge3(PO6)4
_symmetry_space_group_name_H-M   'P 1'
_cell_length_a   8.72860703
_cell_length_b   8.73241899
_cell_length_c   21.61756778
_cell_angle_alpha   90.33000799
_cell_angle_beta   90.05334882
_cell_angle_gamma   120.09608590
_symmetry_Int_Tables_number   1
_chemical_formula_structural   Na6MgSi2Ge3(PO6)4
_chemical_formula_sum   'Na18 Mg3 Si6 Ge9 P12 O72'
_cell_volume   1425.55580459
_cell_formula_units_Z   3
loop_
 _symmetry_equiv_pos_site_id
 _symmetry_equiv_pos_as_xyz
  1  'x, y, z'
loop_
 _atom_site_type_symbol
 _atom_site_label
 _atom_site_symmetry_multiplicity
 _atom_site_fract_x
 _atom_site_fract_y
 _atom_site_fract_z
 _atom_site_occupancy
  Na  Na0  1  0.00754482  0.00139419  0.50116283  1
  Na  Na1  1  0.00061706  0.00056839  0.99935481  1
  Na  Na2  1  0.65108058  0.30239562  0.83245530  1
  Na  Na3  1  0.65179721  0.33549984  0.32670392  1
  Na  Na4  1  0.32940769  0.66691175  0.16258149  1
  Na  Na5  1  0.32544234  0.66646033  0.66538527  1
  Na  Na6  1  0.64303658  0.01059334  0.24393297  1
  Na  Na7  1  0.99060231  0.62930504  0.24163655  1
  Na  Na8  1  0.62690164  0.61485190  0.74474899  1
  Na  Na9  1  0.99270462  0.37023612  0.74742316  1
  Na  Na10  1  0.66575410  0.97427300  0.58731368  1
  Na  Na11  1  0.66438078  0.68866951  0.08074946  1
  Na  Na12  1  0.02443669  0.33751998  0.08479630  1
  Na  Na13  1  0.96698357  0.66966696  0.91863976  1
  Na  Na14  1  0.33426408  0.30164342  0.91847191  1
  Na  Na15  1  0.96181178  0.28573373  0.41353581  1
  Na  Na16  1  0.32900281  0.03739346  0.41193071  1
  Na  Na17  1  0.71535462  0.68021122  0.41682994  1
  Mg  Mg18  1  0.99943937  0.99891962  0.35428201  1
  Mg  Mg19  1  0.66001117  0.32833385  0.68613993  1
  Mg  Mg20  1  0.66736038  0.33465136  0.18298822  1
  Si  Si21  1  0.66621544  0.62340619  0.58623281  1
  Si  Si22  1  0.96706779  0.63096912  0.08434386  1
  Si  Si23  1  0.61866404  0.67006293  0.91581280  1
  Si  Si24  1  0.04236295  0.37821554  0.91540697  1
  Si  Si25  1  0.34057836  0.95815470  0.91558332  1
  Si  Si26  1  0.61749723  0.95884208  0.41916655  1
  Ge  Ge27  1  0.99813367  0.00142331  0.85777904  1
  Ge  Ge28  1  0.00118080  0.99177276  0.64533595  1
  Ge  Ge29  1  0.00646083  -0.00020792  0.14727941  1
  Ge  Ge30  1  0.66972867  0.33703432  0.97833248  1
  Ge  Ge31  1  0.66468534  0.33091309  0.48544162  1
  Ge  Ge32  1  0.32902388  0.67102580  0.01535405  1
  Ge  Ge33  1  0.33718321  0.66503772  0.52249406  1
  Ge  Ge34  1  0.33725478  0.67064069  0.31280625  1
  Ge  Ge35  1  0.33388553  0.67429987  0.81617201  1
  P  P36  1  0.28919586  0.99606029  0.25350781  1
  P  P37  1  0.70216552  0.70907186  0.25191126  1
  P  P38  1  0.01249788  0.29609537  0.25228654  1
  P  P39  1  0.27870030  0.28078045  0.75151196  1
  P  P40  1  0.01324608  0.72176569  0.75191050  1
  P  P41  1  0.71113437  0.99159413  0.75059159  1
  P  P42  1  0.96541989  0.33758972  0.58502300  1
  P  P43  1  0.37002051  0.04004323  0.58277954  1
  P  P44  1  0.66315824  0.04060309  0.08426487  1
  P  P45  1  0.37329878  0.33075392  0.08245478  1
  P  P46  1  0.34120454  0.38868524  0.41746755  1
  P  P47  1  0.04763153  0.65759746  0.41779714  1
  O  O48  1  0.20973931  0.01120765  0.31344095  1
  O  O49  1  0.80711289  0.79047261  0.31093415  1
  O  O50  1  0.98975346  0.18861270  0.30976032  1
  O  O51  1  0.19332794  0.17789858  0.81172012  1
  O  O52  1  0.98322785  0.80732996  0.81027473  1
  O  O53  1  0.83297782  0.02206187  0.80666629  1
  O  O54  1  0.79263427  0.96060432  0.68982370  1
  O  O55  1  0.15397613  0.19086294  0.69449235  1
  O  O56  1  0.03721886  0.83205624  0.69303491  1
  O  O57  1  0.79065056  0.83243162  0.19355449  1
  O  O58  1  0.03295433  0.20628262  0.19149423  1
  O  O59  1  0.16269481  0.96227487  0.19667430  1
  O  O60  1  0.88736735  0.36332507  0.64362658  1
  O  O61  1  0.49837198  0.11951082  0.63560871  1
  O  O62  1  0.63597093  0.51772827  0.64787688  1
  O  O63  1  0.89444764  0.51360327  0.14466682  1
  O  O64  1  0.63908303  0.11125489  0.14514959  1
  O  O65  1  0.49065477  0.36371138  0.13728245  1
  O  O66  1  0.44872014  0.29924445  0.02115319  1
  O  O67  1  0.82879962  0.54112678  0.02425392  1
  O  O68  1  0.70157136  0.16944345  0.02947945  1
  O  O69  1  0.44775300  0.14983161  0.52108112  1
  O  O70  1  0.69862388  0.53177393  0.52283397  1
  O  O71  1  0.83711372  0.29336187  0.52649961  1
  O  O72  1  0.53273100  0.70286922  0.97765193  1
  O  O73  1  0.17437103  0.46086817  0.97514890  1
  O  O74  1  0.28129443  0.81965501  0.97242181  1
  O  O75  1  0.52517223  0.83187186  0.47834758  1
  O  O76  1  0.29986367  0.46726081  0.47466541  1
  O  O77  1  0.16875079  0.68789099  0.47315415  1
  O  O78  1  0.12358903  0.62038095  0.35704929  1
  O  O79  1  0.48999194  0.87601247  0.35645249  1
  O  O80  1  0.37926431  0.51035375  0.36001578  1
  O  O81  1  0.12436036  0.50773089  0.85434500  1
  O  O82  1  0.38485624  0.87825211  0.85418255  1
  O  O83  1  0.48822346  0.61906815  0.85486946  1
  O  O84  1  0.02558357  0.82053473  0.41489587  1
  O  O85  1  0.81281382  0.98342764  0.41652374  1
  O  O86  1  0.18254997  0.20130460  0.41243275  1
  O  O87  1  0.02639250  0.18405012  0.90985844  1
  O  O88  1  0.16329893  0.98099976  0.90938430  1
  O  O89  1  0.81978743  0.83935471  0.90972261  1
  O  O90  1  0.98422569  0.16843564  0.58714267  1
  O  O91  1  0.18754184  0.02872559  0.58942051  1
  O  O92  1  0.84390518  0.82911496  0.58762629  1
  O  O93  1  0.97652061  0.82602752  0.09068994  1
  O  O94  1  0.83649984  0.02280540  0.08756120  1
  O  O95  1  0.17954498  0.16739710  0.08906546  1
  O  O96  1  0.69346211  0.15616305  0.74659072  1
  O  O97  1  0.46299694  0.30376354  0.74839931  1
  O  O98  1  0.84995851  0.53471736  0.74910009  1
  O  O99  1  0.68097063  0.52617163  0.24391519  1
  O  O100  1  0.84805416  0.31782564  0.24796028  1
  O  O101  1  0.47620545  0.15116702  0.24561681  1
  O  O102  1  0.63909685  0.49210368  0.92186691  1
  O  O103  1  0.85058856  0.36488818  0.92414209  1
  O  O104  1  0.51121319  0.15573965  0.92535840  1
  O  O105  1  0.63261140  0.15792190  0.42480425  1
  O  O106  1  0.51420314  0.37685084  0.42235884  1
  O  O107  1  0.86082632  0.48720875  0.42290602  1
  O  O108  1  0.35273845  0.49898981  0.07717625  1
  O  O109  1  0.16078106  0.64633485  0.07345842  1
  O  O110  1  0.50314484  0.85048016  0.07524458  1
  O  O111  1  0.34083676  0.84919048  0.57466854  1
  O  O112  1  0.49404090  0.65605345  0.57792018  1
  O  O113  1  0.14735274  0.50535990  0.57458768  1
  O  O114  1  0.29703867  0.81591536  0.25277182  1
  O  O115  1  0.51854990  0.70389767  0.25437010  1
  O  O116  1  0.18403173  0.48509306  0.25450860  1
  O  O117  1  0.29136648  0.46844562  0.75291282  1
  O  O118  1  0.18516624  0.70605987  0.75390029  1
  O  O119  1  0.52942225  0.81452535  0.75467412  1
