# generated using pymatgen
data_Na4MgAl(PO4)3
_symmetry_space_group_name_H-M   'P 1'
_cell_length_a   8.81140947
_cell_length_b   8.81140918
_cell_length_c   21.54436270
_cell_angle_alpha   90.00000000
_cell_angle_beta   90.00000000
_cell_angle_gamma   120.00000106
_symmetry_Int_Tables_number   1
_chemical_formula_structural   Na4MgAl(PO4)3
_chemical_formula_sum   'Na24 Mg6 Al6 P18 O72'
_cell_volume   1448.62185040
_cell_formula_units_Z   6
loop_
 _symmetry_equiv_pos_site_id
 _symmetry_equiv_pos_as_xyz
  1  'x, y, z'
loop_
 _atom_site_type_symbol
 _atom_site_label
 _atom_site_symmetry_multiplicity
 _atom_site_fract_x
 _atom_site_fract_y
 _atom_site_fract_z
 _atom_site_occupancy
  Na  Na0  1  0.63701673  0.00554107  0.24917513  1
  Na  Na1  1  0.36852433  0.36298327  0.24917513  1
  Na  Na2  1  0.99445893  0.63147567  0.24917513  1
  Na  Na3  1  0.63701673  0.63147567  0.74917513  1
  Na  Na4  1  0.99445893  0.36298327  0.74917513  1
  Na  Na5  1  0.36852433  0.00554107  0.74917513  1
  Na  Na6  1  0.30368373  0.33887407  0.58250813  1
  Na  Na7  1  0.03519133  0.69631627  0.58250813  1
  Na  Na8  1  0.66112593  0.96480867  0.58250813  1
  Na  Na9  1  0.30368373  0.96480867  0.08250813  1
  Na  Na10  1  0.66112593  0.69631627  0.08250813  1
  Na  Na11  1  0.03519133  0.33887407  0.08250813  1
  Na  Na12  1  0.97034973  0.67220807  0.91584213  1
  Na  Na13  1  0.70185733  0.02965027  0.91584213  1
  Na  Na14  1  0.32779193  0.29814267  0.91584213  1
  Na  Na15  1  0.97034973  0.29814267  0.41584213  1
  Na  Na16  1  0.32779193  0.02965027  0.41584213  1
  Na  Na17  1  0.70185733  0.67220807  0.41584213  1
  Na  Na18  1  -0.00000000  -0.00000000  0.49843471  1
  Na  Na19  1  -0.00000000  -0.00000000  0.99843471  1
  Na  Na20  1  0.66666700  0.33333300  0.83176771  1
  Na  Na21  1  0.66666700  0.33333300  0.33176771  1
  Na  Na22  1  0.33333300  0.66666700  0.16510171  1
  Na  Na23  1  0.33333300  0.66666700  0.66510171  1
  Mg  Mg24  1  -0.00000000  -0.00000000  0.35064283  1
  Mg  Mg25  1  -0.00000000  -0.00000000  0.85064283  1
  Mg  Mg26  1  0.66666700  0.33333300  0.68397583  1
  Mg  Mg27  1  0.66666700  0.33333300  0.18397583  1
  Mg  Mg28  1  0.33333300  0.66666700  0.01730983  1
  Mg  Mg29  1  0.33333300  0.66666700  0.51730983  1
  Al  Al30  1  -0.00000000  -0.00000000  0.65019524  1
  Al  Al31  1  -0.00000000  -0.00000000  0.15019524  1
  Al  Al32  1  0.66666700  0.33333300  0.98352824  1
  Al  Al33  1  0.66666700  0.33333300  0.48352824  1
  Al  Al34  1  0.33333300  0.66666700  0.31686224  1
  Al  Al35  1  0.33333300  0.66666700  0.81686224  1
  P  P36  1  0.29035364  0.99544355  0.25056821  1
  P  P37  1  0.70508991  0.70964636  0.25056821  1
  P  P38  1  0.00455645  0.29491009  0.25056821  1
  P  P39  1  0.29035364  0.29491009  0.75056821  1
  P  P40  1  0.00455645  0.70964636  0.75056821  1
  P  P41  1  0.70508991  0.99544355  0.75056821  1
  P  P42  1  0.95702064  0.32877655  0.58390121  1
  P  P43  1  0.37175691  0.04297936  0.58390121  1
  P  P44  1  0.67122345  0.62824309  0.58390121  1
  P  P45  1  0.95702064  0.62824309  0.08390121  1
  P  P46  1  0.67122345  0.04297936  0.08390121  1
  P  P47  1  0.37175691  0.32877655  0.08390121  1
  P  P48  1  0.62368664  0.66211055  0.91723521  1
  P  P49  1  0.03842291  0.37631336  0.91723521  1
  P  P50  1  0.33788945  0.96157709  0.91723521  1
  P  P51  1  0.62368664  0.96157709  0.41723521  1
  P  P52  1  0.33788945  0.37631336  0.41723521  1
  P  P53  1  0.03842291  0.66211055  0.41723521  1
  O  O54  1  0.21269282  0.03068903  0.30805111  1
  O  O55  1  0.81799621  0.78730718  0.30805111  1
  O  O56  1  0.96931097  0.18200379  0.30805111  1
  O  O57  1  0.21269282  0.18200379  0.80805111  1
  O  O58  1  0.96931097  0.78730718  0.80805111  1
  O  O59  1  0.81799621  0.03068903  0.80805111  1
  O  O60  1  0.79240390  0.96213765  0.69245779  1
  O  O61  1  0.16973375  0.20759610  0.69245779  1
  O  O62  1  0.03786235  0.83026625  0.69245779  1
  O  O63  1  0.79240390  0.83026625  0.19245779  1
  O  O64  1  0.03786235  0.20759610  0.19245779  1
  O  O65  1  0.16973375  0.96213765  0.19245779  1
  O  O66  1  0.87935982  0.36402203  0.64138411  1
  O  O67  1  0.48466321  0.12064018  0.64138411  1
  O  O68  1  0.63597797  0.51533679  0.64138411  1
  O  O69  1  0.87935982  0.51533679  0.14138411  1
  O  O70  1  0.63597797  0.12064018  0.14138411  1
  O  O71  1  0.48466321  0.36402203  0.14138411  1
  O  O72  1  0.45907090  0.29547065  0.02579079  1
  O  O73  1  0.83640075  0.54092910  0.02579079  1
  O  O74  1  0.70452935  0.16359925  0.02579079  1
  O  O75  1  0.45907090  0.16359925  0.52579079  1
  O  O76  1  0.70452935  0.54092910  0.52579079  1
  O  O77  1  0.83640075  0.29547065  0.52579079  1
  O  O78  1  0.54602582  0.69735603  0.97471811  1
  O  O79  1  0.15132921  0.45397418  0.97471811  1
  O  O80  1  0.30264397  0.84867079  0.97471811  1
  O  O81  1  0.54602582  0.84867079  0.47471811  1
  O  O82  1  0.30264397  0.45397418  0.47471811  1
  O  O83  1  0.15132921  0.69735603  0.47471811  1
  O  O84  1  0.12573690  0.62880465  0.35912479  1
  O  O85  1  0.50306675  0.87426310  0.35912479  1
  O  O86  1  0.37119535  0.49693325  0.35912479  1
  O  O87  1  0.12573690  0.49693325  0.85912479  1
  O  O88  1  0.37119535  0.87426310  0.85912479  1
  O  O89  1  0.50306675  0.62880465  0.85912479  1
  O  O90  1  0.01461402  0.82356507  0.41077649  1
  O  O91  1  0.80895105  0.98538598  0.41077649  1
  O  O92  1  0.17643493  0.19104895  0.41077649  1
  O  O93  1  0.01461402  0.19104895  0.91077649  1
  O  O94  1  0.17643493  0.98538598  0.91077649  1
  O  O95  1  0.80895105  0.82356507  0.91077649  1
  O  O96  1  0.97180564  0.15834092  0.58921367  1
  O  O97  1  0.18653528  0.02819436  0.58921367  1
  O  O98  1  0.84165908  0.81346472  0.58921367  1
  O  O99  1  0.97180564  0.81346472  0.08921367  1
  O  O100  1  0.84165908  0.02819436  0.08921367  1
  O  O101  1  0.18653528  0.15834092  0.08921367  1
  O  O102  1  0.68128102  0.15689807  0.74410949  1
  O  O103  1  0.47561805  0.31871898  0.74410949  1
  O  O104  1  0.84310193  0.52438195  0.74410949  1
  O  O105  1  0.68128102  0.52438195  0.24410949  1
  O  O106  1  0.84310193  0.31871898  0.24410949  1
  O  O107  1  0.47561805  0.15689807  0.24410949  1
  O  O108  1  0.63847264  0.49167392  0.92254667  1
  O  O109  1  0.85320228  0.36152736  0.92254667  1
  O  O110  1  0.50832608  0.14679772  0.92254667  1
  O  O111  1  0.63847264  0.14679772  0.42254667  1
  O  O112  1  0.50832608  0.36152736  0.42254667  1
  O  O113  1  0.85320228  0.49167392  0.42254667  1
  O  O114  1  0.34794702  0.49023207  0.07744349  1
  O  O115  1  0.14228405  0.65205298  0.07744349  1
  O  O116  1  0.50976793  0.85771595  0.07744349  1
  O  O117  1  0.34794702  0.85771595  0.57744349  1
  O  O118  1  0.50976793  0.65205298  0.57744349  1
  O  O119  1  0.14228405  0.49023207  0.57744349  1
  O  O120  1  0.30513864  0.82500792  0.25588067  1
  O  O121  1  0.51986828  0.69486136  0.25588067  1
  O  O122  1  0.17499208  0.48013172  0.25588067  1
  O  O123  1  0.30513864  0.48013172  0.75588067  1
  O  O124  1  0.17499208  0.69486136  0.75588067  1
  O  O125  1  0.51986828  0.82500792  0.75588067  1
