# generated using pymatgen
data_Na2Sc6Nb2Si3(S3O16)3
_symmetry_space_group_name_H-M   'P 1'
_cell_length_a   17.76927894
_cell_length_b   8.88145434
_cell_length_c   23.11463601
_cell_angle_alpha   89.91188026
_cell_angle_beta   90.06933583
_cell_angle_gamma   120.09913312
_symmetry_Int_Tables_number   1
_chemical_formula_structural   Na2Sc6Nb2Si3(S3O16)3
_chemical_formula_sum   'Na6 Sc18 Nb6 Si9 S27 O144'
_cell_volume   3155.99506799
_cell_formula_units_Z   3
loop_
 _symmetry_equiv_pos_site_id
 _symmetry_equiv_pos_as_xyz
  1  'x, y, z'
loop_
 _atom_site_type_symbol
 _atom_site_label
 _atom_site_symmetry_multiplicity
 _atom_site_fract_x
 _atom_site_fract_y
 _atom_site_fract_z
 _atom_site_occupancy
  Na  Na0  1  0.99821660  0.99278645  0.49928492  1
  Na  Na1  1  0.50036308  0.00577125  0.99734441  1
  Na  Na2  1  0.33876380  0.33621352  0.83368641  1
  Na  Na3  1  0.83535685  0.34698295  0.83102854  1
  Na  Na4  1  0.33516908  0.32536019  0.33562254  1
  Na  Na5  1  0.83877495  0.34049410  0.33923249  1
  Sc  Sc6  1  0.00167820  0.99039370  0.35811029  1
  Sc  Sc7  1  0.50132785  0.01296406  0.85484064  1
  Sc  Sc8  1  0.99983164  0.99141551  0.64981830  1
  Sc  Sc9  1  0.50072814  0.00760793  0.15077514  1
  Sc  Sc10  1  0.33139376  0.34181797  0.68429800  1
  Sc  Sc11  1  0.83424116  0.33390871  0.68518284  1
  Sc  Sc12  1  0.33971253  0.33419325  0.18898268  1
  Sc  Sc13  1  0.82955980  0.31819000  0.18453074  1
  Sc  Sc14  1  0.33872893  0.33564397  0.97887654  1
  Sc  Sc15  1  0.83577387  0.33061301  0.97991954  1
  Sc  Sc16  1  0.33643692  0.34105247  0.48107012  1
  Sc  Sc17  1  0.83265825  0.33237096  0.48219504  1
  Sc  Sc18  1  0.16671632  0.66597620  0.01985153  1
  Sc  Sc19  1  0.66818245  0.67838319  0.52479143  1
  Sc  Sc20  1  0.16349185  0.67442738  0.31566294  1
  Sc  Sc21  1  0.66441483  0.66308266  0.30955191  1
  Sc  Sc22  1  0.16479532  0.66794576  0.80719529  1
  Sc  Sc23  1  0.66281038  0.65100794  0.81385209  1
  Nb  Nb24  1  0.49427638  0.00602044  0.35726694  1
  Nb  Nb25  1  0.99341792  0.98184693  0.85459919  1
  Nb  Nb26  1  0.50109743  0.99375588  0.64040241  1
  Nb  Nb27  1  0.99733939  0.00177762  0.14389616  1
  Nb  Nb28  1  0.67170980  0.66320063  0.01894576  1
  Nb  Nb29  1  0.17018592  0.67982040  0.52002774  1
  Si  Si30  1  0.50000747  0.29260925  0.24940928  1
  Si  Si31  1  0.99710772  0.70031943  0.74832488  1
  Si  Si32  1  0.69483726  0.04962041  0.58346725  1
  Si  Si33  1  0.32927247  0.61575196  0.58251953  1
  Si  Si34  1  0.82981542  0.04366040  0.08245153  1
  Si  Si35  1  0.80924858  0.65634036  0.91435491  1
  Si  Si36  1  0.52071229  0.37503742  0.91601145  1
  Si  Si37  1  0.30814360  0.96225252  0.41518474  1
  Si  Si38  1  0.01782960  0.65917731  0.41618837  1
  S  S39  1  0.14361214  0.00214021  0.24896780  1
  S  S40  1  0.64463024  0.00243049  0.25161734  1
  S  S41  1  0.35501572  0.71027580  0.25069343  1
  S  S42  1  0.85737100  0.71162754  0.24994542  1
  S  S43  1  -0.00012264  0.28708103  0.25019145  1
  S  S44  1  0.14462720  0.28613009  0.75149375  1
  S  S45  1  0.64344241  0.28566402  0.74913849  1
  S  S46  1  0.49970413  0.71341876  0.75032090  1
  S  S47  1  0.35714253  0.00380122  0.74983832  1
  S  S48  1  0.85485826  -0.00029256  0.75081030  1
  S  S49  1  0.47823887  0.33272506  0.58455175  1
  S  S50  1  0.98059069  0.33288379  0.58251144  1
  S  S51  1  0.18742276  0.04459680  0.58273974  1
  S  S52  1  0.83455479  0.62695176  0.58257222  1
  S  S53  1  0.47947579  0.62666009  0.08259629  1
  S  S54  1  0.97938601  0.62464155  0.08459323  1
  S  S55  1  0.33300237  0.04083861  0.08259939  1
  S  S56  1  0.18895441  0.33410465  0.08431974  1
  S  S57  1  0.68739079  0.33067291  0.08256026  1
  S  S58  1  0.31065657  0.66551442  0.91671969  1
  S  S59  1  0.02371461  0.37802626  0.91529703  1
  S  S60  1  0.16668059  0.95699154  0.91594715  1
  S  S61  1  0.66640302  0.95352343  0.91652724  1
  S  S62  1  0.81119485  0.95588871  0.41574437  1
  S  S63  1  0.16699061  0.37958764  0.41672430  1
  S  S64  1  0.66739133  0.37811888  0.41527833  1
  S  S65  1  0.52265820  0.66854596  0.41474943  1
  O  O66  1  0.10369147  0.02961977  0.30072041  1
  O  O67  1  0.60083492  0.02516438  0.30293335  1
  O  O68  1  0.41272525  0.79566474  0.30280093  1
  O  O69  1  0.91249823  0.79425077  0.30084329  1
  O  O70  1  0.48706381  0.16060100  0.30647333  1
  O  O71  1  0.98517272  0.17598743  0.30079435  1
  O  O72  1  0.10027061  0.17587797  0.80358219  1
  O  O73  1  0.60284546  0.17828872  0.80183734  1
  O  O74  1  0.48524017  0.79399905  0.80179399  1
  O  O75  1  0.98739913  0.81301692  0.80630975  1
  O  O76  1  0.41112490  0.03083367  0.80234035  1
  O  O77  1  0.91330815  0.02536309  0.80367287  1
  O  O78  1  0.39960134  0.98151469  0.69801692  1
  O  O79  1  0.89721629  0.97901530  0.69925253  1
  O  O80  1  0.09304843  0.21050902  0.69880106  1
  O  O81  1  0.58754926  0.19575930  0.69788050  1
  O  O82  1  0.01312610  0.82893415  0.69468615  1
  O  O83  1  0.50792719  0.82146262  0.69760553  1
  O  O84  1  0.39728246  0.81551677  0.19857416  1
  O  O85  1  0.90265850  0.82258086  0.19677043  1
  O  O86  1  0.00784341  0.19150395  0.19685134  1
  O  O87  1  0.51283275  0.19786392  0.19393540  1
  O  O88  1  0.08788215  0.98241849  0.19678295  1
  O  O89  1  0.59333403  0.97524878  0.19833043  1
  O  O90  1  0.43745855  0.35875820  0.63611198  1
  O  O91  1  0.94338467  0.36488728  0.63485974  1
  O  O92  1  0.23972393  0.11915369  0.63539366  1
  O  O93  1  0.74984902  0.13560150  0.64141117  1
  O  O94  1  0.31592512  0.50275240  0.64038335  1
  O  O95  1  0.82299042  0.52351721  0.63515515  1
  O  O96  1  0.43918175  0.51878069  0.13475945  1
  O  O97  1  0.93907812  0.51869969  0.13635846  1
  O  O98  1  0.31990860  0.12111471  0.13463701  1
  O  O99  1  0.81775870  0.12915920  0.14059707  1
  O  O100  1  0.24211733  0.36148973  0.13593895  1
  O  O101  1  0.73977232  0.36054032  0.13525406  1
  O  O102  1  0.22372983  0.29600132  0.03252230  1
  O  O103  1  0.72889064  0.30876412  0.03088020  1
  O  O104  1  0.42299521  0.54339707  0.03143083  1
  O  O105  1  0.92515711  0.55707631  0.03280058  1
  O  O106  1  0.34678559  0.15100683  0.03099424  1
  O  O107  1  0.85284962  0.16512995  0.02683038  1
  O  O108  1  0.22869334  0.14869106  0.53072717  1
  O  O109  1  0.73080614  0.16746410  0.52637947  1
  O  O110  1  0.35082513  0.53818376  0.52663020  1
  O  O111  1  0.85115051  0.55010808  0.53083630  1
  O  O112  1  0.42359150  0.29395892  0.53266164  1
  O  O113  1  0.92560039  0.30341135  0.53101162  1
  O  O114  1  0.26951521  0.69134095  0.96940922  1
  O  O115  1  0.76491706  0.69226665  0.97320962  1
  O  O116  1  0.07557880  0.45745728  0.96865055  1
  O  O117  1  0.58304051  0.47940547  0.97345863  1
  O  O118  1  0.15131345  0.84949711  0.96844921  1
  O  O119  1  0.65467707  0.84566201  0.96971014  1
  O  O120  1  0.26461673  0.83729448  0.47329956  1
  O  O121  1  0.77160641  0.84800658  0.46776322  1
  O  O122  1  0.15450607  0.46203584  0.46919578  1
  O  O123  1  0.65033072  0.44862326  0.46723995  1
  O  O124  1  0.08296061  0.68544899  0.47271424  1
  O  O125  1  0.57369987  0.69532841  0.46743059  1
  O  O126  1  0.06336437  0.63380486  0.35921841  1
  O  O127  1  0.56392531  0.64277643  0.36340006  1
  O  O128  1  0.25426915  0.86871566  0.35816677  1
  O  O129  1  0.75898207  0.87243631  0.36350851  1
  O  O130  1  0.18017001  0.48244543  0.36391201  1
  O  O131  1  0.67873228  0.48420278  0.36342270  1
  O  O132  1  0.06555667  0.48856688  0.86468605  1
  O  O133  1  0.56281284  0.49363396  0.85962611  1
  O  O134  1  0.18115556  0.87720138  0.86497496  1
  O  O135  1  0.67985633  0.87716067  0.86445755  1
  O  O136  1  0.25849164  0.64242668  0.86504625  1
  O  O137  1  0.75289528  0.63994413  0.85884131  1
  O  O138  1  0.01388297  0.84072086  0.41294988  1
  O  O139  1  0.51407227  0.82663437  0.40440435  1
  O  O140  1  0.40487613  0.96973234  0.40656782  1
  O  O141  1  0.89999010  0.97780134  0.40938501  1
  O  O142  1  0.08701570  0.20514297  0.41176998  1
  O  O143  1  0.58800006  0.19693887  0.40523750  1
  O  O144  1  0.01552722  0.20403257  0.90682767  1
  O  O145  1  0.51279941  0.18341121  0.91351174  1
  O  O146  1  0.08814522  0.97691008  0.90712125  1
  O  O147  1  0.58658919  0.96761160  0.91242606  1
  O  O148  1  0.39919301  0.82026493  0.91164623  1
  O  O149  1  0.90560189  0.84172287  0.90643972  1
  O  O150  1  0.48760238  0.17473677  0.59564853  1
  O  O151  1  0.99136302  0.17855559  0.58961713  1
  O  O152  1  0.09957997  0.02335027  0.58807007  1
  O  O153  1  0.59437142  0.02446679  0.59806951  1
  O  O154  1  0.41343030  0.81339628  0.59814681  1
  O  O155  1  0.91186208  0.80638618  0.58881097  1
  O  O156  1  0.48939366  0.80173438  0.08918200  1
  O  O157  1  0.99127154  0.80491268  0.09638942  1
  O  O158  1  0.41029422  0.01876530  0.08868681  1
  O  O159  1  0.91540026  0.01525013  0.09871374  1
  O  O160  1  0.09876173  0.17481114  0.09572674  1
  O  O161  1  0.59937660  0.17549728  0.08820687  1
  O  O162  1  0.34653336  0.15818333  0.74334372  1
  O  O163  1  0.85060209  0.16096983  0.74815448  1
  O  O164  1  0.23121399  0.29819652  0.74730949  1
  O  O165  1  0.73004257  0.30368866  0.74343140  1
  O  O166  1  0.42188580  0.53681034  0.74317850  1
  O  O167  1  0.90999048  0.51420400  0.74708850  1
  O  O168  1  0.34795149  0.53676858  0.24503154  1
  O  O169  1  0.84821546  0.53907317  0.24091684  1
  O  O170  1  0.41152985  0.30469470  0.24588775  1
  O  O171  1  0.92241878  0.30680651  0.24155553  1
  O  O172  1  0.22984504  0.15953506  0.24058606  1
  O  O173  1  0.73157543  0.16425297  0.24648519  1
  O  O174  1  0.31801482  0.50710720  0.92463714  1
  O  O175  1  0.82645658  0.49824557  0.92523414  1
  O  O176  1  0.42405242  0.35187446  0.92502094  1
  O  O177  1  0.93599884  0.35633138  0.92171079  1
  O  O178  1  0.24209351  0.13364776  0.92405494  1
  O  O179  1  0.74314011  0.12933074  0.92445232  1
  O  O180  1  0.32643741  0.15595495  0.42440122  1
  O  O181  1  0.82020839  0.13005207  0.42134770  1
  O  O182  1  0.24338903  0.35657884  0.42379967  1
  O  O183  1  0.74297059  0.35323366  0.41996656  1
  O  O184  1  0.43417915  0.51570157  0.42001578  1
  O  O185  1  0.92195374  0.49250039  0.42387163  1
  O  O186  1  0.17436829  0.48189966  0.07487601  1
  O  O187  1  0.67780479  0.48862421  0.07529889  1
  O  O188  1  0.06681239  0.64987986  0.07504669  1
  O  O189  1  0.56587853  0.64374017  0.07359801  1
  O  O190  1  0.25481725  0.86719188  0.07339552  1
  O  O191  1  0.74683005  0.84946725  0.07116112  1
  O  O192  1  0.17765152  0.86694985  0.57568695  1
  O  O193  1  0.67403975  0.85238701  0.57338945  1
  O  O194  1  0.24547101  0.64123762  0.57049149  1
  O  O195  1  0.75626542  0.64123607  0.57402852  1
  O  O196  1  0.06816250  0.48892721  0.57278063  1
  O  O197  1  0.56523140  0.48092245  0.57540123  1
  O  O198  1  0.15049755  0.84540678  0.25264385  1
  O  O199  1  0.65649935  0.85216088  0.25979326  1
  O  O200  1  0.26981724  0.69214834  0.25872468  1
  O  O201  1  0.77318343  0.70149134  0.25494253  1
  O  O202  1  0.07931040  0.45457121  0.25241525  1
  O  O203  1  0.58411350  0.47708098  0.26234334  1
  O  O204  1  0.15621043  0.45991962  0.76032146  1
  O  O205  1  0.64980380  0.45627957  0.75385016  1
  O  O206  1  0.08384182  0.69344175  0.76261633  1
  O  O207  1  0.57866517  0.70252134  0.75453264  1
  O  O208  1  0.27188778  0.84588860  0.75749439  1
  O  O209  1  0.77028007  0.84676152  0.75971274  1
