# generated using pymatgen
data_SnH6CBr3N
_symmetry_space_group_name_H-M   'P 1'
_cell_length_a   7.98017100
_cell_length_b   12.22726700
_cell_length_c   8.65042900
_cell_angle_alpha   90.00000000
_cell_angle_beta   90.00000000
_cell_angle_gamma   90.00000000
_symmetry_Int_Tables_number   1
_chemical_formula_structural   SnH6CBr3N
_chemical_formula_sum   'Sn4 H24 C4 Br12 N4'
_cell_volume   844.07150514
_cell_formula_units_Z   4
loop_
 _symmetry_equiv_pos_site_id
 _symmetry_equiv_pos_as_xyz
  1  'x, y, z'
loop_
 _atom_site_type_symbol
 _atom_site_label
 _atom_site_symmetry_multiplicity
 _atom_site_fract_x
 _atom_site_fract_y
 _atom_site_fract_z
 _atom_site_occupancy
  Sn  Sn0  1  0.50000000  0.00000000  0.50000000  1
  Sn  Sn1  1  0.00000000  0.00000000  0.00000000  1
  Sn  Sn2  1  0.50000000  0.50000000  0.50000000  1
  Sn  Sn3  1  0.00000000  0.50000000  0.00000000  1
  H  H4  1  0.50960200  0.31846300  0.14989800  1
  H  H5  1  0.49039800  0.68153700  0.85010200  1
  H  H6  1  0.99039800  0.68153700  0.64989800  1
  H  H7  1  0.00960200  0.31846300  0.35010200  1
  H  H8  1  0.49039800  0.81846300  0.85010200  1
  H  H9  1  0.50960200  0.18153700  0.14989800  1
  H  H10  1  0.00960200  0.18153700  0.35010200  1
  H  H11  1  0.99039800  0.81846300  0.64989800  1
  H  H12  1  0.33877100  0.25000000  0.08642900  1
  H  H13  1  0.66122900  0.75000000  0.91357100  1
  H  H14  1  0.16122900  0.75000000  0.58642900  1
  H  H15  1  0.83877100  0.25000000  0.41357100  1
  H  H16  1  0.49419100  0.32340100  0.86994200  1
  H  H17  1  0.50580900  0.67659900  0.13005800  1
  H  H18  1  0.00580900  0.67659900  0.36994200  1
  H  H19  1  0.99419100  0.32340100  0.63005900  1
  H  H20  1  0.50580900  0.82340100  0.13005800  1
  H  H21  1  0.49419100  0.17659900  0.86994200  1
  H  H22  1  0.99419100  0.17659900  0.63005900  1
  H  H23  1  0.00580900  0.82340100  0.36994200  1
  H  H24  1  0.67551100  0.25000000  0.93601200  1
  H  H25  1  0.32448900  0.75000000  0.06398800  1
  H  H26  1  0.82448900  0.75000000  0.43601200  1
  H  H27  1  0.17551100  0.25000000  0.56398800  1
  C  C28  1  0.53859500  0.25000000  0.92944700  1
  C  C29  1  0.46140400  0.75000000  0.07055300  1
  C  C30  1  0.96140500  0.75000000  0.42944800  1
  C  C31  1  0.03859500  0.25000000  0.57055300  1
  Br  Br32  1  0.55629400  0.25000000  0.50089400  1
  Br  Br33  1  0.44370600  0.75000000  0.49910600  1
  Br  Br34  1  0.94370600  0.75000000  0.00089400  1
  Br  Br35  1  0.05629400  0.25000000  0.99910600  1
  Br  Br36  1  0.79807000  0.97808800  0.70792300  1
  Br  Br37  1  0.20193000  0.02191200  0.29207700  1
  Br  Br38  1  0.70193000  0.02191200  0.20792300  1
  Br  Br39  1  0.29807000  0.97808800  0.79207700  1
  Br  Br40  1  0.20193000  0.47808800  0.29207700  1
  Br  Br41  1  0.79807000  0.52191200  0.70792300  1
  Br  Br42  1  0.29807000  0.52191200  0.79207700  1
  Br  Br43  1  0.70193000  0.47808800  0.20792300  1
  N  N44  1  0.46941100  0.25000000  0.08966900  1
  N  N45  1  0.53058900  0.75000000  0.91033100  1
  N  N46  1  0.03058900  0.75000000  0.58966900  1
  N  N47  1  0.96941100  0.25000000  0.41033100  1
