# generated using pymatgen
data_Na3ScGa(PO4)3
_symmetry_space_group_name_H-M   'P 1'
_cell_length_a   15.43719975
_cell_length_b   8.87926697
_cell_length_c   8.89153031
_cell_angle_alpha   90.04873708
_cell_angle_beta   124.89216528
_cell_angle_gamma   89.93739236
_symmetry_Int_Tables_number   1
_chemical_formula_structural   Na3ScGa(PO4)3
_chemical_formula_sum   'Na12 Sc4 Ga4 P12 O48'
_cell_volume   999.67211923
_cell_formula_units_Z   4
loop_
 _symmetry_equiv_pos_site_id
 _symmetry_equiv_pos_as_xyz
  1  'x, y, z'
loop_
 _atom_site_type_symbol
 _atom_site_label
 _atom_site_symmetry_multiplicity
 _atom_site_fract_x
 _atom_site_fract_y
 _atom_site_fract_z
 _atom_site_occupancy
  Na  Na0  1  0.24367169  0.77117625  0.99624536  1
  Na  Na1  1  0.74863710  0.72704693  0.50317585  1
  Na  Na2  1  0.74892810  0.27125414  0.00360626  1
  Na  Na3  1  0.24384702  0.22841641  0.49579319  1
  Na  Na4  1  0.50323039  0.10164851  0.75213537  1
  Na  Na5  1  0.50210998  0.90097826  0.24746232  1
  Na  Na6  1  0.00325828  0.60755119  0.75049820  1
  Na  Na7  1  0.00136129  0.38932892  0.24773035  1
  Na  Na8  1  0.81498794  0.93294341  0.21650512  1
  Na  Na9  1  0.81202470  0.06905959  0.71363257  1
  Na  Na10  1  0.30772884  0.43267329  0.20595231  1
  Na  Na11  1  0.31048151  0.56662111  0.71489207  1
  Sc  Sc12  1  0.10423053  0.75881119  0.55769949  1
  Sc  Sc13  1  0.60394944  0.25805483  0.55927560  1
  Sc  Sc14  1  0.39621600  0.75052558  0.44027806  1
  Sc  Sc15  1  0.60579292  0.74183147  0.05993156  1
  Ga  Ga16  1  0.89880902  0.74990760  0.94419840  1
  Ga  Ga17  1  0.89986353  0.25020012  0.44582504  1
  Ga  Ga18  1  0.10160119  0.24385769  0.05268762  1
  Ga  Ga19  1  0.39817959  0.25079119  0.94250321  1
  P  P20  1  0.99930284  0.95940782  0.75139634  1
  P  P21  1  0.99859172  0.04873064  0.24113869  1
  P  P22  1  0.49664092  0.44687185  0.74985855  1
  P  P23  1  0.49698764  0.54548522  0.24071985  1
  P  P24  1  0.35640503  0.90305284  0.76330549  1
  P  P25  1  0.65473880  0.89113525  0.74891286  1
  P  P26  1  0.65206496  0.11036230  0.24655743  1
  P  P27  1  0.35111079  0.10674851  0.24684701  1
  P  P28  1  0.85993687  0.39950995  0.75758615  1
  P  P29  1  0.14788663  0.38848058  0.74760402  1
  P  P30  1  0.14486446  0.60128342  0.23807247  1
  P  P31  1  0.85773171  0.59885515  0.25605431  1
  O  O32  1  0.15638112  0.56397523  0.74255216  1
  O  O33  1  0.85430987  0.57398885  0.76192043  1
  O  O34  1  0.85285123  0.42453725  0.26135051  1
  O  O35  1  0.15219438  0.42537352  0.23325671  1
  O  O36  1  0.66230627  0.06602336  0.74360093  1
  O  O37  1  0.34982475  0.07742009  0.76270453  1
  O  O38  1  0.34556011  0.93244862  0.24915087  1
  O  O39  1  0.66080468  0.93524426  0.24294158  1
  O  O40  1  0.42910384  0.54078899  0.57273276  1
  O  O41  1  0.55740740  0.55086618  0.91672641  1
  O  O42  1  0.55642970  0.44346327  0.41003752  1
  O  O43  1  0.42870946  0.45061903  0.06310470  1
  O  O44  1  0.92791203  0.05365972  0.57336439  1
  O  O45  1  0.06386085  0.06028846  0.92154692  1
  O  O46  1  0.06314440  0.94804447  0.41093470  1
  O  O47  1  0.92594639  0.95128500  0.06706899  1
  O  O48  1  0.26284306  0.82468010  0.74927373  1
  O  O49  1  0.74954110  0.82150554  0.75726484  1
  O  O50  1  0.74827978  0.17775631  0.25737901  1
  O  O51  1  0.25625441  0.18274985  0.23276499  1
  O  O52  1  0.76492988  0.32531000  0.74368176  1
  O  O53  1  0.24390706  0.32185365  0.75788309  1
  O  O54  1  0.23985974  0.66691485  0.24479796  1
  O  O55  1  0.76397279  0.67471099  0.24409624  1
  O  O56  1  0.35935145  0.86047903  0.59756367  1
  O  O57  1  0.65693048  0.85762013  0.92108175  1
  O  O58  1  0.65371103  0.14329952  0.41868653  1
  O  O59  1  0.35750816  0.14768937  0.08441980  1
  O  O60  1  0.86294624  0.36137406  0.59088147  1
  O  O61  1  0.14797359  0.35891372  0.91986990  1
  O  O62  1  0.15087051  0.63512792  0.41436447  1
  O  O63  1  0.86046464  0.63872966  0.08900343  1
  O  O64  1  0.45838119  0.84709774  0.94024247  1
  O  O65  1  0.55073795  0.83524221  0.57358895  1
  O  O66  1  0.54812732  0.16784556  0.07033107  1
  O  O67  1  0.45213789  0.16195890  0.42840906  1
  O  O68  1  0.96019921  0.33739462  0.93625465  1
  O  O69  1  0.04585605  0.32954178  0.57060271  1
  O  O70  1  0.04227771  0.66338628  0.06572819  1
  O  O71  1  0.95809592  0.65872817  0.43381752  1
  O  O72  1  0.07521864  0.85204036  0.74345042  1
  O  O73  1  0.91967228  0.85786611  0.76106565  1
  O  O74  1  0.92002145  0.14947189  0.25556827  1
  O  O75  1  0.07536200  0.15483704  0.23266958  1
  O  O76  1  0.57561536  0.33908564  0.75027491  1
  O  O77  1  0.41429742  0.34791818  0.75463787  1
  O  O78  1  0.41570691  0.64620461  0.24469173  1
  O  O79  1  0.57703082  0.65203868  0.24457906  1
