# generated using pymatgen
data_Na9Ca8Ta4P9(SO8)9
_symmetry_space_group_name_H-M   'P 1'
_cell_length_a   9.13649180
_cell_length_b   9.12113406
_cell_length_c   23.30769105
_cell_angle_alpha   89.83060867
_cell_angle_beta   90.15964444
_cell_angle_gamma   120.02403381
_symmetry_Int_Tables_number   1
_chemical_formula_structural   Na9Ca8Ta4P9(SO8)9
_chemical_formula_sum   'Na9 Ca8 Ta4 P9 S9 O72'
_cell_volume   1681.70792438
_cell_formula_units_Z   1
loop_
 _symmetry_equiv_pos_site_id
 _symmetry_equiv_pos_as_xyz
  1  'x, y, z'
loop_
 _atom_site_type_symbol
 _atom_site_label
 _atom_site_symmetry_multiplicity
 _atom_site_fract_x
 _atom_site_fract_y
 _atom_site_fract_z
 _atom_site_occupancy
  Na  Na0  1  0.65588067  0.95981748  0.58084124  1
  Na  Na1  1  0.29624776  0.95331233  0.07893322  1
  Na  Na2  1  0.03455084  0.34338280  0.08059618  1
  Na  Na3  1  0.02455254  0.00046580  0.49464414  1
  Na  Na4  1  0.97496924  0.97693883  0.99376873  1
  Na  Na5  1  0.66290939  0.33262381  0.83140516  1
  Na  Na6  1  0.67025943  0.33631290  0.33034840  1
  Na  Na7  1  0.35160133  0.67843756  0.16480493  1
  Na  Na8  1  0.31638712  0.66225350  0.66523591  1
  Ca  Ca9  1  0.99886377  0.99950379  0.35239697  1
  Ca  Ca10  1  0.00125434  0.00024642  0.85190862  1
  Ca  Ca11  1  0.02269568  0.00367340  0.64815856  1
  Ca  Ca12  1  0.97881706  0.98205005  0.14874951  1
  Ca  Ca13  1  0.66219695  0.33359827  0.68766636  1
  Ca  Ca14  1  0.67106475  0.33799338  0.18738226  1
  Ca  Ca15  1  0.34161454  0.66994348  0.01459083  1
  Ca  Ca16  1  0.32546316  0.66282100  0.51673150  1
  Ta  Ta17  1  0.67735223  0.33806908  0.97629075  1
  Ta  Ta18  1  0.65809759  0.32842834  0.47566213  1
  Ta  Ta19  1  0.33040930  0.66626015  0.32413384  1
  Ta  Ta20  1  0.33617421  0.66905251  0.82441119  1
  P  P21  1  0.37752438  0.04657757  0.58075752  1
  P  P22  1  0.95688514  0.62610895  0.08001455  1
  P  P23  1  0.66872845  0.04957272  0.08096918  1
  P  P24  1  0.62738072  0.65595809  0.91845783  1
  P  P25  1  0.03462172  0.37383597  0.92017495  1
  P  P26  1  0.34490392  0.97200329  0.92028705  1
  P  P27  1  0.62470654  0.96622958  0.42066237  1
  P  P28  1  0.34067203  0.37544036  0.41908768  1
  P  P29  1  0.02904627  0.65493228  0.41901289  1
  S  S30  1  0.30207883  0.98662146  0.25261261  1
  S  S31  1  0.68050701  0.69628964  0.25510132  1
  S  S32  1  0.01532839  0.31687569  0.25247827  1
  S  S33  1  0.30170463  0.31770044  0.75434643  1
  S  S34  1  0.01435535  0.69735149  0.75442016  1
  S  S35  1  0.68468503  0.98592489  0.75201711  1
  S  S36  1  0.94747224  0.32854962  0.58041474  1
  S  S37  1  0.67181957  0.62471343  0.57926972  1
  S  S38  1  0.37757921  0.32886546  0.08031040  1
  O  O39  1  0.20961106  0.00436202  0.30005550  1
  O  O40  1  0.78922080  0.78230233  0.30362700  1
  O  O41  1  0.99617667  0.20556137  0.30002028  1
  O  O42  1  0.21798565  0.20990780  0.80330736  1
  O  O43  1  0.99195157  0.78178141  0.80330621  1
  O  O44  1  0.79519434  0.00467742  0.79962359  1
  O  O45  1  0.74535936  0.95690753  0.69652765  1
  O  O46  1  0.20597490  0.25173703  0.70034909  1
  O  O47  1  0.04541752  0.79357630  0.70036360  1
  O  O48  1  0.74437676  0.79046287  0.20068992  1
  O  O49  1  0.04249117  0.25513020  0.19690898  1
  O  O50  1  0.21235263  0.95774977  0.19697208  1
  O  O51  1  0.86822876  0.34294793  0.63268896  1
  O  O52  1  0.48044330  0.13599080  0.63337281  1
  O  O53  1  0.66398616  0.53380457  0.63164126  1
  O  O54  1  0.86877447  0.52471495  0.13285863  1
  O  O55  1  0.65042093  0.13495072  0.13376713  1
  O  O56  1  0.47115470  0.34563025  0.13294030  1
  O  O57  1  0.47463100  0.32260841  0.02825483  1
  O  O58  1  0.84145253  0.51970466  0.02496320  1
  O  O59  1  0.67594148  0.16552208  0.02590455  1
  O  O60  1  0.48840537  0.16429377  0.52565646  1
  O  O61  1  0.67857073  0.52588613  0.52709063  1
  O  O62  1  0.84209393  0.32447077  0.52804335  1
  O  O63  1  0.55284028  0.67924064  0.97205217  1
  O  O64  1  0.12339856  0.44248887  0.97630359  1
  O  O65  1  0.32027829  0.87854687  0.97594499  1
  O  O66  1  0.55594889  0.87490880  0.47631942  1
  O  O67  1  0.32030099  0.45150821  0.47251443  1
  O  O68  1  0.12978822  0.68030882  0.47206581  1
  O  O69  1  0.13279950  0.63127015  0.36579017  1
  O  O70  1  0.49375746  0.86082944  0.36915098  1
  O  O71  1  0.36546763  0.50071295  0.36582093  1
  O  O72  1  0.14077233  0.50381706  0.86891167  1
  O  O73  1  0.36724135  0.86206423  0.86897599  1
  O  O74  1  0.50072122  0.63409204  0.86548747  1
  O  O75  1  0.99670624  0.79782100  0.40633734  1
  O  O76  1  0.79999954  0.00180508  0.40714384  1
  O  O77  1  0.20162911  0.19788087  0.40714524  1
  O  O78  1  0.99864216  0.19787071  0.90738563  1
  O  O79  1  0.20132380  0.00171548  0.90672794  1
  O  O80  1  0.80271567  0.79861609  0.90650848  1
  O  O81  1  0.94370837  0.16281138  0.57902883  1
  O  O82  1  0.20607779  0.03713926  0.57635286  1
  O  O83  1  0.82600526  0.79559044  0.57747195  1
  O  O84  1  0.97841401  0.80443897  0.07707598  1
  O  O85  1  0.83957714  0.05344826  0.07834349  1
  O  O86  1  0.21205597  0.16568111  0.08023347  1
  O  O87  1  0.65569065  0.13117870  0.75006230  1
  O  O88  1  0.47680556  0.35018995  0.75038711  1
  O  O89  1  0.87122195  0.52262099  0.74999348  1
  O  O90  1  0.64857943  0.52131690  0.25146032  1
  O  O91  1  0.87108311  0.34705166  0.25106293  1
  O  O92  1  0.47597868  0.13151012  0.25081327  1
  O  O93  1  0.62816851  0.48212307  0.92196160  1
  O  O94  1  0.85750190  0.37158500  0.92185766  1
  O  O95  1  0.51744511  0.14696147  0.92203645  1
  O  O96  1  0.62897183  0.14470266  0.42292964  1
  O  O97  1  0.51563677  0.37277090  0.42298771  1
  O  O98  1  0.85373057  0.48210228  0.42295543  1
  O  O99  1  0.34344918  0.47047987  0.07689789  1
  O  O100  1  0.13167216  0.63877338  0.07659427  1
  O  O101  1  0.51229065  0.87385355  0.07692413  1
  O  O102  1  0.36948959  0.87487501  0.57722517  1
  O  O103  1  0.52164969  0.64536593  0.57650349  1
  O  O104  1  0.11970459  0.47090650  0.57696530  1
  O  O105  1  0.31611698  0.82642642  0.26356744  1
  O  O106  1  0.50854805  0.68549435  0.26465915  1
  O  O107  1  0.17577933  0.48983401  0.26308922  1
  O  O108  1  0.31336170  0.49048386  0.76412629  1
  O  O109  1  0.17497214  0.68442213  0.76454620  1
  O  O110  1  0.51040598  0.82634664  0.76331125  1
