# generated using pymatgen
data_Na3Nb5ZnSi6(SO12)3
_symmetry_space_group_name_H-M   'P 1'
_cell_length_a   8.87684849
_cell_length_b   8.87684819
_cell_length_c   22.99797160
_cell_angle_alpha   89.63252157
_cell_angle_beta   90.36747843
_cell_angle_gamma   119.76361615
_symmetry_Int_Tables_number   1
_chemical_formula_structural   Na3Nb5ZnSi6(SO12)3
_chemical_formula_sum   'Na6 Nb10 Zn2 Si12 S6 O72'
_cell_volume   1573.09654957
_cell_formula_units_Z   2
loop_
 _symmetry_equiv_pos_site_id
 _symmetry_equiv_pos_as_xyz
  1  'x, y, z'
loop_
 _atom_site_type_symbol
 _atom_site_label
 _atom_site_symmetry_multiplicity
 _atom_site_fract_x
 _atom_site_fract_y
 _atom_site_fract_z
 _atom_site_occupancy
  Na  Na0  1  0.00339143  0.99700681  0.49965698  1
  Na  Na1  1  0.00299319  0.99660857  0.99965698  1
  Na  Na2  1  0.66703404  0.32438312  0.82898888  1
  Na  Na3  1  0.67561688  0.33296596  0.32898888  1
  Na  Na4  1  0.32553027  0.65672954  0.16499775  1
  Na  Na5  1  0.34327046  0.67446973  0.66499775  1
  Nb  Nb6  1  0.99449623  0.00784383  0.35751608  1
  Nb  Nb7  1  0.99215617  0.00550377  0.85751608  1
  Nb  Nb8  1  0.98627936  0.98720585  0.64242138  1
  Nb  Nb9  1  0.01279415  0.01372064  0.14242138  1
  Nb  Nb10  1  0.66372175  0.34571799  0.97702993  1
  Nb  Nb11  1  0.65428201  0.33627825  0.47702993  1
  Nb  Nb12  1  0.32111293  0.65570302  0.01994682  1
  Nb  Nb13  1  0.34429698  0.67888707  0.51994682  1
  Nb  Nb14  1  0.32289521  0.65659331  0.31449086  1
  Nb  Nb15  1  0.34340669  0.67710479  0.81449086  1
  Zn  Zn16  1  0.65204980  0.31630868  0.68326209  1
  Zn  Zn17  1  0.68369132  0.34795020  0.18326209  1
  Si  Si18  1  0.99035709  0.29132583  0.24863762  1
  Si  Si19  1  0.70867417  0.00964291  0.74863762  1
  Si  Si20  1  0.37930065  0.04614194  0.58586450  1
  Si  Si21  1  0.65851666  0.60760365  0.58682759  1
  Si  Si22  1  0.95385806  0.62069935  0.08586450  1
  Si  Si23  1  0.39239635  0.34148334  0.08682759  1
  Si  Si24  1  0.61868957  0.66954225  0.91811083  1
  Si  Si25  1  0.04318085  0.38332860  0.91470839  1
  Si  Si26  1  0.33551775  0.95750127  0.91746966  1
  Si  Si27  1  0.61667140  0.95681915  0.41470839  1
  Si  Si28  1  0.33045775  0.38131043  0.41811083  1
  Si  Si29  1  0.04249873  0.66448225  0.41746966  1
  S  S30  1  0.28783331  0.00050511  0.25048039  1
  S  S31  1  0.71219445  0.71436867  0.25054921  1
  S  S32  1  0.28563133  0.28780555  0.75054921  1
  S  S33  1  -0.00050511  0.71216669  0.75048039  1
  S  S34  1  0.95771781  0.33651416  0.58431922  1
  S  S35  1  0.66348584  0.04228219  0.08431922  1
  O  O36  1  0.19682464  0.01481634  0.30219889  1
  O  O37  1  0.81999530  0.80255612  0.30342233  1
  O  O38  1  0.98461026  0.16873361  0.30517287  1
  O  O39  1  0.19744388  0.18000470  0.80342233  1
  O  O40  1  0.98518366  0.80317536  0.80219889  1
  O  O41  1  0.83126639  0.01538974  0.80517287  1
  O  O42  1  0.81206250  0.97676833  0.69384486  1
  O  O43  1  0.17890282  0.20338675  0.69814348  1
  O  O44  1  0.02805801  0.82281821  0.69669848  1
  O  O45  1  0.79661325  0.82109718  0.19814348  1
  O  O46  1  0.02323167  0.18793750  0.19384486  1
  O  O47  1  0.17718179  0.97194199  0.19669848  1
  O  O48  1  0.88723182  0.36385683  0.63674219  1
  O  O49  1  0.49177862  0.10937198  0.64272619  1
  O  O50  1  0.63793221  0.50686929  0.64523995  1
  O  O51  1  0.89062802  0.50822138  0.14272619  1
  O  O52  1  0.63614317  0.11276818  0.13674219  1
  O  O53  1  0.49313071  0.36206779  0.14523995  1
  O  O54  1  0.47018014  0.30318450  0.02663928  1
  O  O55  1  0.83376944  0.52822696  0.02658708  1
  O  O56  1  0.69679098  0.14963630  0.03109667  1
  O  O57  1  0.47177304  0.16623056  0.52658708  1
  O  O58  1  0.69681550  0.52981986  0.52663928  1
  O  O59  1  0.85036370  0.30320902  0.53109667  1
  O  O60  1  0.53321014  0.70187900  0.97438114  1
  O  O61  1  0.16526885  0.46636954  0.97242337  1
  O  O62  1  0.30215264  0.83274306  0.97313270  1
  O  O63  1  0.53363046  0.83473115  0.47242337  1
  O  O64  1  0.29812100  0.46678986  0.47438114  1
  O  O65  1  0.16725694  0.69784736  0.47313270  1
  O  O66  1  0.13733470  0.63608524  0.35959495  1
  O  O67  1  0.49823029  0.86208516  0.35766061  1
  O  O68  1  0.36243941  0.49976157  0.35937717  1
  O  O69  1  0.13791484  0.50176971  0.85766061  1
  O  O70  1  0.36391476  0.86266530  0.85959495  1
  O  O71  1  0.50023843  0.63756059  0.85937717  1
  O  O72  1  0.02442083  0.83560391  0.40461521  1
  O  O73  1  0.80824334  0.97064925  0.40791239  1
  O  O74  1  0.16504913  0.18631095  0.40779860  1
  O  O75  1  0.02935075  0.19175666  0.90791239  1
  O  O76  1  0.16439609  0.97557917  0.90461521  1
  O  O77  1  0.81368905  0.83495087  0.90779860  1
  O  O78  1  0.97841424  0.17506030  0.59009729  1
  O  O79  1  0.18298660  0.02693243  0.59289067  1
  O  O80  1  0.83381126  0.81161706  0.59111224  1
  O  O81  1  0.97306757  0.81701340  0.09289067  1
  O  O82  1  0.82493970  0.02158576  0.09009729  1
  O  O83  1  0.18838294  0.16618874  0.09111224  1
  O  O84  1  0.69699690  0.18210084  0.74781127  1
  O  O85  1  0.45890872  0.30898462  0.74883161  1
  O  O86  1  0.84618822  0.54249416  0.74566081  1
  O  O87  1  0.69101538  0.54109128  0.24883161  1
  O  O88  1  0.81789916  0.30300310  0.24781127  1
  O  O89  1  0.45750584  0.15381178  0.24566081  1
  O  O90  1  0.63976792  0.49718681  0.92200576  1
  O  O91  1  0.85081254  0.35343200  0.92512195  1
  O  O92  1  0.50808897  0.14522001  0.92526408  1
  O  O93  1  0.64656800  0.14918746  0.42512195  1
  O  O94  1  0.50281319  0.36023208  0.42200576  1
  O  O95  1  0.85477999  0.49191103  0.42526408  1
  O  O96  1  0.35678089  0.50412342  0.07477088  1
  O  O97  1  0.15350807  0.65757055  0.07310522  1
  O  O98  1  0.51333952  0.86454643  0.07595237  1
  O  O99  1  0.34242945  0.84649193  0.57310522  1
  O  O100  1  0.49587658  0.64321911  0.57477088  1
  O  O101  1  0.13545357  0.48666048  0.57595237  1
  O  O102  1  0.30065980  0.83848128  0.25473852  1
  O  O103  1  0.53880177  0.70507943  0.25574461  1
  O  O104  1  0.17540348  0.47990830  0.25620613  1
  O  O105  1  0.29492057  0.46119823  0.75574461  1
  O  O106  1  0.16151872  0.69934020  0.75473852  1
  O  O107  1  0.52009170  0.82459652  0.75620613  1
