# generated using pymatgen
data_Sm2MgMo2(ClO4)2
_symmetry_space_group_name_H-M   'P 1'
_cell_length_a   6.55359296
_cell_length_b   6.55359201
_cell_length_c   7.28163463
_cell_angle_alpha   76.87870450
_cell_angle_beta   76.87870243
_cell_angle_gamma   68.07130630
_symmetry_Int_Tables_number   1
_chemical_formula_structural   Sm2MgMo2(ClO4)2
_chemical_formula_sum   'Sm2 Mg1 Mo2 Cl2 O8'
_cell_volume   279.01786025
_cell_formula_units_Z   1
loop_
 _symmetry_equiv_pos_site_id
 _symmetry_equiv_pos_as_xyz
  1  'x, y, z'
loop_
 _atom_site_type_symbol
 _atom_site_label
 _atom_site_symmetry_multiplicity
 _atom_site_fract_x
 _atom_site_fract_y
 _atom_site_fract_z
 _atom_site_occupancy
  Sm  Sm0  1  0.25737900  0.25826700  0.87628900  1
  Sm  Sm1  1  0.74173300  0.74262100  0.12371100  1
  Mg  Mg2  1  0.73137600  0.26862400  0.00000000  1
  Mo  Mo3  1  0.63974500  0.66885900  0.70920700  1
  Mo  Mo4  1  0.33114100  0.36025500  0.29079300  1
  Cl  Cl5  1  0.01388100  0.04130400  0.20904700  1
  Cl  Cl6  1  0.95869600  0.98611900  0.79095300  1
  O  O7  1  0.10976000  0.50060000  0.14135400  1
  O  O8  1  0.71115300  0.70179400  0.45338900  1
  O  O9  1  0.50715000  0.44358300  0.80523700  1
  O  O10  1  0.29820600  0.28884700  0.54661100  1
  O  O11  1  0.55641700  0.49285000  0.19476300  1
  O  O12  1  0.49940000  0.89024000  0.85864600  1
  O  O13  1  0.88195700  0.49841000  0.85710200  1
  O  O14  1  0.50159000  0.11804300  0.14289800  1
