# generated using pymatgen
data_Te6Br2O11
_symmetry_space_group_name_H-M   'P 1'
_cell_length_a   6.89558496
_cell_length_b   6.89558496
_cell_length_c   15.64651048
_cell_angle_alpha   90.00000000
_cell_angle_beta   90.00000000
_cell_angle_gamma   119.80796028
_symmetry_Int_Tables_number   1
_chemical_formula_structural   Te6Br2O11
_chemical_formula_sum   'Te12 Br4 O22'
_cell_volume   645.54648088
_cell_formula_units_Z   2
loop_
 _symmetry_equiv_pos_site_id
 _symmetry_equiv_pos_as_xyz
  1  'x, y, z'
loop_
 _atom_site_type_symbol
 _atom_site_label
 _atom_site_symmetry_multiplicity
 _atom_site_fract_x
 _atom_site_fract_y
 _atom_site_fract_z
 _atom_site_occupancy
  Te  Te0  1  0.07005642  0.07005642  0.85937171  1
  Te  Te1  1  0.92994358  0.92994358  0.35937171  1
  Te  Te2  1  0.07005642  0.07005642  0.64062829  1
  Te  Te3  1  0.92994358  0.92994358  0.14062829  1
  Te  Te4  1  0.21642426  0.52565524  0.08544876  1
  Te  Te5  1  0.78357574  0.47434476  0.58544876  1
  Te  Te6  1  0.52565524  0.21642426  0.41455124  1
  Te  Te7  1  0.47434476  0.78357574  0.91455124  1
  Te  Te8  1  0.78357574  0.47434476  0.91455124  1
  Te  Te9  1  0.21642426  0.52565524  0.41455124  1
  Te  Te10  1  0.47434476  0.78357574  0.58544876  1
  Te  Te11  1  0.52565524  0.21642426  0.08544876  1
  Br  Br12  1  0.14183357  0.47727058  0.75000000  1
  Br  Br13  1  0.85816643  0.52272942  0.25000000  1
  Br  Br14  1  0.47727058  0.14183357  0.75000000  1
  Br  Br15  1  0.52272942  0.85816643  0.25000000  1
  O  O16  1  0.93193590  0.93193590  0.75000000  1
  O  O17  1  0.06806410  0.06806410  0.25000000  1
  O  O18  1  0.96531158  0.20154669  0.09543974  1
  O  O19  1  0.03468842  0.79845331  0.59543974  1
  O  O20  1  0.20154669  0.96531158  0.40456026  1
  O  O21  1  0.79845331  0.03468842  0.90456026  1
  O  O22  1  0.03468842  0.79845331  0.90456026  1
  O  O23  1  0.96531158  0.20154669  0.40456026  1
  O  O24  1  0.79845331  0.03468842  0.59543974  1
  O  O25  1  0.20154669  0.96531158  0.09543974  1
  O  O26  1  0.81511839  0.51392283  0.03514575  1
  O  O27  1  0.18488161  0.48607717  0.53514575  1
  O  O28  1  0.51392283  0.81511839  0.46485425  1
  O  O29  1  0.48607717  0.18488161  0.96485425  1
  O  O30  1  0.18488161  0.48607717  0.96485425  1
  O  O31  1  0.81511839  0.51392283  0.46485425  1
  O  O32  1  0.42552306  0.42552306  0.11034192  1
  O  O33  1  0.57447694  0.57447694  0.61034192  1
  O  O34  1  0.42552306  0.42552306  0.38965808  1
  O  O35  1  0.57447694  0.57447694  0.88965808  1
  O  O36  1  0.51392283  0.81511839  0.03514575  1
  O  O37  1  0.48607717  0.18488161  0.53514575  1
