# generated using pymatgen
data_Na6Mg4Ta2P6(SO12)3
_symmetry_space_group_name_H-M   'P 1'
_cell_length_a   8.85882672
_cell_length_b   8.83307777
_cell_length_c   22.39744682
_cell_angle_alpha   90.23562524
_cell_angle_beta   90.00000000
_cell_angle_gamma   120.09647636
_symmetry_Int_Tables_number   1
_chemical_formula_structural   Na6Mg4Ta2P6(SO12)3
_chemical_formula_sum   'Na12 Mg8 Ta4 P12 S6 O72'
_cell_volume   1516.31515457
_cell_formula_units_Z   2
loop_
 _symmetry_equiv_pos_site_id
 _symmetry_equiv_pos_as_xyz
  1  'x, y, z'
loop_
 _atom_site_type_symbol
 _atom_site_label
 _atom_site_symmetry_multiplicity
 _atom_site_fract_x
 _atom_site_fract_y
 _atom_site_fract_z
 _atom_site_occupancy
  Na  Na0  1  0.99524333  0.63954978  0.24561656  1
  Na  Na1  1  0.64430645  0.63954978  0.74561656  1
  Na  Na2  1  0.30373007  0.33972784  0.58625359  1
  Na  Na3  1  0.66778319  0.95719264  0.58408838  1
  Na  Na4  1  0.28941046  0.95719264  0.08408838  1
  Na  Na5  1  0.03599877  0.33972784  0.08625359  1
  Na  Na6  1  0.99499097  0.98420119  0.49065522  1
  Na  Na7  1  0.98921023  0.98420119  0.99065522  1
  Na  Na8  1  0.65694374  0.30983951  0.82499400  1
  Na  Na9  1  0.65289677  0.30983951  0.32499400  1
  Na  Na10  1  0.34467480  0.66660753  0.16547410  1
  Na  Na11  1  0.32193173  0.66660753  0.66547410  1
  Mg  Mg12  1  0.00640650  0.01076214  0.35243971  1
  Mg  Mg13  1  0.00435564  0.01076214  0.85243971  1
  Mg  Mg14  1  0.99471835  0.99439242  0.65420362  1
  Mg  Mg15  1  0.99967407  0.99439242  0.15420362  1
  Mg  Mg16  1  0.65980319  0.32703817  0.68735978  1
  Mg  Mg17  1  0.66723599  0.32703817  0.18735978  1
  Mg  Mg18  1  0.33308407  0.66809815  0.01432163  1
  Mg  Mg19  1  0.33501308  0.66809815  0.51432163  1
  Ta  Ta20  1  0.67415083  0.34396489  0.97425363  1
  Ta  Ta21  1  0.66981506  0.34396489  0.47425363  1
  Ta  Ta22  1  0.33232901  0.66729320  0.31574718  1
  Ta  Ta23  1  0.33496319  0.66729320  0.81574718  1
  P  P24  1  0.29603286  0.00514710  0.25010440  1
  P  P25  1  0.99735983  0.28994091  0.24940986  1
  P  P26  1  0.29258108  0.28994091  0.74940986  1
  P  P27  1  0.70911425  0.00514710  0.75010440  1
  P  P28  1  0.66964434  0.62822465  0.58574037  1
  P  P29  1  0.95858131  0.62822465  0.08574037  1
  P  P30  1  0.62861890  0.67610282  0.91846794  1
  P  P31  1  0.04616022  0.37211348  0.92004505  1
  P  P32  1  0.32721692  0.95734634  0.92049784  1
  P  P33  1  0.63012842  0.95734634  0.42049784  1
  P  P34  1  0.32595227  0.37211348  0.42004505  1
  P  P35  1  0.04748292  0.67610282  0.41846794  1
  S  S36  1  0.70617908  0.70849292  0.25078321  1
  S  S37  1  0.00231384  0.70849292  0.75078321  1
  S  S38  1  0.95673522  0.33748447  0.58376806  1
  S  S39  1  0.37589442  0.04144172  0.58288501  1
  S  S40  1  0.66554830  0.04144172  0.08288501  1
  S  S41  1  0.38075025  0.33748447  0.08376806  1
  O  O42  1  0.20175073  0.01754614  0.30406312  1
  O  O43  1  0.81347134  0.78841073  0.30357661  1
  O  O44  1  0.97366556  0.17830912  0.30276332  1
  O  O45  1  0.20464356  0.17830912  0.80276332  1
  O  O46  1  0.97493939  0.78841073  0.80357661  1
  O  O47  1  0.81579541  0.01754614  0.80406312  1
  O  O48  1  0.76663269  0.95218499  0.69175376  1
  O  O49  1  0.19318354  0.22455752  0.68971006  1
  O  O50  1  0.03665247  0.81298762  0.69624216  1
  O  O51  1  0.77633515  0.81298762  0.19624216  1
  O  O52  1  0.03137398  0.22455752  0.18971006  1
  O  O53  1  0.18555230  0.95218499  0.19175376  1
  O  O54  1  0.87285561  0.35646195  0.63644205  1
  O  O55  1  0.48580372  0.12206303  0.63543906  1
  O  O56  1  0.64154866  0.51476218  0.64021497  1
  O  O57  1  0.87321451  0.51476218  0.14021497  1
  O  O58  1  0.63626031  0.12206303  0.13543906  1
  O  O59  1  0.48360734  0.35646195  0.13644205  1
  O  O60  1  0.46819713  0.31132500  0.02913771  1
  O  O61  1  0.83768389  0.52144973  0.02921149  1
  O  O62  1  0.68907496  0.15547622  0.02869789  1
  O  O63  1  0.46640226  0.15547622  0.52869789  1
  O  O64  1  0.68376684  0.52144973  0.52921149  1
  O  O65  1  0.84312888  0.31132500  0.52913771  1
  O  O66  1  0.53950402  0.69212330  0.97307236  1
  O  O67  1  0.14203390  0.45332844  0.97768136  1
  O  O68  1  0.31080393  0.85968675  0.97780555  1
  O  O69  1  0.54888182  0.85968675  0.47780555  1
  O  O70  1  0.31129354  0.45332844  0.47768136  1
  O  O71  1  0.15261827  0.69212330  0.47307236  1
  O  O72  1  0.12979955  0.63862033  0.36097099  1
  O  O73  1  0.50323678  0.86449227  0.36541547  1
  O  O74  1  0.36074203  0.49705728  0.36525903  1
  O  O75  1  0.13631424  0.49705728  0.86525903  1
  O  O76  1  0.36125449  0.86449227  0.86541547  1
  O  O77  1  0.50881978  0.63862033  0.86097099  1
  O  O78  1  0.01197296  0.82250270  0.40862278  1
  O  O79  1  0.80826946  0.98325222  0.40962963  1
  O  O80  1  0.17625212  0.19025999  0.41133906  1
  O  O81  1  0.01400787  0.19025999  0.91133906  1
  O  O82  1  0.17498277  0.98325222  0.90962963  1
  O  O83  1  0.81052974  0.82250270  0.90862278  1
  O  O84  1  0.97170913  0.17600216  0.58494966  1
  O  O85  1  0.20536001  0.03326560  0.58626312  1
  O  O86  1  0.83356683  0.81030512  0.58502655  1
  O  O87  1  0.97673829  0.81030512  0.08502655  1
  O  O88  1  0.82790559  0.03326560  0.08626312  1
  O  O89  1  0.20429304  0.17600216  0.08494966  1
  O  O90  1  0.68111638  0.16051369  0.74368099  1
  O  O91  1  0.48545177  0.33651394  0.74583744  1
  O  O92  1  0.84826600  0.53145055  0.74385915  1
  O  O93  1  0.68318554  0.53145055  0.24385915  1
  O  O94  1  0.85106316  0.33651394  0.24583744  1
  O  O95  1  0.47939831  0.16051369  0.24368099  1
  O  O96  1  0.63430109  0.49625321  0.92363586  1
  O  O97  1  0.85933176  0.36300730  0.92335495  1
  O  O98  1  0.50403733  0.14284705  0.92551113  1
  O  O99  1  0.63881073  0.14284705  0.42551113  1
  O  O100  1  0.50367654  0.36300730  0.42335495  1
  O  O101  1  0.86195312  0.49625321  0.42363586  1
  O  O102  1  0.35824081  0.49166229  0.07744320  1
  O  O103  1  0.14064138  0.64388800  0.07871771  1
  O  O104  1  0.50912235  0.86667830  0.07612045  1
  O  O105  1  0.35755495  0.86667830  0.57612045  1
  O  O106  1  0.50324562  0.64388800  0.57871771  1
  O  O107  1  0.13342048  0.49166229  0.57744320  1
  O  O108  1  0.31448140  0.83077387  0.26029049  1
  O  O109  1  0.52558613  0.68795221  0.25828862  1
  O  O110  1  0.17201997  0.48313331  0.25952915  1
  O  O111  1  0.31111233  0.48313331  0.75952915  1
  O  O112  1  0.16236508  0.68795221  0.75828862  1
  O  O113  1  0.51629147  0.83077387  0.76029049  1
