# generated using pymatgen
data_Na5Ta2Ti2Si5PO24
_symmetry_space_group_name_H-M   'P 1'
_cell_length_a   8.93644118
_cell_length_b   8.92381762
_cell_length_c   22.40486553
_cell_angle_alpha   89.90927472
_cell_angle_beta   90.31337958
_cell_angle_gamma   119.93400288
_symmetry_Int_Tables_number   1
_chemical_formula_structural   Na5Ta2Ti2Si5PO24
_chemical_formula_sum   'Na15 Ta6 Ti6 Si15 P3 O72'
_cell_volume   1548.35242868
_cell_formula_units_Z   3
loop_
 _symmetry_equiv_pos_site_id
 _symmetry_equiv_pos_as_xyz
  1  'x, y, z'
loop_
 _atom_site_type_symbol
 _atom_site_label
 _atom_site_symmetry_multiplicity
 _atom_site_fract_x
 _atom_site_fract_y
 _atom_site_fract_z
 _atom_site_occupancy
  Na  Na0  1  0.63862782  0.00723263  0.24890581  1
  Na  Na1  1  0.36699854  0.36066573  0.24892740  1
  Na  Na2  1  0.99385534  0.63083986  0.24894786  1
  Na  Na3  1  0.99920978  0.36387951  0.75012868  1
  Na  Na4  1  0.03599878  0.69847307  0.57987440  1
  Na  Na5  1  0.65949794  0.96264144  0.58009518  1
  Na  Na6  1  0.96536391  0.66665910  0.91848975  1
  Na  Na7  1  0.70218928  0.03576128  0.91795930  1
  Na  Na8  1  0.33189592  0.29763200  0.91933350  1
  Na  Na9  1  0.00715981  0.00788843  0.49204255  1
  Na  Na10  1  0.00168110  0.00077885  0.00189215  1
  Na  Na11  1  0.65971668  0.33109618  0.83399326  1
  Na  Na12  1  0.66795131  0.33201305  0.33365681  1
  Na  Na13  1  0.33430890  0.66576562  0.15991192  1
  Na  Na14  1  0.34087799  0.66428767  0.66246010  1
  Ta  Ta15  1  0.00196936  0.00222136  0.64470023  1
  Ta  Ta16  1  0.00376282  0.00124185  0.14377919  1
  Ta  Ta17  1  0.66333608  0.33385504  0.68781912  1
  Ta  Ta18  1  0.66833736  0.33255090  0.47673252  1
  Ta  Ta19  1  0.33115020  0.66773738  0.31455761  1
  Ta  Ta20  1  0.33531599  0.67358798  0.81169454  1
  Ti  Ti21  1  0.99353758  0.99293059  0.35417893  1
  Ti  Ti22  1  0.00711767  0.00487479  0.85122713  1
  Ti  Ti23  1  0.66837165  0.33984121  0.18444082  1
  Ti  Ti24  1  0.66493498  0.33036827  0.98447930  1
  Ti  Ti25  1  0.31746705  0.65728658  0.02281373  1
  Ti  Ti26  1  0.33477929  0.66808647  0.51802381  1
  Si  Si27  1  0.28811128  0.00314890  0.25154703  1
  Si  Si28  1  0.71339938  0.71245597  0.24972504  1
  Si  Si29  1  0.99731439  0.28414510  0.25089156  1
  Si  Si30  1  0.29233041  0.28859256  0.75133019  1
  Si  Si31  1  0.99830249  0.71342881  0.75127589  1
  Si  Si32  1  0.71148539  0.99677407  0.75061725  1
  Si  Si33  1  0.96085646  0.33741975  0.58311196  1
  Si  Si34  1  0.37742375  0.04524896  0.58170476  1
  Si  Si35  1  0.65886385  0.61901638  0.58195365  1
  Si  Si36  1  0.95413109  0.62085732  0.08287094  1
  Si  Si37  1  0.37989576  0.33858411  0.08241390  1
  Si  Si38  1  0.04140180  0.37527090  0.91737020  1
  Si  Si39  1  0.33333828  0.95705112  0.91942091  1
  Si  Si40  1  0.62795257  0.95627405  0.41793626  1
  Si  Si41  1  0.04407169  0.67229747  0.41799937  1
  P  P42  1  0.66318243  0.04228978  0.08372028  1
  P  P43  1  0.62043368  0.66742665  0.91824471  1
  P  P44  1  0.32980357  0.37649663  0.41777937  1
  O  O45  1  0.19734954  0.03882209  0.30753226  1
  O  O46  1  0.83979360  0.80038743  0.30712040  1
  O  O47  1  0.96229431  0.15813607  0.30750145  1
  O  O48  1  0.20016536  0.17100225  0.81087478  1
  O  O49  1  0.97291280  0.80417913  0.81046772  1
  O  O50  1  0.83558853  0.03283900  0.80938691  1
  O  O51  1  0.80130327  0.97106386  0.69091331  1
  O  O52  1  0.16180981  0.19647722  0.69436837  1
  O  O53  1  0.02838470  0.82995844  0.69152853  1
  O  O54  1  0.80065832  0.84058858  0.19254037  1
  O  O55  1  0.03746334  0.19803962  0.19277081  1
  O  O56  1  0.15977037  0.96069081  0.19305974  1
  O  O57  1  0.87011885  0.36678995  0.64280363  1
  O  O58  1  0.50435258  0.13728366  0.63995066  1
  O  O59  1  0.63819581  0.49998645  0.64095329  1
  O  O60  1  0.86318422  0.50272019  0.14261201  1
  O  O61  1  0.64153793  0.13107369  0.13998306  1
  O  O62  1  0.49764575  0.35838107  0.14213104  1
  O  O63  1  0.47125289  0.30612418  0.02348840  1
  O  O64  1  0.83513093  0.52636643  0.02332201  1
  O  O65  1  0.69236432  0.15768184  0.02702066  1
  O  O66  1  0.47085348  0.17057987  0.52491325  1
  O  O67  1  0.70351222  0.53082577  0.52618342  1
  O  O68  1  0.82638111  0.29706519  0.52699373  1
  O  O69  1  0.53694084  0.70154053  0.97182108  1
  O  O70  1  0.17406907  0.47001190  0.97320542  1
  O  O71  1  0.29944941  0.82497509  0.97412143  1
  O  O72  1  0.53085362  0.83749305  0.47640581  1
  O  O73  1  0.31032735  0.47189287  0.47154509  1
  O  O74  1  0.16310410  0.69146645  0.47636791  1
  O  O75  1  0.13490427  0.63859179  0.35845862  1
  O  O76  1  0.50452461  0.86169258  0.35831886  1
  O  O77  1  0.35896858  0.48987513  0.35995129  1
  O  O78  1  0.13360905  0.49855585  0.85834059  1
  O  O79  1  0.36824253  0.86484478  0.86072122  1
  O  O80  1  0.50296157  0.63566316  0.86170988  1
  O  O81  1  0.03045827  0.84506467  0.41066479  1
  O  O82  1  0.81699346  0.97659348  0.41070804  1
  O  O83  1  0.17031808  0.19910520  0.41140782  1
  O  O84  1  0.02174178  0.18273187  0.91187735  1
  O  O85  1  0.15933066  0.97341666  0.91192624  1
  O  O86  1  0.80264020  0.82878326  0.91067425  1
  O  O87  1  0.96666902  0.15722766  0.58919175  1
  O  O88  1  0.18360807  0.01908793  0.58949291  1
  O  O89  1  0.83587510  0.81044385  0.58997190  1
  O  O90  1  0.96923700  0.81119346  0.08879083  1
  O  O91  1  0.83098199  0.03042238  0.08909710  1
  O  O92  1  0.18813851  0.16422858  0.08910667  1
  O  O93  1  0.70057029  0.17385222  0.74415688  1
  O  O94  1  0.48112008  0.30679759  0.74492546  1
  O  O95  1  0.83398560  0.51701316  0.74537231  1
  O  O96  1  0.69053807  0.51891616  0.24334274  1
  O  O97  1  0.82930523  0.30938525  0.24326779  1
  O  O98  1  0.48183328  0.16792158  0.24298877  1
  O  O99  1  0.63834190  0.50282867  0.92152998  1
  O  O100  1  0.85085557  0.35796618  0.92275424  1
  O  O101  1  0.50567745  0.14932493  0.92290038  1
  O  O102  1  0.63727004  0.14497657  0.42224275  1
  O  O103  1  0.49793332  0.36515553  0.42299666  1
  O  O104  1  0.85339515  0.49661562  0.42297229  1
  O  O105  1  0.36546006  0.51204992  0.07567864  1
  O  O106  1  0.14553445  0.64066337  0.07671535  1
  O  O107  1  0.50391651  0.86398494  0.07630887  1
  O  O108  1  0.35794431  0.85425591  0.57741410  1
  O  O109  1  0.49682293  0.65015953  0.57749257  1
  O  O110  1  0.14597050  0.50961679  0.57695999  1
  O  O111  1  0.30628525  0.82700267  0.25685875  1
  O  O112  1  0.51901387  0.68842968  0.25710123  1
  O  O113  1  0.17200963  0.47749312  0.25696214  1
  O  O114  1  0.30183772  0.47555339  0.75816218  1
  O  O115  1  0.16805318  0.68720989  0.75727974  1
  O  O116  1  0.52127606  0.82585397  0.75700768  1
