# generated using pymatgen
data_Na2Sc3NbSi2(SO6)4
_symmetry_space_group_name_H-M   'P 1'
_cell_length_a   8.88633191
_cell_length_b   8.86868934
_cell_length_c   23.19497379
_cell_angle_alpha   90.42365497
_cell_angle_beta   89.64361688
_cell_angle_gamma   119.96105017
_symmetry_Int_Tables_number   1
_chemical_formula_structural   Na2Sc3NbSi2(SO6)4
_chemical_formula_sum   'Na6 Sc9 Nb3 Si6 S12 O72'
_cell_volume   1583.66416721
_cell_formula_units_Z   3
loop_
 _symmetry_equiv_pos_site_id
 _symmetry_equiv_pos_as_xyz
  1  'x, y, z'
loop_
 _atom_site_type_symbol
 _atom_site_label
 _atom_site_symmetry_multiplicity
 _atom_site_fract_x
 _atom_site_fract_y
 _atom_site_fract_z
 _atom_site_occupancy
  Na  Na0  1  0.00046670  0.98875150  0.49727611  1
  Na  Na1  1  0.99752857  0.97692579  0.99715715  1
  Na  Na2  1  0.64798941  0.32692089  0.83309213  1
  Na  Na3  1  0.68537228  0.33753203  0.33027923  1
  Na  Na4  1  0.31692362  0.65804487  0.15682817  1
  Na  Na5  1  0.32967212  0.65660532  0.66886528  1
  Sc  Sc6  1  0.99535188  0.99958190  0.35205290  1
  Sc  Sc7  1  0.01650271  0.00087977  0.85499866  1
  Sc  Sc8  1  0.01139912  0.01376795  0.65106689  1
  Sc  Sc9  1  0.00005003  0.00201052  0.14400967  1
  Sc  Sc10  1  0.65582502  0.33513041  0.68772069  1
  Sc  Sc11  1  0.68894452  0.34229329  0.18595812  1
  Sc  Sc12  1  0.67865561  0.34315084  0.47800218  1
  Sc  Sc13  1  0.33211780  0.67763400  0.01902858  1
  Sc  Sc14  1  0.32387440  0.66990065  0.51793812  1
  Nb  Nb15  1  0.66628585  0.34612766  0.97799726  1
  Nb  Nb16  1  0.31490047  0.65656229  0.31209964  1
  Nb  Nb17  1  0.34518916  0.66681109  0.81747941  1
  Si  Si18  1  0.99016386  0.27822410  0.25034286  1
  Si  Si19  1  0.29171902  0.29531101  0.75070362  1
  Si  Si20  1  0.96507500  0.63036812  0.08428777  1
  Si  Si21  1  0.62981426  0.67741553  0.92050356  1
  Si  Si22  1  0.33650818  0.96010729  0.91875247  1
  Si  Si23  1  0.03734228  0.67173110  0.41864963  1
  S  S24  1  0.29209354  0.00017781  0.25098000  1
  S  S25  1  0.70451805  0.70812841  0.25125178  1
  S  S26  1  0.00241485  0.70695169  0.74925554  1
  S  S27  1  0.70782760  0.99970201  0.75018070  1
  S  S28  1  0.95720590  0.33119676  0.58327076  1
  S  S29  1  0.37602853  0.04253835  0.58265384  1
  S  S30  1  0.66723615  0.62750687  0.58282577  1
  S  S31  1  0.66739778  0.04587347  0.08316306  1
  S  S32  1  0.37908789  0.33314771  0.08408461  1
  S  S33  1  0.04255612  0.37850171  0.91715898  1
  S  S34  1  0.62011849  0.95412682  0.41706290  1
  S  S35  1  0.33445952  0.37882361  0.41655427  1
  O  O36  1  0.20833956  0.01738675  0.30337964  1
  O  O37  1  0.81153521  0.78617894  0.30306640  1
  O  O38  1  0.97935676  0.17511569  0.30843691  1
  O  O39  1  0.20093711  0.17932126  0.80599979  1
  O  O40  1  0.97125702  0.78237489  0.80099794  1
  O  O41  1  0.80811696  0.02064217  0.80153154  1
  O  O42  1  0.78375155  0.96861073  0.69723863  1
  O  O43  1  0.17685392  0.21094960  0.69203305  1
  O  O44  1  0.02568220  0.81313671  0.69716099  1
  O  O45  1  0.78113383  0.81265351  0.19948592  1
  O  O46  1  0.03118358  0.20106595  0.19331228  1
  O  O47  1  0.18513549  0.96127762  0.19935942  1
  O  O48  1  0.87506427  0.35414032  0.63529128  1
  O  O49  1  0.47985834  0.12732964  0.63479625  1
  O  O50  1  0.64516365  0.52124530  0.63455442  1
  O  O51  1  0.86538456  0.51256444  0.14001043  1
  O  O52  1  0.64276693  0.12554101  0.13594723  1
  O  O53  1  0.48123757  0.34875210  0.13531926  1
  O  O54  1  0.46671796  0.31170189  0.03000974  1
  O  O55  1  0.83540412  0.51836933  0.02682659  1
  O  O56  1  0.68319116  0.15060528  0.03114915  1
  O  O57  1  0.45903038  0.14629371  0.53069315  1
  O  O58  1  0.68841787  0.54117347  0.53065524  1
  O  O59  1  0.85338967  0.31264499  0.53106067  1
  O  O60  1  0.53006436  0.68499533  0.97573595  1
  O  O61  1  0.14470811  0.45580848  0.96862141  1
  O  O62  1  0.30385378  0.84027480  0.97335734  1
  O  O63  1  0.54007393  0.84904049  0.46929968  1
  O  O64  1  0.31476921  0.46385170  0.46855618  1
  O  O65  1  0.15863030  0.69161175  0.47330693  1
  O  O66  1  0.14495671  0.64800413  0.36090786  1
  O  O67  1  0.51514066  0.86684181  0.36492709  1
  O  O68  1  0.35901832  0.48900697  0.36419354  1
  O  O69  1  0.12662045  0.48916517  0.86431530  1
  O  O70  1  0.35959934  0.85908278  0.85992856  1
  O  O71  1  0.50115191  0.63551878  0.86094822  1
  O  O72  1  0.02113010  0.84225352  0.41059998  1
  O  O73  1  0.79526986  0.97564381  0.41196689  1
  O  O74  1  0.17791874  0.20723979  0.41055227  1
  O  O75  1  0.01607639  0.20363766  0.90848315  1
  O  O76  1  0.17525533  0.99179711  0.91084422  1
  O  O77  1  0.81538467  0.83967811  0.90758892  1
  O  O78  1  0.97140171  0.17100634  0.58686623  1
  O  O79  1  0.19859469  0.01936640  0.58795981  1
  O  O80  1  0.82437724  0.80147057  0.58819531  1
  O  O81  1  0.97393923  0.81800531  0.08672889  1
  O  O82  1  0.82821978  0.03508653  0.08661077  1
  O  O83  1  0.20712035  0.17301174  0.08539991  1
  O  O84  1  0.68507505  0.15324563  0.74247418  1
  O  O85  1  0.48874320  0.32566003  0.74273506  1
  O  O86  1  0.85098620  0.52885470  0.74153897  1
  O  O87  1  0.67174894  0.52865384  0.24562232  1
  O  O88  1  0.83043877  0.31617005  0.24784967  1
  O  O89  1  0.46527690  0.15277139  0.24522663  1
  O  O90  1  0.64150984  0.49382697  0.92472503  1
  O  O91  1  0.86854922  0.36651576  0.92117066  1
  O  O92  1  0.51980015  0.14857676  0.92568148  1
  O  O93  1  0.63145704  0.12630120  0.42224375  1
  O  O94  1  0.49105439  0.36154660  0.42050460  1
  O  O95  1  0.85093329  0.49102145  0.42102051  1
  O  O96  1  0.36336128  0.48839974  0.07807002  1
  O  O97  1  0.15037123  0.63990161  0.07936734  1
  O  O98  1  0.51488647  0.86968540  0.07930499  1
  O  O99  1  0.36118622  0.86735824  0.57887101  1
  O  O100  1  0.50973391  0.64397505  0.57752072  1
  O  O101  1  0.13499723  0.48601780  0.57801536  1
  O  O102  1  0.31794798  0.84158245  0.25938237  1
  O  O103  1  0.52977762  0.69566530  0.26071507  1
  O  O104  1  0.17367764  0.48192154  0.26135017  1
  O  O105  1  0.30885304  0.49169102  0.75843013  1
  O  O106  1  0.16136770  0.69156152  0.75511625  1
  O  O107  1  0.52746554  0.84015844  0.75532113  1
