# generated using pymatgen
data_Na6Nb3In(SiO4)6
_symmetry_space_group_name_H-M   'P 1'
_cell_length_a   15.83903259
_cell_length_b   9.12118005
_cell_length_c   9.13097826
_cell_angle_alpha   90.38508173
_cell_angle_beta   125.00606899
_cell_angle_gamma   89.79657404
_symmetry_Int_Tables_number   1
_chemical_formula_structural   Na6Nb3In(SiO4)6
_chemical_formula_sum   'Na12 Nb6 In2 Si12 O48'
_cell_volume   1080.48677491
_cell_formula_units_Z   2
loop_
 _symmetry_equiv_pos_site_id
 _symmetry_equiv_pos_as_xyz
  1  'x, y, z'
loop_
 _atom_site_type_symbol
 _atom_site_label
 _atom_site_symmetry_multiplicity
 _atom_site_fract_x
 _atom_site_fract_y
 _atom_site_fract_z
 _atom_site_occupancy
  Na  Na0  1  0.25084176  0.75017463  0.99881450  1
  Na  Na1  1  0.74655507  0.74820015  0.48868239  1
  Na  Na2  1  0.75084176  0.25017463  0.99881450  1
  Na  Na3  1  0.24655507  0.24820015  0.48868239  1
  Na  Na4  1  0.50579746  0.09505749  0.76115213  1
  Na  Na5  1  0.50060665  0.88579965  0.23745151  1
  Na  Na6  1  0.00579746  0.59505749  0.76115213  1
  Na  Na7  1  0.00060665  0.38579965  0.23745151  1
  Na  Na8  1  0.80468903  0.92918682  0.21355671  1
  Na  Na9  1  0.18520411  0.07029613  0.79649919  1
  Na  Na10  1  0.30468903  0.42918682  0.21355671  1
  Na  Na11  1  0.68520411  0.57029613  0.79649919  1
  Nb  Nb12  1  0.10591712  0.75032763  0.56143606  1
  Nb  Nb13  1  0.89496434  0.75447195  0.93027596  1
  Nb  Nb14  1  0.89241829  0.24960833  0.43628083  1
  Nb  Nb15  1  0.60591712  0.25032763  0.56143606  1
  Nb  Nb16  1  0.39496434  0.25447195  0.93027596  1
  Nb  Nb17  1  0.39241829  0.74960833  0.43628083  1
  In  In18  1  0.10356057  0.24403808  0.06534790  1
  In  In19  1  0.60356057  0.74403808  0.06534790  1
  Si  Si20  1  0.99756577  0.95745182  0.74634153  1
  Si  Si21  1  0.00089766  0.04268020  0.25515557  1
  Si  Si22  1  0.49756577  0.45745182  0.74634153  1
  Si  Si23  1  0.50089766  0.54268020  0.25515557  1
  Si  Si24  1  0.35419066  0.89473232  0.75998357  1
  Si  Si25  1  0.64697660  0.89627368  0.74833615  1
  Si  Si26  1  0.64603273  0.11187077  0.24351070  1
  Si  Si27  1  0.35591193  0.10122335  0.25116531  1
  Si  Si28  1  0.85419066  0.39473232  0.75998357  1
  Si  Si29  1  0.14697660  0.39627368  0.74833615  1
  Si  Si30  1  0.14603273  0.61187077  0.24351070  1
  Si  Si31  1  0.85591193  0.60122335  0.25116531  1
  O  O32  1  0.15334498  0.57359407  0.72609488  1
  O  O33  1  0.84989215  0.57674942  0.75522221  1
  O  O34  1  0.85518394  0.42076666  0.26032413  1
  O  O35  1  0.15708008  0.43512490  0.25558157  1
  O  O36  1  0.65334498  0.07359407  0.72609488  1
  O  O37  1  0.34989215  0.07674942  0.75522221  1
  O  O38  1  0.35518394  0.92076666  0.26032413  1
  O  O39  1  0.65708008  0.93512490  0.25558157  1
  O  O40  1  0.42946071  0.56289450  0.56627058  1
  O  O41  1  0.57983753  0.55628203  0.91570707  1
  O  O42  1  0.55915431  0.43581235  0.43116035  1
  O  O43  1  0.43541924  0.42692960  0.08171128  1
  O  O44  1  0.92946071  0.06289450  0.56627058  1
  O  O45  1  0.07983753  0.05628203  0.91570707  1
  O  O46  1  0.05915431  0.93581235  0.43116035  1
  O  O47  1  0.93541924  0.92692960  0.08171128  1
  O  O48  1  0.24858810  0.83889372  0.73720384  1
  O  O49  1  0.74227201  0.80890232  0.76138836  1
  O  O50  1  0.74419952  0.18605362  0.25504679  1
  O  O51  1  0.26821027  0.18775885  0.25411283  1
  O  O52  1  0.74858810  0.33889372  0.73720384  1
  O  O53  1  0.24227201  0.30890232  0.76138836  1
  O  O54  1  0.24419952  0.68605362  0.25504679  1
  O  O55  1  0.76821027  0.68775885  0.25411283  1
  O  O56  1  0.36111813  0.84788615  0.58914374  1
  O  O57  1  0.64912157  0.88003871  0.92686968  1
  O  O58  1  0.64387854  0.16759842  0.41312896  1
  O  O59  1  0.35472058  0.14028814  0.07138399  1
  O  O60  1  0.86111813  0.34788615  0.58914374  1
  O  O61  1  0.14912157  0.38003871  0.92686968  1
  O  O62  1  0.14387854  0.66759842  0.41312896  1
  O  O63  1  0.85472058  0.64028814  0.07138399  1
  O  O64  1  0.45341984  0.83601051  0.94494172  1
  O  O65  1  0.53771793  0.82516388  0.57313912  1
  O  O66  1  0.53646628  0.16932428  0.06090396  1
  O  O67  1  0.46857682  0.15827213  0.42453350  1
  O  O68  1  0.95341984  0.33601051  0.94494172  1
  O  O69  1  0.03771793  0.32516388  0.57313912  1
  O  O70  1  0.03646628  0.66932428  0.06090396  1
  O  O71  1  0.96857682  0.65827213  0.42453350  1
  O  O72  1  0.07085140  0.83920441  0.72838681  1
  O  O73  1  0.91648456  0.85587713  0.75989521  1
  O  O74  1  0.91140281  0.13755372  0.25481446  1
  O  O75  1  0.08146894  0.15162748  0.25904496  1
  O  O76  1  0.57085140  0.33920441  0.72838681  1
  O  O77  1  0.41648456  0.35587713  0.75989521  1
  O  O78  1  0.41140281  0.63755372  0.25481446  1
  O  O79  1  0.58146894  0.65162748  0.25904496  1
