# generated using pymatgen
data_NaTiZnP(SO6)2
_symmetry_space_group_name_H-M   'P 1'
_cell_length_a   8.65387211
_cell_length_b   8.64186576
_cell_length_c   22.51204675
_cell_angle_alpha   89.88340776
_cell_angle_beta   90.00000000
_cell_angle_gamma   120.04596914
_symmetry_Int_Tables_number   1
_chemical_formula_structural   NaTiZnP(SO6)2
_chemical_formula_sum   'Na6 Ti6 Zn6 P6 S12 O72'
_cell_volume   1457.34053285
_cell_formula_units_Z   6
loop_
 _symmetry_equiv_pos_site_id
 _symmetry_equiv_pos_as_xyz
  1  'x, y, z'
loop_
 _atom_site_type_symbol
 _atom_site_label
 _atom_site_symmetry_multiplicity
 _atom_site_fract_x
 _atom_site_fract_y
 _atom_site_fract_z
 _atom_site_occupancy
  Na  Na0  1  0.99320559  0.99442378  0.50316990  1
  Na  Na1  1  0.00121818  0.99442378  0.00316990  1
  Na  Na2  1  0.66243139  0.32665909  0.83662039  1
  Na  Na3  1  0.66422870  0.32665909  0.33662039  1
  Na  Na4  1  0.33131697  0.67062744  0.17014522  1
  Na  Na5  1  0.33930947  0.67062744  0.67014522  1
  Ti  Ti6  1  0.00610039  0.00069158  0.35304290  1
  Ti  Ti7  1  0.99459120  0.00069158  0.85304290  1
  Ti  Ti8  1  0.66731722  0.33409334  0.68628047  1
  Ti  Ti9  1  0.66677711  0.33409334  0.18628047  1
  Ti  Ti10  1  0.32031491  0.67579051  0.01977152  1
  Ti  Ti11  1  0.35547460  0.67579051  0.51977152  1
  Zn  Zn12  1  0.98822022  0.99289589  0.64865199  1
  Zn  Zn13  1  0.00467567  0.99289589  0.14865199  1
  Zn  Zn14  1  0.66467191  0.33375433  0.98220487  1
  Zn  Zn15  1  0.66908342  0.33375433  0.48220487  1
  Zn  Zn16  1  0.33667376  0.67902292  0.31559460  1
  Zn  Zn17  1  0.34234816  0.67902292  0.81559460  1
  P  P18  1  0.29147614  0.99914723  0.24836389  1
  P  P19  1  0.70767109  0.99914723  0.74836389  1
  P  P20  1  0.67160245  0.62217384  0.58160663  1
  P  P21  1  0.95057239  0.62217384  0.08160663  1
  P  P22  1  0.33440063  0.96382380  0.91448890  1
  P  P23  1  0.62942218  0.96382380  0.41448890  1
  S  S24  1  0.70911534  0.70931097  0.24922352  1
  S  S25  1  0.00056699  0.28989372  0.24909421  1
  S  S26  1  0.28932673  0.28989372  0.74909421  1
  S  S27  1  0.00019563  0.70931097  0.74922352  1
  S  S28  1  0.96043524  0.33592905  0.58245492  1
  S  S29  1  0.37444486  0.04256201  0.58291296  1
  S  S30  1  0.66811816  0.04256201  0.08291296  1
  S  S31  1  0.37549481  0.33592905  0.08245492  1
  S  S32  1  0.62182704  0.66595707  0.91633734  1
  S  S33  1  0.04448476  0.37762958  0.91531067  1
  S  S34  1  0.33314382  0.37762958  0.41531067  1
  S  S35  1  0.04412903  0.66595707  0.41633734  1
  O  O36  1  0.19810667  0.03004654  0.30529225  1
  O  O37  1  0.82298048  0.79301088  0.30342409  1
  O  O38  1  0.96882130  0.17545636  0.30373552  1
  O  O39  1  0.20663506  0.17545636  0.80373552  1
  O  O40  1  0.97003040  0.79301088  0.80342409  1
  O  O41  1  0.83193987  0.03004654  0.80529225  1
  O  O42  1  0.79253759  0.97422955  0.69400494  1
  O  O43  1  0.18635032  0.21051697  0.69556869  1
  O  O44  1  0.03020852  0.81541356  0.69593405  1
  O  O45  1  0.78520504  0.81541356  0.19593405  1
  O  O46  1  0.02416665  0.21051697  0.19556869  1
  O  O47  1  0.18169196  0.97422955  0.19400494  1
  O  O48  1  0.87153270  0.36198705  0.63690814  1
  O  O49  1  0.48985899  0.12458847  0.63722812  1
  O  O50  1  0.63717213  0.49998526  0.63860604  1
  O  O51  1  0.86281412  0.49998526  0.13860604  1
  O  O52  1  0.63473049  0.12458847  0.13722812  1
  O  O53  1  0.49045536  0.36198705  0.13690814  1
  O  O54  1  0.45256973  0.30494401  0.02963854  1
  O  O55  1  0.84557566  0.53755347  0.02634194  1
  O  O56  1  0.69346561  0.14608999  0.02940609  1
  O  O57  1  0.45262538  0.14608999  0.52940609  1
  O  O58  1  0.69197881  0.53755347  0.52634194  1
  O  O59  1  0.85237527  0.30494401  0.52963854  1
  O  O60  1  0.54034450  0.69674643  0.97017133  1
  O  O61  1  0.15730078  0.45967819  0.97006580  1
  O  O62  1  0.30153924  0.83669806  0.97207644  1
  O  O63  1  0.53515781  0.83669806  0.47207644  1
  O  O64  1  0.30237641  0.45967819  0.47006580  1
  O  O65  1  0.15640093  0.69674643  0.47017133  1
  O  O66  1  0.11967714  0.63805441  0.36245013  1
  O  O67  1  0.51563126  0.87767908  0.36099375  1
  O  O68  1  0.35639975  0.48129965  0.36194832  1
  O  O69  1  0.12489891  0.48129965  0.86194832  1
  O  O70  1  0.36204682  0.87767908  0.86099375  1
  O  O71  1  0.51837627  0.63805441  0.86245013  1
  O  O72  1  0.02989462  0.83460725  0.41024149  1
  O  O73  1  0.81497619  0.97266596  0.40861448  1
  O  O74  1  0.16462208  0.19588977  0.41097052  1
  O  O75  1  0.03126769  0.19588977  0.91097052  1
  O  O76  1  0.15768977  0.97266596  0.90861448  1
  O  O77  1  0.80471263  0.83460725  0.91024149  1
  O  O78  1  0.98615459  0.18157487  0.59007229  1
  O  O79  1  0.19676610  0.02055941  0.59136025  1
  O  O80  1  0.82807738  0.80992081  0.58861511  1
  O  O81  1  0.98184343  0.80992081  0.08861511  1
  O  O82  1  0.82379331  0.02055941  0.09136025  1
  O  O83  1  0.19542027  0.18157487  0.09007229  1
  O  O84  1  0.69558034  0.17583928  0.74196441  1
  O  O85  1  0.47092252  0.30380092  0.74421259  1
  O  O86  1  0.83087610  0.52896206  0.74414158  1
  O  O87  1  0.69808696  0.52896206  0.24414158  1
  O  O88  1  0.83287940  0.30380092  0.24421259  1
  O  O89  1  0.48025995  0.17583928  0.24196441  1
  O  O90  1  0.65037475  0.51316400  0.92266616  1
  O  O91  1  0.86494499  0.35217620  0.92239585  1
  O  O92  1  0.49516944  0.14695220  0.92469436  1
  O  O93  1  0.65178376  0.14695220  0.42469436  1
  O  O94  1  0.48723221  0.35217620  0.42239585  1
  O  O95  1  0.86279026  0.51316400  0.42266616  1
  O  O96  1  0.36616788  0.50379636  0.07773434  1
  O  O97  1  0.14205738  0.63450902  0.07566156  1
  O  O98  1  0.50101717  0.86031889  0.07778289  1
  O  O99  1  0.35930073  0.86031889  0.57778289  1
  O  O100  1  0.49245064  0.63450902  0.57566156  1
  O  O101  1  0.13762748  0.50379636  0.57773434  1
  O  O102  1  0.31660416  0.83886265  0.25595775  1
  O  O103  1  0.52806334  0.67970776  0.25669777  1
  O  O104  1  0.15635008  0.46832851  0.25714754  1
  O  O105  1  0.31197743  0.46832851  0.75714754  1
  O  O106  1  0.15164342  0.67970776  0.75669777  1
  O  O107  1  0.52225749  0.83886265  0.75595775  1
