# generated using pymatgen
data_K4PbO4
_symmetry_space_group_name_H-M   'P 1'
_cell_length_a   6.59591034
_cell_length_b   6.59514124
_cell_length_c   9.87264737
_cell_angle_alpha   71.62583507
_cell_angle_beta   79.59748891
_cell_angle_gamma   67.55653176
_symmetry_Int_Tables_number   1
_chemical_formula_structural   K4PbO4
_chemical_formula_sum   'K8 Pb2 O8'
_cell_volume   375.81462543
_cell_formula_units_Z   2
loop_
 _symmetry_equiv_pos_site_id
 _symmetry_equiv_pos_as_xyz
  1  'x, y, z'
loop_
 _atom_site_type_symbol
 _atom_site_label
 _atom_site_symmetry_multiplicity
 _atom_site_fract_x
 _atom_site_fract_y
 _atom_site_fract_z
 _atom_site_occupancy
  K  K0  1  0.24777486  0.58496049  0.67395351  1
  K  K1  1  0.75222514  0.41503951  0.32604649  1
  K  K2  1  0.72763124  0.95688892  0.11256911  1
  K  K3  1  0.27236876  0.04311108  0.88743089  1
  K  K4  1  0.77338793  0.51334572  0.93743168  1
  K  K5  1  0.22661207  0.48665428  0.06256832  1
  K  K6  1  0.74636112  0.76087523  0.52319454  1
  K  K7  1  0.25363888  0.23912477  0.47680546  1
  Pb  Pb8  1  0.78108992  0.15252435  0.74526066  1
  Pb  Pb9  1  0.21891008  0.84747565  0.25473934  1
  O  O10  1  0.62720877  0.16047551  0.57688909  1
  O  O11  1  0.37279123  0.83952449  0.42311091  1
  O  O12  1  0.97536368  0.35769359  0.69361230  1
  O  O13  1  0.02463632  0.64230641  0.30638770  1
  O  O14  1  0.52486053  0.29698868  0.88379904  1
  O  O15  1  0.47513947  0.70301132  0.11620096  1
  O  O16  1  0.97784612  0.83024038  0.85946858  1
  O  O17  1  0.02215388  0.16975962  0.14053142  1
