# generated using pymatgen
data_K2PrI5
_symmetry_space_group_name_H-M   'P 1'
_cell_length_a   9.20568295
_cell_length_b   9.90948776
_cell_length_c   14.43492604
_cell_angle_alpha   90.00000000
_cell_angle_beta   90.00000000
_cell_angle_gamma   90.00000000
_symmetry_Int_Tables_number   1
_chemical_formula_structural   K2PrI5
_chemical_formula_sum   'K8 Pr4 I20'
_cell_volume   1316.80595541
_cell_formula_units_Z   4
loop_
 _symmetry_equiv_pos_site_id
 _symmetry_equiv_pos_as_xyz
  1  'x, y, z'
loop_
 _atom_site_type_symbol
 _atom_site_label
 _atom_site_symmetry_multiplicity
 _atom_site_fract_x
 _atom_site_fract_y
 _atom_site_fract_z
 _atom_site_occupancy
  K  K0  1  0.43597216  0.50511293  0.67276024  1
  K  K1  1  0.93597216  0.49488707  0.82723976  1
  K  K2  1  0.56402784  0.00511293  0.32723976  1
  K  K3  1  0.06402784  0.99488707  0.17276024  1
  K  K4  1  0.56402784  0.49488707  0.32723976  1
  K  K5  1  0.06402784  0.50511293  0.17276024  1
  K  K6  1  0.43597216  0.99488707  0.67276024  1
  K  K7  1  0.93597216  0.00511293  0.82723976  1
  Pr  Pr8  1  0.91825465  0.75000000  0.50617983  1
  Pr  Pr9  1  0.58174535  0.75000000  0.00617983  1
  Pr  Pr10  1  0.08174535  0.25000000  0.49382017  1
  Pr  Pr11  1  0.41825465  0.25000000  0.99382017  1
  I  I12  1  0.56479417  0.75000000  0.50557681  1
  I  I13  1  0.32832721  0.95368980  0.92447677  1
  I  I14  1  0.82832721  0.04631020  0.57552323  1
  I  I15  1  0.67167279  0.45368980  0.07552323  1
  I  I16  1  0.06479417  0.25000000  0.99442319  1
  I  I17  1  0.65978927  0.75000000  0.79053177  1
  I  I18  1  0.93520583  0.75000000  0.00557681  1
  I  I19  1  0.43520583  0.25000000  0.49442319  1
  I  I20  1  0.12392511  0.75000000  0.68597124  1
  I  I21  1  0.15978927  0.25000000  0.70946823  1
  I  I22  1  0.34021073  0.25000000  0.20946823  1
  I  I23  1  0.84021073  0.75000000  0.29053177  1
  I  I24  1  0.67167279  0.04631020  0.07552323  1
  I  I25  1  0.62392511  0.25000000  0.81402876  1
  I  I26  1  0.87607489  0.25000000  0.31402876  1
  I  I27  1  0.37607489  0.75000000  0.18597124  1
  I  I28  1  0.82832721  0.45368980  0.57552323  1
  I  I29  1  0.32832721  0.54631020  0.92447677  1
  I  I30  1  0.17167279  0.95368980  0.42447677  1
  I  I31  1  0.17167279  0.54631020  0.42447677  1
