# generated using pymatgen
data_Sb2IF15
_symmetry_space_group_name_H-M   'P 1'
_cell_length_a   14.38807465
_cell_length_b   8.36579525
_cell_length_c   9.87875948
_cell_angle_alpha   66.78003932
_cell_angle_beta   90.00000000
_cell_angle_gamma   90.00000000
_symmetry_Int_Tables_number   1
_chemical_formula_structural   Sb2IF15
_chemical_formula_sum   'Sb8 I4 F60'
_cell_volume   1092.76533983
_cell_formula_units_Z   4
loop_
 _symmetry_equiv_pos_site_id
 _symmetry_equiv_pos_as_xyz
  1  'x, y, z'
loop_
 _atom_site_type_symbol
 _atom_site_label
 _atom_site_symmetry_multiplicity
 _atom_site_fract_x
 _atom_site_fract_y
 _atom_site_fract_z
 _atom_site_occupancy
  Sb  Sb0  1  0.54570948  0.79680584  0.35480843  1
  Sb  Sb1  1  0.04570948  0.20319416  0.14519157  1
  Sb  Sb2  1  0.45429052  0.20319416  0.64519157  1
  Sb  Sb3  1  0.95429052  0.79680584  0.85480843  1
  Sb  Sb4  1  0.74611743  0.10426287  0.38931389  1
  Sb  Sb5  1  0.24611743  0.89573713  0.11068611  1
  Sb  Sb6  1  0.25388257  0.89573713  0.61068611  1
  Sb  Sb7  1  0.75388257  0.10426287  0.88931389  1
  I  I8  1  0.88887958  0.68909985  0.30657669  1
  I  I9  1  0.38887958  0.31090015  0.19342331  1
  I  I10  1  0.11112042  0.31090015  0.69342331  1
  I  I11  1  0.61112042  0.68909985  0.80657669  1
  F  F12  1  0.65230263  0.65897543  0.39039412  1
  F  F13  1  0.15230263  0.34102457  0.10960588  1
  F  F14  1  0.34769737  0.34102457  0.60960588  1
  F  F15  1  0.84769737  0.65897543  0.89039412  1
  F  F16  1  0.55473814  0.86208306  0.15198757  1
  F  F17  1  0.05473814  0.13791694  0.34801243  1
  F  F18  1  0.44526186  0.13791694  0.84801243  1
  F  F19  1  0.94526186  0.86208306  0.65198757  1
  F  F20  1  0.54883351  0.76245784  0.56011481  1
  F  F21  1  0.04883351  0.23754216  0.93988519  1
  F  F22  1  0.45116649  0.23754216  0.43988519  1
  F  F23  1  0.95116649  0.76245784  0.06011481  1
  F  F24  1  0.51161775  0.73793908  0.90777893  1
  F  F25  1  0.01161775  0.26206092  0.59222107  1
  F  F26  1  0.48838225  0.26206092  0.09222107  1
  F  F27  1  0.98838225  0.73793908  0.40777893  1
  F  F28  1  0.53558479  0.50959499  0.81981372  1
  F  F29  1  0.03558479  0.49040501  0.68018628  1
  F  F30  1  0.46441521  0.49040501  0.18018628  1
  F  F31  1  0.96441521  0.50959499  0.31981372  1
  F  F32  1  0.65756320  0.56625067  0.98955862  1
  F  F33  1  0.15756320  0.43374933  0.51044138  1
  F  F34  1  0.34243680  0.43374933  0.01044138  1
  F  F35  1  0.84243680  0.56625067  0.48955862  1
  F  F36  1  0.69966150  0.56579779  0.74593108  1
  F  F37  1  0.19966150  0.43420221  0.75406892  1
  F  F38  1  0.30033850  0.43420221  0.25406892  1
  F  F39  1  0.80033850  0.56579779  0.24593108  1
  F  F40  1  0.84155383  0.26385411  0.89840236  1
  F  F41  1  0.34155383  0.73614589  0.60159764  1
  F  F42  1  0.15844617  0.73614589  0.10159764  1
  F  F43  1  0.65844617  0.26385411  0.39840236  1
  F  F44  1  0.64963654  0.19412013  0.94552225  1
  F  F45  1  0.14963654  0.80587987  0.55447775  1
  F  F46  1  0.35036346  0.80587987  0.05447775  1
  F  F47  1  0.85036346  0.19412013  0.44552225  1
  F  F48  1  0.68667606  0.91087862  0.87763143  1
  F  F49  1  0.18667606  0.08912138  0.62236857  1
  F  F50  1  0.31332394  0.08912138  0.12236857  1
  F  F51  1  0.81332394  0.91087862  0.37763143  1
  F  F52  1  0.78262306  0.94570324  0.08233861  1
  F  F53  1  0.28262306  0.05429676  0.41766139  1
  F  F54  1  0.21737694  0.05429676  0.91766139  1
  F  F55  1  0.71737694  0.94570324  0.58233861  1
  F  F56  1  0.73605886  0.22482564  0.68756298  1
  F  F57  1  0.23605886  0.77517436  0.81243702  1
  F  F58  1  0.26394114  0.77517436  0.31243702  1
  F  F59  1  0.76394114  0.22482564  0.18756298  1
  F  F60  1  0.86448139  0.99500696  0.82720486  1
  F  F61  1  0.36448139  0.00499304  0.67279514  1
  F  F62  1  0.13551861  0.00499304  0.17279514  1
  F  F63  1  0.63551861  0.99500696  0.32720486  1
  F  F64  1  0.04458165  0.96768906  0.83484548  1
  F  F65  1  0.54458165  0.03231094  0.66515452  1
  F  F66  1  0.95541835  0.03231094  0.16515452  1
  F  F67  1  0.45541835  0.96768906  0.33484548  1
  F  F68  1  0.04318939  0.62477303  0.88626290  1
  F  F69  1  0.54318939  0.37522697  0.61373710  1
  F  F70  1  0.95681061  0.37522697  0.11373710  1
  F  F71  1  0.45681061  0.62477303  0.38626290  1
