# generated using pymatgen
data_Na3MgInSi(SO6)2
_symmetry_space_group_name_H-M   'P 1'
_cell_length_a   9.12700923
_cell_length_b   9.09744777
_cell_length_c   22.62335914
_cell_angle_alpha   90.40594716
_cell_angle_beta   90.00000000
_cell_angle_gamma   120.10754842
_symmetry_Int_Tables_number   1
_chemical_formula_structural   Na3MgInSi(SO6)2
_chemical_formula_sum   'Na18 Mg6 In6 Si6 S12 O72'
_cell_volume   1624.98567963
_cell_formula_units_Z   6
loop_
 _symmetry_equiv_pos_site_id
 _symmetry_equiv_pos_as_xyz
  1  'x, y, z'
loop_
 _atom_site_type_symbol
 _atom_site_label
 _atom_site_symmetry_multiplicity
 _atom_site_fract_x
 _atom_site_fract_y
 _atom_site_fract_z
 _atom_site_occupancy
  Na  Na0  1  0.62375636  0.00340263  0.25416412  1
  Na  Na1  1  0.00932821  0.64611192  0.24011865  1
  Na  Na2  1  0.63678371  0.64611192  0.74011865  1
  Na  Na3  1  0.37964627  0.00340263  0.75416412  1
  Na  Na4  1  0.31703237  0.34760063  0.58550105  1
  Na  Na5  1  0.65974471  0.94738215  0.58096257  1
  Na  Na6  1  0.28763844  0.94738215  0.08096257  1
  Na  Na7  1  0.03056926  0.34760063  0.08550105  1
  Na  Na8  1  0.98210761  0.67975909  0.92493990  1
  Na  Na9  1  0.68903079  0.02845065  0.90613688  1
  Na  Na10  1  0.33941886  0.02845065  0.40613688  1
  Na  Na11  1  0.69765049  0.67975909  0.42493990  1
  Na  Na12  1  0.97513439  0.98647374  0.49701045  1
  Na  Na13  1  0.01133936  0.98647374  0.99701045  1
  Na  Na14  1  0.66018025  0.31013243  0.83084936  1
  Na  Na15  1  0.64995318  0.31013243  0.33084936  1
  Na  Na16  1  0.32752206  0.66775180  0.16414541  1
  Na  Na17  1  0.34022873  0.66775180  0.66414541  1
  Mg  Mg18  1  0.00561057  0.01186198  0.35039973  1
  Mg  Mg19  1  0.00625141  0.01186198  0.85039973  1
  Mg  Mg20  1  0.67722075  0.33460313  0.68360439  1
  Mg  Mg21  1  0.65738338  0.33460313  0.18360439  1
  Mg  Mg22  1  0.32207462  0.67308991  0.01670390  1
  Mg  Mg23  1  0.35101429  0.67308991  0.51670390  1
  In  In24  1  0.98062943  0.98199377  0.65161374  1
  In  In25  1  0.00136434  0.98199377  0.15161374  1
  In  In26  1  0.65766904  0.33514311  0.98588500  1
  In  In27  1  0.67747507  0.33514311  0.48588500  1
  In  In28  1  0.33874658  0.68043528  0.31965136  1
  In  In29  1  0.34168769  0.68043528  0.81965136  1
  Si  Si30  1  0.30315713  0.00637313  0.25288395  1
  Si  Si31  1  0.70321601  0.00637313  0.75288395  1
  Si  Si32  1  0.66440863  0.62497063  0.58454723  1
  Si  Si33  1  0.96056300  0.62497063  0.08454723  1
  Si  Si34  1  0.32970584  0.97180008  0.91876317  1
  Si  Si35  1  0.64209323  0.97180008  0.41876317  1
  S  S36  1  0.70308844  0.70198218  0.25218493  1
  S  S37  1  0.00019749  0.29255820  0.24986487  1
  S  S38  1  0.29236071  0.29255820  0.74986487  1
  S  S39  1  0.99889374  0.70198218  0.75218493  1
  S  S40  1  0.96999573  0.33850479  0.58485479  1
  S  S41  1  0.36654944  0.03534630  0.58492303  1
  S  S42  1  0.66879786  0.03534630  0.08492303  1
  S  S43  1  0.36851006  0.33850479  0.08485479  1
  S  S44  1  0.62620292  0.66559212  0.91726312  1
  S  S45  1  0.04412233  0.37129019  0.91761835  1
  S  S46  1  0.32716686  0.37129019  0.41761835  1
  S  S47  1  0.03938820  0.66559212  0.41726312  1
  O  O48  1  0.20790218  0.01937144  0.31142109  1
  O  O49  1  0.80828886  0.78571612  0.30486430  1
  O  O50  1  0.97564136  0.18059933  0.29958709  1
  O  O51  1  0.20495796  0.18059933  0.79958709  1
  O  O52  1  0.97742726  0.78571612  0.80486430  1
  O  O53  1  0.81146926  0.01937144  0.81142109  1
  O  O54  1  0.77502639  0.96326637  0.69179534  1
  O  O55  1  0.19896843  0.21953164  0.69277695  1
  O  O56  1  0.04192135  0.81467087  0.69915330  1
  O  O57  1  0.77274952  0.81467087  0.19915330  1
  O  O58  1  0.02056321  0.21953164  0.19277695  1
  O  O59  1  0.18823998  0.96326637  0.19179534  1
  O  O60  1  0.88388832  0.35565669  0.63677165  1
  O  O61  1  0.47883510  0.11829638  0.63647921  1
  O  O62  1  0.64082057  0.50781247  0.64162019  1
  O  O63  1  0.86699290  0.50781247  0.14162019  1
  O  O64  1  0.63946228  0.11829638  0.13647921  1
  O  O65  1  0.47176937  0.35565669  0.13677165  1
  O  O66  1  0.43363799  0.29430434  0.03090447  1
  O  O67  1  0.85712939  0.54315227  0.02168634  1
  O  O68  1  0.69934413  0.13803468  0.02995788  1
  O  O69  1  0.43869155  0.13803468  0.52995788  1
  O  O70  1  0.68602388  0.54315227  0.52168634  1
  O  O71  1  0.86066735  0.29430434  0.53090447  1
  O  O72  1  0.53335928  0.68041209  0.96752094  1
  O  O73  1  0.14342887  0.45219866  0.97151323  1
  O  O74  1  0.30428962  0.85247898  0.97552209  1
  O  O75  1  0.54818836  0.85247898  0.47552209  1
  O  O76  1  0.30876879  0.45219866  0.47151323  1
  O  O77  1  0.14705181  0.68041209  0.46752094  1
  O  O78  1  0.10546441  0.63557928  0.36046020  1
  O  O79  1  0.52492963  0.89870060  0.35749083  1
  O  O80  1  0.35078350  0.47681006  0.36432005  1
  O  O81  1  0.12602557  0.47681006  0.86432005  1
  O  O82  1  0.37376998  0.89870060  0.85749083  1
  O  O83  1  0.53011387  0.63557928  0.86046020  1
  O  O84  1  0.03039093  0.82496982  0.41394452  1
  O  O85  1  0.82262165  0.97739762  0.41036813  1
  O  O86  1  0.17962854  0.19801431  0.41231875  1
  O  O87  1  0.01838577  0.19801431  0.91231875  1
  O  O88  1  0.15477598  0.97739762  0.91036813  1
  O  O89  1  0.79457889  0.82496982  0.91394452  1
  O  O90  1  0.99934845  0.18930530  0.58993241  1
  O  O91  1  0.20033127  0.02962052  0.59210754  1
  O  O92  1  0.83131099  0.82132518  0.58322234  1
  O  O93  1  0.99001419  0.82132518  0.08322234  1
  O  O94  1  0.82928925  0.02962052  0.09210754  1
  O  O95  1  0.18995685  0.18930530  0.08993241  1
  O  O96  1  0.66941783  0.16595282  0.74536459  1
  O  O97  1  0.46511862  0.31295145  0.74619963  1
  O  O98  1  0.84010430  0.53823982  0.74383843  1
  O  O99  1  0.69813652  0.53823982  0.24383843  1
  O  O100  1  0.84783383  0.31295145  0.24619963  1
  O  O101  1  0.49653599  0.16595282  0.24536459  1
  O  O102  1  0.65831024  0.51984291  0.92023011  1
  O  O103  1  0.87262518  0.35775720  0.91969269  1
  O  O104  1  0.51314313  0.15623241  0.92299389  1
  O  O105  1  0.64309028  0.15623241  0.42299389  1
  O  O106  1  0.48513301  0.35775720  0.41969269  1
  O  O107  1  0.86153367  0.51984291  0.42023011  1
  O  O108  1  0.35584454  0.49272517  0.07720521  1
  O  O109  1  0.15040274  0.64210444  0.08102841  1
  O  O110  1  0.51928935  0.86376300  0.07819550  1
  O  O111  1  0.34447264  0.86376300  0.57819550  1
  O  O112  1  0.49170070  0.64210444  0.58102841  1
  O  O113  1  0.13687963  0.49272517  0.57720521  1
  O  O114  1  0.31410139  0.82386678  0.25195963  1
  O  O115  1  0.52846527  0.67575418  0.25702215  1
  O  O116  1  0.15331370  0.46567495  0.25594098  1
  O  O117  1  0.31236025  0.46567495  0.75594098  1
  O  O118  1  0.14728792  0.67575418  0.75702215  1
  O  O119  1  0.50976439  0.82386678  0.75195963  1
