# generated using pymatgen
data_Na10Ca3Ti5(PO4)12
_symmetry_space_group_name_H-M   'P 1'
_cell_length_a   17.98381774
_cell_length_b   9.00553352
_cell_length_c   22.32012363
_cell_angle_alpha   89.98506090
_cell_angle_beta   90.04905454
_cell_angle_gamma   120.21950569
_symmetry_Int_Tables_number   1
_chemical_formula_structural   Na10Ca3Ti5(PO4)12
_chemical_formula_sum   'Na30 Ca9 Ti15 P36 O144'
_cell_volume   3123.58648037
_cell_formula_units_Z   3
loop_
 _symmetry_equiv_pos_site_id
 _symmetry_equiv_pos_as_xyz
  1  'x, y, z'
loop_
 _atom_site_type_symbol
 _atom_site_label
 _atom_site_symmetry_multiplicity
 _atom_site_fract_x
 _atom_site_fract_y
 _atom_site_fract_z
 _atom_site_occupancy
  Na  Na0  1  0.32054182  0.01382531  0.25055467  1
  Na  Na1  1  0.68748277  0.36102578  0.24972535  1
  Na  Na2  1  0.31439421  0.62010349  0.74992899  1
  Na  Na3  1  0.81410762  0.61906374  0.75039141  1
  Na  Na4  1  0.15590756  0.34509691  0.57927208  1
  Na  Na5  1  0.65553365  0.34467379  0.57839900  1
  Na  Na6  1  0.01583271  0.68820575  0.58000775  1
  Na  Na7  1  0.51531688  0.68713972  0.57927172  1
  Na  Na8  1  0.32576335  0.96174883  0.57984692  1
  Na  Na9  1  0.82801118  0.96855319  0.57993125  1
  Na  Na10  1  0.15551465  0.96608612  0.07886148  1
  Na  Na11  1  0.65624330  0.96780391  0.07915330  1
  Na  Na12  1  0.32695226  0.68900709  0.07933302  1
  Na  Na13  1  0.82744701  0.69013585  0.07880615  1
  Na  Na14  1  0.01581446  0.34519140  0.07857232  1
  Na  Na15  1  0.51696003  0.34441053  0.07999749  1
  Na  Na16  1  0.66445340  0.02204943  0.41357543  1
  Na  Na17  1  0.34885747  0.67275843  0.41253568  1
  Na  Na18  1  0.99989702  0.99986278  0.49417499  1
  Na  Na19  1  0.49966811  0.01685352  0.49447173  1
  Na  Na20  1  0.99942505  0.99878085  0.99531887  1
  Na  Na21  1  0.49965293  0.99940269  0.99599583  1
  Na  Na22  1  0.33356008  0.31826943  0.83479346  1
  Na  Na23  1  0.83334578  0.31887903  0.83487843  1
  Na  Na24  1  0.33385031  0.34019517  0.32935629  1
  Na  Na25  1  0.84658241  0.34198916  0.33107492  1
  Na  Na26  1  0.16121340  0.65290986  0.16825073  1
  Na  Na27  1  0.66613673  0.67977939  0.16825542  1
  Na  Na28  1  0.16065504  0.66774801  0.67018080  1
  Na  Na29  1  0.66009975  0.66840653  0.67069677  1
  Ca  Ca30  1  0.50017224  0.00556225  0.35095855  1
  Ca  Ca31  1  0.33370114  0.32515766  0.69335182  1
  Ca  Ca32  1  0.83341118  0.32348144  0.69406933  1
  Ca  Ca33  1  0.32874279  0.33468881  0.18693231  1
  Ca  Ca34  1  0.84193727  0.33858907  0.19043865  1
  Ca  Ca35  1  0.16681565  0.66836116  0.00375677  1
  Ca  Ca36  1  0.66676788  0.66679620  0.00454289  1
  Ca  Ca37  1  0.15852097  0.65372944  0.50810641  1
  Ca  Ca38  1  0.67278534  0.67425982  0.51027915  1
  Ti  Ti39  1  0.00075139  0.99847401  0.35162974  1
  Ti  Ti40  1  0.00086030  0.00169222  0.85317036  1
  Ti  Ti41  1  0.50098951  0.00226793  0.85295100  1
  Ti  Ti42  1  0.00226408  0.00391683  0.65119044  1
  Ti  Ti43  1  0.50148890  0.00073527  0.65058724  1
  Ti  Ti44  1  0.99984555  0.00051911  0.15061123  1
  Ti  Ti45  1  0.49962501  0.99699598  0.15273761  1
  Ti  Ti46  1  0.33329743  0.33746681  0.97926300  1
  Ti  Ti47  1  0.83347702  0.33481195  0.97947324  1
  Ti  Ti48  1  0.33224659  0.31987045  0.48012452  1
  Ti  Ti49  1  0.83783152  0.34623786  0.47930135  1
  Ti  Ti50  1  0.16258901  0.66081819  0.31686528  1
  Ti  Ti51  1  0.66619325  0.67053599  0.31762283  1
  Ti  Ti52  1  0.16335955  0.66705535  0.82029339  1
  Ti  Ti53  1  0.66319294  0.66598409  0.82038327  1
  P  P54  1  0.13814788  0.98013868  0.25271394  1
  P  P55  1  0.64526411  0.98431855  0.25252154  1
  P  P56  1  0.34482578  0.70746726  0.25338137  1
  P  P57  1  0.85269354  0.72213566  0.25304573  1
  P  P58  1  0.00855475  0.29120957  0.25376244  1
  P  P59  1  0.50715721  0.30672343  0.24913689  1
  P  P60  1  0.13866842  0.29655171  0.75341175  1
  P  P61  1  0.63838845  0.29593913  0.75299047  1
  P  P62  1  0.00907724  0.72602476  0.75298626  1
  P  P63  1  0.50906100  0.72562838  0.75321755  1
  P  P64  1  0.35383755  0.98552168  0.75334580  1
  P  P65  1  0.85380393  0.98497080  0.75346436  1
  P  P66  1  0.47852508  0.32538396  0.58352786  1
  P  P67  1  0.97711399  0.32360287  0.58364381  1
  P  P68  1  0.18336956  0.04124969  0.58351717  1
  P  P69  1  0.68406601  0.04511408  0.58200395  1
  P  P70  1  0.33720479  0.63166844  0.58460989  1
  P  P71  1  0.83917358  0.63273055  0.58697826  1
  P  P72  1  0.47852238  0.63176067  0.08211875  1
  P  P73  1  0.97998553  0.63446325  0.08129366  1
  P  P74  1  0.33716200  0.04118466  0.08402873  1
  P  P75  1  0.83758582  0.04433077  0.08202865  1
  P  P76  1  0.18194248  0.32487244  0.08057781  1
  P  P77  1  0.68494815  0.32545204  0.08504116  1
  P  P78  1  0.31968296  0.66479660  0.91501639  1
  P  P79  1  0.81960998  0.66412259  0.91501925  1
  P  P80  1  0.01241896  0.36053392  0.91628245  1
  P  P81  1  0.51234904  0.36023031  0.91658473  1
  P  P82  1  0.16769660  0.97503471  0.91611643  1
  P  P83  1  0.66749502  0.97435902  0.91616923  1
  P  P84  1  0.31101384  0.96817677  0.41854084  1
  P  P85  1  0.82082863  0.97573632  0.41543276  1
  P  P86  1  0.16676350  0.36059064  0.41557938  1
  P  P87  1  0.67520624  0.37485312  0.41862019  1
  P  P88  1  0.01447598  0.66708147  0.41593534  1
  P  P89  1  0.51332576  0.65106340  0.41855726  1
  O  O90  1  0.08779254  0.99317593  0.30557970  1
  O  O91  1  0.60928037  0.00800472  0.31043367  1
  O  O92  1  0.39036644  0.78276586  0.31173636  1
  O  O93  1  0.90995710  0.82535714  0.30561579  1
  O  O94  1  0.49369472  0.20073552  0.30400726  1
  O  O95  1  0.00528436  0.17790381  0.30585603  1
  O  O96  1  0.08746141  0.18216091  0.80564851  1
  O  O97  1  0.58747616  0.18225321  0.80561919  1
  O  O98  1  0.50402054  0.83025286  0.80520373  1
  O  O99  1  0.00404162  0.83052671  0.80503710  1
  O  O100  1  0.40957408  0.98899595  0.80583496  1
  O  O101  1  0.90963474  0.98878644  0.80582210  1
  O  O102  1  0.40014208  0.96885140  0.69394835  1
  O  O103  1  0.90037819  0.96932416  0.69384940  1
  O  O104  1  0.08700173  0.20361559  0.69313487  1
  O  O105  1  0.58700911  0.20350174  0.69297195  1
  O  O106  1  0.01780302  0.83239486  0.69289566  1
  O  O107  1  0.51784138  0.83135760  0.69300022  1
  O  O108  1  0.40061612  0.83393043  0.19806143  1
  O  O109  1  0.89890442  0.82644938  0.19319249  1
  O  O110  1  0.01579281  0.20241266  0.19341498  1
  O  O111  1  0.51754422  0.20418783  0.19245874  1
  O  O112  1  0.08695427  0.97162478  0.19293672  1
  O  O113  1  0.58336024  0.96667389  0.19661209  1
  O  O114  1  0.44108495  0.36130162  0.63817085  1
  O  O115  1  0.93956546  0.35853179  0.63848366  1
  O  O116  1  0.23847540  0.11817191  0.63841406  1
  O  O117  1  0.74025032  0.12514965  0.63613111  1
  O  O118  1  0.32308663  0.53009329  0.64208283  1
  O  O119  1  0.82472988  0.53141024  0.64414570  1
  O  O120  1  0.44141162  0.52175922  0.13683523  1
  O  O121  1  0.94502584  0.52910440  0.13741045  1
  O  O122  1  0.32075958  0.10419960  0.14314242  1
  O  O123  1  0.82022185  0.11795033  0.13717202  1
  O  O124  1  0.23477540  0.36003489  0.13639706  1
  O  O125  1  0.73524772  0.35769578  0.14303187  1
  O  O126  1  0.23223914  0.30376978  0.02559461  1
  O  O127  1  0.73725928  0.30668725  0.03063318  1
  O  O128  1  0.41793310  0.53307278  0.02613748  1
  O  O129  1  0.91906876  0.53388212  0.02626416  1
  O  O130  1  0.34733580  0.16753805  0.03099846  1
  O  O131  1  0.84952576  0.16509687  0.02640256  1
  O  O132  1  0.23303799  0.16107307  0.52747703  1
  O  O133  1  0.72861272  0.15564322  0.52376557  1
  O  O134  1  0.34857968  0.53717458  0.52850373  1
  O  O135  1  0.84833037  0.52862590  0.53191538  1
  O  O136  1  0.41665612  0.30040375  0.52767437  1
  O  O137  1  0.91914023  0.30564420  0.52702443  1
  O  O138  1  0.29270950  0.70537812  0.97441708  1
  O  O139  1  0.79269318  0.70554738  0.97433233  1
  O  O140  1  0.05898494  0.41152247  0.97604136  1
  O  O141  1  0.55898619  0.41109654  0.97637862  1
  O  O142  1  0.14610276  0.88238260  0.97593884  1
  O  O143  1  0.64644252  0.88162100  0.97599366  1
  O  O144  1  0.27484779  0.87114764  0.47664915  1
  O  O145  1  0.79638631  0.88835402  0.47625357  1
  O  O146  1  0.14636164  0.40896347  0.47603190  1
  O  O147  1  0.66388862  0.44214502  0.47778004  1
  O  O148  1  0.05892015  0.70996099  0.47631842  1
  O  O149  1  0.56204813  0.68323417  0.47708559  1
  O  O150  1  0.06872086  0.64019613  0.36613305  1
  O  O151  1  0.56964151  0.64019122  0.36520788  1
  O  O152  1  0.25201001  0.86620675  0.36303706  1
  O  O153  1  0.74948660  0.86014143  0.36706881  1
  O  O154  1  0.17954541  0.50082344  0.36691466  1
  O  O155  1  0.68090102  0.49053953  0.36335177  1
  O  O156  1  0.07033830  0.49868173  0.86658750  1
  O  O157  1  0.56998891  0.49854548  0.86681843  1
  O  O158  1  0.17846031  0.85901513  0.86648690  1
  O  O159  1  0.67868369  0.85934281  0.86646931  1
  O  O160  1  0.25373400  0.64097469  0.86326308  1
  O  O161  1  0.75368351  0.64097712  0.86321981  1
  O  O162  1  0.99771415  0.81538187  0.40100352  1
  O  O163  1  0.49857209  0.80308401  0.41091926  1
  O  O164  1  0.40111259  0.99354062  0.41333602  1
  O  O165  1  0.91092502  0.00503789  0.40056303  1
  O  O166  1  0.09221735  0.17761173  0.40150015  1
  O  O167  1  0.60302700  0.18795326  0.41332850  1
  O  O168  1  0.99828585  0.18035458  0.90118388  1
  O  O169  1  0.49824160  0.18029296  0.90126768  1
  O  O170  1  0.09191768  0.00424017  0.90115909  1
  O  O171  1  0.59188836  0.00404854  0.90127233  1
  O  O172  1  0.41142436  0.81672035  0.90181151  1
  O  O173  1  0.91135912  0.81653448  0.90175906  1
  O  O174  1  0.47928677  0.15118178  0.58735168  1
  O  O175  1  0.97844989  0.14948349  0.58787896  1
  O  O176  1  0.09557929  0.04174659  0.58742774  1
  O  O177  1  0.59469652  0.04013468  0.58797306  1
  O  O178  1  0.42391959  0.81239981  0.58908164  1
  O  O179  1  0.92619838  0.81000708  0.58796590  1
  O  O180  1  0.47950723  0.80812950  0.08742251  1
  O  O181  1  0.98054122  0.81043854  0.08623410  1
  O  O182  1  0.42403734  0.03684728  0.08743276  1
  O  O183  1  0.92446878  0.03981999  0.08790484  1
  O  O184  1  0.09355580  0.14941247  0.08605554  1
  O  O185  1  0.59628427  0.15049860  0.08791904  1
  O  O186  1  0.34540578  0.14316755  0.75499674  1
  O  O187  1  0.84538266  0.14268812  0.75532246  1
  O  O188  1  0.22921453  0.32285912  0.75375428  1
  O  O189  1  0.72905529  0.32270987  0.75375930  1
  O  O190  1  0.42572471  0.55318804  0.75302062  1
  O  O191  1  0.92580338  0.55354810  0.75271717  1
  O  O192  1  0.32809548  0.52682517  0.24644986  1
  O  O193  1  0.83983198  0.54145968  0.25368212  1
  O  O194  1  0.42902228  0.32818977  0.24224813  1
  O  O195  1  0.92950191  0.30890244  0.25553690  1
  O  O196  1  0.22988920  0.13217955  0.25379355  1
  O  O197  1  0.73280602  0.14450851  0.24404043  1
  O  O198  1  0.32301524  0.49492249  0.91923891  1
  O  O199  1  0.82283337  0.49460488  0.91926483  1
  O  O200  1  0.42472190  0.35408983  0.91939231  1
  O  O201  1  0.92499796  0.35519418  0.91893683  1
  O  O202  1  0.25284952  0.14985253  0.91884681  1
  O  O203  1  0.75230339  0.15045804  0.91933024  1
  O  O204  1  0.31491528  0.14674167  0.42173096  1
  O  O205  1  0.81957446  0.14790976  0.41691028  1
  O  O206  1  0.25489352  0.36584402  0.41771819  1
  O  O207  1  0.76231861  0.37000989  0.42115384  1
  O  O208  1  0.42392243  0.48221748  0.42018303  1
  O  O209  1  0.92646656  0.49470497  0.42023525  1
  O  O210  1  0.16513098  0.47449632  0.07248058  1
  O  O211  1  0.66916531  0.47615084  0.07521758  1
  O  O212  1  0.07180469  0.66814978  0.07316181  1
  O  O213  1  0.57072771  0.66716991  0.07356532  1
  O  O214  1  0.26144091  0.85827841  0.07420150  1
  O  O215  1  0.76265173  0.85993712  0.07371605  1
  O  O216  1  0.16485638  0.85692369  0.57666581  1
  O  O217  1  0.66568370  0.85962235  0.57707343  1
  O  O218  1  0.26129815  0.66292583  0.57678759  1
  O  O219  1  0.76402428  0.66531641  0.57949824  1
  O  O220  1  0.06970709  0.47209513  0.57758818  1
  O  O221  1  0.57041275  0.47391268  0.57533192  1
  O  O222  1  0.14158215  0.81066499  0.25694242  1
  O  O223  1  0.64984998  0.81583785  0.25526814  1
  O  O224  1  0.25854919  0.71352258  0.25254139  1
  O  O225  1  0.76309019  0.70834306  0.25778087  1
  O  O226  1  0.09217524  0.47032034  0.25912333  1
  O  O227  1  0.59463375  0.48042396  0.25228521  1
  O  O228  1  0.14456875  0.47517573  0.75662769  1
  O  O229  1  0.64459436  0.47514536  0.75681116  1
  O  O230  1  0.09069949  0.70951601  0.75835039  1
  O  O231  1  0.59067785  0.70910669  0.75863047  1
  O  O232  1  0.26484665  0.81480544  0.75599855  1
  O  O233  1  0.76486861  0.81458151  0.75575449  1
