# generated using pymatgen
data_ClO2
_symmetry_space_group_name_H-M   'P 1'
_cell_length_a   5.46701659
_cell_length_b   6.52631691
_cell_length_c   10.58551663
_cell_angle_alpha   90.00000000
_cell_angle_beta   90.00000000
_cell_angle_gamma   90.00000000
_symmetry_Int_Tables_number   1
_chemical_formula_structural   ClO2
_chemical_formula_sum   'Cl8 O16'
_cell_volume   377.68575873
_cell_formula_units_Z   8
loop_
 _symmetry_equiv_pos_site_id
 _symmetry_equiv_pos_as_xyz
  1  'x, y, z'
loop_
 _atom_site_type_symbol
 _atom_site_label
 _atom_site_symmetry_multiplicity
 _atom_site_fract_x
 _atom_site_fract_y
 _atom_site_fract_z
 _atom_site_occupancy
  Cl  Cl0  1  0.83365756  0.00463449  0.38590344  1
  Cl  Cl1  1  0.33365756  0.99536551  0.11409656  1
  Cl  Cl2  1  0.66634244  0.50463449  0.61409656  1
  Cl  Cl3  1  0.16634244  0.49536551  0.88590344  1
  Cl  Cl4  1  0.16634244  0.99536551  0.61409656  1
  Cl  Cl5  1  0.66634244  0.00463449  0.88590344  1
  Cl  Cl6  1  0.33365756  0.49536551  0.38590344  1
  Cl  Cl7  1  0.83365756  0.50463449  0.11409656  1
  O  O8  1  0.78570502  0.09964953  0.51097316  1
  O  O9  1  0.28570502  0.90035047  0.98902684  1
  O  O10  1  0.71429498  0.59964953  0.48902684  1
  O  O11  1  0.21429498  0.40035047  0.01097316  1
  O  O12  1  0.21429498  0.90035047  0.48902684  1
  O  O13  1  0.71429498  0.09964953  0.01097316  1
  O  O14  1  0.28570502  0.40035047  0.51097316  1
  O  O15  1  0.78570502  0.59964953  0.98902684  1
  O  O16  1  0.92537139  0.64620468  0.21107146  1
  O  O17  1  0.42537139  0.35379532  0.28892854  1
  O  O18  1  0.57462861  0.14620468  0.78892854  1
  O  O19  1  0.07462861  0.85379532  0.71107146  1
  O  O20  1  0.07462861  0.35379532  0.78892854  1
  O  O21  1  0.57462861  0.64620468  0.71107146  1
  O  O22  1  0.42537139  0.85379532  0.21107146  1
  O  O23  1  0.92537139  0.14620468  0.28892854  1
