# generated using pymatgen
data_Na3Y4P3(SO8)3
_symmetry_space_group_name_H-M   'P 1'
_cell_length_a   9.21125732
_cell_length_b   9.20787008
_cell_length_c   24.36016262
_cell_angle_alpha   89.70623934
_cell_angle_beta   90.32284117
_cell_angle_gamma   120.34741726
_symmetry_Int_Tables_number   1
_chemical_formula_structural   Na3Y4P3(SO8)3
_chemical_formula_sum   'Na9 Y12 P9 S9 O72'
_cell_volume   1782.99223252
_cell_formula_units_Z   3
loop_
 _symmetry_equiv_pos_site_id
 _symmetry_equiv_pos_as_xyz
  1  'x, y, z'
loop_
 _atom_site_type_symbol
 _atom_site_label
 _atom_site_symmetry_multiplicity
 _atom_site_fract_x
 _atom_site_fract_y
 _atom_site_fract_z
 _atom_site_occupancy
  Na  Na0  1  0.35314373  0.35354038  0.25255467  1
  Na  Na1  1  0.68594205  0.01926915  0.91677257  1
  Na  Na2  1  0.98061286  0.31267903  0.41673815  1
  Na  Na3  1  0.00886794  0.99778068  0.49970241  1
  Na  Na4  1  0.00088862  0.99029407  0.00052050  1
  Na  Na5  1  0.65737792  0.33560600  0.83329091  1
  Na  Na6  1  0.66610353  0.33342072  0.33338917  1
  Na  Na7  1  0.33180103  0.68690357  0.16653927  1
  Na  Na8  1  0.33334176  0.66666073  0.66675511  1
  Y  Y9  1  0.00929009  0.99666887  0.35019228  1
  Y  Y10  1  0.00132830  0.99460190  0.85018230  1
  Y  Y11  1  0.99193040  0.00664268  0.64935382  1
  Y  Y12  1  0.99657661  0.00282016  0.14959862  1
  Y  Y13  1  0.67489821  0.32673383  0.68407287  1
  Y  Y14  1  0.67470657  0.31940658  0.18371500  1
  Y  Y15  1  0.66112961  0.33411250  0.98323632  1
  Y  Y16  1  0.66327944  0.33786897  0.48339874  1
  Y  Y17  1  0.34128831  0.67701323  0.01706041  1
  Y  Y18  1  0.32313674  0.65785987  0.51740358  1
  Y  Y19  1  0.32435219  0.67091943  0.31652454  1
  Y  Y20  1  0.34416289  0.67514219  0.81606902  1
  P  P21  1  0.29684481  0.00281869  0.24813942  1
  P  P22  1  0.00302170  0.29530318  0.25236241  1
  P  P23  1  0.70392729  0.00031301  0.75177243  1
  P  P24  1  0.96262995  0.33290965  0.58149034  1
  P  P25  1  0.66889467  0.03505114  0.08093106  1
  P  P26  1  0.62949953  0.66734009  0.91667827  1
  P  P27  1  0.33403506  0.96306616  0.91660376  1
  P  P28  1  0.33325709  0.37224471  0.41463969  1
  P  P29  1  0.03427097  0.66442714  0.41775373  1
  S  S30  1  0.70014922  0.69994874  0.24974381  1
  S  S31  1  0.29714299  0.29661945  0.74954413  1
  S  S32  1  0.00014445  0.70411649  0.74900088  1
  S  S33  1  0.36927589  0.03651570  0.58382759  1
  S  S34  1  0.66674698  0.62926622  0.58430770  1
  S  S35  1  0.96275875  0.62943798  0.08352215  1
  S  S36  1  0.37040454  0.33461689  0.08503174  1
  S  S37  1  0.03681618  0.37002443  0.91662485  1
  S  S38  1  0.63149680  0.96433474  0.41729568  1
  O  O39  1  0.21363505  0.02672628  0.29984725  1
  O  O40  1  0.80132280  0.78068154  0.29927086  1
  O  O41  1  0.98098115  0.19368426  0.30552974  1
  O  O42  1  0.21613226  0.19409015  0.79914362  1
  O  O43  1  0.98244365  0.78553844  0.79887375  1
  O  O44  1  0.80476052  0.01873391  0.80503602  1
  O  O45  1  0.79617033  0.98387740  0.70144604  1
  O  O46  1  0.19555151  0.21185041  0.70014417  1
  O  O47  1  0.02069981  0.80701999  0.69981474  1
  O  O48  1  0.78215293  0.80154721  0.20025650  1
  O  O49  1  0.02359623  0.20456872  0.20221306  1
  O  O50  1  0.18831917  0.98077019  0.19715665  1
  O  O51  1  0.87066589  0.34962609  0.63189761  1
  O  O52  1  0.47118985  0.12158837  0.63319787  1
  O  O53  1  0.64595375  0.52615527  0.63352861  1
  O  O54  1  0.87845073  0.52948889  0.13298717  1
  O  O55  1  0.65097135  0.12566220  0.13150546  1
  O  O56  1  0.46917628  0.35481637  0.13552322  1
  O  O57  1  0.45665880  0.31789539  0.03620731  1
  O  O58  1  0.86064623  0.54701760  0.03387143  1
  O  O59  1  0.68598804  0.13668233  0.02789028  1
  O  O60  1  0.45006042  0.13894520  0.53425188  1
  O  O61  1  0.68421943  0.54787961  0.53447920  1
  O  O62  1  0.86179397  0.31461895  0.52827625  1
  O  O63  1  0.54363925  0.69191780  0.96732897  1
  O  O64  1  0.13678808  0.45047508  0.96625364  1
  O  O65  1  0.31056341  0.85642589  0.96829516  1
  O  O66  1  0.54943906  0.86392456  0.46682859  1
  O  O67  1  0.31187081  0.46367307  0.46455462  1
  O  O68  1  0.14320126  0.68816026  0.46888906  1
  O  O69  1  0.11818860  0.63946313  0.36652178  1
  O  O70  1  0.53143713  0.88385944  0.36763619  1
  O  O71  1  0.35445980  0.47272571  0.36116611  1
  O  O72  1  0.11757898  0.47028353  0.86700685  1
  O  O73  1  0.35880875  0.87724899  0.86588445  1
  O  O74  1  0.52271102  0.64395074  0.86493617  1
  O  O75  1  0.00875922  0.81648210  0.41177147  1
  O  O76  1  0.80364502  0.98787178  0.41229076  1
  O  O77  1  0.16435958  0.19923616  0.41147591  1
  O  O78  1  0.01285354  0.19701136  0.91151347  1
  O  O79  1  0.18219687  0.98882882  0.91004731  1
  O  O80  1  0.80210800  0.83540253  0.91106995  1
  O  O81  1  0.98065596  0.17452550  0.58765195  1
  O  O82  1  0.19940542  0.01608642  0.58923371  1
  O  O83  1  0.82162346  0.79747133  0.58901734  1
  O  O84  1  0.98231934  0.79942891  0.08785167  1
  O  O85  1  0.82710878  0.01788757  0.08717891  1
  O  O86  1  0.20175108  0.17969447  0.08833635  1
  O  O87  1  0.68616546  0.15886331  0.74566065  1
  O  O88  1  0.46721580  0.31726449  0.74413249  1
  O  O89  1  0.84505683  0.53586379  0.74430014  1
  O  O90  1  0.67634220  0.52784556  0.24405910  1
  O  O91  1  0.85112214  0.32149300  0.24557712  1
  O  O92  1  0.46843671  0.17215083  0.24319261  1
  O  O93  1  0.65503846  0.51521131  0.92317943  1
  O  O94  1  0.86379752  0.34607620  0.92163942  1
  O  O95  1  0.50203439  0.13579842  0.92216056  1
  O  O96  1  0.65432240  0.13693588  0.42202277  1
  O  O97  1  0.48476814  0.34614569  0.42234584  1
  O  O98  1  0.86254482  0.49620859  0.42306299  1
  O  O99  1  0.35002463  0.48354641  0.07851444  1
  O  O100  1  0.13009140  0.64342595  0.07882744  1
  O  O101  1  0.50815187  0.85810350  0.07864969  1
  O  O102  1  0.35652374  0.86976869  0.57892539  1
  O  O103  1  0.51782472  0.65032963  0.57862733  1
  O  O104  1  0.14062981  0.49238477  0.57916102  1
  O  O105  1  0.32399439  0.85159238  0.25439273  1
  O  O106  1  0.52906271  0.67866584  0.25470240  1
  O  O107  1  0.17104500  0.46810466  0.25557500  1
  O  O108  1  0.31015978  0.46351558  0.75439714  1
  O  O109  1  0.14887374  0.68285659  0.75471363  1
  O  O110  1  0.52625110  0.84068404  0.75408569  1
