# generated using pymatgen
data_Na3LaSiSn(PO6)2
_symmetry_space_group_name_H-M   'P 1'
_cell_length_a   16.24613389
_cell_length_b   9.42026247
_cell_length_c   9.44540782
_cell_angle_alpha   90.00000000
_cell_angle_beta   125.97916357
_cell_angle_gamma   90.00000000
_symmetry_Int_Tables_number   1
_chemical_formula_structural   Na3LaSiSn(PO6)2
_chemical_formula_sum   'Na12 La4 Si4 Sn4 P8 O48'
_cell_volume   1169.78512427
_cell_formula_units_Z   4
loop_
 _symmetry_equiv_pos_site_id
 _symmetry_equiv_pos_as_xyz
  1  'x, y, z'
loop_
 _atom_site_type_symbol
 _atom_site_label
 _atom_site_symmetry_multiplicity
 _atom_site_fract_x
 _atom_site_fract_y
 _atom_site_fract_z
 _atom_site_occupancy
  Na  Na0  1  0.25442188  0.71975169  0.01125080  1
  Na  Na1  1  0.75442188  0.78024831  0.51125080  1
  Na  Na2  1  0.75442188  0.21975169  0.01125080  1
  Na  Na3  1  0.25442188  0.28024831  0.51125080  1
  Na  Na4  1  0.50869260  0.10152814  0.76000409  1
  Na  Na5  1  0.50869260  0.89847186  0.26000409  1
  Na  Na6  1  0.00869260  0.60152814  0.76000409  1
  Na  Na7  1  0.00869260  0.39847186  0.26000409  1
  Na  Na8  1  0.18407546  0.92677243  0.30284195  1
  Na  Na9  1  0.18407546  0.07322757  0.80284195  1
  Na  Na10  1  0.68407546  0.42677243  0.30284195  1
  Na  Na11  1  0.68407546  0.57322757  0.80284195  1
  La  La12  1  0.10849469  0.74447966  0.57209532  1
  La  La13  1  0.10849469  0.25552034  0.07209532  1
  La  La14  1  0.60849469  0.24447966  0.57209532  1
  La  La15  1  0.60849469  0.75552034  0.07209532  1
  Si  Si16  1  0.65020496  0.87761299  0.74382993  1
  Si  Si17  1  0.65020496  0.12238701  0.24382993  1
  Si  Si18  1  0.15020496  0.37761299  0.74382993  1
  Si  Si19  1  0.15020496  0.62238701  0.24382993  1
  Sn  Sn20  1  0.89934714  0.75960977  0.93907777  1
  Sn  Sn21  1  0.89934714  0.24039023  0.43907777  1
  Sn  Sn22  1  0.39934714  0.25960977  0.93907777  1
  Sn  Sn23  1  0.39934714  0.74039023  0.43907777  1
  P  P24  1  0.98912724  0.95851126  0.75334485  1
  P  P25  1  0.98912724  0.04148874  0.25334485  1
  P  P26  1  0.48912724  0.45851126  0.75334485  1
  P  P27  1  0.48912724  0.54148874  0.25334485  1
  P  P28  1  0.35498666  0.92605346  0.74935594  1
  P  P29  1  0.35498666  0.07394654  0.24935594  1
  P  P30  1  0.85498666  0.42605346  0.74935594  1
  P  P31  1  0.85498666  0.57394654  0.24935594  1
  O  O32  1  0.15618882  0.54962004  0.76410026  1
  O  O33  1  0.85684697  0.59458846  0.74396985  1
  O  O34  1  0.85684697  0.40541154  0.24396985  1
  O  O35  1  0.15618882  0.45037996  0.26410026  1
  O  O36  1  0.65618882  0.04962004  0.76410026  1
  O  O37  1  0.35684697  0.09458846  0.74396985  1
  O  O38  1  0.35684697  0.90541154  0.24396985  1
  O  O39  1  0.65618882  0.95037996  0.26410026  1
  O  O40  1  0.43264228  0.55793213  0.58855542  1
  O  O41  1  0.54959063  0.53953463  0.92441738  1
  O  O42  1  0.54959063  0.46046537  0.42441738  1
  O  O43  1  0.43264228  0.44206787  0.08855542  1
  O  O44  1  0.93264228  0.05793213  0.58855542  1
  O  O45  1  0.04959063  0.03953463  0.92441738  1
  O  O46  1  0.04959063  0.96046537  0.42441738  1
  O  O47  1  0.93264228  0.94206787  0.08855542  1
  O  O48  1  0.26189527  0.88405375  0.74562734  1
  O  O49  1  0.74669272  0.80268383  0.75360872  1
  O  O50  1  0.74669272  0.19731617  0.25360872  1
  O  O51  1  0.26189527  0.11594625  0.24562734  1
  O  O52  1  0.76189527  0.38405375  0.74562734  1
  O  O53  1  0.24669272  0.30268383  0.75360872  1
  O  O54  1  0.24669272  0.69731617  0.25360872  1
  O  O55  1  0.76189527  0.61594625  0.24562734  1
  O  O56  1  0.35097744  0.87696028  0.58544103  1
  O  O57  1  0.65008295  0.80447340  0.89687659  1
  O  O58  1  0.65008295  0.19552660  0.39687659  1
  O  O59  1  0.35097744  0.12303972  0.08544103  1
  O  O60  1  0.85097744  0.37696028  0.58544103  1
  O  O61  1  0.15008295  0.30447340  0.89687659  1
  O  O62  1  0.15008295  0.69552660  0.39687659  1
  O  O63  1  0.85097744  0.62303972  0.08544103  1
  O  O64  1  0.45200393  0.87541535  0.92038347  1
  O  O65  1  0.54412877  0.82072913  0.55217706  1
  O  O66  1  0.54412877  0.17927087  0.05217706  1
  O  O67  1  0.45200393  0.12458465  0.42038347  1
  O  O68  1  0.95200393  0.37541535  0.92038347  1
  O  O69  1  0.04412877  0.32072913  0.55217706  1
  O  O70  1  0.04412877  0.67927087  0.05217706  1
  O  O71  1  0.95200393  0.62458465  0.42038347  1
  O  O72  1  0.06369054  0.85856405  0.74895675  1
  O  O73  1  0.90590907  0.86549498  0.74408550  1
  O  O74  1  0.90590907  0.13450502  0.24408550  1
  O  O75  1  0.06369054  0.14143595  0.24895675  1
  O  O76  1  0.56369054  0.35856405  0.74895675  1
  O  O77  1  0.40590907  0.36549498  0.74408550  1
  O  O78  1  0.40590907  0.63450502  0.24408550  1
  O  O79  1  0.56369054  0.64143595  0.24895675  1
