# generated using pymatgen
data_Tm6MgWO12
_symmetry_space_group_name_H-M   'P 1'
_cell_length_a   6.47343760
_cell_length_b   6.47343760
_cell_length_c   6.47343850
_cell_angle_alpha   99.58024517
_cell_angle_beta   99.58024517
_cell_angle_gamma   99.58023033
_symmetry_Int_Tables_number   1
_chemical_formula_structural   Tm6MgWO12
_chemical_formula_sum   'Tm6 Mg1 W1 O12'
_cell_volume   258.44759439
_cell_formula_units_Z   1
loop_
 _symmetry_equiv_pos_site_id
 _symmetry_equiv_pos_as_xyz
  1  'x, y, z'
loop_
 _atom_site_type_symbol
 _atom_site_label
 _atom_site_symmetry_multiplicity
 _atom_site_fract_x
 _atom_site_fract_y
 _atom_site_fract_z
 _atom_site_occupancy
  Tm  Tm0  1  0.39482300  0.85824000  0.66835500  1
  Tm  Tm1  1  0.30285600  0.65077500  0.13236100  1
  Tm  Tm2  1  0.13236100  0.30285600  0.65077500  1
  Tm  Tm3  1  0.85824000  0.66835500  0.39482300  1
  Tm  Tm4  1  0.66835500  0.39482300  0.85824000  1
  Tm  Tm5  1  0.65077500  0.13236100  0.30285600  1
  Mg  Mg6  1  0.27257700  0.27257700  0.27257700  1
  W  W7  1  0.98111600  0.98111600  0.98111600  1
  O  O8  1  0.05610700  0.91751700  0.67970200  1
  O  O9  1  0.30653400  0.97937800  0.09660300  1
  O  O10  1  0.18963600  0.55979700  0.41683700  1
  O  O11  1  0.58195900  0.82785500  0.40822400  1
  O  O12  1  0.09660300  0.30653400  0.97937800  1
  O  O13  1  0.40822400  0.58195900  0.82785500  1
  O  O14  1  0.55979700  0.41683700  0.18963600  1
  O  O15  1  0.91751700  0.67970200  0.05610700  1
  O  O16  1  0.41683700  0.18963600  0.55979700  1
  O  O17  1  0.82785500  0.40822400  0.58195900  1
  O  O18  1  0.67970200  0.05610700  0.91751700  1
  O  O19  1  0.97937800  0.09660300  0.30653400  1
