# generated using pymatgen
data_Na8CaHf3Si4(PO12)2
_symmetry_space_group_name_H-M   'P 1'
_cell_length_a   9.26776360
_cell_length_b   9.26945418
_cell_length_c   22.53075755
_cell_angle_alpha   90.04657996
_cell_angle_beta   89.88778419
_cell_angle_gamma   119.98790398
_symmetry_Int_Tables_number   1
_chemical_formula_structural   Na8CaHf3Si4(PO12)2
_chemical_formula_sum   'Na24 Ca3 Hf9 Si12 P6 O72'
_cell_volume   1676.43846488
_cell_formula_units_Z   3
loop_
 _symmetry_equiv_pos_site_id
 _symmetry_equiv_pos_as_xyz
  1  'x, y, z'
loop_
 _atom_site_type_symbol
 _atom_site_label
 _atom_site_symmetry_multiplicity
 _atom_site_fract_x
 _atom_site_fract_y
 _atom_site_fract_z
 _atom_site_occupancy
  Na  Na0  1  0.63888773  0.01179521  0.23747352  1
  Na  Na1  1  0.37344445  0.35953024  0.23872987  1
  Na  Na2  1  0.98759612  0.62859650  0.23868134  1
  Na  Na3  1  0.63422265  0.62063990  0.74424889  1
  Na  Na4  1  0.98207695  0.36921688  0.75130777  1
  Na  Na5  1  0.38438388  0.00855718  0.74259201  1
  Na  Na6  1  0.31935976  0.33804033  0.58574067  1
  Na  Na7  1  0.02686275  0.69479859  0.58301485  1
  Na  Na8  1  0.65809767  0.97486561  0.59308349  1
  Na  Na9  1  0.31761011  0.97537599  0.08125113  1
  Na  Na10  1  0.65785061  0.68262793  0.08111521  1
  Na  Na11  1  0.02492750  0.34230363  0.08116724  1
  Na  Na12  1  0.96772031  0.66475420  0.91649092  1
  Na  Na13  1  0.69891264  0.03452665  0.91649400  1
  Na  Na14  1  0.33478828  0.30199885  0.91908580  1
  Na  Na15  1  0.97138927  0.29217094  0.41254985  1
  Na  Na16  1  0.31546005  0.03219000  0.41576317  1
  Na  Na17  1  0.71104329  0.67496301  0.41186103  1
  Na  Na18  1  0.00852151  0.99820354  0.49769593  1
  Na  Na19  1  0.00121761  0.00122688  0.00005628  1
  Na  Na20  1  0.67254440  0.33300999  0.82997098  1
  Na  Na21  1  0.66792649  0.33714793  0.32891732  1
  Na  Na22  1  0.33435374  0.66775015  0.15928533  1
  Na  Na23  1  0.34268112  0.67936091  0.66889927  1
  Ca  Ca24  1  0.00120669  0.99916976  0.35192344  1
  Ca  Ca25  1  0.66541699  0.33280339  0.68372771  1
  Ca  Ca26  1  0.66694790  0.33408664  0.17673097  1
  Hf  Hf27  1  0.99586249  0.99599780  0.85399379  1
  Hf  Hf28  1  0.99747123  0.99263006  0.64822549  1
  Hf  Hf29  1  0.00057011  0.99988134  0.14706554  1
  Hf  Hf30  1  0.66783817  0.33367381  0.98326913  1
  Hf  Hf31  1  0.66374680  0.33842789  0.48258747  1
  Hf  Hf32  1  0.33336724  0.66713728  0.01508769  1
  Hf  Hf33  1  0.33180169  0.66695525  0.51827699  1
  Hf  Hf34  1  0.32910732  0.66098097  0.31513217  1
  Hf  Hf35  1  0.33504035  0.67068281  0.81458311  1
  Si  Si36  1  0.00826495  0.70925022  0.75174355  1
  Si  Si37  1  0.70336091  0.99315059  0.75148330  1
  Si  Si38  1  0.36496560  0.03183148  0.58460465  1
  Si  Si39  1  0.66576729  0.63746204  0.58489253  1
  Si  Si40  1  0.97226242  0.63693415  0.08475225  1
  Si  Si41  1  0.66521865  0.02823739  0.08465077  1
  Si  Si42  1  0.36358633  0.33560968  0.08462952  1
  Si  Si43  1  0.62785505  0.66234190  0.91524865  1
  Si  Si44  1  0.03612997  0.37197656  0.91520692  1
  Si  Si45  1  0.33747565  0.96654772  0.91585857  1
  Si  Si46  1  0.34216336  0.37648339  0.41790752  1
  Si  Si47  1  0.03187491  0.65431582  0.41725315  1
  P  P48  1  0.29827327  0.99372141  0.25242986  1
  P  P49  1  0.69611181  0.70373525  0.25245012  1
  P  P50  1  0.00604422  0.30306879  0.25260240  1
  P  P51  1  0.28303562  0.29284037  0.75134200  1
  P  P52  1  0.96723319  0.33197385  0.58266083  1
  P  P53  1  0.61646446  0.96249006  0.41683813  1
  O  O54  1  0.22072039  0.00679306  0.31063409  1
  O  O55  1  0.78562639  0.78039043  0.31072687  1
  O  O56  1  0.99238074  0.21320452  0.31089241  1
  O  O57  1  0.18836365  0.19000286  0.80675000  1
  O  O58  1  0.00283654  0.81373550  0.80958434  1
  O  O59  1  0.81512547  0.00312964  0.80934571  1
  O  O60  1  0.80215302  0.98282887  0.69150263  1
  O  O61  1  0.18080400  0.20247339  0.69459585  1
  O  O62  1  0.02253965  0.82112041  0.69202577  1
  O  O63  1  0.79939309  0.81790491  0.19861218  1
  O  O64  1  0.01955232  0.20178432  0.19879657  1
  O  O65  1  0.18346837  0.98050263  0.19846201  1
  O  O66  1  0.90210871  0.37078924  0.63935243  1
  O  O67  1  0.47485317  0.09211401  0.64391124  1
  O  O68  1  0.61945710  0.52754284  0.64407712  1
  O  O69  1  0.91184471  0.53150965  0.14494639  1
  O  O70  1  0.61950518  0.08905677  0.14466649  1
  O  O71  1  0.46938861  0.38129784  0.14468003  1
  O  O72  1  0.46252558  0.30396421  0.02907502  1
  O  O73  1  0.84189053  0.53771770  0.02940836  1
  O  O74  1  0.69707843  0.15884385  0.02926442  1
  O  O75  1  0.46967773  0.15779150  0.52819124  1
  O  O76  1  0.69391455  0.53534014  0.52869259  1
  O  O77  1  0.85140168  0.30935850  0.52864880  1
  O  O78  1  0.53714135  0.69065035  0.97241739  1
  O  O79  1  0.15377967  0.46430804  0.97237500  1
  O  O80  1  0.30872578  0.84748733  0.97294398  1
  O  O81  1  0.52209409  0.85745615  0.47161663  1
  O  O82  1  0.33717373  0.48131252  0.47512845  1
  O  O83  1  0.14639853  0.66821255  0.47415298  1
  O  O84  1  0.13319773  0.64144499  0.35798893  1
  O  O85  1  0.51080569  0.87103339  0.36050944  1
  O  O86  1  0.36121152  0.49204235  0.35844271  1
  O  O87  1  0.12717606  0.48982721  0.85672433  1
  O  O88  1  0.36385759  0.87240691  0.85794636  1
  O  O89  1  0.50975242  0.63528242  0.85704109  1
  O  O90  1  0.00533429  0.81371953  0.41890139  1
  O  O91  1  0.79099693  0.98254637  0.41645694  1
  O  O92  1  0.17789943  0.19410984  0.41966871  1
  O  O93  1  0.01511446  0.18501564  0.91247685  1
  O  O94  1  0.17499044  0.99276326  0.91232965  1
  O  O95  1  0.81645333  0.82761007  0.91277763  1
  O  O96  1  0.97815474  0.17037773  0.58652046  1
  O  O97  1  0.18635761  0.03157692  0.58687954  1
  O  O98  1  0.84089673  0.81947779  0.58634864  1
  O  O99  1  0.98174754  0.82003368  0.09000933  1
  O  O100  1  0.83891965  0.01888398  0.09029416  1
  O  O101  1  0.18066822  0.16185841  0.09016522  1
  O  O102  1  0.68262505  0.15584999  0.75366910  1
  O  O103  1  0.45651911  0.31033440  0.75168257  1
  O  O104  1  0.84207692  0.52853064  0.75301560  1
  O  O105  1  0.67159496  0.52737841  0.24798473  1
  O  O106  1  0.85534851  0.32907312  0.24788788  1
  O  O107  1  0.47391320  0.14671414  0.24790071  1
  O  O108  1  0.64563130  0.49579491  0.92217722  1
  O  O109  1  0.85191011  0.35529833  0.92190584  1
  O  O110  1  0.50648995  0.14914005  0.92205897  1
  O  O111  1  0.62906617  0.13576710  0.41973106  1
  O  O112  1  0.51362402  0.36261333  0.41989645  1
  O  O113  1  0.85248704  0.47754477  0.41953464  1
  O  O114  1  0.32936849  0.49071956  0.07341739  1
  O  O115  1  0.16149915  0.67061252  0.07378029  1
  O  O116  1  0.50976462  0.83916124  0.07350524  1
  O  O117  1  0.32464229  0.83856003  0.57510213  1
  O  O118  1  0.51132845  0.67516595  0.57512916  1
  O  O119  1  0.14829927  0.48123842  0.57406955  1
  O  O120  1  0.30743780  0.82786140  0.25076578  1
  O  O121  1  0.52309537  0.69882321  0.25055583  1
  O  O122  1  0.17443994  0.47735560  0.25094605  1
  O  O123  1  0.29489627  0.46669225  0.75226052  1
  O  O124  1  0.17986265  0.69618223  0.75153719  1
  O  O125  1  0.52227875  0.81690542  0.75189365  1
