# generated using pymatgen
data_Na4NbGa3(PO4)6
_symmetry_space_group_name_H-M   'P 1'
_cell_length_a   8.69394449
_cell_length_b   8.68823921
_cell_length_c   22.12675759
_cell_angle_alpha   89.97853902
_cell_angle_beta   90.08875382
_cell_angle_gamma   119.97913716
_symmetry_Int_Tables_number   1
_chemical_formula_structural   Na4NbGa3(PO4)6
_chemical_formula_sum   'Na12 Nb3 Ga9 P18 O72'
_cell_volume   1447.73054561
_cell_formula_units_Z   3
loop_
 _symmetry_equiv_pos_site_id
 _symmetry_equiv_pos_as_xyz
  1  'x, y, z'
loop_
 _atom_site_type_symbol
 _atom_site_label
 _atom_site_symmetry_multiplicity
 _atom_site_fract_x
 _atom_site_fract_y
 _atom_site_fract_z
 _atom_site_occupancy
  Na  Na0  1  0.63385545  0.99972540  0.25055468  1
  Na  Na1  1  0.36515591  0.36567158  0.25053940  1
  Na  Na2  1  0.00017655  0.63459684  0.25013735  1
  Na  Na3  1  0.29940773  0.33176602  0.58555283  1
  Na  Na4  1  0.03425796  0.69947017  0.58535282  1
  Na  Na5  1  0.66640811  0.70053905  0.08226382  1
  Na  Na6  1  0.99049139  0.99895988  0.49749129  1
  Na  Na7  1  0.00924803  0.00832481  0.99712664  1
  Na  Na8  1  0.66686387  0.33323283  0.82716048  1
  Na  Na9  1  0.66647450  0.33294495  0.33326252  1
  Na  Na10  1  0.32402039  0.66585868  0.16278021  1
  Na  Na11  1  0.34459841  0.67662029  0.66526502  1
  Nb  Nb12  1  0.66598851  0.33145686  0.97728996  1
  Nb  Nb13  1  0.66756461  0.33256260  0.47767246  1
  Nb  Nb14  1  0.33264825  0.66654478  0.80921755  1
  Ga  Ga15  1  0.00069012  0.00073064  0.35352850  1
  Ga  Ga16  1  0.99954097  0.00016530  0.85092492  1
  Ga  Ga17  1  0.99317027  0.99927212  0.65146634  1
  Ga  Ga18  1  0.00630254  0.00546420  0.14714151  1
  Ga  Ga19  1  0.66607047  0.33147146  0.68799673  1
  Ga  Ga20  1  0.66739580  0.33233661  0.18142147  1
  Ga  Ga21  1  0.32683369  0.66600791  0.01758253  1
  Ga  Ga22  1  0.34009356  0.67266498  0.51588739  1
  Ga  Ga23  1  0.33348734  0.66717839  0.31840437  1
  P  P24  1  0.28838994  -0.00000369  0.25018513  1
  P  P25  1  0.71090310  0.71078012  0.24953956  1
  P  P26  1  0.00002126  0.28867656  0.25024161  1
  P  P27  1  0.29004356  0.28079367  0.74896661  1
  P  P28  1  0.99067139  0.71030696  0.74886340  1
  P  P29  1  0.71937064  0.00912037  0.74988165  1
  P  P30  1  0.95692681  0.33057348  0.58561553  1
  P  P31  1  0.37762741  0.03935265  0.58561754  1
  P  P32  1  0.66535197  0.62710236  0.58537736  1
  P  P33  1  0.96429443  0.62706328  0.08534068  1
  P  P34  1  0.66604565  0.03921130  0.08534483  1
  P  P35  1  0.37008320  0.33111500  0.08484871  1
  P  P36  1  0.62670355  0.67646870  0.91830235  1
  P  P37  1  0.05014589  0.37343691  0.91759402  1
  P  P38  1  0.32286280  0.94979136  0.91739476  1
  P  P39  1  0.62563040  0.95026207  0.41517793  1
  P  P40  1  0.32519909  0.37503417  0.41629880  1
  P  P41  1  0.04980009  0.67506475  0.41614678  1
  O  O42  1  0.20997754  0.04097588  0.30592295  1
  O  O43  1  0.83236980  0.79270072  0.30462710  1
  O  O44  1  0.95946806  0.16923312  0.30591700  1
  O  O45  1  0.20429353  0.17139109  0.80549628  1
  O  O46  1  0.96680196  0.79557904  0.80549840  1
  O  O47  1  0.82694886  0.03396215  0.80708821  1
  O  O48  1  0.78858228  0.96374282  0.69258346  1
  O  O49  1  0.17941191  0.21237492  0.69009553  1
  O  O50  1  0.03341391  0.82139815  0.69011375  1
  O  O51  1  0.78645111  0.82506718  0.19176622  1
  O  O52  1  0.04079785  0.21072785  0.19402119  1
  O  O53  1  0.16909859  0.95863566  0.19399267  1
  O  O54  1  0.87397209  0.37224823  0.63918711  1
  O  O55  1  0.49376593  0.12635736  0.64036159  1
  O  O56  1  0.62686823  0.50331678  0.63930976  1
  O  O57  1  0.88127997  0.51522824  0.14334371  1
  O  O58  1  0.63443719  0.11979130  0.14315253  1
  O  O59  1  0.48951234  0.37047079  0.14204633  1
  O  O60  1  0.46720082  0.30615750  0.02940590  1
  O  O61  1  0.83699516  0.53301420  0.03032972  1
  O  O62  1  0.69287617  0.16080762  0.02984732  1
  O  O63  1  0.46601941  0.16131035  0.52853441  1
  O  O64  1  0.69773029  0.53636287  0.52833181  1
  O  O65  1  0.84014433  0.30460012  0.52793782  1
  O  O66  1  0.54414011  0.69880785  0.97666794  1
  O  O67  1  0.16003385  0.45836106  0.97440301  1
  O  O68  1  0.29979777  0.84133382  0.97438351  1
  O  O69  1  0.54034356  0.84000630  0.47177816  1
  O  O70  1  0.30157520  0.45816651  0.47426663  1
  O  O71  1  0.15567652  0.69750814  0.47431219  1
  O  O72  1  0.12279270  0.63452569  0.35835353  1
  O  O73  1  0.51355848  0.88004682  0.35685379  1
  O  O74  1  0.36595289  0.48864769  0.35839458  1
  O  O75  1  0.13197018  0.49395466  0.86138846  1
  O  O76  1  0.36103774  0.86763957  0.86127653  1
  O  O77  1  0.50446523  0.63902208  0.86271927  1
  O  O78  1  0.02403682  0.83588425  0.41029569  1
  O  O79  1  0.81207930  0.97632381  0.40975203  1
  O  O80  1  0.16433284  0.18868553  0.41045478  1
  O  O81  1  0.02323409  0.18810685  0.90985973  1
  O  O82  1  0.16479965  0.97719345  0.90969098  1
  O  O83  1  0.81179682  0.83504917  0.91041324  1
  O  O84  1  0.97860066  0.16549620  0.58909772  1
  O  O85  1  0.19201509  0.02503854  0.58826108  1
  O  O86  1  0.83780360  0.80809186  0.58899497  1
  O  O87  1  0.96915766  0.80698619  0.08919750  1
  O  O88  1  0.83362830  0.02142724  0.08906953  1
  O  O89  1  0.18961171  0.16210369  0.08904905  1
  O  O90  1  0.69072589  0.16813124  0.74372559  1
  O  O91  1  0.47798625  0.31015236  0.74354892  1
  O  O92  1  0.83178265  0.52235335  0.74314922  1
  O  O93  1  0.68841086  0.52115945  0.24362403  1
  O  O94  1  0.83300042  0.31102567  0.24364321  1
  O  O95  1  0.47752866  0.16701728  0.24337329  1
  O  O96  1  0.64050675  0.50230011  0.92409658  1
  O  O97  1  0.86258961  0.36002317  0.92428531  1
  O  O98  1  0.49719625  0.13751888  0.92374546  1
  O  O99  1  0.64225482  0.13928603  0.42315894  1
  O  O100  1  0.49719874  0.35778027  0.42355657  1
  O  O101  1  0.86053079  0.50299791  0.42307928  1
  O  O102  1  0.36104331  0.50265375  0.07711402  1
  O  O103  1  0.14585647  0.64329747  0.07740472  1
  O  O104  1  0.50191725  0.85318998  0.07763032  1
  O  O105  1  0.35135273  0.85150380  0.57684415  1
  O  O106  1  0.49608391  0.63956442  0.57607328  1
  O  O107  1  0.14312661  0.49868496  0.57680692  1
  O  O108  1  0.31070573  0.83302567  0.25661419  1
  O  O109  1  0.52211275  0.68888231  0.25629188  1
  O  O110  1  0.16672192  0.47807818  0.25675600  1
  O  O111  1  0.30879493  0.47191726  0.75678154  1
  O  O112  1  0.16300139  0.69160734  0.75662407  1
  O  O113  1  0.52789861  0.83687082  0.75746878  1
