# generated using pymatgen
data_Na7Mg3TaSi3(SO8)3
_symmetry_space_group_name_H-M   'P 1'
_cell_length_a   9.09403361
_cell_length_b   9.11971560
_cell_length_c   22.23786895
_cell_angle_alpha   89.67479023
_cell_angle_beta   90.49550582
_cell_angle_gamma   120.29031966
_symmetry_Int_Tables_number   1
_chemical_formula_structural   Na7Mg3TaSi3(SO8)3
_chemical_formula_sum   'Na21 Mg9 Ta3 Si9 S9 O72'
_cell_volume   1592.45419015
_cell_formula_units_Z   3
loop_
 _symmetry_equiv_pos_site_id
 _symmetry_equiv_pos_as_xyz
  1  'x, y, z'
loop_
 _atom_site_type_symbol
 _atom_site_label
 _atom_site_symmetry_multiplicity
 _atom_site_fract_x
 _atom_site_fract_y
 _atom_site_fract_z
 _atom_site_occupancy
  Na  Na0  1  0.63418352  0.00182994  0.23746082  1
  Na  Na1  1  0.38138528  0.35135523  0.25542235  1
  Na  Na2  1  0.98851917  0.65793913  0.25124686  1
  Na  Na3  1  0.66522612  0.63926107  0.75195824  1
  Na  Na4  1  0.98025313  0.34468013  0.75050811  1
  Na  Na5  1  0.35971279  0.01507426  0.75015629  1
  Na  Na6  1  0.29263787  0.32879564  0.58802876  1
  Na  Na7  1  0.03775492  0.70877400  0.58763873  1
  Na  Na8  1  0.67340722  0.96856083  0.59512465  1
  Na  Na9  1  0.31015793  0.96929073  0.09328509  1
  Na  Na10  1  0.66758156  0.72321888  0.08079609  1
  Na  Na11  1  0.02427192  0.31963350  0.08055119  1
  Na  Na12  1  0.98211902  0.31238188  0.42103388  1
  Na  Na13  1  0.31470800  0.03694292  0.41259519  1
  Na  Na14  1  0.71043855  0.65751674  0.40803721  1
  Na  Na15  1  0.01540624  0.00104315  0.49421236  1
  Na  Na16  1  0.97270013  0.98941329  0.99012114  1
  Na  Na17  1  0.66704866  0.33941102  0.81979685  1
  Na  Na18  1  0.65427816  0.34364323  0.33307602  1
  Na  Na19  1  0.35876924  0.69423867  0.16452077  1
  Na  Na20  1  0.32891679  0.66697081  0.66823964  1
  Mg  Mg21  1  0.00867149  0.98779946  0.35051215  1
  Mg  Mg22  1  0.98601973  0.98557649  0.84470837  1
  Mg  Mg23  1  0.99847012  0.99462817  0.66839211  1
  Mg  Mg24  1  0.98476077  0.98512353  0.15332627  1
  Mg  Mg25  1  0.66389230  0.33387485  0.68876878  1
  Mg  Mg26  1  0.65633447  0.32556653  0.18688066  1
  Mg  Mg27  1  0.66636734  0.34325849  0.47803027  1
  Mg  Mg28  1  0.35470127  0.68310155  0.01444363  1
  Mg  Mg29  1  0.32436253  0.65709684  0.51337615  1
  Ta  Ta30  1  0.66841248  0.32823884  0.97486064  1
  Ta  Ta31  1  0.33044643  0.66313785  0.31636319  1
  Ta  Ta32  1  0.34615122  0.66227858  0.81183246  1
  Si  Si33  1  0.29668255  0.00108423  0.24931497  1
  Si  Si34  1  0.70154090  0.70346511  0.24987174  1
  Si  Si35  1  0.28963800  0.28608799  0.74952327  1
  Si  Si36  1  0.00257848  0.70373677  0.74864595  1
  Si  Si37  1  0.70884350  0.00491420  0.74832924  1
  Si  Si38  1  0.66820581  0.03903409  0.08628809  1
  Si  Si39  1  0.63983083  0.67671786  0.92234998  1
  Si  Si40  1  0.32668065  0.36319502  0.42104009  1
  Si  Si41  1  0.03509047  0.66639399  0.42157593  1
  S  S42  1  0.00330873  0.29560259  0.25018910  1
  S  S43  1  0.95781638  0.33175357  0.58150517  1
  S  S44  1  0.37745185  0.04045652  0.58059228  1
  S  S45  1  0.66730148  0.63126830  0.58119968  1
  S  S46  1  0.95659110  0.61901939  0.08228704  1
  S  S47  1  0.37525370  0.33337992  0.08232290  1
  S  S48  1  0.04479396  0.37804718  0.92085651  1
  S  S49  1  0.33107787  0.95841642  0.91947566  1
  S  S50  1  0.62352414  0.95723315  0.41871570  1
  O  O51  1  0.21461095  0.03555940  0.30756200  1
  O  O52  1  0.81245652  0.79153876  0.30961801  1
  O  O53  1  0.97786258  0.19332988  0.30421203  1
  O  O54  1  0.20283432  0.16456516  0.80570547  1
  O  O55  1  0.95712437  0.78866023  0.80202345  1
  O  O56  1  0.83500988  0.04921121  0.80386448  1
  O  O57  1  0.76413042  0.94386926  0.68780046  1
  O  O58  1  0.17820383  0.23012823  0.68707196  1
  O  O59  1  0.06051504  0.81764937  0.68662060  1
  O  O60  1  0.76616468  0.81996759  0.18928616  1
  O  O61  1  0.03467493  0.22233174  0.19588296  1
  O  O62  1  0.17849396  0.95739870  0.18842147  1
  O  O63  1  0.87235502  0.34701584  0.63508626  1
  O  O64  1  0.47705858  0.12619151  0.63505581  1
  O  O65  1  0.64553965  0.52777064  0.63526947  1
  O  O66  1  0.87960533  0.52138517  0.13744645  1
  O  O67  1  0.64620161  0.13145369  0.14405891  1
  O  O68  1  0.47993848  0.36517983  0.13709669  1
  O  O69  1  0.46907287  0.31511051  0.02960854  1
  O  O70  1  0.84176818  0.52649236  0.02908064  1
  O  O71  1  0.68458385  0.17095187  0.02821274  1
  O  O72  1  0.46420804  0.14057494  0.52589830  1
  O  O73  1  0.68263566  0.54585316  0.52681319  1
  O  O74  1  0.85684206  0.31637583  0.52625050  1
  O  O75  1  0.54693485  0.68021886  0.98255275  1
  O  O76  1  0.13693181  0.46564249  0.97566507  1
  O  O77  1  0.31557077  0.86287391  0.97447810  1
  O  O78  1  0.54603006  0.85110127  0.47198626  1
  O  O79  1  0.30624536  0.45367159  0.47963298  1
  O  O80  1  0.15830596  0.70469449  0.47876906  1
  O  O81  1  0.14523759  0.64847979  0.36150668  1
  O  O82  1  0.51216845  0.86923882  0.36332226  1
  O  O83  1  0.35414652  0.49702280  0.36164062  1
  O  O84  1  0.12215294  0.48391756  0.86655270  1
  O  O85  1  0.35941284  0.88041593  0.86610524  1
  O  O86  1  0.50696876  0.64467598  0.86376868  1
  O  O87  1  0.00684629  0.82741413  0.41448661  1
  O  O88  1  0.79363045  0.98023576  0.41003783  1
  O  O89  1  0.15054493  0.18403731  0.41121204  1
  O  O90  1  0.02180377  0.20889953  0.91642669  1
  O  O91  1  0.19073387  0.99118785  0.91392698  1
  O  O92  1  0.82604248  0.83411407  0.91346066  1
  O  O93  1  0.97591056  0.17814902  0.58321348  1
  O  O94  1  0.20447591  0.02082731  0.58138469  1
  O  O95  1  0.82413218  0.80253811  0.58383018  1
  O  O96  1  0.97360250  0.78910420  0.08231110  1
  O  O97  1  0.84413886  0.02991518  0.08321262  1
  O  O98  1  0.20865368  0.17341961  0.08507493  1
  O  O99  1  0.66397850  0.15450279  0.74027415  1
  O  O100  1  0.48594742  0.33193494  0.74257508  1
  O  O101  1  0.84619903  0.51010921  0.74056806  1
  O  O102  1  0.68277700  0.51563854  0.24328393  1
  O  O103  1  0.86070398  0.32761243  0.24320952  1
  O  O104  1  0.49205844  0.15973851  0.24645811  1
  O  O105  1  0.64652372  0.49016514  0.92679744  1
  O  O106  1  0.86474042  0.36104725  0.92380730  1
  O  O107  1  0.49775976  0.13603785  0.92447561  1
  O  O108  1  0.63158961  0.12264692  0.42117229  1
  O  O109  1  0.49696323  0.34643490  0.41820738  1
  O  O110  1  0.85571113  0.48523280  0.41849827  1
  O  O111  1  0.34475959  0.47777920  0.07559379  1
  O  O112  1  0.12512535  0.63284366  0.07462808  1
  O  O113  1  0.49351244  0.85254423  0.08031827  1
  O  O114  1  0.36341744  0.86827383  0.57937270  1
  O  O115  1  0.51385630  0.65332331  0.57763439  1
  O  O116  1  0.13216310  0.48913346  0.58017919  1
  O  O117  1  0.31256379  0.82247370  0.25837541  1
  O  O118  1  0.50299913  0.67580844  0.25870380  1
  O  O119  1  0.16447123  0.47090351  0.25596016  1
  O  O120  1  0.30691858  0.48237551  0.76082997  1
  O  O121  1  0.17561637  0.68654157  0.76613079  1
  O  O122  1  0.51285650  0.82707434  0.76105238  1
