# generated using pymatgen
data_ReP4
_symmetry_space_group_name_H-M   'P 1'
_cell_length_a   6.24698160
_cell_length_b   9.25831724
_cell_length_c   10.86914502
_cell_angle_alpha   90.00000000
_cell_angle_beta   90.00000000
_cell_angle_gamma   90.00000000
_symmetry_Int_Tables_number   1
_chemical_formula_structural   ReP4
_chemical_formula_sum   'Re8 P32'
_cell_volume   628.63371295
_cell_formula_units_Z   8
loop_
 _symmetry_equiv_pos_site_id
 _symmetry_equiv_pos_as_xyz
  1  'x, y, z'
loop_
 _atom_site_type_symbol
 _atom_site_label
 _atom_site_symmetry_multiplicity
 _atom_site_fract_x
 _atom_site_fract_y
 _atom_site_fract_z
 _atom_site_occupancy
  Re  Re0  1  0.62223766  0.10953145  0.42400362  1
  Re  Re1  1  0.12223766  0.39046855  0.57599638  1
  Re  Re2  1  0.37776234  0.60953145  0.07599638  1
  Re  Re3  1  0.87776234  0.89046855  0.92400362  1
  Re  Re4  1  0.37776234  0.89046855  0.57599638  1
  Re  Re5  1  0.87776234  0.60953145  0.42400362  1
  Re  Re6  1  0.62223766  0.39046855  0.92400362  1
  Re  Re7  1  0.12223766  0.10953145  0.07599638  1
  P  P8  1  0.00143112  0.20852447  0.43020173  1
  P  P9  1  0.50143112  0.29147553  0.56979827  1
  P  P10  1  -0.00143112  0.70852447  0.06979827  1
  P  P11  1  0.49856888  0.79147553  0.93020173  1
  P  P12  1  -0.00143112  0.79147553  0.56979827  1
  P  P13  1  0.49856888  0.70852447  0.43020173  1
  P  P14  1  0.00143112  0.29147553  0.93020173  1
  P  P15  1  0.50143112  0.20852447  0.06979827  1
  P  P16  1  0.06207163  0.28326406  0.23595991  1
  P  P17  1  0.56207163  0.21673594  0.76404009  1
  P  P18  1  0.93792837  0.78326406  0.26404009  1
  P  P19  1  0.43792837  0.71673594  0.73595991  1
  P  P20  1  0.93792837  0.71673594  0.76404009  1
  P  P21  1  0.43792837  0.78326406  0.23595991  1
  P  P22  1  0.06207163  0.21673594  0.73595991  1
  P  P23  1  0.56207163  0.28326406  0.26404009  1
  P  P24  1  0.18843528  0.94734515  0.23862022  1
  P  P25  1  0.68843528  0.55265485  0.76137978  1
  P  P26  1  0.81156472  0.44734515  0.26137978  1
  P  P27  1  0.31156472  0.05265485  0.73862022  1
  P  P28  1  0.81156472  0.05265485  0.76137978  1
  P  P29  1  0.31156472  0.44734515  0.23862022  1
  P  P30  1  0.18843528  0.55265485  0.73862022  1
  P  P31  1  0.68843528  0.94734515  0.26137978  1
  P  P32  1  0.75632426  0.04347318  0.08154820  1
  P  P33  1  0.25632426  0.45652682  0.91845180  1
  P  P34  1  0.24367574  0.54347318  0.41845180  1
  P  P35  1  0.74367574  0.95652682  0.58154820  1
  P  P36  1  0.24367574  0.95652682  0.91845180  1
  P  P37  1  0.74367574  0.54347318  0.08154820  1
  P  P38  1  0.75632426  0.45652682  0.58154820  1
  P  P39  1  0.25632426  0.04347318  0.41845180  1
