# generated using pymatgen
data_Ba3SiS5
_symmetry_space_group_name_H-M   'P 1'
_cell_length_a   8.65746241
_cell_length_b   9.53740560
_cell_length_c   12.07849023
_cell_angle_alpha   90.00000000
_cell_angle_beta   90.00000000
_cell_angle_gamma   90.00000000
_symmetry_Int_Tables_number   1
_chemical_formula_structural   Ba3SiS5
_chemical_formula_sum   'Ba12 Si4 S20'
_cell_volume   997.31768279
_cell_formula_units_Z   4
loop_
 _symmetry_equiv_pos_site_id
 _symmetry_equiv_pos_as_xyz
  1  'x, y, z'
loop_
 _atom_site_type_symbol
 _atom_site_label
 _atom_site_symmetry_multiplicity
 _atom_site_fract_x
 _atom_site_fract_y
 _atom_site_fract_z
 _atom_site_occupancy
  Ba  Ba0  1  0.88614733  0.75000000  0.47839379  1
  Ba  Ba1  1  0.38614733  0.25000000  0.02160621  1
  Ba  Ba2  1  0.11385267  0.25000000  0.52160621  1
  Ba  Ba3  1  0.61385267  0.75000000  0.97839379  1
  Ba  Ba4  1  0.07692194  0.98059952  0.81801481  1
  Ba  Ba5  1  0.57692194  0.01940048  0.68198519  1
  Ba  Ba6  1  0.92307806  0.48059952  0.18198519  1
  Ba  Ba7  1  0.42307806  0.51940048  0.31801481  1
  Ba  Ba8  1  0.92307806  0.01940048  0.18198519  1
  Ba  Ba9  1  0.42307806  0.98059952  0.31801481  1
  Ba  Ba10  1  0.07692194  0.51940048  0.81801481  1
  Ba  Ba11  1  0.57692194  0.48059952  0.68198519  1
  Si  Si12  1  0.30604481  0.75000000  0.59722469  1
  Si  Si13  1  0.19395519  0.75000000  0.09722469  1
  Si  Si14  1  0.69395519  0.25000000  0.40277531  1
  Si  Si15  1  0.80604481  0.25000000  0.90277531  1
  S  S16  1  0.68294352  0.75000000  0.23436600  1
  S  S17  1  0.18294352  0.25000000  0.26563400  1
  S  S18  1  0.31705648  0.25000000  0.76563400  1
  S  S19  1  0.81705648  0.75000000  0.73436600  1
  S  S20  1  0.98653751  0.75000000  0.00602474  1
  S  S21  1  0.48653751  0.25000000  0.49397526  1
  S  S22  1  0.01346249  0.25000000  0.99397526  1
  S  S23  1  0.51346249  0.75000000  0.50602474  1
  S  S24  1  0.15042808  0.75000000  0.27103895  1
  S  S25  1  0.34957192  0.75000000  0.77103895  1
  S  S26  1  0.84957192  0.25000000  0.72896105  1
  S  S27  1  0.65042808  0.25000000  0.22896105  1
  S  S28  1  0.68518311  0.06610486  0.94459129  1
  S  S29  1  0.18518311  0.93389514  0.55540871  1
  S  S30  1  0.31481689  0.56610486  0.05540871  1
  S  S31  1  0.81481689  0.43389514  0.44459129  1
  S  S32  1  0.31481689  0.93389514  0.05540871  1
  S  S33  1  0.81481689  0.06610486  0.44459129  1
  S  S34  1  0.68518311  0.43389514  0.94459129  1
  S  S35  1  0.18518311  0.56610486  0.55540871  1
