# generated using pymatgen
data_NaHf3Ta(PO4)6
_symmetry_space_group_name_H-M   'P 1'
_cell_length_a   8.83023154
_cell_length_b   8.83023125
_cell_length_c   22.98014667
_cell_angle_alpha   90.00000000
_cell_angle_beta   90.00000000
_cell_angle_gamma   120.00000109
_symmetry_Int_Tables_number   1
_chemical_formula_structural   NaHf3Ta(PO4)6
_chemical_formula_sum   'Na3 Hf9 Ta3 P18 O72'
_cell_volume   1551.77085888
_cell_formula_units_Z   3
loop_
 _symmetry_equiv_pos_site_id
 _symmetry_equiv_pos_as_xyz
  1  'x, y, z'
loop_
 _atom_site_type_symbol
 _atom_site_label
 _atom_site_symmetry_multiplicity
 _atom_site_fract_x
 _atom_site_fract_y
 _atom_site_fract_z
 _atom_site_occupancy
  Na  Na0  1  0.00000000  0.00000000  0.99856984  1
  Na  Na1  1  0.66666700  0.33333300  0.83401065  1
  Na  Na2  1  0.66666700  0.33333300  0.33314404  1
  Hf  Hf3  1  0.00000000  0.00000000  0.35788263  1
  Hf  Hf4  1  0.00000000  0.00000000  0.85428437  1
  Hf  Hf5  1  0.66666700  0.33333300  0.68645748  1
  Hf  Hf6  1  0.66666700  0.33333300  0.18650139  1
  Hf  Hf7  1  0.66666700  0.33333300  0.97976090  1
  Hf  Hf8  1  0.66666700  0.33333300  0.48006350  1
  Hf  Hf9  1  0.33333300  0.66666700  0.02230409  1
  Hf  Hf10  1  0.33333300  0.66666700  0.30896666  1
  Hf  Hf11  1  0.33333300  0.66666700  0.81002330  1
  Ta  Ta12  1  0.00000000  0.00000000  0.64507194  1
  Ta  Ta13  1  0.00000000  0.00000000  0.14706698  1
  Ta  Ta14  1  0.33333300  0.66666700  0.52136338  1
  P  P15  1  0.28683380  0.00167432  0.25067157  1
  P  P16  1  0.71484052  0.71316620  0.25067157  1
  P  P17  1  0.99832568  0.28515949  0.25067157  1
  P  P18  1  0.28713125  0.28612886  0.74964061  1
  P  P19  1  0.99899761  0.71286875  0.74964061  1
  P  P20  1  0.71387114  0.00100239  0.74964061  1
  P  P21  1  0.95699702  0.33341932  0.58330243  1
  P  P22  1  0.37642330  0.04300298  0.58330243  1
  P  P23  1  0.66658068  0.62357670  0.58330243  1
  P  P24  1  0.95546620  0.62414194  0.08379002  1
  P  P25  1  0.66867674  0.04453380  0.08379002  1
  P  P26  1  0.37585806  0.33132326  0.08379002  1
  P  P27  1  0.62119753  0.66624769  0.91654923  1
  P  P28  1  0.04504916  0.37880247  0.91654923  1
  P  P29  1  0.33375231  0.95495084  0.91654923  1
  P  P30  1  0.61781370  0.95263538  0.41643766  1
  P  P31  1  0.33482068  0.38218630  0.41643766  1
  P  P32  1  0.04736462  0.66517932  0.41643766  1
  O  O33  1  0.20188037  0.03140077  0.30401819  1
  O  O34  1  0.82952041  0.79811963  0.30401819  1
  O  O35  1  0.96859923  0.17047959  0.30401819  1
  O  O36  1  0.20384617  0.17176745  0.80337168  1
  O  O37  1  0.96792128  0.79615383  0.80337168  1
  O  O38  1  0.82823255  0.03207872  0.80337168  1
  O  O39  1  0.80679598  0.97758578  0.69511068  1
  O  O40  1  0.17078980  0.19320402  0.69511068  1
  O  O41  1  0.02241422  0.82921020  0.69511068  1
  O  O42  1  0.80622298  0.82901717  0.19560189  1
  O  O43  1  0.02279419  0.19377702  0.19560189  1
  O  O44  1  0.17098283  0.97720581  0.19560189  1
  O  O45  1  0.87596320  0.36661949  0.63706410  1
  O  O46  1  0.49065729  0.12403680  0.63706410  1
  O  O47  1  0.63338051  0.50934271  0.63706410  1
  O  O48  1  0.87034682  0.51234370  0.13776433  1
  O  O49  1  0.64199787  0.12965318  0.13776433  1
  O  O50  1  0.48765630  0.35800213  0.13776433  1
  O  O51  1  0.45599304  0.29581769  0.02965347  1
  O  O52  1  0.83982565  0.54400696  0.02965347  1
  O  O53  1  0.70418231  0.16017435  0.02965347  1
  O  O54  1  0.45740079  0.15737604  0.52957138  1
  O  O55  1  0.69997625  0.54259921  0.52957138  1
  O  O56  1  0.84262396  0.30002375  0.52957138  1
  O  O57  1  0.53798903  0.69453495  0.97119174  1
  O  O58  1  0.15654492  0.46201097  0.97119174  1
  O  O59  1  0.30546505  0.84345508  0.97119174  1
  O  O60  1  0.52649640  0.83737620  0.47145755  1
  O  O61  1  0.31087880  0.47350360  0.47145755  1
  O  O62  1  0.16262380  0.68912120  0.47145755  1
  O  O63  1  0.13090522  0.63469689  0.36279864  1
  O  O64  1  0.50379067  0.86909478  0.36279864  1
  O  O65  1  0.36530311  0.49620933  0.36279864  1
  O  O66  1  0.12895119  0.49046318  0.86190598  1
  O  O67  1  0.36151099  0.87104881  0.86190598  1
  O  O68  1  0.50953682  0.63848901  0.86190598  1
  O  O69  1  0.02985535  0.82767962  0.40965595  1
  O  O70  1  0.79782427  0.97014465  0.40965595  1
  O  O71  1  0.17232038  0.20217573  0.40965595  1
  O  O72  1  0.02382187  0.19451366  0.91002024  1
  O  O73  1  0.17069179  0.97617813  0.91002024  1
  O  O74  1  0.80548634  0.82930821  0.91002024  1
  O  O75  1  0.98052703  0.17288370  0.59523746  1
  O  O76  1  0.19235667  0.01947297  0.59523746  1
  O  O77  1  0.82711630  0.80764333  0.59523746  1
  O  O78  1  0.97557641  0.80988033  0.09343552  1
  O  O79  1  0.83430392  0.02442359  0.09343552  1
  O  O80  1  0.19011967  0.16569608  0.09343552  1
  O  O81  1  0.69442466  0.16384512  0.74118475  1
  O  O82  1  0.46942146  0.30557534  0.74118475  1
  O  O83  1  0.83615488  0.53057854  0.74118475  1
  O  O84  1  0.69423656  0.53073293  0.24206619  1
  O  O85  1  0.83649737  0.30576344  0.24206619  1
  O  O86  1  0.46926707  0.16350263  0.24206619  1
  O  O87  1  0.64235671  0.50309529  0.92350532  1
  O  O88  1  0.86073958  0.35764329  0.92350532  1
  O  O89  1  0.49690471  0.13926042  0.92350532  1
  O  O90  1  0.63870539  0.13574894  0.42528707  1
  O  O91  1  0.49704455  0.36129461  0.42528707  1
  O  O92  1  0.86425106  0.50295545  0.42528707  1
  O  O93  1  0.35242010  0.48941425  0.07466112  1
  O  O94  1  0.13699315  0.64757990  0.07466112  1
  O  O95  1  0.51058575  0.86300685  0.07466112  1
  O  O96  1  0.35280232  0.85894318  0.57141820  1
  O  O97  1  0.50613986  0.64719768  0.57141820  1
  O  O98  1  0.14105682  0.49386014  0.57141820  1
  O  O99  1  0.30326477  0.83834712  0.25720797  1
  O  O100  1  0.53508134  0.69673523  0.25720797  1
  O  O101  1  0.16165288  0.46491866  0.25720797  1
  O  O102  1  0.30385641  0.46558925  0.75681736  1
  O  O103  1  0.16173184  0.69614359  0.75681736  1
  O  O104  1  0.53441075  0.83826816  0.75681736  1
