# generated using pymatgen
data_Na2Ca2Ti6Si3(S3O16)3
_symmetry_space_group_name_H-M   'P 1'
_cell_length_a   17.57506670
_cell_length_b   8.76504262
_cell_length_c   22.88366571
_cell_angle_alpha   90.04509163
_cell_angle_beta   89.73931996
_cell_angle_gamma   119.92077766
_symmetry_Int_Tables_number   1
_chemical_formula_structural   Na2Ca2Ti6Si3(S3O16)3
_chemical_formula_sum   'Na6 Ca6 Ti18 Si9 S27 O144'
_cell_volume   3055.26055617
_cell_formula_units_Z   3
loop_
 _symmetry_equiv_pos_site_id
 _symmetry_equiv_pos_as_xyz
  1  'x, y, z'
loop_
 _atom_site_type_symbol
 _atom_site_label
 _atom_site_symmetry_multiplicity
 _atom_site_fract_x
 _atom_site_fract_y
 _atom_site_fract_z
 _atom_site_occupancy
  Na  Na0  1  0.00127725  0.99443085  0.49668991  1
  Na  Na1  1  0.50018319  0.00677268  0.99837201  1
  Na  Na2  1  0.33403996  0.33139701  0.83678178  1
  Na  Na3  1  0.83449676  0.33432837  0.83366703  1
  Na  Na4  1  0.32925971  0.32863249  0.33234493  1
  Na  Na5  1  0.83497494  0.33799993  0.33469477  1
  Ca  Ca6  1  0.00320141  0.99660521  0.35339167  1
  Ca  Ca7  1  0.49957216  0.00546729  0.85434155  1
  Ca  Ca8  1  0.99886435  0.00348464  0.65043823  1
  Ca  Ca9  1  0.49887809  0.99289586  0.15026392  1
  Ca  Ca10  1  0.83720274  0.33554204  0.97936159  1
  Ca  Ca11  1  0.33752486  0.33807237  0.47912140  1
  Ti  Ti12  1  0.51373881  0.01454256  0.35543651  1
  Ti  Ti13  1  0.01477889  0.01335670  0.85643756  1
  Ti  Ti14  1  0.50543502  0.00176149  0.64201639  1
  Ti  Ti15  1  0.01332570  0.00696720  0.14498991  1
  Ti  Ti16  1  0.32298053  0.32546150  0.68721590  1
  Ti  Ti17  1  0.83130557  0.31746435  0.68163748  1
  Ti  Ti18  1  0.32538966  0.33978869  0.18596369  1
  Ti  Ti19  1  0.82559551  0.31519642  0.18752504  1
  Ti  Ti20  1  0.32442701  0.31886567  0.97583885  1
  Ti  Ti21  1  0.82467640  0.33137205  0.47445981  1
  Ti  Ti22  1  0.16450376  0.67194616  0.02515639  1
  Ti  Ti23  1  0.66147968  0.65408349  0.02373338  1
  Ti  Ti24  1  0.16457729  0.67019310  0.51764473  1
  Ti  Ti25  1  0.66429519  0.66064322  0.52210804  1
  Ti  Ti26  1  0.15663889  0.66949032  0.31020525  1
  Ti  Ti27  1  0.66985228  0.66102070  0.30922885  1
  Ti  Ti28  1  0.16847144  0.67486683  0.81107626  1
  Ti  Ti29  1  0.65942385  0.65599493  0.81584047  1
  Si  Si30  1  0.14881641  0.00335840  0.24954737  1
  Si  Si31  1  0.64653085  0.99314087  0.25046491  1
  Si  Si32  1  0.14617861  0.29963080  0.75065565  1
  Si  Si33  1  0.69060202  0.04148064  0.58061620  1
  Si  Si34  1  0.19025873  0.33943194  0.08109813  1
  Si  Si35  1  0.51962772  0.38058634  0.92076719  1
  Si  Si36  1  0.16649795  0.94546541  0.91743760  1
  Si  Si37  1  0.66525274  0.38574199  0.41663291  1
  Si  Si38  1  0.01919437  0.66000972  0.41899205  1
  S  S39  1  0.35094445  0.70439615  0.25396463  1
  S  S40  1  0.85270212  0.70199851  0.24651021  1
  S  S41  1  0.99870688  0.29414832  0.24732835  1
  S  S42  1  0.49916292  0.29534913  0.25303693  1
  S  S43  1  0.64984493  0.29748323  0.74733933  1
  S  S44  1  0.99834433  0.70110034  0.75308933  1
  S  S45  1  0.49958999  0.70214027  0.74709216  1
  S  S46  1  0.35323695  0.00230598  0.74649395  1
  S  S47  1  0.84972945  0.99813174  0.75345703  1
  S  S48  1  0.48013144  0.33229226  0.58650769  1
  S  S49  1  0.97689334  0.34035402  0.57930613  1
  S  S50  1  0.18866520  0.03594211  0.58223041  1
  S  S51  1  0.33339922  0.62925036  0.58634937  1
  S  S52  1  0.83007001  0.61279436  0.58028382  1
  S  S53  1  0.47596857  0.61303454  0.07974348  1
  S  S54  1  0.97917119  0.62693275  0.08572421  1
  S  S55  1  0.33094710  0.04825301  0.08021973  1
  S  S56  1  0.83390765  0.03556141  0.08553059  1
  S  S57  1  0.68880694  0.33901083  0.08261384  1
  S  S58  1  0.30535390  0.66137308  0.91952661  1
  S  S59  1  0.80970980  0.67574694  0.91400160  1
  S  S60  1  0.02753793  0.38208472  0.91398528  1
  S  S61  1  0.66725773  0.94405193  0.91741854  1
  S  S62  1  0.30975619  0.94373810  0.41322997  1
  S  S63  1  0.80567098  0.95002670  0.41946690  1
  S  S64  1  0.16699189  0.38946842  0.41656347  1
  S  S65  1  0.52792856  0.67318520  0.41372250  1
  O  O66  1  0.12053739  0.05945409  0.30665786  1
  O  O67  1  0.59942118  0.03432587  0.30796212  1
  O  O68  1  0.41051064  0.79072831  0.30382847  1
  O  O69  1  0.90187774  0.76196660  0.30057452  1
  O  O70  1  0.48425765  0.17785958  0.30433346  1
  O  O71  1  0.97614004  0.19260597  0.30074252  1
  O  O72  1  0.09952706  0.16465616  0.80807477  1
  O  O73  1  0.61821690  0.19238876  0.80019694  1
  O  O74  1  0.47969803  0.76587151  0.80038735  1
  O  O75  1  0.98302269  0.78839636  0.80426549  1
  O  O76  1  0.40357203  0.04344920  0.80020830  1
  O  O77  1  0.90852070  0.03263846  0.80341686  1
  O  O78  1  0.39768298  0.97566486  0.69620195  1
  O  O79  1  0.88022903  0.96239759  0.69911818  1
  O  O80  1  0.09428748  0.23335493  0.69253519  1
  O  O81  1  0.59158322  0.20929176  0.69669437  1
  O  O82  1  0.01705857  0.80111675  0.69963215  1
  O  O83  1  0.51344190  0.81997324  0.69627858  1
  O  O84  1  0.38108489  0.80041891  0.19969834  1
  O  O85  1  0.89453076  0.81725968  0.19603957  1
  O  O86  1  0.01170072  0.20594721  0.19613018  1
  O  O87  1  0.51834164  0.23273717  0.19972340  1
  O  O88  1  0.08359523  0.97284081  0.19282380  1
  O  O89  1  0.59439818  0.95491797  0.19259557  1
  O  O90  1  0.43651465  0.36033726  0.63706531  1
  O  O91  1  0.93526398  0.36376047  0.63541579  1
  O  O92  1  0.24418316  0.12947612  0.63583479  1
  O  O93  1  0.75351128  0.14141927  0.63940375  1
  O  O94  1  0.32007179  0.51033692  0.63762672  1
  O  O95  1  0.81937639  0.50655444  0.63433149  1
  O  O96  1  0.43958722  0.51075660  0.13434287  1
  O  O97  1  0.93646501  0.51220253  0.13642096  1
  O  O98  1  0.31919477  0.12880720  0.13357966  1
  O  O99  1  0.81822968  0.12942612  0.13689350  1
  O  O100  1  0.25299847  0.36908248  0.13914796  1
  O  O101  1  0.74366715  0.36130251  0.13538128  1
  O  O102  1  0.23904656  0.30530378  0.02623743  1
  O  O103  1  0.72717907  0.31269274  0.03016515  1
  O  O104  1  0.42185473  0.52061162  0.02866118  1
  O  O105  1  0.93024880  0.56377960  0.03197193  1
  O  O106  1  0.34204895  0.15632072  0.02726716  1
  O  O107  1  0.85318570  0.14289027  0.03366054  1
  O  O108  1  0.22824458  0.14357306  0.53114074  1
  O  O109  1  0.73801075  0.17336523  0.52676565  1
  O  O110  1  0.35589560  0.56718874  0.53421003  1
  O  O111  1  0.84226833  0.52715943  0.52806250  1
  O  O112  1  0.42983901  0.29002659  0.53322540  1
  O  O113  1  0.92070415  0.32139955  0.52968948  1
  O  O114  1  0.26037105  0.68091094  0.97147058  1
  O  O115  1  0.76985008  0.69696284  0.96806633  1
  O  O116  1  0.07658757  0.45564306  0.96859467  1
  O  O117  1  0.58797338  0.49545568  0.97508829  1
  O  O118  1  0.15235910  0.82378519  0.97450841  1
  O  O119  1  0.66270796  0.84404786  0.97070277  1
  O  O120  1  0.26902087  0.84228906  0.46889518  1
  O  O121  1  0.75924228  0.83987025  0.47188877  1
  O  O122  1  0.16408092  0.48522380  0.47181018  1
  O  O123  1  0.65230049  0.48067215  0.47450143  1
  O  O124  1  0.08707161  0.68118733  0.47459003  1
  O  O125  1  0.57736600  0.69730065  0.46913511  1
  O  O126  1  0.06901998  0.63572999  0.36035441  1
  O  O127  1  0.57312252  0.65129710  0.36307949  1
  O  O128  1  0.25215256  0.85351756  0.36245438  1
  O  O129  1  0.75574987  0.87352621  0.36557944  1
  O  O130  1  0.17492934  0.49196607  0.36375862  1
  O  O131  1  0.68181483  0.50773377  0.35952149  1
  O  O132  1  0.07279184  0.49398704  0.86275789  1
  O  O133  1  0.57128274  0.50395997  0.86071820  1
  O  O134  1  0.18181816  0.85635457  0.85934174  1
  O  O135  1  0.67480476  0.85609498  0.86262552  1
  O  O136  1  0.25582170  0.63906197  0.86501076  1
  O  O137  1  0.75111232  0.65027695  0.86181103  1
  O  O138  1  0.01135921  0.83072988  0.42276085  1
  O  O139  1  0.51828250  0.83240010  0.40678032  1
  O  O140  1  0.39590746  0.95581347  0.40612324  1
  O  O141  1  0.89298109  0.97142088  0.41817069  1
  O  O142  1  0.08577722  0.22063672  0.41892276  1
  O  O143  1  0.57805873  0.19107819  0.40529065  1
  O  O144  1  0.01745412  0.20295374  0.90586791  1
  O  O145  1  0.51524808  0.19662227  0.92066845  1
  O  O146  1  0.07898623  0.96562723  0.90527860  1
  O  O147  1  0.58713743  0.95478711  0.91527840  1
  O  O148  1  0.39322551  0.81493435  0.91688535  1
  O  O149  1  0.89562572  0.83469703  0.90436605  1
  O  O150  1  0.49298123  0.17699039  0.59964896  1
  O  O151  1  0.98475689  0.18310573  0.58362989  1
  O  O152  1  0.09988604  0.00659918  0.58920178  1
  O  O153  1  0.59441602  0.02268753  0.59887967  1
  O  O154  1  0.41136829  0.80728627  0.60071229  1
  O  O155  1  0.90688279  0.78774891  0.58442169  1
  O  O156  1  0.48683684  0.78921482  0.08160610  1
  O  O157  1  0.99025539  0.80548870  0.09631499  1
  O  O158  1  0.40720916  0.02462878  0.08284516  1
  O  O159  1  0.90906336  0.01243750  0.10046139  1
  O  O160  1  0.09355033  0.16775734  0.09584864  1
  O  O161  1  0.59921435  0.19315756  0.08857840  1
  O  O162  1  0.34104644  0.15903835  0.73523719  1
  O  O163  1  0.84268103  0.16562482  0.74494433  1
  O  O164  1  0.24645053  0.31641313  0.74107947  1
  O  O165  1  0.74035062  0.32424331  0.73546134  1
  O  O166  1  0.42344296  0.52212353  0.73494238  1
  O  O167  1  0.91911904  0.52239493  0.74681554  1
  O  O168  1  0.34537071  0.52491419  0.24650784  1
  O  O169  1  0.83980424  0.52062722  0.23505294  1
  O  O170  1  0.42142004  0.31807408  0.24741476  1
  O  O171  1  0.92284172  0.32584844  0.23488083  1
  O  O172  1  0.24865658  0.16745177  0.23210146  1
  O  O173  1  0.74659613  0.17603280  0.24153859  1
  O  O174  1  0.31279831  0.49885987  0.92459238  1
  O  O175  1  0.81730985  0.51627403  0.91508482  1
  O  O176  1  0.42591780  0.37523488  0.92649951  1
  O  O177  1  0.93980659  0.36233923  0.91552220  1
  O  O178  1  0.25120133  0.14390729  0.92466452  1
  O  O179  1  0.74653499  0.11825562  0.91678149  1
  O  O180  1  0.31863604  0.11873050  0.41708544  1
  O  O181  1  0.81222206  0.12664844  0.42556291  1
  O  O182  1  0.24568901  0.37238193  0.41932129  1
  O  O183  1  0.75048978  0.35804514  0.42473347  1
  O  O184  1  0.44052585  0.51765885  0.41668788  1
  O  O185  1  0.92520643  0.47638713  0.42776579  1
  O  O186  1  0.17751893  0.50795400  0.06824805  1
  O  O187  1  0.68628587  0.50879619  0.07683945  1
  O  O188  1  0.06820514  0.64477756  0.07835284  1
  O  O189  1  0.56707456  0.63513871  0.07262844  1
  O  O190  1  0.24979599  0.87100502  0.07322756  1
  O  O191  1  0.75320848  0.86340805  0.07807166  1
  O  O192  1  0.18716811  0.86447889  0.57736623  1
  O  O193  1  0.67623260  0.84663346  0.56966378  1
  O  O194  1  0.25570808  0.64750740  0.57961106  1
  O  O195  1  0.74923585  0.62627758  0.57415257  1
  O  O196  1  0.06520218  0.50005029  0.57454055  1
  O  O197  1  0.56831043  0.49061562  0.57871927  1
  O  O198  1  0.15854246  0.82621925  0.25866908  1
  O  O199  1  0.66500968  0.83665909  0.27100841  1
  O  O200  1  0.26144083  0.67125315  0.26661502  1
  O  O201  1  0.76376648  0.68282733  0.25466355  1
  O  O202  1  0.07927351  0.46921579  0.25408721  1
  O  O203  1  0.57747931  0.47409919  0.26481942  1
  O  O204  1  0.16536888  0.49390927  0.77070416  1
  O  O205  1  0.65831873  0.47396321  0.75560305  1
  O  O206  1  0.07583096  0.67727682  0.76484310  1
  O  O207  1  0.58039196  0.68846196  0.75460596  1
  O  O208  1  0.26504390  0.84466280  0.75388714  1
  O  O209  1  0.76039865  0.84929351  0.76576658  1
