# generated using pymatgen
data_NaMgZr3P3(SO8)3
_symmetry_space_group_name_H-M   'P 1'
_cell_length_a   8.88630858
_cell_length_b   8.89328200
_cell_length_c   23.15549317
_cell_angle_alpha   90.01728210
_cell_angle_beta   90.05259918
_cell_angle_gamma   120.12403442
_symmetry_Int_Tables_number   1
_chemical_formula_structural   NaMgZr3P3(SO8)3
_chemical_formula_sum   'Na3 Mg3 Zr9 P9 S9 O72'
_cell_volume   1582.79112718
_cell_formula_units_Z   3
loop_
 _symmetry_equiv_pos_site_id
 _symmetry_equiv_pos_as_xyz
  1  'x, y, z'
loop_
 _atom_site_type_symbol
 _atom_site_label
 _atom_site_symmetry_multiplicity
 _atom_site_fract_x
 _atom_site_fract_y
 _atom_site_fract_z
 _atom_site_occupancy
  Na  Na0  1  0.66014700  0.33257732  0.83109470  1
  Na  Na1  1  0.67040053  0.33081602  0.32995367  1
  Na  Na2  1  0.33139473  0.67055088  0.16843458  1
  Mg  Mg3  1  0.65805803  0.33845443  0.68590706  1
  Mg  Mg4  1  0.67223908  0.33076483  0.18310361  1
  Mg  Mg5  1  0.33040050  0.67291489  0.31611960  1
  Zr  Zr6  1  0.99417992  0.99341128  0.35671991  1
  Zr  Zr7  1  0.00741253  0.00548321  0.85767027  1
  Zr  Zr8  1  0.99974514  0.00110335  0.64504593  1
  Zr  Zr9  1  0.99489044  0.99543687  0.14233161  1
  Zr  Zr10  1  0.67467041  0.33548422  0.98057676  1
  Zr  Zr11  1  0.67517459  0.34264787  0.47966463  1
  Zr  Zr12  1  0.33424782  0.67328694  0.01929024  1
  Zr  Zr13  1  0.34193173  0.67556217  0.52069254  1
  Zr  Zr14  1  0.33392491  0.66004035  0.81155320  1
  P  P15  1  0.29541147  0.28701601  0.74962788  1
  P  P16  1  0.66522509  0.61858752  0.58590216  1
  P  P17  1  0.95483890  0.61694433  0.08636383  1
  P  P18  1  0.66273476  0.04602053  0.08620178  1
  P  P19  1  0.62235960  0.66477782  0.91640311  1
  P  P20  1  0.04466141  0.38007558  0.91639440  1
  P  P21  1  0.33764464  0.95733066  0.91531819  1
  P  P22  1  0.61728134  0.95557528  0.41408418  1
  P  P23  1  0.05006455  0.66530195  0.41451847  1
  S  S24  1  0.29462013  0.00160652  0.24982413  1
  S  S25  1  0.70319803  0.70335952  0.24978771  1
  S  S26  1  0.00181617  0.29473800  0.25024946  1
  S  S27  1  0.99549940  0.70588782  0.74987789  1
  S  S28  1  0.71114230  0.00635414  0.74971542  1
  S  S29  1  0.95449161  0.33571170  0.58561069  1
  S  S30  1  0.38155694  0.04787372  0.58506423  1
  S  S31  1  0.38132439  0.33587995  0.08553127  1
  S  S32  1  0.33427673  0.38107877  0.41472875  1
  O  O33  1  0.20636816  0.02422772  0.30192952  1
  O  O34  1  0.81643263  0.79155645  0.30176651  1
  O  O35  1  0.97794648  0.18254219  0.30219396  1
  O  O36  1  0.20027511  0.17258933  0.80295110  1
  O  O37  1  0.96884459  0.78914296  0.80136917  1
  O  O38  1  0.81921536  0.02891385  0.80132471  1
  O  O39  1  0.79231542  0.97524645  0.69773983  1
  O  O40  1  0.17613565  0.19832531  0.69608736  1
  O  O41  1  0.02321058  0.81694487  0.69798400  1
  O  O42  1  0.79126040  0.81629692  0.19849221  1
  O  O43  1  0.02446735  0.20699849  0.19850493  1
  O  O44  1  0.18284329  0.97765494  0.19821362  1
  O  O45  1  0.87419858  0.36104567  0.63596032  1
  O  O46  1  0.48847992  0.12422899  0.63568715  1
  O  O47  1  0.63599344  0.50663057  0.63756783  1
  O  O48  1  0.87214281  0.50829727  0.13911291  1
  O  O49  1  0.63132076  0.12494735  0.13889914  1
  O  O50  1  0.48709783  0.36340546  0.13665855  1
  O  O51  1  0.45592337  0.30732780  0.03226020  1
  O  O52  1  0.84526008  0.53921523  0.03056398  1
  O  O53  1  0.69124145  0.15433849  0.03050130  1
  O  O54  1  0.45819057  0.15280398  0.53175222  1
  O  O55  1  0.69526211  0.53634279  0.53019341  1
  O  O56  1  0.84618339  0.30339060  0.53211175  1
  O  O57  1  0.53808506  0.69248750  0.97017122  1
  O  O58  1  0.15513933  0.46201830  0.97041626  1
  O  O59  1  0.30783744  0.84612707  0.96979070  1
  O  O60  1  0.53818132  0.84529585  0.46980794  1
  O  O61  1  0.30697338  0.45655099  0.46812647  1
  O  O62  1  0.15589719  0.69042562  0.47035415  1
  O  O63  1  0.12523805  0.63071874  0.36160259  1
  O  O64  1  0.50771912  0.87336996  0.36145955  1
  O  O65  1  0.36494531  0.48709569  0.36389961  1
  O  O66  1  0.12837693  0.49353667  0.86239526  1
  O  O67  1  0.36468482  0.87103606  0.86184439  1
  O  O68  1  0.50710015  0.63592706  0.86249307  1
  O  O69  1  0.02571971  0.82588569  0.40682981  1
  O  O70  1  0.80215057  0.97871617  0.40671506  1
  O  O71  1  0.17977520  0.20457843  0.40795575  1
  O  O72  1  0.02299359  0.19946222  0.90734065  1
  O  O73  1  0.17425551  0.97290009  0.90740777  1
  O  O74  1  0.80082690  0.82503961  0.90559617  1
  O  O75  1  0.97368358  0.17892244  0.59157020  1
  O  O76  1  0.20467688  0.02556052  0.59169095  1
  O  O77  1  0.82638879  0.80317203  0.59381087  1
  O  O78  1  0.97822602  0.80224003  0.09370579  1
  O  O79  1  0.82646636  0.02593306  0.09364141  1
  O  O80  1  0.20469709  0.17985920  0.09249711  1
  O  O81  1  0.69412919  0.16025589  0.74184054  1
  O  O82  1  0.47387593  0.30614712  0.74388764  1
  O  O83  1  0.84359688  0.53211389  0.74266924  1
  O  O84  1  0.69043632  0.53292041  0.24377399  1
  O  O85  1  0.84347512  0.30788326  0.24497847  1
  O  O86  1  0.46582832  0.16000770  0.24418993  1
  O  O87  1  0.64031882  0.50213801  0.92350941  1
  O  O88  1  0.86179351  0.35892738  0.92233781  1
  O  O89  1  0.49652912  0.14007265  0.92337108  1
  O  O90  1  0.64204102  0.13955372  0.42552636  1
  O  O91  1  0.48851881  0.35625848  0.42344198  1
  O  O92  1  0.86166538  0.50591293  0.42407284  1
  O  O93  1  0.35731302  0.48923354  0.07777683  1
  O  O94  1  0.13943951  0.64222944  0.07688408  1
  O  O95  1  0.50587401  0.85909241  0.07698177  1
  O  O96  1  0.35705508  0.87120974  0.57565081  1
  O  O97  1  0.50683683  0.64162883  0.57244564  1
  O  O98  1  0.12912469  0.48716432  0.57464681  1
  O  O99  1  0.30789684  0.84371790  0.25557441  1
  O  O100  1  0.53279354  0.69036964  0.25661832  1
  O  O101  1  0.15994978  0.46569691  0.25655328  1
  O  O102  1  0.30656878  0.46540920  0.75823245  1
  O  O103  1  0.15531037  0.69539998  0.75718018  1
  O  O104  1  0.53868366  0.84806252  0.75687883  1
