# generated using pymatgen
data_Sr3MgV2O7
_symmetry_space_group_name_H-M   'P 1'
_cell_length_a   3.88144497
_cell_length_b   4.90007230
_cell_length_c   10.54881027
_cell_angle_alpha   103.42998827
_cell_angle_beta   100.60140468
_cell_angle_gamma   89.99999390
_symmetry_Int_Tables_number   1
_chemical_formula_structural   Sr3MgV2O7
_chemical_formula_sum   'Sr3 Mg1 V2 O7'
_cell_volume   191.62260978
_cell_formula_units_Z   1
loop_
 _symmetry_equiv_pos_site_id
 _symmetry_equiv_pos_as_xyz
  1  'x, y, z'
loop_
 _atom_site_type_symbol
 _atom_site_label
 _atom_site_symmetry_multiplicity
 _atom_site_fract_x
 _atom_site_fract_y
 _atom_site_fract_z
 _atom_site_occupancy
  Sr  Sr0  1  0.68018000  0.68018100  0.36036000  1
  Sr  Sr1  1  0.31981900  0.31981900  0.63964000  1
  Sr  Sr2  1  0.49999900  0.50000100  0.00000000  1
  Mg  Mg3  1  0.50000000  0.00000000  0.00000000  1
  V  V4  1  0.89089800  0.89090100  0.78179700  1
  V  V5  1  0.10910100  0.10910000  0.21820300  1
  O  O6  1  0.90528200  0.40528300  0.81056500  1
  O  O7  1  0.40639100  0.90638900  0.81277900  1
  O  O8  1  0.09471700  0.59471700  0.18943500  1
  O  O9  1  0.59361000  0.09361100  0.18722000  1
  O  O10  1  0.79852900  0.79852900  0.59706000  1
  O  O11  1  0.00000000  0.00000000  0.00000000  1
  O  O12  1  0.20147000  0.20147100  0.40293900  1
