# generated using pymatgen
data_Na6Al4Si3(SO8)3
_symmetry_space_group_name_H-M   'P 1'
_cell_length_a   8.77383224
_cell_length_b   8.65656303
_cell_length_c   21.71824072
_cell_angle_alpha   90.81916869
_cell_angle_beta   89.55309454
_cell_angle_gamma   120.43264271
_symmetry_Int_Tables_number   1
_chemical_formula_structural   Na6Al4Si3(SO8)3
_chemical_formula_sum   'Na18 Al12 Si9 S9 O72'
_cell_volume   1422.11825593
_cell_formula_units_Z   3
loop_
 _symmetry_equiv_pos_site_id
 _symmetry_equiv_pos_as_xyz
  1  'x, y, z'
loop_
 _atom_site_type_symbol
 _atom_site_label
 _atom_site_symmetry_multiplicity
 _atom_site_fract_x
 _atom_site_fract_y
 _atom_site_fract_z
 _atom_site_occupancy
  Na  Na0  1  0.63217469  0.00624585  0.25892381  1
  Na  Na1  1  0.35211516  0.35736316  0.25397206  1
  Na  Na2  1  0.64186186  0.64485300  0.73875505  1
  Na  Na3  1  0.99069366  0.36512657  0.74608744  1
  Na  Na4  1  0.02389555  0.68866608  0.59040810  1
  Na  Na5  1  0.67477931  0.96779197  0.58270021  1
  Na  Na6  1  0.30886845  0.96785995  0.09474516  1
  Na  Na7  1  0.02765105  0.32624689  0.08264890  1
  Na  Na8  1  0.97043665  0.66327499  0.90070061  1
  Na  Na9  1  0.70858810  0.03815492  0.91054673  1
  Na  Na10  1  0.96034659  0.29145049  0.42031556  1
  Na  Na11  1  0.33924922  0.03069955  0.41351450  1
  Na  Na12  1  0.98128834  0.99244248  0.50301690  1
  Na  Na13  1  0.99569954  0.00784713  0.99881142  1
  Na  Na14  1  0.65638918  0.32178454  0.82697168  1
  Na  Na15  1  0.67715396  0.34121014  0.33455685  1
  Na  Na16  1  0.32954729  0.66921485  0.17015111  1
  Na  Na17  1  0.33213975  0.66616982  0.66533548  1
  Al  Al18  1  0.98806040  0.00483871  0.34935797  1
  Al  Al19  1  0.99607878  0.02393194  0.84316639  1
  Al  Al20  1  0.97220407  0.98279997  0.64660728  1
  Al  Al21  1  0.99210737  0.00692029  0.15296191  1
  Al  Al22  1  0.69412490  0.35093008  0.68535397  1
  Al  Al23  1  0.66109694  0.30906305  0.19062799  1
  Al  Al24  1  0.68558943  0.32545819  0.98120259  1
  Al  Al25  1  0.67897837  0.31891267  0.48810057  1
  Al  Al26  1  0.34396828  0.66312941  0.01748791  1
  Al  Al27  1  0.35527449  0.65869496  0.52507692  1
  Al  Al28  1  0.31620737  0.68243900  0.31226569  1
  Al  Al29  1  0.31546115  0.67067537  0.80756197  1
  Si  Si30  1  0.27562633  0.99699630  0.24868625  1
  Si  Si31  1  0.00350029  0.30171578  0.25021404  1
  Si  Si32  1  0.00202460  0.72434429  0.75012518  1
  Si  Si33  1  0.69501317  0.00109015  0.74941543  1
  Si  Si34  1  0.97302562  0.33352906  0.58353246  1
  Si  Si35  1  0.66473092  0.60912995  0.58434616  1
  Si  Si36  1  0.66587723  0.02921860  0.08345729  1
  Si  Si37  1  0.05492118  0.37874906  0.91743444  1
  Si  Si38  1  0.62161044  0.94908402  0.41702201  1
  S  S39  1  0.71618262  0.70908460  0.24848135  1
  S  S40  1  0.28693517  0.28459390  0.75052350  1
  S  S41  1  0.38006669  0.05070323  0.58258197  1
  S  S42  1  0.94664933  0.62084260  0.08316382  1
  S  S43  1  0.39122952  0.33963248  0.08200512  1
  S  S44  1  0.61992280  0.65390279  0.91857647  1
  S  S45  1  0.33722211  0.95982815  0.92045882  1
  S  S46  1  0.33728251  0.38147551  0.41477321  1
  S  S47  1  0.03855094  0.66940135  0.41639423  1
  O  O48  1  0.18366196  0.03014186  0.30933167  1
  O  O49  1  0.82067213  0.78658954  0.30481726  1
  O  O50  1  0.95562171  0.16607465  0.30821120  1
  O  O51  1  0.20646527  0.18524986  0.80820668  1
  O  O52  1  0.97801317  0.82088283  0.81323935  1
  O  O53  1  0.82504929  0.04902604  0.81032404  1
  O  O54  1  0.78389462  0.95557525  0.69126768  1
  O  O55  1  0.17124841  0.20238165  0.69698638  1
  O  O56  1  0.02936132  0.84038386  0.68903419  1
  O  O57  1  0.79789940  0.82561546  0.19462177  1
  O  O58  1  0.04269944  0.21692291  0.18791737  1
  O  O59  1  0.16399662  0.97480211  0.18552116  1
  O  O60  1  0.88504797  0.37961044  0.64245597  1
  O  O61  1  0.49872897  0.13880163  0.63494670  1
  O  O62  1  0.63832350  0.49881809  0.64731223  1
  O  O63  1  0.85288194  0.50549186  0.13562726  1
  O  O64  1  0.62316835  0.12281932  0.14194181  1
  O  O65  1  0.48530306  0.36014752  0.14035449  1
  O  O66  1  0.48665533  0.32138687  0.02870819  1
  O  O67  1  0.85112914  0.54088075  0.02423036  1
  O  O68  1  0.70486086  0.15907620  0.02354443  1
  O  O69  1  0.45830864  0.14400518  0.52306125  1
  O  O70  1  0.69345531  0.50838509  0.52536121  1
  O  O71  1  0.84190198  0.28245338  0.52314630  1
  O  O72  1  0.53409156  0.68661025  0.97268418  1
  O  O73  1  0.16330247  0.47080505  0.98173364  1
  O  O74  1  0.31369016  0.84916105  0.97595422  1
  O  O75  1  0.52094555  0.83425130  0.47778593  1
  O  O76  1  0.30654733  0.46541139  0.46954898  1
  O  O77  1  0.14646704  0.69976482  0.47169625  1
  O  O78  1  0.12228112  0.63731950  0.36124385  1
  O  O79  1  0.49517694  0.86051389  0.35566266  1
  O  O80  1  0.35401053  0.48328723  0.35847766  1
  O  O81  1  0.14907186  0.51427427  0.85994202  1
  O  O82  1  0.37280800  0.88032201  0.86521826  1
  O  O83  1  0.52118566  0.63166646  0.86187790  1
  O  O84  1  0.02428380  0.83213833  0.40818242  1
  O  O85  1  0.82163895  0.97703634  0.40878307  1
  O  O86  1  0.17138559  0.19749915  0.41218561  1
  O  O87  1  0.02153846  0.17333887  0.91041977  1
  O  O88  1  0.17921784  0.97556807  0.91609264  1
  O  O89  1  0.80064311  0.81664063  0.91747031  1
  O  O90  1  0.98644484  0.15565072  0.59470760  1
  O  O91  1  0.20509071  0.03328895  0.58738035  1
  O  O92  1  0.84499923  0.81107824  0.58686483  1
  O  O93  1  0.97182976  0.80297300  0.08667500  1
  O  O94  1  0.84727056  0.01879562  0.09235641  1
  O  O95  1  0.21064827  0.17468934  0.08144893  1
  O  O96  1  0.67839120  0.17744711  0.73886633  1
  O  O97  1  0.46194140  0.30385434  0.74661512  1
  O  O98  1  0.82210340  0.52193449  0.74883310  1
  O  O99  1  0.69383929  0.52904216  0.23928054  1
  O  O100  1  0.82725746  0.31771146  0.24131191  1
  O  O101  1  0.47582821  0.18165983  0.24419539  1
  O  O102  1  0.64075284  0.49461545  0.92682036  1
  O  O103  1  0.85320006  0.35925510  0.92199382  1
  O  O104  1  0.49985798  0.14168865  0.92679075  1
  O  O105  1  0.64366844  0.15510039  0.42246390  1
  O  O106  1  0.49025687  0.35551946  0.41944665  1
  O  O107  1  0.86178510  0.50499957  0.41971980  1
  O  O108  1  0.36448921  0.49690206  0.07806657  1
  O  O109  1  0.12714344  0.63875807  0.08111580  1
  O  O110  1  0.47945394  0.83569265  0.07398450  1
  O  O111  1  0.35605006  0.86546813  0.57865407  1
  O  O112  1  0.50061921  0.64788508  0.57949032  1
  O  O113  1  0.15882471  0.51978298  0.57037135  1
  O  O114  1  0.31559104  0.83244694  0.25368930  1
  O  O115  1  0.53714425  0.68842960  0.25356177  1
  O  O116  1  0.18665416  0.49311253  0.26043024  1
  O  O117  1  0.30781846  0.46866454  0.75728131  1
  O  O118  1  0.16634921  0.68578652  0.75568613  1
  O  O119  1  0.51036091  0.81441828  0.76364509  1
