# generated using pymatgen
data_B10(Pb2O7)3
_symmetry_space_group_name_H-M   'P 1'
_cell_length_a   6.84213020
_cell_length_b   7.00846528
_cell_length_c   11.13879345
_cell_angle_alpha   82.79172602
_cell_angle_beta   78.55956766
_cell_angle_gamma   61.01947458
_symmetry_Int_Tables_number   1
_chemical_formula_structural   B10(Pb2O7)3
_chemical_formula_sum   'B10 Pb6 O21'
_cell_volume   457.70195937
_cell_formula_units_Z   1
loop_
 _symmetry_equiv_pos_site_id
 _symmetry_equiv_pos_as_xyz
  1  'x, y, z'
loop_
 _atom_site_type_symbol
 _atom_site_label
 _atom_site_symmetry_multiplicity
 _atom_site_fract_x
 _atom_site_fract_y
 _atom_site_fract_z
 _atom_site_occupancy
  B  B0  1  0.21781438  0.86884645  0.94508872  1
  B  B1  1  0.78218562  0.13115355  0.05491128  1
  B  B2  1  0.52526956  0.67266421  0.57242207  1
  B  B3  1  0.47473044  0.32733579  0.42757793  1
  B  B4  1  0.72430083  0.17281463  0.75868227  1
  B  B5  1  0.27569917  0.82718537  0.24131773  1
  B  B6  1  0.83332900  0.46490637  0.70260621  1
  B  B7  1  0.16667100  0.53509363  0.29739379  1
  B  B8  1  0.44432651  0.56582186  0.79664294  1
  B  B9  1  0.55567349  0.43417814  0.20335706  1
  Pb  Pb10  1  0.76049523  0.73392596  0.93704089  1
  Pb  Pb11  1  0.23950477  0.26607404  0.06295911  1
  Pb  Pb12  1  0.03310382  0.76059609  0.58853774  1
  Pb  Pb13  1  0.96689618  0.23940391  0.41146226  1
  Pb  Pb14  1  0.34508935  0.13974603  0.69941047  1
  Pb  Pb15  1  0.65491065  0.86025397  0.30058953  1
  O  O16  1  0.76832408  0.96062825  0.76226136  1
  O  O17  1  0.88708139  0.23163328  0.70615933  1
  O  O18  1  0.96782548  0.51948342  0.28774226  1
  O  O19  1  0.03217452  0.48051658  0.71225774  1
  O  O20  1  0.24653981  0.42725347  0.41804920  1
  O  O21  1  0.11291861  0.76836672  0.29384067  1
  O  O22  1  0.55661096  0.21842184  0.52944467  1
  O  O23  1  0.44338904  0.78157816  0.47055533  1
  O  O24  1  0.62899162  0.33627963  0.32609667  1
  O  O25  1  0.37100838  0.66372037  0.67390333  1
  O  O26  1  0.35126252  0.42423569  0.19931023  1
  O  O27  1  0.64873748  0.57576431  0.80068977  1
  O  O28  1  0.73926067  0.31849563  0.10716749  1
  O  O29  1  0.26073933  0.68150437  0.89283251  1
  O  O30  1  0.62642934  0.06322077  0.05574503  1
  O  O31  1  0.37357066  0.93677923  0.94425497  1
  O  O32  1  -0.00000000  0.00000000  -0.00000000  1
  O  O33  1  0.50177260  0.32868544  0.80074519  1
  O  O34  1  0.49822740  0.67131456  0.19925481  1
  O  O35  1  0.75346019  0.57274653  0.58195080  1
  O  O36  1  0.23167592  0.03937175  0.23773864  1
