# generated using pymatgen
data_Na4ZnSi2GeSO12
_symmetry_space_group_name_H-M   'P 1'
_cell_length_a   9.17160160
_cell_length_b   8.97143097
_cell_length_c   21.97652042
_cell_angle_alpha   91.91723458
_cell_angle_beta   90.00000000
_cell_angle_gamma   120.74086126
_symmetry_Int_Tables_number   1
_chemical_formula_structural   Na4ZnSi2GeSO12
_chemical_formula_sum   'Na24 Zn6 Si12 Ge6 S6 O72'
_cell_volume   1553.01753612
_cell_formula_units_Z   6
loop_
 _symmetry_equiv_pos_site_id
 _symmetry_equiv_pos_as_xyz
  1  'x, y, z'
loop_
 _atom_site_type_symbol
 _atom_site_label
 _atom_site_symmetry_multiplicity
 _atom_site_fract_x
 _atom_site_fract_y
 _atom_site_fract_z
 _atom_site_occupancy
  Na  Na0  1  0.64059865  0.01594629  0.25260885  1
  Na  Na1  1  0.37028183  0.36000207  0.24683929  1
  Na  Na2  1  0.98974985  0.62434117  0.24299915  1
  Na  Na3  1  0.63459132  0.62434117  0.74299915  1
  Na  Na4  1  0.98972024  0.36000207  0.74683929  1
  Na  Na5  1  0.37534764  0.01594629  0.75260885  1
  Na  Na6  1  0.30726565  0.34927929  0.58594185  1
  Na  Na7  1  0.03694883  0.69333507  0.58017229  1
  Na  Na8  1  0.65641685  0.95767417  0.57633215  1
  Na  Na9  1  0.30125832  0.95767417  0.07633215  1
  Na  Na10  1  0.65638724  0.69333507  0.08017229  1
  Na  Na11  1  0.04201464  0.34927929  0.08594185  1
  Na  Na12  1  0.97393165  0.68261329  0.91927585  1
  Na  Na13  1  0.70361483  0.02666907  0.91350629  1
  Na  Na14  1  0.32308285  0.29100817  0.90966615  1
  Na  Na15  1  0.96792432  0.29100817  0.40966615  1
  Na  Na16  1  0.32305324  0.02666907  0.41350629  1
  Na  Na17  1  0.70868064  0.68261329  0.41927585  1
  Na  Na18  1  0.98926806  0.99180709  0.49581522  1
  Na  Na19  1  0.00253904  0.99180709  0.99581522  1
  Na  Na20  1  0.65593506  0.32514009  0.82914822  1
  Na  Na21  1  0.66920604  0.32514009  0.32914822  1
  Na  Na22  1  0.32260106  0.65847409  0.16248222  1
  Na  Na23  1  0.33587204  0.65847409  0.66248222  1
  Zn  Zn24  1  0.00272559  0.00250522  0.34906832  1
  Zn  Zn25  1  -0.00022037  0.00250522  0.84906832  1
  Zn  Zn26  1  0.66939259  0.33583822  0.68240132  1
  Zn  Zn27  1  0.66644663  0.33583822  0.18240132  1
  Zn  Zn28  1  0.33605859  0.66917222  0.01573532  1
  Zn  Zn29  1  0.33311263  0.66917222  0.51573532  1
  Si  Si30  1  0.29776152  0.00194692  0.25325385  1
  Si  Si31  1  0.00523447  0.29195577  0.25320547  1
  Si  Si32  1  0.28672130  0.29195577  0.75320547  1
  Si  Si33  1  0.70418540  0.00194692  0.75325385  1
  Si  Si34  1  0.96442852  0.33527992  0.58658685  1
  Si  Si35  1  0.67190147  0.62528877  0.58653847  1
  Si  Si36  1  0.95338830  0.62528877  0.08653847  1
  Si  Si37  1  0.37085240  0.33527992  0.08658685  1
  Si  Si38  1  0.63109452  0.66861392  0.91992085  1
  Si  Si39  1  0.33856747  0.95862277  0.91987247  1
  Si  Si40  1  0.62005430  0.95862277  0.41987247  1
  Si  Si41  1  0.03751840  0.66861392  0.41992085  1
  Ge  Ge42  1  0.97034369  0.01299718  0.64838476  1
  Ge  Ge43  1  0.04265349  0.01299718  0.14838476  1
  Ge  Ge44  1  0.63701069  0.34633018  0.98171776  1
  Ge  Ge45  1  0.70932049  0.34633018  0.48171776  1
  Ge  Ge46  1  0.30367669  0.67966418  0.31505176  1
  Ge  Ge47  1  0.37598649  0.67966418  0.81505176  1
  S  S48  1  0.70458856  0.71061994  0.24993524  1
  S  S49  1  0.00603137  0.71061994  0.74993524  1
  S  S50  1  0.37125556  0.04395294  0.58326824  1
  S  S51  1  0.67269837  0.04395294  0.08326824  1
  S  S52  1  0.03792156  0.37728694  0.91660224  1
  S  S53  1  0.33936437  0.37728694  0.41660224  1
  O  O54  1  0.21364763  0.03084352  0.31223188  1
  O  O55  1  0.80429318  0.78909657  0.30646364  1
  O  O56  1  0.96892182  0.17816559  0.31145305  1
  O  O57  1  0.20924378  0.17816559  0.81145305  1
  O  O58  1  0.98480338  0.78909657  0.80646364  1
  O  O59  1  0.81719589  0.03084352  0.81223188  1
  O  O60  1  0.78307504  0.95606727  0.69064450  1
  O  O61  1  0.15465027  0.19619547  0.69001418  1
  O  O62  1  0.03006227  0.81669680  0.69564758  1
  O  O63  1  0.78663453  0.81669680  0.19564758  1
  O  O64  1  0.04154520  0.19619547  0.19001418  1
  O  O65  1  0.17299222  0.95606727  0.19064450  1
  O  O66  1  0.88031463  0.36417652  0.64556488  1
  O  O67  1  0.47096018  0.12242957  0.63979664  1
  O  O68  1  0.63558882  0.51149859  0.64478605  1
  O  O69  1  0.87591078  0.51149859  0.14478605  1
  O  O70  1  0.65147038  0.12242957  0.13979664  1
  O  O71  1  0.48386289  0.36417652  0.14556488  1
  O  O72  1  0.44974204  0.28940027  0.02397750  1
  O  O73  1  0.82131727  0.52952847  0.02334718  1
  O  O74  1  0.69672927  0.15002980  0.02898058  1
  O  O75  1  0.45330153  0.15002980  0.52898058  1
  O  O76  1  0.70821220  0.52952847  0.52334718  1
  O  O77  1  0.83965922  0.28940027  0.52397750  1
  O  O78  1  0.54698063  0.69751052  0.97889888  1
  O  O79  1  0.13762618  0.45576357  0.97313064  1
  O  O80  1  0.30225482  0.84483259  0.97812005  1
  O  O81  1  0.54257678  0.84483259  0.47812005  1
  O  O82  1  0.31813638  0.45576357  0.47313064  1
  O  O83  1  0.15052889  0.69751052  0.47889888  1
  O  O84  1  0.11640804  0.62273427  0.35731150  1
  O  O85  1  0.48798327  0.86286247  0.35668118  1
  O  O86  1  0.36339527  0.48336380  0.36231458  1
  O  O87  1  0.11996753  0.48336380  0.86231458  1
  O  O88  1  0.37487820  0.86286247  0.85668118  1
  O  O89  1  0.50632522  0.62273427  0.85731150  1
  O  O90  1  0.00957361  0.83040903  0.41252864  1
  O  O91  1  0.80912679  0.99120571  0.41210756  1
  O  O92  1  0.18559705  0.20191261  0.41243955  1
  O  O93  1  0.01631556  0.20191261  0.91243955  1
  O  O94  1  0.18207891  0.99120571  0.91210756  1
  O  O95  1  0.82083543  0.83040903  0.91252864  1
  O  O96  1  0.97100304  0.14972096  0.58728689  1
  O  O97  1  0.20060755  0.02740393  0.58568277  1
  O  O98  1  0.86123036  0.82016088  0.59138960  1
  O  O99  1  0.95893053  0.82016088  0.09138960  1
  O  O100  1  0.82679638  0.02740393  0.08568277  1
  O  O101  1  0.17871792  0.14972096  0.08728689  1
  O  O102  1  0.67624061  0.16374203  0.74586164  1
  O  O103  1  0.47579379  0.32453871  0.74544056  1
  O  O104  1  0.85226405  0.53524561  0.74577255  1
  O  O105  1  0.68298256  0.53524561  0.24577255  1
  O  O106  1  0.84874591  0.32453871  0.24544056  1
  O  O107  1  0.48750243  0.16374203  0.24586164  1
  O  O108  1  0.63767004  0.48305396  0.92061989  1
  O  O109  1  0.86727455  0.36073693  0.91901577  1
  O  O110  1  0.52789736  0.15349388  0.92472260  1
  O  O111  1  0.62559753  0.15349388  0.42472260  1
  O  O112  1  0.49346338  0.36073693  0.41901577  1
  O  O113  1  0.84538492  0.48305396  0.42061989  1
  O  O114  1  0.34290661  0.49707603  0.07919564  1
  O  O115  1  0.14245979  0.65787271  0.07877456  1
  O  O116  1  0.51893005  0.86857961  0.07910655  1
  O  O117  1  0.34964856  0.86857961  0.57910655  1
  O  O118  1  0.51541191  0.65787271  0.57877456  1
  O  O119  1  0.15416843  0.49707603  0.57919564  1
  O  O120  1  0.30433604  0.81638796  0.25395389  1
  O  O121  1  0.53394055  0.69407093  0.25234977  1
  O  O122  1  0.19456336  0.48682788  0.25805660  1
  O  O123  1  0.29226353  0.48682788  0.75805660  1
  O  O124  1  0.16012938  0.69407093  0.75234977  1
  O  O125  1  0.51205092  0.81638796  0.75395389  1
