# generated using pymatgen
data_TaTeBr9
_symmetry_space_group_name_H-M   'P 1'
_cell_length_a   11.67149503
_cell_length_b   6.78702413
_cell_length_c   10.17570522
_cell_angle_alpha   76.20053153
_cell_angle_beta   90.00000000
_cell_angle_gamma   90.00000000
_symmetry_Int_Tables_number   1
_chemical_formula_structural   TaTeBr9
_chemical_formula_sum   'Ta2 Te2 Br18'
_cell_volume   782.79974269
_cell_formula_units_Z   2
loop_
 _symmetry_equiv_pos_site_id
 _symmetry_equiv_pos_as_xyz
  1  'x, y, z'
loop_
 _atom_site_type_symbol
 _atom_site_label
 _atom_site_symmetry_multiplicity
 _atom_site_fract_x
 _atom_site_fract_y
 _atom_site_fract_z
 _atom_site_occupancy
  Ta  Ta0  1  0.25000000  0.64478155  0.85749684  1
  Ta  Ta1  1  0.75000000  0.35521845  0.14250316  1
  Te  Te2  1  0.25000000  0.76104783  0.46214789  1
  Te  Te3  1  0.75000000  0.23895217  0.53785211  1
  Br  Br4  1  0.59870064  0.45708103  0.30605753  1
  Br  Br5  1  0.09870064  0.54291897  0.69394247  1
  Br  Br6  1  0.40129936  0.54291897  0.69394247  1
  Br  Br7  1  0.90129936  0.45708103  0.30605753  1
  Br  Br8  1  0.75000000  0.70316954  0.00577722  1
  Br  Br9  1  0.25000000  0.29683046  0.99422278  1
  Br  Br10  1  0.75000000  0.52552786  0.65682454  1
  Br  Br11  1  0.25000000  0.47447214  0.34317546  1
  Br  Br12  1  0.75000000  0.00240877  0.31930469  1
  Br  Br13  1  0.25000000  0.99759123  0.68069531  1
  Br  Br14  1  0.90537261  0.23731628  0.02004023  1
  Br  Br15  1  0.40537261  0.76268372  0.97995977  1
  Br  Br16  1  0.09462739  0.76268372  0.97995977  1
  Br  Br17  1  0.59462739  0.23731628  0.02004023  1
  Br  Br18  1  0.91174764  0.03922563  0.67151064  1
  Br  Br19  1  0.41174764  0.96077437  0.32848936  1
  Br  Br20  1  0.08825236  0.96077437  0.32848936  1
  Br  Br21  1  0.58825236  0.03922563  0.67151064  1
