# generated using pymatgen
data_Sr(YS2)2
_symmetry_space_group_name_H-M   'P 1'
_cell_length_a   3.99322085
_cell_length_b   12.02276318
_cell_length_c   14.35281413
_cell_angle_alpha   90.00000000
_cell_angle_beta   90.00000000
_cell_angle_gamma   90.00000000
_symmetry_Int_Tables_number   1
_chemical_formula_structural   Sr(YS2)2
_chemical_formula_sum   'Sr4 Y8 S16'
_cell_volume   689.07212759
_cell_formula_units_Z   4
loop_
 _symmetry_equiv_pos_site_id
 _symmetry_equiv_pos_as_xyz
  1  'x, y, z'
loop_
 _atom_site_type_symbol
 _atom_site_label
 _atom_site_symmetry_multiplicity
 _atom_site_fract_x
 _atom_site_fract_y
 _atom_site_fract_z
 _atom_site_occupancy
  Sr  Sr0  1  0.25000000  0.25762459  0.83823775  1
  Sr  Sr1  1  0.75000000  0.74237541  0.16176225  1
  Sr  Sr2  1  0.25000000  0.75762459  0.66176225  1
  Sr  Sr3  1  0.75000000  0.24237541  0.33823775  1
  Y  Y4  1  0.25000000  0.93233096  0.88963874  1
  Y  Y5  1  0.75000000  0.06766904  0.11036126  1
  Y  Y6  1  0.25000000  0.43233096  0.61036126  1
  Y  Y7  1  0.75000000  0.56766904  0.38963874  1
  Y  Y8  1  0.25000000  0.41920272  0.10097387  1
  Y  Y9  1  0.75000000  0.58079728  0.89902613  1
  Y  Y10  1  0.25000000  0.91920272  0.39902613  1
  Y  Y11  1  0.75000000  0.08079728  0.60097387  1
  S  S12  1  0.25000000  0.12977864  0.47326855  1
  S  S13  1  0.75000000  0.87022136  0.52673145  1
  S  S14  1  0.25000000  0.62977864  0.02673145  1
  S  S15  1  0.75000000  0.37022136  0.97326855  1
  S  S16  1  0.75000000  0.79244259  0.82559596  1
  S  S17  1  0.25000000  0.20755741  0.17440404  1
  S  S18  1  0.75000000  0.29244259  0.67440404  1
  S  S19  1  0.25000000  0.70755741  0.32559596  1
  S  S20  1  0.75000000  0.08565879  0.92166838  1
  S  S21  1  0.25000000  0.91434121  0.07833162  1
  S  S22  1  0.75000000  0.58565879  0.57833162  1
  S  S23  1  0.25000000  0.41434121  0.42166838  1
  S  S24  1  0.75000000  0.47760066  0.21592025  1
  S  S25  1  0.25000000  0.52239934  0.78407975  1
  S  S26  1  0.75000000  0.97760066  0.28407975  1
  S  S27  1  0.25000000  0.02239934  0.71592025  1
