# generated using pymatgen
data_SiPbO3
_symmetry_space_group_name_H-M   'P 1'
_cell_length_a   7.05222720
_cell_length_b   11.22191635
_cell_length_c   13.00114339
_cell_angle_alpha   60.35943029
_cell_angle_beta   90.00000000
_cell_angle_gamma   90.00000000
_symmetry_Int_Tables_number   1
_chemical_formula_structural   SiPbO3
_chemical_formula_sum   'Si12 Pb12 O36'
_cell_volume   894.26676105
_cell_formula_units_Z   12
loop_
 _symmetry_equiv_pos_site_id
 _symmetry_equiv_pos_as_xyz
  1  'x, y, z'
loop_
 _atom_site_type_symbol
 _atom_site_label
 _atom_site_symmetry_multiplicity
 _atom_site_fract_x
 _atom_site_fract_y
 _atom_site_fract_z
 _atom_site_occupancy
  Si  Si0  1  0.81966314  0.75081232  0.46275167  1
  Si  Si1  1  0.81966314  0.24918768  0.03724833  1
  Si  Si2  1  0.18033686  0.24918768  0.53724833  1
  Si  Si3  1  0.18033686  0.75081232  0.96275167  1
  Si  Si4  1  0.59380940  0.13795576  0.89137002  1
  Si  Si5  1  0.59380940  0.86204424  0.60862998  1
  Si  Si6  1  0.40619060  0.86204424  0.10862998  1
  Si  Si7  1  0.40619060  0.13795576  0.39137002  1
  Si  Si8  1  0.87335565  0.46334119  0.65397516  1
  Si  Si9  1  0.87335565  0.53665881  0.84602484  1
  Si  Si10  1  0.12664435  0.53665881  0.34602484  1
  Si  Si11  1  0.12664435  0.46334119  0.15397516  1
  Pb  Pb12  1  0.69443256  0.19833220  0.59879032  1
  Pb  Pb13  1  0.69443256  0.80166780  0.90120968  1
  Pb  Pb14  1  0.30556744  0.80166780  0.40120968  1
  Pb  Pb15  1  0.30556744  0.19833220  0.09879032  1
  Pb  Pb16  1  0.61693052  0.56230969  0.34744878  1
  Pb  Pb17  1  0.61693052  0.43769031  0.15255122  1
  Pb  Pb18  1  0.38306948  0.43769031  0.65255122  1
  Pb  Pb19  1  0.38306948  0.56230969  0.84744878  1
  Pb  Pb20  1  0.93832174  0.87237235  0.17416777  1
  Pb  Pb21  1  0.93832174  0.12762765  0.32583223  1
  Pb  Pb22  1  0.06167826  0.12762765  0.82583223  1
  Pb  Pb23  1  0.06167826  0.87237235  0.67416777  1
  O  O24  1  0.95468547  0.86015328  0.35680219  1
  O  O25  1  0.95468547  0.13984672  0.14319781  1
  O  O26  1  0.04531453  0.13984672  0.64319781  1
  O  O27  1  0.04531453  0.86015328  0.85680219  1
  O  O28  1  0.63068915  0.71726213  0.41205103  1
  O  O29  1  0.63068915  0.28273787  0.08794897  1
  O  O30  1  0.36931085  0.28273787  0.58794897  1
  O  O31  1  0.36931085  0.71726213  0.91205103  1
  O  O32  1  0.57438671  0.75354832  0.16898088  1
  O  O33  1  0.57438671  0.24645168  0.33101912  1
  O  O34  1  0.42561329  0.24645168  0.83101912  1
  O  O35  1  0.42561329  0.75354832  0.66898088  1
  O  O36  1  0.71395023  0.09917277  0.80443098  1
  O  O37  1  0.71395023  0.90082723  0.69556902  1
  O  O38  1  0.94517739  0.61233649  0.54428691  1
  O  O39  1  0.28604977  0.90082723  0.19556902  1
  O  O40  1  0.05264861  0.36264415  0.71070456  1
  O  O41  1  0.05264861  0.63735585  0.78929544  1
  O  O42  1  0.94735139  0.63735585  0.28929544  1
  O  O43  1  0.94735139  0.36264415  0.21070456  1
  O  O44  1  0.70922836  0.40028407  0.60795127  1
  O  O45  1  0.70922836  0.59971593  0.89204873  1
  O  O46  1  0.29077164  0.59971593  0.39204873  1
  O  O47  1  0.29077164  0.40028407  0.10795127  1
  O  O48  1  0.50000000  0.00000000  0.50000000  1
  O  O49  1  0.50000000  0.00000000  -0.00000000  1
  O  O50  1  0.22606687  0.50000000  0.25000000  1
  O  O51  1  0.77393313  0.50000000  0.75000000  1
  O  O52  1  0.23822266  0.18402696  0.45312153  1
  O  O53  1  0.23822266  0.81597304  0.04687847  1
  O  O54  1  0.76177734  0.81597304  0.54687847  1
  O  O55  1  0.76177734  0.18402696  0.95312153  1
  O  O56  1  0.05482261  0.61233649  0.04428691  1
  O  O57  1  0.05482261  0.38766351  0.45571309  1
  O  O58  1  0.94517739  0.38766351  0.95571309  1
  O  O59  1  0.28604977  0.09917277  0.30443098  1
