# generated using pymatgen
data_K2MgFe4O7
_symmetry_space_group_name_H-M   'P 1'
_cell_length_a   5.23201274
_cell_length_b   5.24588937
_cell_length_c   8.37848524
_cell_angle_alpha   90.22688140
_cell_angle_beta   89.88624041
_cell_angle_gamma   120.08783143
_symmetry_Int_Tables_number   1
_chemical_formula_structural   K2MgFe4O7
_chemical_formula_sum   'K2 Mg1 Fe4 O7'
_cell_volume   198.97366694
_cell_formula_units_Z   1
loop_
 _symmetry_equiv_pos_site_id
 _symmetry_equiv_pos_as_xyz
  1  'x, y, z'
loop_
 _atom_site_type_symbol
 _atom_site_label
 _atom_site_symmetry_multiplicity
 _atom_site_fract_x
 _atom_site_fract_y
 _atom_site_fract_z
 _atom_site_occupancy
  K  K0  1  0.33583400  0.66658900  0.00018100  1
  K  K1  1  0.66416500  0.33075600  0.00018000  1
  Mg  Mg2  1  0.00000000  0.00067000  0.49980600  1
  Fe  Fe3  1  0.99999900  0.96861400  0.22379900  1
  Fe  Fe4  1  0.00000100  0.02934400  0.77620300  1
  Fe  Fe5  1  0.33917500  0.66948500  0.49999100  1
  Fe  Fe6  1  0.66082500  0.33030900  0.49999100  1
  O  O7  1  0.00000000  0.66397600  0.36205200  1
  O  O8  1  0.00000000  0.33553600  0.63802600  1
  O  O9  1  0.00000000  0.00526500  0.00028100  1
  O  O10  1  0.33232000  0.33027100  0.36225600  1
  O  O11  1  0.66810400  0.66956900  0.63748900  1
  O  O12  1  0.33189600  0.00146500  0.63748900  1
  O  O13  1  0.66768000  0.99795100  0.36225600  1
