# generated using pymatgen
data_Tl4SiSe4
_symmetry_space_group_name_H-M   'P 1'
_cell_length_a   7.00227686
_cell_length_b   7.00227686
_cell_length_c   25.10411428
_cell_angle_alpha   81.71584238
_cell_angle_beta   81.71584238
_cell_angle_gamma   63.73655802
_symmetry_Int_Tables_number   1
_chemical_formula_structural   Tl4SiSe4
_chemical_formula_sum   'Tl16 Si4 Se16'
_cell_volume   1087.83277896
_cell_formula_units_Z   4
loop_
 _symmetry_equiv_pos_site_id
 _symmetry_equiv_pos_as_xyz
  1  'x, y, z'
loop_
 _atom_site_type_symbol
 _atom_site_label
 _atom_site_symmetry_multiplicity
 _atom_site_fract_x
 _atom_site_fract_y
 _atom_site_fract_z
 _atom_site_occupancy
  Tl  Tl0  1  0.17118074  0.82881926  0.25000000  1
  Tl  Tl1  1  0.82881926  0.17118074  0.75000000  1
  Tl  Tl2  1  0.00000000  -0.00000000  0.50000000  1
  Tl  Tl3  1  0.00000000  -0.00000000  -0.00000000  1
  Tl  Tl4  1  0.05729717  0.33146880  0.33576058  1
  Tl  Tl5  1  0.66853120  0.94270283  0.16423942  1
  Tl  Tl6  1  0.94270283  0.66853120  0.66423942  1
  Tl  Tl7  1  0.33146880  0.05729717  0.83576058  1
  Tl  Tl8  1  0.89692576  0.32606758  0.17641327  1
  Tl  Tl9  1  0.67393242  0.10307424  0.32358673  1
  Tl  Tl10  1  0.10307424  0.67393242  0.82358673  1
  Tl  Tl11  1  0.32606758  0.89692576  0.67641327  1
  Tl  Tl12  1  0.27412304  0.34880573  0.50013243  1
  Tl  Tl13  1  0.65119427  0.72587696  0.99986757  1
  Tl  Tl14  1  0.72587696  0.65119427  0.49986757  1
  Tl  Tl15  1  0.34880573  0.27412304  0.00013243  1
  Si  Si16  1  0.44124773  0.68642144  0.37661429  1
  Si  Si17  1  0.68642144  0.44124773  0.87661429  1
  Si  Si18  1  0.55875227  0.31357856  0.62338571  1
  Si  Si19  1  0.31357856  0.55875227  0.12338571  1
  Se  Se20  1  0.60110585  0.69456189  0.29125107  1
  Se  Se21  1  0.70511417  0.10587082  0.88188711  1
  Se  Se22  1  0.10587082  0.70511417  0.38188711  1
  Se  Se23  1  0.29488583  0.89412918  0.11811289  1
  Se  Se24  1  0.33900591  0.62544494  0.57734476  1
  Se  Se25  1  0.89412918  0.29488583  0.61811289  1
  Se  Se26  1  0.66099409  0.37455506  0.42265524  1
  Se  Se27  1  0.62544494  0.33900591  0.07734476  1
  Se  Se28  1  0.96918616  0.41769862  0.91708081  1
  Se  Se29  1  0.58230138  0.03081384  0.58291919  1
  Se  Se30  1  0.03081384  0.58230138  0.08291919  1
  Se  Se31  1  0.41769862  0.96918616  0.41708081  1
  Se  Se32  1  0.30543811  0.39889415  0.20874893  1
  Se  Se33  1  0.39889415  0.30543811  0.70874893  1
  Se  Se34  1  0.69456189  0.60110585  0.79125107  1
  Se  Se35  1  0.37455506  0.66099409  0.92265524  1
