# generated using pymatgen
data_TiInP(SO6)2
_symmetry_space_group_name_H-M   'P 1'
_cell_length_a   8.76651143
_cell_length_b   8.77935864
_cell_length_c   22.61069292
_cell_angle_alpha   89.60690608
_cell_angle_beta   90.00000000
_cell_angle_gamma   119.95160485
_symmetry_Int_Tables_number   1
_chemical_formula_structural   TiInP(SO6)2
_chemical_formula_sum   'Ti6 In6 P6 S12 O72'
_cell_volume   1507.75946831
_cell_formula_units_Z   6
loop_
 _symmetry_equiv_pos_site_id
 _symmetry_equiv_pos_as_xyz
  1  'x, y, z'
loop_
 _atom_site_type_symbol
 _atom_site_label
 _atom_site_symmetry_multiplicity
 _atom_site_fract_x
 _atom_site_fract_y
 _atom_site_fract_z
 _atom_site_occupancy
  Ti  Ti0  1  0.99719077  0.99679081  0.64270795  1
  Ti  Ti1  1  0.99960004  0.99679081  0.14270795  1
  Ti  Ti2  1  0.65873029  0.33028406  0.97634295  1
  Ti  Ti3  1  0.67155477  0.33028406  0.47634295  1
  Ti  Ti4  1  0.34699556  0.65627453  0.30944227  1
  Ti  Ti5  1  0.30927796  0.65627453  0.80944227  1
  In  In6  1  0.00323230  0.00207997  0.35478073  1
  In  In7  1  0.99884767  0.00207997  0.85478073  1
  In  In8  1  0.67316080  0.33712242  0.68855378  1
  In  In9  1  0.66396262  0.33712242  0.18855378  1
  In  In10  1  0.33097598  0.65825214  0.02172959  1
  In  In11  1  0.32727515  0.65825214  0.52172959  1
  P  P12  1  0.71677020  0.72002938  0.25008344  1
  P  P13  1  0.00325918  0.72002938  0.75008344  1
  P  P14  1  0.94841866  0.32192612  0.58327630  1
  P  P15  1  0.37350847  0.32192612  0.08327630  1
  P  P16  1  0.03526133  0.37980136  0.91694772  1
  P  P17  1  0.34453903  0.37980136  0.41694772  1
  S  S18  1  0.28529246  0.98565621  0.24969588  1
  S  S19  1  0.00934476  0.29474419  0.24866924  1
  S  S20  1  0.28539943  0.29474419  0.74866924  1
  S  S21  1  0.70036375  0.98565621  0.74969588  1
  S  S22  1  0.37365478  0.04918101  0.58317080  1
  S  S23  1  0.67556767  0.62764040  0.58278561  1
  S  S24  1  0.95207372  0.62764040  0.08278561  1
  S  S25  1  0.67552723  0.04918101  0.08317080  1
  S  S26  1  0.61771086  0.65852602  0.91647373  1
  S  S27  1  0.34284680  0.95906519  0.91660772  1
  S  S28  1  0.61621739  0.95906519  0.41660772  1
  S  S29  1  0.04081416  0.65852602  0.41647373  1
  O  O30  1  0.21710385  0.02792042  0.30268820  1
  O  O31  1  0.82011782  0.79534347  0.30625905  1
  O  O32  1  0.97282284  0.18962907  0.30297455  1
  O  O33  1  0.21680623  0.18962907  0.80297455  1
  O  O34  1  0.97522564  0.79534347  0.80625905  1
  O  O35  1  0.81081657  0.02792042  0.80268820  1
  O  O36  1  0.79141462  0.96318619  0.69719886  1
  O  O37  1  0.17044052  0.21090571  0.69664653  1
  O  O38  1  0.03386400  0.84248635  0.69564160  1
  O  O39  1  0.80862235  0.84248635  0.19564160  1
  O  O40  1  0.04046520  0.21090571  0.19664653  1
  O  O41  1  0.17177158  0.96318619  0.19719886  1
  O  O42  1  0.87307289  0.35607200  0.63831715  1
  O  O43  1  0.47719490  0.12048157  0.63699594  1
  O  O44  1  0.63348957  0.51956170  0.63646576  1
  O  O45  1  0.88607313  0.51956170  0.13646576  1
  O  O46  1  0.64328767  0.12048157  0.13699594  1
  O  O47  1  0.48300011  0.35607200  0.13831715  1
  O  O48  1  0.46862063  0.29467352  0.02837949  1
  O  O49  1  0.83829715  0.54240852  0.03081713  1
  O  O50  1  0.70489665  0.16439093  0.03054598  1
  O  O51  1  0.45949528  0.16439093  0.53054598  1
  O  O52  1  0.70411237  0.54240852  0.53081713  1
  O  O53  1  0.82605389  0.29467352  0.52837949  1
  O  O54  1  0.55058992  0.69647400  0.97053997  1
  O  O55  1  0.15050159  0.45643737  0.97043088  1
  O  O56  1  0.31183495  0.85567468  0.97089283  1
  O  O57  1  0.54383873  0.85567468  0.47089283  1
  O  O58  1  0.30593477  0.45643737  0.47043088  1
  O  O59  1  0.14588308  0.69647400  0.47053997  1
  O  O60  1  0.12539699  0.63028755  0.36461776  1
  O  O61  1  0.50314669  0.87340681  0.36429750  1
  O  O62  1  0.37398596  0.50439877  0.36098172  1
  O  O63  1  0.13041181  0.50439877  0.86098172  1
  O  O64  1  0.37025912  0.87340681  0.86429750  1
  O  O65  1  0.50488956  0.63028755  0.86461776  1
  O  O66  1  0.00380157  0.80265571  0.40906352  1
  O  O67  1  0.79600108  0.99207596  0.40925109  1
  O  O68  1  0.19433421  0.19643433  0.40546575  1
  O  O69  1  0.00210012  0.19643433  0.90546575  1
  O  O70  1  0.19607489  0.99207596  0.90925109  1
  O  O71  1  0.79885414  0.80265571  0.90906352  1
  O  O72  1  0.95770227  0.14875967  0.59459963  1
  O  O73  1  0.19854041  0.03951407  0.59140964  1
  O  O74  1  0.84331041  0.79955924  0.59205652  1
  O  O75  1  0.95624884  0.79955924  0.09205652  1
  O  O76  1  0.84097366  0.03951407  0.09140964  1
  O  O77  1  0.19105740  0.14875967  0.09459963  1
  O  O78  1  0.66373933  0.12996601  0.74113114  1
  O  O79  1  0.46328238  0.32462193  0.73989905  1
  O  O80  1  0.85442222  0.53473171  0.74183286  1
  O  O81  1  0.68031049  0.53473171  0.24183286  1
  O  O82  1  0.86134055  0.32462193  0.23989905  1
  O  O83  1  0.46622767  0.12996601  0.24113114  1
  O  O84  1  0.62574224  0.49195663  0.92630338  1
  O  O85  1  0.85571500  0.37227383  0.92870470  1
  O  O86  1  0.50947251  0.13355713  0.92422534  1
  O  O87  1  0.62408562  0.13355713  0.42422534  1
  O  O88  1  0.51655983  0.37227383  0.42870470  1
  O  O89  1  0.86621539  0.49195663  0.42630338  1
  O  O90  1  0.33907712  0.47310229  0.07454577  1
  O  O91  1  0.13405785  0.66852333  0.07429515  1
  O  O92  1  0.52709580  0.87166685  0.07442814  1
  O  O93  1  0.34457005  0.87166685  0.57442814  1
  O  O94  1  0.53446448  0.66852333  0.57429515  1
  O  O95  1  0.13402417  0.47310229  0.57454577  1
  O  O96  1  0.28808050  0.81923964  0.25922262  1
  O  O97  1  0.53155184  0.71046164  0.25992060  1
  O  O98  1  0.17337623  0.46978759  0.25768647  1
  O  O99  1  0.29641036  0.46978759  0.75768647  1
  O  O100  1  0.17890880  0.71046164  0.75992060  1
  O  O101  1  0.53115814  0.81923964  0.75922262  1
