# generated using pymatgen
data_Cs2PbO3
_symmetry_space_group_name_H-M   'P 1'
_cell_length_a   6.09484666
_cell_length_b   6.91622049
_cell_length_c   6.91622042
_cell_angle_alpha   110.83340281
_cell_angle_beta   90.00000000
_cell_angle_gamma   90.00000000
_symmetry_Int_Tables_number   1
_chemical_formula_structural   Cs2PbO3
_chemical_formula_sum   'Cs4 Pb2 O6'
_cell_volume   272.48011290
_cell_formula_units_Z   2
loop_
 _symmetry_equiv_pos_site_id
 _symmetry_equiv_pos_as_xyz
  1  'x, y, z'
loop_
 _atom_site_type_symbol
 _atom_site_label
 _atom_site_symmetry_multiplicity
 _atom_site_fract_x
 _atom_site_fract_y
 _atom_site_fract_z
 _atom_site_occupancy
  Cs  Cs0  1  0.25000000  0.48323477  0.80890050  1
  Cs  Cs1  1  0.25000000  0.80890050  0.48323477  1
  Cs  Cs2  1  0.75000000  0.51676523  0.19109950  1
  Cs  Cs3  1  0.75000000  0.19109950  0.51676523  1
  Pb  Pb4  1  0.75000000  0.91059596  0.91059596  1
  Pb  Pb5  1  0.25000000  0.08940404  0.08940404  1
  O  O6  1  0.75000000  0.65014442  0.65014442  1
  O  O7  1  0.25000000  0.34985558  0.34985558  1
  O  O8  1  0.50000000  0.12449150  0.87550850  1
  O  O9  1  -0.00000000  0.87550850  0.12449150  1
  O  O10  1  0.00000000  0.12449150  0.87550850  1
  O  O11  1  0.50000000  0.87550850  0.12449150  1
