# generated using pymatgen
data_WO3
_symmetry_space_group_name_H-M   'P 1'
_cell_length_a   7.66520096
_cell_length_b   7.66976861
_cell_length_c   7.74595255
_cell_angle_alpha   89.64604646
_cell_angle_beta   89.73767537
_cell_angle_gamma   89.74794137
_symmetry_Int_Tables_number   1
_chemical_formula_structural   WO3
_chemical_formula_sum   'W8 O24'
_cell_volume   455.36919859
_cell_formula_units_Z   8
loop_
 _symmetry_equiv_pos_site_id
 _symmetry_equiv_pos_as_xyz
  1  'x, y, z'
loop_
 _atom_site_type_symbol
 _atom_site_label
 _atom_site_symmetry_multiplicity
 _atom_site_fract_x
 _atom_site_fract_y
 _atom_site_fract_z
 _atom_site_occupancy
  W  W0  1  0.74396501  0.00529423  0.26691134  1
  W  W1  1  0.25603499  0.99470577  0.73308866  1
  W  W2  1  0.74597792  0.50628096  0.23327506  1
  W  W3  1  0.25402208  0.49371904  0.76672494  1
  W  W4  1  0.75573173  0.00355357  0.76646384  1
  W  W5  1  0.24426827  0.99644643  0.23353616  1
  W  W6  1  0.75433960  0.50452157  0.73369964  1
  W  W7  1  0.24566040  0.49547843  0.26630036  1
  O  O8  1  0.99879011  0.02019197  0.22952021  1
  O  O9  1  0.00120989  0.97980803  0.77047979  1
  O  O10  1  0.49906120  0.52037831  0.23048171  1
  O  O11  1  0.50093880  0.47962169  0.76951829  1
  O  O12  1  0.99892277  0.47902748  0.26955810  1
  O  O13  1  0.00107723  0.52097252  0.73044190  1
  O  O14  1  0.49883763  0.97921850  0.27033016  1
  O  O15  1  0.50116237  0.02078150  0.72966984  1
  O  O16  1  0.72963545  0.25168491  0.26531014  1
  O  O17  1  0.27036455  0.74831509  0.73468986  1
  O  O18  1  0.77093449  0.75178315  0.23476254  1
  O  O19  1  0.22906551  0.24821685  0.76523746  1
  O  O20  1  0.77027696  0.25123060  0.73551229  1
  O  O21  1  0.22972304  0.74876940  0.26448771  1
  O  O22  1  0.72916846  0.75122840  0.76442923  1
  O  O23  1  0.27083154  0.24877160  0.23557077  1
  O  O24  1  0.72987344  0.01603339  0.00349754  1
  O  O25  1  0.27012656  0.98396661  0.99650246  1
  O  O26  1  0.73068847  0.51624140  0.49649127  1
  O  O27  1  0.26931153  0.48375860  0.50350873  1
  O  O28  1  0.76941893  0.48630016  0.99650435  1
  O  O29  1  0.23058107  0.51369984  0.00349565  1
  O  O30  1  0.77007526  0.98614154  0.50349602  1
  O  O31  1  0.22992474  0.01385846  0.49650398  1
