# generated using pymatgen
data_Na10Hf4Si9Ge4(SO16)3
_symmetry_space_group_name_H-M   'P 1'
_cell_length_a   17.80504921
_cell_length_b   8.91435141
_cell_length_c   22.38192604
_cell_angle_alpha   90.34992247
_cell_angle_beta   89.64565150
_cell_angle_gamma   120.15375012
_symmetry_Int_Tables_number   1
_chemical_formula_structural   Na10Hf4Si9Ge4(SO16)3
_chemical_formula_sum   'Na30 Hf12 Si27 Ge12 S9 O144'
_cell_volume   3071.67427997
_cell_formula_units_Z   3
loop_
 _symmetry_equiv_pos_site_id
 _symmetry_equiv_pos_as_xyz
  1  'x, y, z'
loop_
 _atom_site_type_symbol
 _atom_site_label
 _atom_site_symmetry_multiplicity
 _atom_site_fract_x
 _atom_site_fract_y
 _atom_site_fract_z
 _atom_site_occupancy
  Na  Na0  1  0.31953486  0.00079957  0.24909064  1
  Na  Na1  1  0.81964114  0.00067890  0.25050562  1
  Na  Na2  1  0.18416233  0.99333834  0.74505501  1
  Na  Na3  1  0.68144514  0.99638222  0.74498027  1
  Na  Na4  1  0.01820914  0.70498589  0.57985879  1
  Na  Na5  1  0.52011375  0.70116475  0.57908556  1
  Na  Na6  1  0.02068049  0.33030784  0.07955143  1
  Na  Na7  1  0.51308514  0.33025283  0.08141300  1
  Na  Na8  1  0.48424052  0.66334561  0.91604842  1
  Na  Na9  1  0.34634706  0.02648903  0.91741136  1
  Na  Na10  1  0.85065435  0.04219756  0.91297327  1
  Na  Na11  1  0.16619495  0.30676478  0.92157582  1
  Na  Na12  1  0.48352242  0.30215655  0.41582540  1
  Na  Na13  1  0.98377584  0.30192759  0.41651478  1
  Na  Na14  1  0.16717110  0.02983142  0.42042724  1
  Na  Na15  1  0.66402605  0.03371544  0.41700180  1
  Na  Na16  1  0.35276552  0.67088392  0.41576145  1
  Na  Na17  1  0.84856819  0.66486940  0.41727800  1
  Na  Na18  1  0.00166748  0.00360254  0.50038089  1
  Na  Na19  1  0.50051743  0.00561254  0.50214792  1
  Na  Na20  1  0.00780184  0.00183244  0.00136537  1
  Na  Na21  1  0.50504132  0.00518151  0.00100930  1
  Na  Na22  1  0.34152381  0.34178484  0.83095802  1
  Na  Na23  1  0.84481634  0.34689087  0.83013838  1
  Na  Na24  1  0.33877730  0.35110540  0.33019479  1
  Na  Na25  1  0.83823162  0.35068012  0.33279356  1
  Na  Na26  1  0.17444869  0.66066322  0.16961910  1
  Na  Na27  1  0.67020598  0.65970736  0.17054561  1
  Na  Na28  1  0.17650190  0.67432859  0.66708781  1
  Na  Na29  1  0.67562615  0.67015018  0.66219420  1
  Hf  Hf30  1  0.99580644  0.99632755  0.35332524  1
  Hf  Hf31  1  0.99686600  0.99416842  0.84937841  1
  Hf  Hf32  1  0.49528354  0.99671850  0.85186901  1
  Hf  Hf33  1  0.99389282  0.98244311  0.64334609  1
  Hf  Hf34  1  0.99906895  0.01183122  0.14906765  1
  Hf  Hf35  1  0.82880732  0.33518524  0.18914897  1
  Hf  Hf36  1  0.82657660  0.32079156  0.98194551  1
  Hf  Hf37  1  0.17473126  0.67407708  0.02199990  1
  Hf  Hf38  1  0.66502324  0.66599509  0.02307072  1
  Hf  Hf39  1  0.17662771  0.67845955  0.52183171  1
  Hf  Hf40  1  0.16935489  0.67219927  0.81396982  1
  Hf  Hf41  1  0.65902005  0.66642727  0.80977098  1
  Si  Si42  1  0.35861898  0.71209867  0.24955487  1
  Si  Si43  1  0.84554040  0.70126830  0.25331940  1
  Si  Si44  1  0.00677023  0.31406588  0.25314082  1
  Si  Si45  1  0.50136800  0.29864679  0.25194510  1
  Si  Si46  1  0.99445990  0.68957486  0.74603737  1
  Si  Si47  1  0.49161238  0.69503547  0.74582740  1
  Si  Si48  1  0.35907606  0.00935584  0.74313694  1
  Si  Si49  1  0.85220147  0.00990053  0.74803101  1
  Si  Si50  1  0.19476980  0.05963297  0.58319520  1
  Si  Si51  1  0.68902706  0.04709040  0.58389198  1
  Si  Si52  1  0.33253328  0.60911244  0.58552653  1
  Si  Si53  1  0.82375732  0.60324790  0.58051115  1
  Si  Si54  1  0.33068355  0.05381491  0.08719514  1
  Si  Si55  1  0.83225264  0.03584781  0.08568645  1
  Si  Si56  1  0.19551824  0.33247251  0.08513720  1
  Si  Si57  1  0.67843365  0.31896761  0.08705816  1
  Si  Si58  1  0.31335063  0.65594539  0.91749423  1
  Si  Si59  1  0.01961789  0.37821735  0.91807775  1
  Si  Si60  1  0.51654815  0.37030889  0.92046632  1
  Si  Si61  1  0.16460182  0.95771001  0.91854470  1
  Si  Si62  1  0.66568895  0.96123018  0.91580167  1
  Si  Si63  1  0.31281996  0.96107773  0.41220099  1
  Si  Si64  1  0.80538340  0.95355929  0.41704183  1
  Si  Si65  1  0.16933244  0.37944326  0.41818289  1
  Si  Si66  1  0.66369933  0.37905713  0.41775575  1
  Si  Si67  1  0.02228554  0.65803574  0.41811451  1
  Si  Si68  1  0.52595779  0.66757786  0.41772794  1
  Ge  Ge69  1  0.49373402  0.99692154  0.35227092  1
  Ge  Ge70  1  0.49300151  0.96504873  0.64475048  1
  Ge  Ge71  1  0.49068846  0.02237535  0.14855709  1
  Ge  Ge72  1  0.33822638  0.33221751  0.68330411  1
  Ge  Ge73  1  0.83106623  0.33203453  0.68416357  1
  Ge  Ge74  1  0.33654569  0.34649470  0.18667551  1
  Ge  Ge75  1  0.32620690  0.31391181  0.97847369  1
  Ge  Ge76  1  0.32989369  0.34094019  0.47769038  1
  Ge  Ge77  1  0.82270010  0.33075173  0.47714073  1
  Ge  Ge78  1  0.67421735  0.67707518  0.51753698  1
  Ge  Ge79  1  0.16965139  0.64900991  0.31793221  1
  Ge  Ge80  1  0.66479122  0.64515658  0.31774818  1
  S  S81  1  0.14874920  0.00070480  0.24989162  1
  S  S82  1  0.63808838  0.99324806  0.25069445  1
  S  S83  1  0.14787194  0.29325452  0.74742551  1
  S  S84  1  0.64526377  0.28845166  0.74599261  1
  S  S85  1  0.47867712  0.32901579  0.58188254  1
  S  S86  1  0.97455517  0.33108301  0.58240658  1
  S  S87  1  0.47489495  0.62753750  0.08466111  1
  S  S88  1  0.97845037  0.62637960  0.08406511  1
  S  S89  1  0.81033275  0.66339188  0.91571231  1
  O  O90  1  0.10763718  0.02199863  0.30511524  1
  O  O91  1  0.60234017  0.02497584  0.30767054  1
  O  O92  1  0.41722991  0.79656592  0.31114017  1
  O  O93  1  0.90439736  0.78793508  0.31285578  1
  O  O94  1  0.48000833  0.16322720  0.30895660  1
  O  O95  1  0.98892645  0.18465262  0.30988709  1
  O  O96  1  0.10619653  0.18811290  0.80299911  1
  O  O97  1  0.60645960  0.18192195  0.80068357  1
  O  O98  1  0.48224461  0.78556853  0.80626584  1
  O  O99  1  0.98172100  0.78857118  0.80421495  1
  O  O100  1  0.41193230  0.04053517  0.80558921  1
  O  O101  1  0.90726008  0.03650113  0.80981395  1
  O  O102  1  0.41179609  0.98258093  0.68681593  1
  O  O103  1  0.90365208  0.98692957  0.69221181  1
  O  O104  1  0.09392200  0.20536536  0.69519354  1
  O  O105  1  0.59254134  0.21032229  0.69275632  1
  O  O106  1  0.01649844  0.82021207  0.68852928  1
  O  O107  1  0.51992719  0.83094523  0.68889724  1
  O  O108  1  0.40539198  0.84819455  0.19258276  1
  O  O109  1  0.89624049  0.83160371  0.19708102  1
  O  O110  1  0.01958712  0.22248955  0.19255704  1
  O  O111  1  0.51866511  0.21621195  0.19072865  1
  O  O112  1  0.09453376  0.97972922  0.19744894  1
  O  O113  1  0.58668630  0.97563117  0.19763658  1
  O  O114  1  0.43862403  0.36217101  0.63597804  1
  O  O115  1  0.93377971  0.35942144  0.63641109  1
  O  O116  1  0.25128786  0.14391736  0.64434928  1
  O  O117  1  0.74843419  0.13374153  0.64387445  1
  O  O118  1  0.32274802  0.48991986  0.64249070  1
  O  O119  1  0.81511752  0.48788317  0.63951928  1
  O  O120  1  0.43799445  0.51140122  0.13798825  1
  O  O121  1  0.93558070  0.51624864  0.13700704  1
  O  O122  1  0.32386522  0.15183064  0.14755695  1
  O  O123  1  0.82313350  0.12969937  0.14532257  1
  O  O124  1  0.25651137  0.36545680  0.14357975  1
  O  O125  1  0.74303277  0.35796759  0.14252209  1
  O  O126  1  0.23827220  0.30861882  0.02246732  1
  O  O127  1  0.72465690  0.29781313  0.02684867  1
  O  O128  1  0.42602126  0.55030777  0.02905470  1
  O  O129  1  0.92657864  0.54844565  0.02953753  1
  O  O130  1  0.35379882  0.17533745  0.02606388  1
  O  O131  1  0.84975034  0.15848081  0.02654929  1
  O  O132  1  0.24077024  0.17003801  0.52123622  1
  O  O133  1  0.73152667  0.16298548  0.52282268  1
  O  O134  1  0.35507253  0.53557179  0.52313753  1
  O  O135  1  0.84961042  0.52613311  0.52067588  1
  O  O136  1  0.42666692  0.30242147  0.52678300  1
  O  O137  1  0.92439964  0.30469372  0.52686311  1
  O  O138  1  0.27317805  0.70632613  0.97424752  1
  O  O139  1  0.77070849  0.69140766  0.96994190  1
  O  O140  1  0.07847433  0.45579016  0.97851238  1
  O  O141  1  0.57393172  0.45574679  0.97989380  1
  O  O142  1  0.14958658  0.83706181  0.97548817  1
  O  O143  1  0.65210064  0.83566382  0.97230646  1
  O  O144  1  0.27391989  0.83592609  0.47020932  1
  O  O145  1  0.76761946  0.82495808  0.47457815  1
  O  O146  1  0.14564780  0.46033148  0.47472706  1
  O  O147  1  0.64124757  0.46580523  0.47481978  1
  O  O148  1  0.07954608  0.69912121  0.47880028  1
  O  O149  1  0.58600838  0.70786148  0.47841573  1
  O  O150  1  0.07068110  0.62226752  0.36117580  1
  O  O151  1  0.56897178  0.62183203  0.36047192  1
  O  O152  1  0.24737850  0.87248385  0.35447063  1
  O  O153  1  0.74449643  0.87077087  0.35718694  1
  O  O154  1  0.19420392  0.50627656  0.35962778  1
  O  O155  1  0.69206812  0.50678056  0.35971824  1
  O  O156  1  0.06885131  0.49315543  0.85972291  1
  O  O157  1  0.56237046  0.49792731  0.86306403  1
  O  O158  1  0.18735678  0.88372688  0.85774495  1
  O  O159  1  0.68463098  0.87531827  0.85656428  1
  O  O160  1  0.25146402  0.61614555  0.85975025  1
  O  O161  1  0.75882858  0.63927571  0.86202349  1
  O  O162  1  0.01149064  0.82941848  0.41069108  1
  O  O163  1  0.51424757  0.84050435  0.40890422  1
  O  O164  1  0.40992867  0.97871396  0.40757768  1
  O  O165  1  0.90415204  0.98225128  0.41278443  1
  O  O166  1  0.08699039  0.18368914  0.41083386  1
  O  O167  1  0.57880586  0.18176938  0.40720122  1
  O  O168  1  0.00681328  0.18073185  0.91197231  1
  O  O169  1  0.50244563  0.17755972  0.91284247  1
  O  O170  1  0.08405019  0.99358012  0.91017863  1
  O  O171  1  0.57950473  0.97453542  0.90985937  1
  O  O172  1  0.40809082  0.82924997  0.91109654  1
  O  O173  1  0.89695797  0.82556891  0.91189789  1
  O  O174  1  0.48910716  0.17662626  0.58794543  1
  O  O175  1  0.98717436  0.18053088  0.58806791  1
  O  O176  1  0.09675884  0.03570943  0.58513714  1
  O  O177  1  0.58890746  0.02446739  0.59172206  1
  O  O178  1  0.42274377  0.80613915  0.58840362  1
  O  O179  1  0.91345565  0.79704116  0.58527732  1
  O  O180  1  0.48536408  0.79971536  0.09239824  1
  O  O181  1  0.98987521  0.80041343  0.09065126  1
  O  O182  1  0.41984221  0.03508518  0.09109215  1
  O  O183  1  0.92220846  0.02593846  0.08660106  1
  O  O184  1  0.09793270  0.15848584  0.08912201  1
  O  O185  1  0.58202849  0.13811678  0.09429866  1
  O  O186  1  0.34306319  0.17767409  0.73736788  1
  O  O187  1  0.83620399  0.17677917  0.74083572  1
  O  O188  1  0.23321561  0.30187349  0.74545684  1
  O  O189  1  0.73268470  0.30277770  0.74294675  1
  O  O190  1  0.40674028  0.50327861  0.73824531  1
  O  O191  1  0.90564074  0.50243591  0.73732463  1
  O  O192  1  0.34805303  0.51812447  0.24107483  1
  O  O193  1  0.83586341  0.51203177  0.24848247  1
  O  O194  1  0.41022312  0.30704986  0.24371517  1
  O  O195  1  0.91545860  0.31468523  0.24735887  1
  O  O196  1  0.23634179  0.16020077  0.24690563  1
  O  O197  1  0.72861968  0.14945042  0.24759171  1
  O  O198  1  0.32495816  0.48676221  0.92680849  1
  O  O199  1  0.82338051  0.51434666  0.92201315  1
  O  O200  1  0.42089915  0.35813089  0.92676102  1
  O  O201  1  0.92331891  0.35731839  0.92179429  1
  O  O202  1  0.25461243  0.14999735  0.92350606  1
  O  O203  1  0.75374054  0.15036026  0.91943855  1
  O  O204  1  0.32466682  0.15574449  0.42202077  1
  O  O205  1  0.81785377  0.15022335  0.42577730  1
  O  O206  1  0.25824939  0.36418321  0.42275940  1
  O  O207  1  0.75037476  0.35586632  0.42333056  1
  O  O208  1  0.42767526  0.49187676  0.42553946  1
  O  O209  1  0.92319898  0.48234120  0.42355095  1
  O  O210  1  0.17641514  0.49505418  0.08176339  1
  O  O211  1  0.66326025  0.48499553  0.08164735  1
  O  O212  1  0.06327732  0.63479203  0.08070325  1
  O  O213  1  0.56270582  0.64177904  0.08048150  1
  O  O214  1  0.24599145  0.86258755  0.08416108  1
  O  O215  1  0.74776903  0.84519738  0.08077079  1
  O  O216  1  0.17751970  0.85975122  0.58078904  1
  O  O217  1  0.67342328  0.84582780  0.57661537  1
  O  O218  1  0.24812126  0.63187284  0.58214433  1
  O  O219  1  0.73838178  0.62793570  0.57411069  1
  O  O220  1  0.06116646  0.49203971  0.57986384  1
  O  O221  1  0.56418659  0.49299487  0.57869894  1
  O  O222  1  0.15856575  0.84664962  0.25288190  1
  O  O223  1  0.64969555  0.84120403  0.25457521  1
  O  O224  1  0.26393294  0.70496911  0.25815935  1
  O  O225  1  0.75284594  0.70312443  0.25905074  1
  O  O226  1  0.09535448  0.50445476  0.25898489  1
  O  O227  1  0.58802026  0.48932550  0.26030431  1
  O  O228  1  0.15743634  0.46573034  0.75171072  1
  O  O229  1  0.65740374  0.46389394  0.75430711  1
  O  O230  1  0.08372309  0.68171943  0.75265358  1
  O  O231  1  0.58099851  0.68342256  0.75029266  1
  O  O232  1  0.26217017  0.83750270  0.74877447  1
  O  O233  1  0.75680167  0.83291974  0.75256713  1
