# generated using pymatgen
data_HfSnP2SO12
_symmetry_space_group_name_H-M   'P 1'
_cell_length_a   8.81823808
_cell_length_b   8.82373097
_cell_length_c   22.86155621
_cell_angle_alpha   90.14209334
_cell_angle_beta   89.96050403
_cell_angle_gamma   119.89985640
_symmetry_Int_Tables_number   1
_chemical_formula_structural   HfSnP2SO12
_chemical_formula_sum   'Hf6 Sn6 P12 S6 O72'
_cell_volume   1542.07837287
_cell_formula_units_Z   6
loop_
 _symmetry_equiv_pos_site_id
 _symmetry_equiv_pos_as_xyz
  1  'x, y, z'
loop_
 _atom_site_type_symbol
 _atom_site_label
 _atom_site_symmetry_multiplicity
 _atom_site_fract_x
 _atom_site_fract_y
 _atom_site_fract_z
 _atom_site_occupancy
  Hf  Hf0  1  0.00332408  0.00392739  0.85588598  1
  Hf  Hf1  1  0.66888023  0.33448054  0.19015466  1
  Hf  Hf2  1  0.65893407  0.33926159  0.97800654  1
  Hf  Hf3  1  0.33283653  0.66937430  0.02339196  1
  Hf  Hf4  1  0.33549189  0.66852008  0.52279724  1
  Hf  Hf5  1  0.34666722  0.67188286  0.80994844  1
  Sn  Sn6  1  0.99942471  0.00083243  0.35483405  1
  Sn  Sn7  1  0.99201024  0.00365861  0.64572414  1
  Sn  Sn8  1  0.01273396  0.00508385  0.14609376  1
  Sn  Sn9  1  0.66664254  0.33498278  0.68774393  1
  Sn  Sn10  1  0.67998379  0.33825377  0.47882462  1
  Sn  Sn11  1  0.32525474  0.67137578  0.31318544  1
  P  P12  1  0.28770286  0.99920739  0.25115719  1
  P  P13  1  0.00450445  0.28867186  0.25093501  1
  P  P14  1  0.28904358  0.28580988  0.74867966  1
  P  P15  1  0.71442354  0.00629316  0.74948400  1
  P  P16  1  0.95460941  0.33282078  0.58424329  1
  P  P17  1  0.67041442  0.62158195  0.58386115  1
  P  P18  1  0.95246365  0.62389404  0.08427885  1
  P  P19  1  0.37697122  0.33272822  0.08446393  1
  P  P20  1  0.62207092  0.66985143  0.91695095  1
  P  P21  1  0.33425330  0.95344921  0.91658248  1
  P  P22  1  0.62255257  0.95641005  0.41640149  1
  P  P23  1  0.04377151  0.66944950  0.41687373  1
  S  S24  1  0.70779124  0.71224713  0.25024124  1
  S  S25  1  -0.00035595  0.71097979  0.74933268  1
  S  S26  1  0.37500503  0.04577886  0.58330966  1
  S  S27  1  0.67117324  0.04576151  0.08390077  1
  S  S28  1  0.04460922  0.38007741  0.91664385  1
  S  S29  1  0.33552348  0.37708542  0.41661408  1
  O  O30  1  0.20823512  0.03512802  0.30593279  1
  O  O31  1  0.81836968  0.78569352  0.30291634  1
  O  O32  1  0.96560549  0.17270643  0.30561282  1
  O  O33  1  0.20235133  0.17023506  0.80258058  1
  O  O34  1  0.96986876  0.79268914  0.80127710  1
  O  O35  1  0.82877817  0.03218827  0.80325944  1
  O  O36  1  0.78639127  0.96232942  0.69444200  1
  O  O37  1  0.17651712  0.20566305  0.69321123  1
  O  O38  1  0.03365479  0.81892045  0.69601058  1
  O  O39  1  0.78398128  0.82099514  0.19735480  1
  O  O40  1  0.03386371  0.20658931  0.19526373  1
  O  O41  1  0.17162241  0.95939038  0.19634625  1
  O  O42  1  0.87533240  0.36861945  0.63909553  1
  O  O43  1  0.48507535  0.11891421  0.63610606  1
  O  O44  1  0.63179369  0.50636212  0.63871992  1
  O  O45  1  0.86775160  0.50776186  0.13823925  1
  O  O46  1  0.63948370  0.12456066  0.13627248  1
  O  O47  1  0.49232104  0.36040617  0.13817804  1
  O  O48  1  0.46241442  0.30151363  0.03005785  1
  O  O49  1  0.83974472  0.53508399  0.02974886  1
  O  O50  1  0.69919467  0.15328577  0.03146976  1
  O  O51  1  0.45138562  0.15473721  0.53048139  1
  O  O52  1  0.70005096  0.53907624  0.52838968  1
  O  O53  1  0.83805551  0.29288164  0.52952961  1
  O  O54  1  0.53499481  0.69633323  0.97097592  1
  O  O55  1  0.15470490  0.45858593  0.96904550  1
  O  O56  1  0.30393561  0.83860490  0.97080673  1
  O  O57  1  0.53527007  0.83954448  0.47006782  1
  O  O58  1  0.30577177  0.45910538  0.46851005  1
  O  O59  1  0.15998674  0.69628596  0.47040574  1
  O  O60  1  0.11868537  0.62880953  0.36163390  1
  O  O61  1  0.51097404  0.87486588  0.36062308  1
  O  O62  1  0.36833151  0.48478885  0.36322511  1
  O  O63  1  0.12348765  0.48724482  0.86416184  1
  O  O64  1  0.35915413  0.86504548  0.86218018  1
  O  O65  1  0.50553045  0.63570273  0.86258413  1
  O  O66  1  0.02677354  0.83350720  0.40854375  1
  O  O67  1  0.80501540  0.97526252  0.40864051  1
  O  O68  1  0.17726685  0.20385129  0.41041291  1
  O  O69  1  0.02699826  0.20554758  0.90891386  1
  O  O70  1  0.17340206  0.97508560  0.90668941  1
  O  O71  1  0.80293612  0.82901550  0.90626082  1
  O  O72  1  0.97669937  0.17136150  0.59059498  1
  O  O73  1  0.19945623  0.02409377  0.59134462  1
  O  O74  1  0.83473838  0.80246304  0.59217896  1
  O  O75  1  0.96853558  0.80506680  0.09220361  1
  O  O76  1  0.82527822  0.02396587  0.09187043  1
  O  O77  1  0.19385774  0.17029482  0.08994796  1
  O  O78  1  0.69392849  0.16789637  0.74139570  1
  O  O79  1  0.47211146  0.30632918  0.74143881  1
  O  O80  1  0.84190199  0.53725445  0.74328198  1
  O  O81  1  0.69098634  0.53869087  0.24203263  1
  O  O82  1  0.84306904  0.30886453  0.24062285  1
  O  O83  1  0.46771218  0.16059365  0.24049980  1
  O  O84  1  0.64286020  0.50768561  0.92505456  1
  O  O85  1  0.86977336  0.35749221  0.92570146  1
  O  O86  1  0.49669027  0.13363551  0.92671290  1
  O  O87  1  0.63752055  0.13732376  0.42515503  1
  O  O88  1  0.49039429  0.35623244  0.42490346  1
  O  O89  1  0.86040028  0.50715631  0.42345775  1
  O  O90  1  0.35810348  0.49409213  0.07368604  1
  O  O91  1  0.13435226  0.64417499  0.07415931  1
  O  O92  1  0.51443080  0.87179774  0.07614898  1
  O  O93  1  0.35814507  0.87204840  0.57510114  1
  O  O94  1  0.50904528  0.64219560  0.57353811  1
  O  O95  1  0.13468908  0.49447259  0.57342852  1
  O  O96  1  0.31006022  0.83770763  0.25744315  1
  O  O97  1  0.53222673  0.69080859  0.25838303  1
  O  O98  1  0.16887761  0.46976330  0.25924589  1
  O  O99  1  0.30550263  0.46572193  0.75908237  1
  O  O100  1  0.15304544  0.68980223  0.75831120  1
  O  O101  1  0.53183364  0.84436459  0.75835265  1
