# generated using pymatgen
data_Ba2MgVMoO6
_symmetry_space_group_name_H-M   'P 1'
_cell_length_a   5.85008405
_cell_length_b   5.85008405
_cell_length_c   6.46812526
_cell_angle_alpha   63.11353131
_cell_angle_beta   63.11353131
_cell_angle_gamma   60.00000000
_symmetry_Int_Tables_number   1
_chemical_formula_structural   Ba2MgVMoO6
_chemical_formula_sum   'Ba2 Mg1 V1 Mo1 O6'
_cell_volume   163.49232646
_cell_formula_units_Z   1
loop_
 _symmetry_equiv_pos_site_id
 _symmetry_equiv_pos_as_xyz
  1  'x, y, z'
loop_
 _atom_site_type_symbol
 _atom_site_label
 _atom_site_symmetry_multiplicity
 _atom_site_fract_x
 _atom_site_fract_y
 _atom_site_fract_z
 _atom_site_occupancy
  Ba  Ba0  1  0.19895585  0.19895585  0.40313244  1
  Ba  Ba1  1  0.73784234  0.73784234  0.78647297  1
  Mg  Mg2  1  0.36561560  0.36561560  0.90315320  1
  V  V3  1  0.99318281  0.99318281  0.02045156  1
  Mo  Mo4  1  0.52262788  0.52262788  0.43211637  1
  O  O5  1  0.76446506  0.26450084  0.20656903  1
  O  O6  1  0.75127468  0.25603493  0.73665546  1
  O  O7  1  0.76446506  0.76446506  0.20656903  1
  O  O8  1  0.25603493  0.75127468  0.73665546  1
  O  O9  1  0.26450084  0.76446506  0.20656903  1
  O  O10  1  0.25603493  0.25603493  0.73665546  1
