# generated using pymatgen
data_ScNb3Si3(SO8)3
_symmetry_space_group_name_H-M   'P 1'
_cell_length_a   8.93754271
_cell_length_b   8.92767382
_cell_length_c   22.97832879
_cell_angle_alpha   89.58202790
_cell_angle_beta   89.82270358
_cell_angle_gamma   119.94693223
_symmetry_Int_Tables_number   1
_chemical_formula_structural   ScNb3Si3(SO8)3
_chemical_formula_sum   'Sc3 Nb9 Si9 S9 O72'
_cell_volume   1588.59365785
_cell_formula_units_Z   3
loop_
 _symmetry_equiv_pos_site_id
 _symmetry_equiv_pos_as_xyz
  1  'x, y, z'
loop_
 _atom_site_type_symbol
 _atom_site_label
 _atom_site_symmetry_multiplicity
 _atom_site_fract_x
 _atom_site_fract_y
 _atom_site_fract_z
 _atom_site_occupancy
  Sc  Sc0  1  0.00229665  0.00916162  0.36115148  1
  Sc  Sc1  1  0.67775335  0.34546658  0.69482419  1
  Sc  Sc2  1  0.67386892  0.32886773  0.18604583  1
  Nb  Nb3  1  0.00751206  0.98649051  0.85803643  1
  Nb  Nb4  1  0.01478942  0.01587156  0.64655761  1
  Nb  Nb5  1  0.99867012  0.99475076  0.13924171  1
  Nb  Nb6  1  0.67953529  0.33966881  0.97388111  1
  Nb  Nb7  1  0.66914094  0.32267285  0.47471053  1
  Nb  Nb8  1  0.34405307  0.68764555  0.02328272  1
  Nb  Nb9  1  0.33683136  0.65489457  0.52361233  1
  Nb  Nb10  1  0.34475678  0.66986037  0.31149440  1
  Nb  Nb11  1  0.34146821  0.67238369  0.80734814  1
  Si  Si12  1  0.28835516  0.28731077  0.75270323  1
  Si  Si13  1  0.00269443  0.71420096  0.74956325  1
  Si  Si14  1  0.94770524  0.33105260  0.58506317  1
  Si  Si15  1  0.95147825  0.60995872  0.08344827  1
  Si  Si16  1  0.66811485  0.05480793  0.08447249  1
  Si  Si17  1  0.61479130  0.66690558  0.91580153  1
  Si  Si18  1  0.34225924  0.95663220  0.91547868  1
  Si  Si19  1  0.61669259  0.94731237  0.41681552  1
  Si  Si20  1  0.33919612  0.38067953  0.41717610  1
  S  S21  1  0.28330481  0.99760723  0.25079107  1
  S  S22  1  0.71477727  0.71442567  0.25007785  1
  S  S23  1  0.00393799  0.28878780  0.25048311  1
  S  S24  1  0.71819475  0.99921612  0.75021749  1
  S  S25  1  0.37982464  0.04452643  0.58258904  1
  S  S26  1  0.67128691  0.62193565  0.58320209  1
  S  S27  1  0.38051241  0.33472878  0.08340043  1
  S  S28  1  0.05181980  0.38168458  0.91596036  1
  S  S29  1  0.05029765  0.66416883  0.41679077  1
  O  O30  1  0.19912564  0.01655665  0.30252463  1
  O  O31  1  0.81782038  0.79369458  0.30153865  1
  O  O32  1  0.97922500  0.18183820  0.30234860  1
  O  O33  1  0.17784445  0.16579960  0.80773539  1
  O  O34  1  0.97873342  0.81221101  0.80717397  1
  O  O35  1  0.81992218  0.02177587  0.80246273  1
  O  O36  1  0.79892678  0.97067110  0.69712190  1
  O  O37  1  0.16062589  0.19730209  0.69338501  1
  O  O38  1  0.02901596  0.84156041  0.69266212  1
  O  O39  1  0.79636858  0.82687110  0.19730616  1
  O  O40  1  0.03534774  0.21057937  0.19818901  1
  O  O41  1  0.17402148  0.97101318  0.19813853  1
  O  O42  1  0.86196487  0.36231302  0.63984908  1
  O  O43  1  0.48290005  0.11659388  0.63377083  1
  O  O44  1  0.63029103  0.51394090  0.63480143  1
  O  O45  1  0.86616469  0.50621996  0.14196882  1
  O  O46  1  0.62992570  0.12686394  0.14217856  1
  O  O47  1  0.48240843  0.36415098  0.13604367  1
  O  O48  1  0.45241649  0.29696584  0.03179322  1
  O  O49  1  0.82943488  0.52835380  0.02649990  1
  O  O50  1  0.69991306  0.17379734  0.02709567  1
  O  O51  1  0.46063148  0.15721531  0.52930929  1
  O  O52  1  0.69386407  0.54075195  0.53055457  1
  O  O53  1  0.82909027  0.30875894  0.52588173  1
  O  O54  1  0.51611083  0.68519976  0.97300377  1
  O  O55  1  0.15319851  0.45669231  0.96865889  1
  O  O56  1  0.30621088  0.83430067  0.97384768  1
  O  O57  1  0.51252410  0.83194594  0.47299621  1
  O  O58  1  0.31111619  0.47918325  0.47297735  1
  O  O59  1  0.15524320  0.68948673  0.46880542  1
  O  O60  1  0.12743791  0.63088627  0.36398158  1
  O  O61  1  0.48978466  0.85817436  0.35860114  1
  O  O62  1  0.36489478  0.50950756  0.35958906  1
  O  O63  1  0.12769894  0.49106282  0.86377943  1
  O  O64  1  0.36645389  0.86032139  0.86017707  1
  O  O65  1  0.49445054  0.63600415  0.85921626  1
  O  O66  1  0.02977422  0.81458500  0.40786555  1
  O  O67  1  0.79944529  0.96523906  0.40602898  1
  O  O68  1  0.17667412  0.19617997  0.40667628  1
  O  O69  1  0.02240343  0.20569387  0.90830400  1
  O  O70  1  0.16984730  0.97578315  0.90828080  1
  O  O71  1  0.80180757  0.83991475  0.90526876  1
  O  O72  1  0.97156269  0.16018642  0.59269106  1
  O  O73  1  0.20488696  0.02828572  0.58837819  1
  O  O74  1  0.82092059  0.79651434  0.58984745  1
  O  O75  1  0.98203986  0.81189393  0.09654072  1
  O  O76  1  0.84103183  0.03002862  0.09716633  1
  O  O77  1  0.20259357  0.17416793  0.09426752  1
  O  O78  1  0.69132741  0.14540714  0.74239778  1
  O  O79  1  0.46435316  0.29498316  0.73892797  1
  O  O80  1  0.83523314  0.53034185  0.74408990  1
  O  O81  1  0.68113321  0.53952081  0.24130844  1
  O  O82  1  0.85347921  0.31123046  0.24374503  1
  O  O83  1  0.45506869  0.14737555  0.24268369  1
  O  O84  1  0.64048648  0.50007341  0.92927599  1
  O  O85  1  0.87600624  0.36686635  0.92276152  1
  O  O86  1  0.50704983  0.14556560  0.92928007  1
  O  O87  1  0.63038303  0.13807951  0.42676392  1
  O  O88  1  0.51578840  0.37742857  0.43094538  1
  O  O89  1  0.87567498  0.50721411  0.42472722  1
  O  O90  1  0.34717926  0.47823013  0.07368299  1
  O  O91  1  0.14030247  0.63417308  0.06967025  1
  O  O92  1  0.50931734  0.85712933  0.07260470  1
  O  O93  1  0.35191750  0.86864157  0.57099887  1
  O  O94  1  0.51339994  0.64487960  0.57349030  1
  O  O95  1  0.14095201  0.49819819  0.56884833  1
  O  O96  1  0.29690535  0.83566042  0.25790060  1
  O  O97  1  0.53847994  0.70480151  0.25664644  1
  O  O98  1  0.16190204  0.46547710  0.25872449  1
  O  O99  1  0.29922708  0.47431092  0.76234519  1
  O  O100  1  0.17893188  0.70690339  0.76152282  1
  O  O101  1  0.54548748  0.83679493  0.75515422  1
