# generated using pymatgen
data_Na2Mg2Zr6Si3(S3O16)3
_symmetry_space_group_name_H-M   'P 1'
_cell_length_a   17.98207501
_cell_length_b   8.97655669
_cell_length_c   23.23499587
_cell_angle_alpha   90.04137696
_cell_angle_beta   89.97347736
_cell_angle_gamma   119.97358489
_symmetry_Int_Tables_number   1
_chemical_formula_structural   Na2Mg2Zr6Si3(S3O16)3
_chemical_formula_sum   'Na6 Mg6 Zr18 Si9 S27 O144'
_cell_volume   3248.91414741
_cell_formula_units_Z   3
loop_
 _symmetry_equiv_pos_site_id
 _symmetry_equiv_pos_as_xyz
  1  'x, y, z'
loop_
 _atom_site_type_symbol
 _atom_site_label
 _atom_site_symmetry_multiplicity
 _atom_site_fract_x
 _atom_site_fract_y
 _atom_site_fract_z
 _atom_site_occupancy
  Na  Na0  1  0.00155758  0.99524265  0.49595554  1
  Na  Na1  1  0.50036629  0.00591905  0.99869854  1
  Na  Na2  1  0.33144371  0.32805882  0.83651626  1
  Na  Na3  1  0.83416315  0.33354405  0.83594135  1
  Na  Na4  1  0.32942022  0.32848932  0.33371342  1
  Na  Na5  1  0.83266544  0.33602548  0.33488499  1
  Mg  Mg6  1  0.00665824  0.99444467  0.35290759  1
  Mg  Mg7  1  0.49959831  0.00692575  0.85525062  1
  Mg  Mg8  1  0.00350897  0.00787168  0.65002575  1
  Mg  Mg9  1  0.50219552  0.99679842  0.15102052  1
  Mg  Mg10  1  0.83376419  0.33328589  0.98394057  1
  Mg  Mg11  1  0.33158527  0.33116674  0.48063931  1
  Zr  Zr12  1  0.50902159  0.00894468  0.35446363  1
  Zr  Zr13  1  0.01024619  0.01066133  0.85571234  1
  Zr  Zr14  1  0.50165259  0.00056763  0.64129730  1
  Zr  Zr15  1  0.00858443  0.00250035  0.14495086  1
  Zr  Zr16  1  0.32614390  0.32728062  0.68730639  1
  Zr  Zr17  1  0.83219858  0.32493308  0.68337286  1
  Zr  Zr18  1  0.32563421  0.33083989  0.18735754  1
  Zr  Zr19  1  0.82875041  0.32453745  0.18826559  1
  Zr  Zr20  1  0.32897737  0.32310052  0.97832001  1
  Zr  Zr21  1  0.82926286  0.33455077  0.47619237  1
  Zr  Zr22  1  0.16519826  0.67003439  0.02404452  1
  Zr  Zr23  1  0.66130532  0.65376948  0.02225147  1
  Zr  Zr24  1  0.16198434  0.66729757  0.51769091  1
  Zr  Zr25  1  0.66579078  0.66359069  0.52105999  1
  Zr  Zr26  1  0.16051695  0.67027322  0.31027323  1
  Zr  Zr27  1  0.66740218  0.66425691  0.30923046  1
  Zr  Zr28  1  0.16669163  0.66799237  0.81111007  1
  Zr  Zr29  1  0.66231405  0.66151427  0.81491391  1
  Si  Si30  1  0.14342542  0.00204920  0.25321265  1
  Si  Si31  1  0.64190434  0.99587686  0.24681600  1
  Si  Si32  1  0.14173314  0.28858545  0.74696343  1
  Si  Si33  1  0.68880365  0.03972874  0.58178315  1
  Si  Si34  1  0.18773597  0.33567684  0.08213199  1
  Si  Si35  1  0.51894058  0.36482295  0.91660197  1
  Si  Si36  1  0.16702797  0.95376790  0.91683356  1
  Si  Si37  1  0.66559268  0.37834940  0.41625910  1
  Si  Si38  1  0.01914594  0.67471274  0.41535908  1
  S  S39  1  0.35637600  0.71436073  0.24931288  1
  S  S40  1  0.85712528  0.71372301  0.25059097  1
  S  S41  1  0.99929389  0.28472817  0.25128184  1
  S  S42  1  0.49933104  0.28660200  0.24852581  1
  S  S43  1  0.64406583  0.28697183  0.75135110  1
  S  S44  1  0.99911692  0.71179683  0.74882042  1
  S  S45  1  0.49979796  0.71382865  0.75130988  1
  S  S46  1  0.35731458  0.00055068  0.75092070  1
  S  S47  1  0.85577477  0.99818546  0.74930723  1
  S  S48  1  0.47591112  0.33364535  0.58235995  1
  S  S49  1  0.97919464  0.32775134  0.58284605  1
  S  S50  1  0.18664800  0.04425975  0.58142382  1
  S  S51  1  0.33251885  0.61955013  0.58170731  1
  S  S52  1  0.83642571  0.63046325  0.58385032  1
  S  S53  1  0.47802110  0.62926012  0.08351250  1
  S  S54  1  0.97513195  0.61891002  0.08211546  1
  S  S55  1  0.33699122  0.04341186  0.08411258  1
  S  S56  1  0.83366861  0.04525092  0.08149028  1
  S  S57  1  0.68712112  0.32728620  0.08192494  1
  S  S58  1  0.31377440  0.67136930  0.91641090  1
  S  S59  1  0.81189717  0.66338381  0.91721203  1
  S  S60  1  0.01881123  0.37726826  0.91732095  1
  S  S61  1  0.66710881  0.96135119  0.91710748  1
  S  S62  1  0.31223074  0.96096041  0.41679732  1
  S  S63  1  0.81399964  0.95567782  0.41596616  1
  S  S64  1  0.16749504  0.37337764  0.41662635  1
  S  S65  1  0.51874440  0.66063389  0.41687592  1
  O  O66  1  0.10291287  0.03959107  0.30693891  1
  O  O67  1  0.60249195  0.03271794  0.30613145  1
  O  O68  1  0.40922885  0.79087111  0.30217316  1
  O  O69  1  0.90791923  0.78798123  0.30210740  1
  O  O70  1  0.48409076  0.18058140  0.30169815  1
  O  O71  1  0.98276611  0.18005717  0.30255828  1
  O  O72  1  0.10248494  0.17225355  0.80600971  1
  O  O73  1  0.60542907  0.18036106  0.80150395  1
  O  O74  1  0.48598162  0.79140160  0.80215403  1
  O  O75  1  0.98309117  0.78621295  0.80171311  1
  O  O76  1  0.40992169  0.02917785  0.80159375  1
  O  O77  1  0.90781086  0.02848828  0.80203063  1
  O  O78  1  0.39654589  0.97518178  0.69789875  1
  O  O79  1  0.89317851  0.97247692  0.69773055  1
  O  O80  1  0.08581661  0.20087174  0.69217422  1
  O  O81  1  0.59177706  0.21004448  0.69851976  1
  O  O82  1  0.01176047  0.81386761  0.69760818  1
  O  O83  1  0.51268489  0.81845396  0.69826664  1
  O  O84  1  0.39414805  0.81659101  0.19783090  1
  O  O85  1  0.89364752  0.81569738  0.19754675  1
  O  O86  1  0.01103310  0.20716664  0.19797992  1
  O  O87  1  0.51285654  0.20989474  0.19757861  1
  O  O88  1  0.08628366  0.96907710  0.19395709  1
  O  O89  1  0.58602946  0.97078874  0.19202711  1
  O  O90  1  0.43695610  0.36006674  0.63539583  1
  O  O91  1  0.93917144  0.36150953  0.63540876  1
  O  O92  1  0.24248725  0.12562759  0.63450266  1
  O  O93  1  0.74768120  0.13385186  0.63965569  1
  O  O94  1  0.32055879  0.51422882  0.63512947  1
  O  O95  1  0.82103136  0.51693299  0.63567684  1
  O  O96  1  0.44141821  0.51877709  0.13492703  1
  O  O97  1  0.93655783  0.51288488  0.13469808  1
  O  O98  1  0.32122596  0.12346213  0.13511254  1
  O  O99  1  0.81901508  0.12614531  0.13443666  1
  O  O100  1  0.24854830  0.36611303  0.13836810  1
  O  O101  1  0.74256291  0.36038272  0.13432670  1
  O  O102  1  0.23428222  0.30385042  0.02755746  1
  O  O103  1  0.72917230  0.30550827  0.03086932  1
  O  O104  1  0.42575888  0.54500835  0.03140835  1
  O  O105  1  0.92290844  0.53895071  0.03076870  1
  O  O106  1  0.35007620  0.15076880  0.03176301  1
  O  O107  1  0.84670481  0.15397088  0.03112108  1
  O  O108  1  0.22951754  0.15376688  0.53158200  1
  O  O109  1  0.73410534  0.16627118  0.52847122  1
  O  O110  1  0.34850183  0.54210489  0.53170450  1
  O  O111  1  0.84992988  0.54838332  0.53254330  1
  O  O112  1  0.42302279  0.30393866  0.53155655  1
  O  O113  1  0.92502025  0.30545560  0.53231118  1
  O  O114  1  0.27259450  0.69565057  0.96818783  1
  O  O115  1  0.77109280  0.69298486  0.96846668  1
  O  O116  1  0.07404514  0.45448976  0.96835652  1
  O  O117  1  0.58289627  0.47122188  0.97174127  1
  O  O118  1  0.15297473  0.83516938  0.97268835  1
  O  O119  1  0.65471602  0.85054148  0.96838685  1
  O  O120  1  0.27142624  0.85002195  0.46924233  1
  O  O121  1  0.77180061  0.84938936  0.46853600  1
  O  O122  1  0.15622867  0.46241260  0.46950909  1
  O  O123  1  0.65305378  0.46957828  0.47324582  1
  O  O124  1  0.08132398  0.69440751  0.47235850  1
  O  O125  1  0.57433742  0.69348657  0.46871447  1
  O  O126  1  0.06669616  0.63414076  0.36200869  1
  O  O127  1  0.56030253  0.63571236  0.36536677  1
  O  O128  1  0.25759348  0.87813893  0.36548127  1
  O  O129  1  0.75803162  0.87768488  0.36487020  1
  O  O130  1  0.18298464  0.48409427  0.36544912  1
  O  O131  1  0.68125070  0.49900275  0.36058168  1
  O  O132  1  0.06014888  0.48429464  0.86503111  1
  O  O133  1  0.56848062  0.49762562  0.86093463  1
  O  O134  1  0.18115478  0.86447754  0.85994922  1
  O  O135  1  0.68212374  0.87841052  0.86436929  1
  O  O136  1  0.25852264  0.63938276  0.86445754  1
  O  O137  1  0.75654027  0.63715108  0.86470674  1
  O  O138  1  0.00921188  0.84082010  0.41267456  1
  O  O139  1  0.50988933  0.81488937  0.40911907  1
  O  O140  1  0.39653937  0.97429518  0.40877495  1
  O  O141  1  0.89901046  0.97624621  0.40915181  1
  O  O142  1  0.08875285  0.20712076  0.41192193  1
  O  O143  1  0.58069917  0.19041439  0.40873076  1
  O  O144  1  0.00940013  0.20462990  0.90847220  1
  O  O145  1  0.51273529  0.18281062  0.90967232  1
  O  O146  1  0.08148870  0.97077385  0.90843903  1
  O  O147  1  0.58958404  0.97267381  0.90856785  1
  O  O148  1  0.39918188  0.82188650  0.90847772  1
  O  O149  1  0.89578531  0.81802126  0.90760734  1
  O  O150  1  0.48627064  0.17956265  0.59276793  1
  O  O151  1  0.98685753  0.17489247  0.59076095  1
  O  O152  1  0.10105435  0.02153610  0.59012212  1
  O  O153  1  0.59503748  0.02293935  0.59546729  1
  O  O154  1  0.40937166  0.79336622  0.59299204  1
  O  O155  1  0.91200268  0.80051466  0.59242361  1
  O  O156  1  0.48785914  0.80040112  0.08952096  1
  O  O157  1  0.98439572  0.79062961  0.09033620  1
  O  O158  1  0.41253277  0.02331633  0.09129241  1
  O  O159  1  0.90825925  0.02406862  0.09208614  1
  O  O160  1  0.09350449  0.16878559  0.09218477  1
  O  O161  1  0.60083173  0.18071674  0.08957900  1
  O  O162  1  0.34714300  0.15646032  0.74193645  1
  O  O163  1  0.84612754  0.15797652  0.74319435  1
  O  O164  1  0.24126243  0.31260421  0.74192417  1
  O  O165  1  0.73255438  0.31158285  0.74305246  1
  O  O166  1  0.42414485  0.53702968  0.74196130  1
  O  O167  1  0.92148825  0.53370692  0.74288966  1
  O  O168  1  0.34879902  0.53878753  0.24369073  1
  O  O169  1  0.84602818  0.53623420  0.24169405  1
  O  O170  1  0.42345233  0.31131679  0.24293061  1
  O  O171  1  0.92325378  0.31185780  0.24175801  1
  O  O172  1  0.24216831  0.16685072  0.24226582  1
  O  O173  1  0.74115378  0.17034180  0.24189344  1
  O  O174  1  0.32167125  0.51460317  0.92289278  1
  O  O175  1  0.81992293  0.50870982  0.92393376  1
  O  O176  1  0.42876985  0.36359701  0.92377299  1
  O  O177  1  0.93282355  0.35841863  0.92422951  1
  O  O178  1  0.25088034  0.14593670  0.92180450  1
  O  O179  1  0.74500842  0.13207056  0.92371954  1
  O  O180  1  0.32084940  0.13191764  0.42535147  1
  O  O181  1  0.82104118  0.12778217  0.42359303  1
  O  O182  1  0.24503930  0.35734940  0.42572318  1
  O  O183  1  0.75000569  0.35580845  0.42231400  1
  O  O184  1  0.43334436  0.50759093  0.42512861  1
  O  O185  1  0.92874116  0.49448006  0.42538267  1
  O  O186  1  0.17799689  0.50294124  0.07216627  1
  O  O187  1  0.68160782  0.48903377  0.07542675  1
  O  O188  1  0.06196772  0.63928068  0.07565232  1
  O  O189  1  0.56579160  0.64721673  0.07454868  1
  O  O190  1  0.25851933  0.87328245  0.07546275  1
  O  O191  1  0.75583503  0.87307560  0.07371913  1
  O  O192  1  0.18166109  0.87324891  0.57577146  1
  O  O193  1  0.67696213  0.85165704  0.57388533  1
  O  O194  1  0.25722791  0.64162450  0.57529766  1
  O  O195  1  0.75782779  0.64274191  0.57631026  1
  O  O196  1  0.06519114  0.48522384  0.57616982  1
  O  O197  1  0.56284502  0.48455663  0.57603917  1
  O  O198  1  0.15785103  0.83565667  0.25818310  1
  O  O199  1  0.65740363  0.83625305  0.26215277  1
  O  O200  1  0.26927925  0.68749731  0.25901255  1
  O  O201  1  0.76936860  0.68979856  0.25715987  1
  O  O202  1  0.07653722  0.45743129  0.25708448  1
  O  O203  1  0.57596814  0.45984088  0.25809035  1
  O  O204  1  0.15773727  0.47963857  0.76181408  1
  O  O205  1  0.65560235  0.46236443  0.75783911  1
  O  O206  1  0.07476556  0.68957391  0.75793824  1
  O  O207  1  0.57761102  0.69549638  0.75763516  1
  O  O208  1  0.27052363  0.84917511  0.75687471  1
  O  O209  1  0.76809344  0.84861257  0.75890198  1
