# generated using pymatgen
data_Na8La2Ti2Si5SO24
_symmetry_space_group_name_H-M   'P 1'
_cell_length_a   9.41677271
_cell_length_b   9.41969302
_cell_length_c   22.71500055
_cell_angle_alpha   90.34744528
_cell_angle_beta   89.35459883
_cell_angle_gamma   120.14416359
_symmetry_Int_Tables_number   1
_chemical_formula_structural   Na8La2Ti2Si5SO24
_chemical_formula_sum   'Na24 La6 Ti6 Si15 S3 O72'
_cell_volume   1742.29580168
_cell_formula_units_Z   3
loop_
 _symmetry_equiv_pos_site_id
 _symmetry_equiv_pos_as_xyz
  1  'x, y, z'
loop_
 _atom_site_type_symbol
 _atom_site_label
 _atom_site_symmetry_multiplicity
 _atom_site_fract_x
 _atom_site_fract_y
 _atom_site_fract_z
 _atom_site_occupancy
  Na  Na0  1  0.64976351  0.01130891  0.25248143  1
  Na  Na1  1  0.34965642  0.36297963  0.25036505  1
  Na  Na2  1  0.99983818  0.64227922  0.25012571  1
  Na  Na3  1  0.62976402  0.62926269  0.74512315  1
  Na  Na4  1  0.98600552  0.35730411  0.74611299  1
  Na  Na5  1  0.37584503  0.01664579  0.74608970  1
  Na  Na6  1  0.29295720  0.33366517  0.59007387  1
  Na  Na7  1  0.04179517  0.70990539  0.58399083  1
  Na  Na8  1  0.66791850  0.95541445  0.58458544  1
  Na  Na9  1  0.28197736  0.96565166  0.08311924  1
  Na  Na10  1  0.67234236  0.68831333  0.09270761  1
  Na  Na11  1  0.04789489  0.33543715  0.09273825  1
  Na  Na12  1  0.97968024  0.67297840  0.91261430  1
  Na  Na13  1  0.70976514  0.04746800  0.90125225  1
  Na  Na14  1  0.31551978  0.27932006  0.91545900  1
  Na  Na15  1  0.94906241  0.29552517  0.40985098  1
  Na  Na16  1  0.33298547  0.02510219  0.41568669  1
  Na  Na17  1  0.70874014  0.67097207  0.41872383  1
  Na  Na18  1  0.98740865  0.98500849  0.50577288  1
  Na  Na19  1  0.03039432  0.01139418  0.99928083  1
  Na  Na20  1  0.66907436  0.32257836  0.82481393  1
  Na  Na21  1  0.67275584  0.32816413  0.33516913  1
  Na  Na22  1  0.32217945  0.64916251  0.17298007  1
  Na  Na23  1  0.33893042  0.66570484  0.66834027  1
  La  La24  1  0.99611423  0.99646530  0.34113048  1
  La  La25  1  0.00708611  0.00476273  0.83288536  1
  La  La26  1  0.00368785  -0.00003122  0.16370584  1
  La  La27  1  0.66876511  0.33131638  0.97908793  1
  La  La28  1  0.31769977  0.65606737  0.01932475  1
  La  La29  1  0.33485472  0.67284604  0.52146015  1
  Ti  Ti30  1  0.99979679  0.00054127  0.65238946  1
  Ti  Ti31  1  0.66597242  0.33388319  0.68264972  1
  Ti  Ti32  1  0.66393548  0.35009492  0.18711766  1
  Ti  Ti33  1  0.68047068  0.32922640  0.48840938  1
  Ti  Ti34  1  0.33036800  0.68859500  0.31616392  1
  Ti  Ti35  1  0.31040292  0.66800980  0.80624949  1
  Si  Si36  1  0.32965831  0.00856709  0.24998781  1
  Si  Si37  1  0.66678044  0.67865451  0.25129293  1
  Si  Si38  1  0.00018101  0.33159445  0.25055662  1
  Si  Si39  1  0.30967591  0.31017152  0.74661051  1
  Si  Si40  1  0.99153632  0.69142618  0.74717479  1
  Si  Si41  1  0.69045033  -0.00070311  0.74727205  1
  Si  Si42  1  0.94666809  0.31490189  0.58828419  1
  Si  Si43  1  0.37608809  0.05960194  0.58614827  1
  Si  Si44  1  0.68404992  0.62225911  0.58574361  1
  Si  Si45  1  0.95896806  0.63150153  0.08629628  1
  Si  Si46  1  0.37191950  0.33204840  0.08635163  1
  Si  Si47  1  0.03893545  0.36938241  0.90924935  1
  Si  Si48  1  0.33209437  0.95905858  0.91164282  1
  Si  Si49  1  0.63084517  0.97474153  0.41835653  1
  Si  Si50  1  0.02519299  0.65812865  0.41919372  1
  S  S51  1  0.67102609  0.03796609  0.08805388  1
  S  S52  1  0.62690168  0.66914942  0.91115623  1
  S  S53  1  0.34295174  0.36824734  0.41589413  1
  O  O54  1  0.25946731  0.06299811  0.30601266  1
  O  O55  1  0.79760922  0.74898428  0.30467132  1
  O  O56  1  0.94767432  0.20281432  0.30530809  1
  O  O57  1  0.26281968  0.21007058  0.80828092  1
  O  O58  1  0.94416472  0.74114349  0.80938543  1
  O  O59  1  0.79189695  0.04759938  0.80814248  1
  O  O60  1  0.81040305  0.97244659  0.69683170  1
  O  O61  1  0.16334375  0.19014972  0.69672196  1
  O  O62  1  0.02452097  0.83568013  0.69693918  1
  O  O63  1  0.73595551  0.80034366  0.19454561  1
  O  O64  1  0.05271413  0.25941960  0.19397671  1
  O  O65  1  0.20331661  0.94761954  0.19517614  1
  O  O66  1  0.84275216  0.33020912  0.64254291  1
  O  O67  1  0.49014485  0.16128667  0.64182720  1
  O  O68  1  0.67281769  0.51032647  0.64179380  1
  O  O69  1  0.83271245  0.51118890  0.13935744  1
  O  O70  1  0.66955712  0.13964718  0.13735642  1
  O  O71  1  0.48885289  0.32117309  0.13897690  1
  O  O72  1  0.44265029  0.31706203  0.02183953  1
  O  O73  1  0.87788392  0.55537534  0.02236473  1
  O  O74  1  0.68062306  0.11603893  0.03017933  1
  O  O75  1  0.47781164  0.17044639  0.52596389  1
  O  O76  1  0.70026486  0.52379073  0.52539490  1
  O  O77  1  0.83657785  0.30087649  0.52700495  1
  O  O78  1  0.55565278  0.67746396  0.96884905  1
  O  O79  1  0.12741263  0.43778864  0.97277677  1
  O  O80  1  0.32920064  0.87749886  0.97537403  1
  O  O81  1  0.56676369  0.86894405  0.47874715  1
  O  O82  1  0.32094413  0.43773081  0.47202024  1
  O  O83  1  0.12582663  0.68594269  0.47970716  1
  O  O84  1  0.14210927  0.65355444  0.36322685  1
  O  O85  1  0.50323315  0.86054712  0.36393512  1
  O  O86  1  0.35016415  0.47024375  0.36499851  1
  O  O87  1  0.16332947  0.49321903  0.85456253  1
  O  O88  1  0.32805847  0.83525937  0.85580483  1
  O  O89  1  0.52566044  0.66722477  0.86121203  1
  O  O90  1  0.00064811  0.81770885  0.41282527  1
  O  O91  1  0.81811861  0.00931250  0.40988177  1
  O  O92  1  0.19911642  0.19931162  0.41280528  1
  O  O93  1  0.00951627  0.18330675  0.90738268  1
  O  O94  1  0.16573330  0.97283934  0.91095183  1
  O  O95  1  0.79446806  0.81479984  0.90964582  1
  O  O96  1  0.95679688  0.14467040  0.59138993  1
  O  O97  1  0.19321662  0.04508588  0.59024443  1
  O  O98  1  0.85118775  0.80637210  0.59032212  1
  O  O99  1  0.97614368  0.81325619  0.08912912  1
  O  O100  1  0.81856266  0.01943548  0.08952457  1
  O  O101  1  0.18493348  0.17465775  0.09001766  1
  O  O102  1  0.66157800  0.15495674  0.73541108  1
  O  O103  1  0.49490106  0.34011424  0.73403337  1
  O  O104  1  0.84202539  0.50510598  0.73542085  1
  O  O105  1  0.64011103  0.49221796  0.23937268  1
  O  O106  1  0.84070048  0.35538791  0.23898515  1
  O  O107  1  0.51602973  0.15824506  0.23677386  1
  O  O108  1  0.63547340  0.51470745  0.90790062  1
  O  O109  1  0.86752739  0.37274746  0.90263837  1
  O  O110  1  0.50236879  0.13498875  0.90251245  1
  O  O111  1  0.63107518  0.15161465  0.42189109  1
  O  O112  1  0.49858753  0.36303802  0.41671216  1
  O  O113  1  0.84590195  0.48283102  0.42116571  1
  O  O114  1  0.37636204  0.50748067  0.09517518  1
  O  O115  1  0.13676539  0.64174576  0.09585724  1
  O  O116  1  0.51954313  0.87429628  0.09165581  1
  O  O117  1  0.35801335  0.87736124  0.58879216  1
  O  O118  1  0.51686113  0.63483874  0.58737705  1
  O  O119  1  0.12976727  0.47660135  0.58914157  1
  O  O120  1  0.34699538  0.84379793  0.26277450  1
  O  O121  1  0.48504761  0.65244995  0.26762901  1
  O  O122  1  0.16283640  0.51264177  0.26377080  1
  O  O123  1  0.31459949  0.48797116  0.74923486  1
  O  O124  1  0.16755559  0.68577494  0.75115944  1
  O  O125  1  0.51070905  0.82619941  0.75138908  1
