# generated using pymatgen
data_Na2NbIn3P4(SO12)2
_symmetry_space_group_name_H-M   'P 1'
_cell_length_a   8.87545009
_cell_length_b   8.86584577
_cell_length_c   23.20851385
_cell_angle_alpha   90.13848507
_cell_angle_beta   89.83505439
_cell_angle_gamma   120.03493178
_symmetry_Int_Tables_number   1
_chemical_formula_structural   Na2NbIn3P4(SO12)2
_chemical_formula_sum   'Na6 Nb3 In9 P12 S6 O72'
_cell_volume   1581.00581787
_cell_formula_units_Z   3
loop_
 _symmetry_equiv_pos_site_id
 _symmetry_equiv_pos_as_xyz
  1  'x, y, z'
loop_
 _atom_site_type_symbol
 _atom_site_label
 _atom_site_symmetry_multiplicity
 _atom_site_fract_x
 _atom_site_fract_y
 _atom_site_fract_z
 _atom_site_occupancy
  Na  Na0  1  0.99269040  0.99150400  0.49838806  1
  Na  Na1  1  0.00565967  0.00036528  0.99737510  1
  Na  Na2  1  0.66681212  0.33143424  0.82891106  1
  Na  Na3  1  0.68097633  0.34065559  0.33116020  1
  Na  Na4  1  0.32803452  0.65380441  0.15876886  1
  Na  Na5  1  0.33388891  0.66665944  0.66950209  1
  Nb  Nb6  1  0.66482753  0.34225273  0.97774442  1
  Nb  Nb7  1  0.33217254  0.66767000  0.31329656  1
  Nb  Nb8  1  0.33160651  0.66700938  0.81511841  1
  In  In9  1  0.98833526  0.99353026  0.35028792  1
  In  In10  1  0.00080507  0.00029625  0.85081974  1
  In  In11  1  0.99998654  0.99949774  0.65660409  1
  In  In12  1  0.99680800  0.00044587  0.14576335  1
  In  In13  1  0.66721497  0.33378676  0.68768480  1
  In  In14  1  0.67533833  0.34500512  0.18391650  1
  In  In15  1  0.67387145  0.33237404  0.47814494  1
  In  In16  1  0.32891592  0.66095065  0.01717302  1
  In  In17  1  0.33285953  0.67175444  0.51681921  1
  P  P18  1  0.70472456  0.70373515  0.25045258  1
  P  P19  1  0.99796266  0.29123371  0.25091078  1
  P  P20  1  0.29527739  0.29720372  0.75102270  1
  P  P21  1  0.00177189  0.70506399  0.75098711  1
  P  P22  1  0.70300942  0.99790921  0.75111308  1
  P  P23  1  0.96141903  0.62814840  0.08255350  1
  P  P24  1  0.37434444  0.33256126  0.08384902  1
  P  P25  1  0.62438337  0.67100848  0.91763084  1
  P  P26  1  0.03915649  0.37279671  0.91748461  1
  P  P27  1  0.33392177  0.95857196  0.91849372  1
  P  P28  1  0.62477190  0.95847611  0.41730594  1
  P  P29  1  0.04162588  0.67036582  0.41656332  1
  S  S30  1  0.29569392  0.00042425  0.25112758  1
  S  S31  1  0.96442928  0.33126056  0.58312899  1
  S  S32  1  0.37019314  0.04047817  0.58294291  1
  S  S33  1  0.66703700  0.62892884  0.58232150  1
  S  S34  1  0.66499980  0.04463056  0.08216280  1
  S  S35  1  0.33261957  0.37418441  0.41594023  1
  O  O36  1  0.21891024  0.02713595  0.30342627  1
  O  O37  1  0.81371348  0.77901677  0.30458211  1
  O  O38  1  0.97524385  0.18788285  0.30577613  1
  O  O39  1  0.21410365  0.18557958  0.80368332  1
  O  O40  1  0.97107356  0.78578142  0.80380554  1
  O  O41  1  0.81490009  0.02842804  0.80358446  1
  O  O42  1  0.76782273  0.95577041  0.69488605  1
  O  O43  1  0.18823886  0.23181659  0.69506026  1
  O  O44  1  0.04414986  0.81207597  0.69498904  1
  O  O45  1  0.77585159  0.81607274  0.19635820  1
  O  O46  1  0.04218138  0.22269386  0.19662500  1
  O  O47  1  0.18882629  0.96426390  0.19930136  1
  O  O48  1  0.88283869  0.35734408  0.63458555  1
  O  O49  1  0.47593357  0.12363797  0.63450025  1
  O  O50  1  0.64378558  0.52391572  0.63415744  1
  O  O51  1  0.88740288  0.52285477  0.13758212  1
  O  O52  1  0.64253121  0.11960921  0.13604487  1
  O  O53  1  0.47688310  0.35160901  0.13854332  1
  O  O54  1  0.47735533  0.31822400  0.02891566  1
  O  O55  1  0.84181647  0.52283163  0.02859191  1
  O  O56  1  0.68130389  0.15295971  0.03061170  1
  O  O57  1  0.45168744  0.14262758  0.52968902  1
  O  O58  1  0.68861281  0.54706654  0.52911504  1
  O  O59  1  0.86173077  0.30778654  0.52995452  1
  O  O60  1  0.54737183  0.69667104  0.97225775  1
  O  O61  1  0.14455985  0.44846236  0.97161853  1
  O  O62  1  0.30790186  0.85320466  0.97240814  1
  O  O63  1  0.54806595  0.85281131  0.47232837  1
  O  O64  1  0.30640401  0.44888086  0.46924187  1
  O  O65  1  0.14184151  0.69072882  0.47212758  1
  O  O66  1  0.14287672  0.65035720  0.36325379  1
  O  O67  1  0.50745981  0.85434389  0.36378876  1
  O  O68  1  0.35183865  0.48466302  0.36447532  1
  O  O69  1  0.13081828  0.49374348  0.86392432  1
  O  O70  1  0.36229984  0.86764391  0.86441713  1
  O  O71  1  0.50534516  0.63956163  0.86418719  1
  O  O72  1  0.03014421  0.83592089  0.40976797  1
  O  O73  1  0.80770853  0.98300946  0.41225059  1
  O  O74  1  0.17931587  0.19975656  0.40952064  1
  O  O75  1  0.00920751  0.18982816  0.90941588  1
  O  O76  1  0.18083604  0.98819930  0.91042202  1
  O  O77  1  0.80833530  0.82126705  0.91015438  1
  O  O78  1  0.98171727  0.17363757  0.58777339  1
  O  O79  1  0.19468994  0.02202269  0.58732975  1
  O  O80  1  0.82445291  0.80473540  0.58672466  1
  O  O81  1  0.96284227  0.80293776  0.08322994  1
  O  O82  1  0.82746540  0.03515070  0.08320328  1
  O  O83  1  0.19603386  0.16280057  0.08331438  1
  O  O84  1  0.67288091  0.15362934  0.74503069  1
  O  O85  1  0.48105784  0.32771191  0.74495219  1
  O  O86  1  0.84636899  0.51916144  0.74494841  1
  O  O87  1  0.66760555  0.51563812  0.24619359  1
  O  O88  1  0.84036752  0.31784077  0.24589290  1
  O  O89  1  0.47376308  0.14842495  0.24546810  1
  O  O90  1  0.63372333  0.49593355  0.92386531  1
  O  O91  1  0.85732892  0.36394252  0.92423141  1
  O  O92  1  0.50707427  0.14141467  0.92503416  1
  O  O93  1  0.62598180  0.13359042  0.41701960  1
  O  O94  1  0.49542221  0.36621996  0.41807898  1
  O  O95  1  0.86198229  0.50126211  0.41646140  1
  O  O96  1  0.36073737  0.49753414  0.07826978  1
  O  O97  1  0.14324733  0.65073317  0.07670777  1
  O  O98  1  0.51065217  0.86915501  0.07766320  1
  O  O99  1  0.35301323  0.86405442  0.57989157  1
  O  O100  1  0.50731139  0.64472062  0.57837784  1
  O  O101  1  0.14089416  0.48990810  0.57860920  1
  O  O102  1  0.31261695  0.83793644  0.25898387  1
  O  O103  1  0.51863919  0.68723022  0.26241519  1
  O  O104  1  0.16514809  0.48028120  0.26250673  1
  O  O105  1  0.31304953  0.48228963  0.76160506  1
  O  O106  1  0.16882335  0.68719001  0.76119299  1
  O  O107  1  0.51773553  0.83089666  0.76162576  1
