# generated using pymatgen
data_Na4CaGa(PO4)3
_symmetry_space_group_name_H-M   'P 1'
_cell_length_a   9.22221426
_cell_length_b   9.22221392
_cell_length_c   21.92073613
_cell_angle_alpha   90.00000000
_cell_angle_beta   90.00000000
_cell_angle_gamma   120.00000121
_symmetry_Int_Tables_number   1
_chemical_formula_structural   Na4CaGa(PO4)3
_chemical_formula_sum   'Na24 Ca6 Ga6 P18 O72'
_cell_volume   1614.56733125
_cell_formula_units_Z   6
loop_
 _symmetry_equiv_pos_site_id
 _symmetry_equiv_pos_as_xyz
  1  'x, y, z'
loop_
 _atom_site_type_symbol
 _atom_site_label
 _atom_site_symmetry_multiplicity
 _atom_site_fract_x
 _atom_site_fract_y
 _atom_site_fract_z
 _atom_site_occupancy
  Na  Na0  1  0.63723218  0.00452654  0.24853338  1
  Na  Na1  1  0.36729437  0.36276782  0.24853338  1
  Na  Na2  1  0.99547346  0.63270563  0.24853338  1
  Na  Na3  1  0.63723218  0.63270563  0.74853338  1
  Na  Na4  1  0.99547346  0.36276782  0.74853338  1
  Na  Na5  1  0.36729437  0.00452654  0.74853338  1
  Na  Na6  1  0.30389918  0.33785954  0.58186638  1
  Na  Na7  1  0.03396137  0.69610082  0.58186638  1
  Na  Na8  1  0.66214046  0.96603863  0.58186638  1
  Na  Na9  1  0.30389918  0.96603863  0.08186638  1
  Na  Na10  1  0.66214046  0.69610082  0.08186638  1
  Na  Na11  1  0.03396137  0.33785954  0.08186638  1
  Na  Na12  1  0.97056518  0.67119354  0.91520038  1
  Na  Na13  1  0.70062737  0.02943482  0.91520038  1
  Na  Na14  1  0.32880646  0.29937263  0.91520038  1
  Na  Na15  1  0.97056518  0.29937263  0.41520038  1
  Na  Na16  1  0.32880646  0.02943482  0.41520038  1
  Na  Na17  1  0.70062737  0.67119354  0.41520038  1
  Na  Na18  1  -0.00000000  -0.00000000  0.50137369  1
  Na  Na19  1  -0.00000000  -0.00000000  0.00137369  1
  Na  Na20  1  0.66666700  0.33333300  0.83470669  1
  Na  Na21  1  0.66666700  0.33333300  0.33470669  1
  Na  Na22  1  0.33333300  0.66666700  0.16804069  1
  Na  Na23  1  0.33333300  0.66666700  0.66804069  1
  Ca  Ca24  1  -0.00000000  -0.00000000  0.34897605  1
  Ca  Ca25  1  -0.00000000  -0.00000000  0.84897605  1
  Ca  Ca26  1  0.66666700  0.33333300  0.68230905  1
  Ca  Ca27  1  0.66666700  0.33333300  0.18230905  1
  Ca  Ca28  1  0.33333300  0.66666700  0.01564305  1
  Ca  Ca29  1  0.33333300  0.66666700  0.51564305  1
  Ga  Ga30  1  -0.00000000  -0.00000000  0.64972091  1
  Ga  Ga31  1  -0.00000000  -0.00000000  0.14972091  1
  Ga  Ga32  1  0.66666700  0.33333300  0.98305391  1
  Ga  Ga33  1  0.66666700  0.33333300  0.48305391  1
  Ga  Ga34  1  0.33333300  0.66666700  0.31638791  1
  Ga  Ga35  1  0.33333300  0.66666700  0.81638791  1
  P  P36  1  0.29268687  0.98510282  0.25047626  1
  P  P37  1  0.69241594  0.70731313  0.25047626  1
  P  P38  1  0.01489718  0.30758406  0.25047626  1
  P  P39  1  0.29268687  0.30758406  0.75047626  1
  P  P40  1  0.01489718  0.70731313  0.75047626  1
  P  P41  1  0.69241594  0.98510282  0.75047626  1
  P  P42  1  0.95935387  0.31843582  0.58380926  1
  P  P43  1  0.35908294  0.04064613  0.58380926  1
  P  P44  1  0.68156418  0.64091706  0.58380926  1
  P  P45  1  0.95935387  0.64091706  0.08380926  1
  P  P46  1  0.68156418  0.04064613  0.08380926  1
  P  P47  1  0.35908294  0.31843582  0.08380926  1
  P  P48  1  0.62601987  0.65176982  0.91714326  1
  P  P49  1  0.02574894  0.37398013  0.91714326  1
  P  P50  1  0.34823018  0.97425106  0.91714326  1
  P  P51  1  0.62601987  0.97425106  0.41714326  1
  P  P52  1  0.34823018  0.37398013  0.41714326  1
  P  P53  1  0.02574894  0.65176982  0.41714326  1
  O  O54  1  0.22126191  0.01173794  0.30912459  1
  O  O55  1  0.79047603  0.77873809  0.30912459  1
  O  O56  1  0.98826206  0.20952397  0.30912459  1
  O  O57  1  0.22126191  0.20952397  0.80912459  1
  O  O58  1  0.98826206  0.77873809  0.80912459  1
  O  O59  1  0.79047603  0.01173794  0.80912459  1
  O  O60  1  0.78653234  0.96402048  0.69375952  1
  O  O61  1  0.17748814  0.21346766  0.69375952  1
  O  O62  1  0.03597952  0.82251186  0.69375952  1
  O  O63  1  0.78653234  0.82251186  0.19375952  1
  O  O64  1  0.03597952  0.21346766  0.19375952  1
  O  O65  1  0.17748814  0.96402048  0.19375952  1
  O  O66  1  0.88792891  0.34507094  0.64245759  1
  O  O67  1  0.45714303  0.11207109  0.64245759  1
  O  O68  1  0.65492906  0.54285697  0.64245759  1
  O  O69  1  0.88792891  0.54285697  0.14245759  1
  O  O70  1  0.65492906  0.11207109  0.14245759  1
  O  O71  1  0.45714303  0.34507094  0.14245759  1
  O  O72  1  0.45319934  0.29735348  0.02709252  1
  O  O73  1  0.84415514  0.54680066  0.02709252  1
  O  O74  1  0.70264652  0.15584486  0.02709252  1
  O  O75  1  0.45319934  0.15584486  0.52709252  1
  O  O76  1  0.70264652  0.54680066  0.52709252  1
  O  O77  1  0.84415514  0.29735348  0.52709252  1
  O  O78  1  0.55459491  0.67840494  0.97579159  1
  O  O79  1  0.12380903  0.44540509  0.97579159  1
  O  O80  1  0.32159506  0.87619097  0.97579159  1
  O  O81  1  0.55459491  0.87619097  0.47579159  1
  O  O82  1  0.32159506  0.44540509  0.47579159  1
  O  O83  1  0.12380903  0.67840494  0.47579159  1
  O  O84  1  0.11986534  0.63068748  0.36042652  1
  O  O85  1  0.51082114  0.88013466  0.36042652  1
  O  O86  1  0.36931252  0.48917886  0.36042652  1
  O  O87  1  0.11986534  0.48917886  0.86042652  1
  O  O88  1  0.36931252  0.88013466  0.86042652  1
  O  O89  1  0.51082114  0.63068748  0.86042652  1
  O  O90  1  0.99595343  0.80119030  0.41146125  1
  O  O91  1  0.80523687  0.00404657  0.41146125  1
  O  O92  1  0.19880970  0.19476313  0.41146125  1
  O  O93  1  0.99595343  0.19476313  0.91146125  1
  O  O94  1  0.19880970  0.00404657  0.91146125  1
  O  O95  1  0.80523687  0.80119030  0.91146125  1
  O  O96  1  0.96657148  0.15058008  0.58662145  1
  O  O97  1  0.18400860  0.03342852  0.58662145  1
  O  O98  1  0.84941992  0.81599140  0.58662145  1
  O  O99  1  0.96657148  0.81599140  0.08662145  1
  O  O100  1  0.84941992  0.03342852  0.08662145  1
  O  O101  1  0.18400860  0.15058008  0.08662145  1
  O  O102  1  0.66262043  0.13452330  0.74479425  1
  O  O103  1  0.47190387  0.33737957  0.74479425  1
  O  O104  1  0.86547670  0.52809613  0.74479425  1
  O  O105  1  0.66262043  0.52809613  0.24479425  1
  O  O106  1  0.86547670  0.33737957  0.24479425  1
  O  O107  1  0.47190387  0.13452330  0.24479425  1
  O  O108  1  0.63323848  0.48391308  0.91995445  1
  O  O109  1  0.85067560  0.36676152  0.91995445  1
  O  O110  1  0.51608692  0.14932440  0.91995445  1
  O  O111  1  0.63323848  0.14932440  0.41995445  1
  O  O112  1  0.51608692  0.36676152  0.41995445  1
  O  O113  1  0.85067560  0.48391308  0.41995445  1
  O  O114  1  0.32928643  0.46785730  0.07812825  1
  O  O115  1  0.13856987  0.67071357  0.07812825  1
  O  O116  1  0.53214270  0.86143013  0.07812825  1
  O  O117  1  0.32928643  0.86143013  0.57812825  1
  O  O118  1  0.53214270  0.67071357  0.57812825  1
  O  O119  1  0.13856987  0.46785730  0.57812825  1
  O  O120  1  0.29990448  0.81724708  0.25328845  1
  O  O121  1  0.51734160  0.70009552  0.25328845  1
  O  O122  1  0.18275292  0.48265840  0.25328845  1
  O  O123  1  0.29990448  0.48265840  0.75328845  1
  O  O124  1  0.18275292  0.70009552  0.75328845  1
  O  O125  1  0.51734160  0.81724708  0.75328845  1
