# generated using pymatgen
data_ZrGeP2SO12
_symmetry_space_group_name_H-M   'P 1'
_cell_length_a   8.60801771
_cell_length_b   8.65656050
_cell_length_c   22.39247528
_cell_angle_alpha   89.80039307
_cell_angle_beta   90.04224749
_cell_angle_gamma   119.91019929
_symmetry_Int_Tables_number   1
_chemical_formula_structural   ZrGeP2SO12
_chemical_formula_sum   'Zr6 Ge6 P12 S6 O72'
_cell_volume   1446.34070813
_cell_formula_units_Z   6
loop_
 _symmetry_equiv_pos_site_id
 _symmetry_equiv_pos_as_xyz
  1  'x, y, z'
loop_
 _atom_site_type_symbol
 _atom_site_label
 _atom_site_symmetry_multiplicity
 _atom_site_fract_x
 _atom_site_fract_y
 _atom_site_fract_z
 _atom_site_occupancy
  Zr  Zr0  1  0.99988910  0.00441393  0.35427218  1
  Zr  Zr1  1  0.99289581  0.00581912  0.64737245  1
  Zr  Zr2  1  0.01054801  0.00242922  0.13285164  1
  Zr  Zr3  1  0.66578860  0.33706629  0.69476513  1
  Zr  Zr4  1  0.67737756  0.33662691  0.47560902  1
  Zr  Zr5  1  0.32632867  0.67181036  0.30198609  1
  Ge  Ge6  1  0.00265525  0.00011113  0.85930494  1
  Ge  Ge7  1  0.67095617  0.33902220  0.17962614  1
  Ge  Ge8  1  0.65390301  0.33627872  0.97429950  1
  Ge  Ge9  1  0.33308656  0.66864318  0.01700483  1
  Ge  Ge10  1  0.33662084  0.67040223  0.52294333  1
  Ge  Ge11  1  0.35032318  0.67201971  0.81952139  1
  P  P12  1  0.30734639  0.03068758  0.24347364  1
  P  P13  1  0.97434321  0.27691788  0.24265633  1
  P  P14  1  0.27541320  0.29393177  0.76084369  1
  P  P15  1  0.70928067  0.98819569  0.75967738  1
  P  P16  1  0.97283340  0.35561905  0.58424282  1
  P  P17  1  0.64894212  0.61812136  0.58335469  1
  P  P18  1  0.95231635  0.59589274  0.07560418  1
  P  P19  1  0.40261121  0.36171544  0.07717827  1
  P  P20  1  0.62595661  0.67201168  0.91859138  1
  P  P21  1  0.33274843  0.95238643  0.91816472  1
  P  P22  1  0.61082609  0.93557320  0.41915647  1
  P  P23  1  0.06518423  0.68062834  0.41899998  1
  S  S24  1  0.72010853  0.69701494  0.24418120  1
  S  S25  1  0.01847377  0.72088163  0.75878730  1
  S  S26  1  0.37924955  0.03107458  0.58439002  1
  S  S27  1  0.64461103  0.04290414  0.07689695  1
  S  S28  1  0.04183335  0.37561090  0.91821984  1
  S  S29  1  0.32505297  0.38473461  0.41833584  1
  O  O30  1  0.22036410  0.05432270  0.29999340  1
  O  O31  1  0.82577520  0.77775362  0.29900548  1
  O  O32  1  0.94471237  0.16491614  0.29980787  1
  O  O33  1  0.19844324  0.16829237  0.81610094  1
  O  O34  1  0.97387300  0.79491702  0.81170018  1
  O  O35  1  0.83328894  0.02744784  0.81437076  1
  O  O36  1  0.78737079  0.94990326  0.70362578  1
  O  O37  1  0.15927869  0.20852513  0.70551657  1
  O  O38  1  0.05131475  0.82991337  0.70481642  1
  O  O39  1  0.79662481  0.81054798  0.19145776  1
  O  O40  1  0.00238275  0.18653092  0.18847379  1
  O  O41  1  0.18235565  0.98442534  0.18933833  1
  O  O42  1  0.87985978  0.37789179  0.63938521  1
  O  O43  1  0.49038023  0.11669247  0.63778058  1
  O  O44  1  0.62087552  0.50094766  0.63903654  1
  O  O45  1  0.87312153  0.47721007  0.13228929  1
  O  O46  1  0.61070106  0.12053136  0.13115073  1
  O  O47  1  0.52321564  0.39697122  0.13254784  1
  O  O48  1  0.46967128  0.30559332  0.02199154  1
  O  O49  1  0.83165913  0.51424622  0.02048530  1
  O  O50  1  0.68671792  0.15752078  0.02346200  1
  O  O51  1  0.45286896  0.14038441  0.53052843  1
  O  O52  1  0.67774518  0.53226052  0.52794474  1
  O  O53  1  0.85351347  0.31276700  0.52871045  1
  O  O54  1  0.54135605  0.71619399  0.97234605  1
  O  O55  1  0.16075336  0.45141681  0.97152816  1
  O  O56  1  0.28710301  0.82702154  0.97338308  1
  O  O57  1  0.53102773  0.82290168  0.47659616  1
  O  O58  1  0.29991214  0.46510808  0.47313212  1
  O  O59  1  0.17639577  0.70447695  0.47578256  1
  O  O60  1  0.14095008  0.64655204  0.36185718  1
  O  O61  1  0.50621634  0.84803816  0.36233201  1
  O  O62  1  0.35056055  0.48659273  0.36354092  1
  O  O63  1  0.11992029  0.49574376  0.86583369  1
  O  O64  1  0.37525792  0.86813589  0.86402977  1
  O  O65  1  0.49903678  0.62195657  0.86400481  1
  O  O66  1  0.05343543  0.84944052  0.41092620  1
  O  O67  1  0.79822596  0.95759478  0.41217765  1
  O  O68  1  0.15956248  0.21001173  0.41391128  1
  O  O69  1  0.02496562  0.19723036  0.91135446  1
  O  O70  1  0.16527422  0.97229174  0.90872652  1
  O  O71  1  0.81345416  0.83661541  0.90880883  1
  O  O72  1  0.00339582  0.19636173  0.59323365  1
  O  O73  1  0.19724885  0.00165648  0.59390034  1
  O  O74  1  0.81414534  0.80234032  0.59401394  1
  O  O75  1  0.97047467  0.78001300  0.08556427  1
  O  O76  1  0.79844556  0.01451674  0.08476951  1
  O  O77  1  0.21366249  0.20075902  0.08681339  1
  O  O78  1  0.68896493  0.15205191  0.74808706  1
  O  O79  1  0.46309411  0.31849094  0.74913750  1
  O  O80  1  0.86011306  0.54157782  0.75028854  1
  O  O81  1  0.71951707  0.52733319  0.23666875  1
  O  O82  1  0.80545055  0.29220615  0.23317769  1
  O  O83  1  0.48268130  0.20418943  0.23112860  1
  O  O84  1  0.64573062  0.50447012  0.92605327  1
  O  O85  1  0.86014865  0.35244042  0.92581242  1
  O  O86  1  0.50205450  0.13908767  0.92708921  1
  O  O87  1  0.62313810  0.11730506  0.42602777  1
  O  O88  1  0.48009490  0.35797289  0.42408693  1
  O  O89  1  0.87621676  0.51835031  0.42497539  1
  O  O90  1  0.39017774  0.53093539  0.06733290  1
  O  O91  1  0.13871565  0.61380604  0.06718440  1
  O  O92  1  0.47740661  0.86849972  0.07054165  1
  O  O93  1  0.37299596  0.85825847  0.57842601  1
  O  O94  1  0.48006791  0.63457664  0.57578699  1
  O  O95  1  0.15241503  0.52673509  0.57456074  1
  O  O96  1  0.34095695  0.87264462  0.25164302  1
  O  O97  1  0.53585272  0.66401139  0.25228001  1
  O  O98  1  0.14067492  0.46222643  0.25195893  1
  O  O99  1  0.28519150  0.47495123  0.77110613  1
  O  O100  1  0.17993329  0.70589057  0.76854696  1
  O  O101  1  0.52400865  0.81996103  0.76770130  1
