# generated using pymatgen
data_MgV2(OF3)2
_symmetry_space_group_name_H-M   'P 1'
_cell_length_a   4.61095206
_cell_length_b   6.66395713
_cell_length_c   4.60606587
_cell_angle_alpha   69.96739800
_cell_angle_beta   90.01253693
_cell_angle_gamma   69.75565587
_symmetry_Int_Tables_number   1
_chemical_formula_structural   MgV2(OF3)2
_chemical_formula_sum   'Mg1 V2 O2 F6'
_cell_volume   123.61711645
_cell_formula_units_Z   1
loop_
 _symmetry_equiv_pos_site_id
 _symmetry_equiv_pos_as_xyz
  1  'x, y, z'
loop_
 _atom_site_type_symbol
 _atom_site_label
 _atom_site_symmetry_multiplicity
 _atom_site_fract_x
 _atom_site_fract_y
 _atom_site_fract_z
 _atom_site_occupancy
  Mg  Mg0  1  0.75526600  0.99964200  0.74881000  1
  V  V1  1  0.04762900  0.36120600  0.04179300  1
  V  V2  1  0.40962800  0.63743100  0.45683700  1
  O  O3  1  0.16169700  0.60966500  0.72727000  1
  O  O4  1  0.77215000  0.38883400  0.77138900  1
  F  F5  1  0.40707000  0.14155400  0.95634800  1
  F  F6  1  0.34861300  0.38811000  0.33650600  1
  F  F7  1  0.10668600  0.85691700  0.09349500  1
  F  F8  1  0.54958800  0.85693700  0.54257000  1
  F  F9  1  0.73732100  0.61021600  0.16255300  1
  F  F10  1  0.96468900  0.14154700  0.40524300  1
