# generated using pymatgen
data_La2(SO4)3
_symmetry_space_group_name_H-M   'P 1'
_cell_length_a   9.68423354
_cell_length_b   9.68423316
_cell_length_c   24.60576719
_cell_angle_alpha   90.00000000
_cell_angle_beta   90.00000000
_cell_angle_gamma   120.00000131
_symmetry_Int_Tables_number   1
_chemical_formula_structural   La2(SO4)3
_chemical_formula_sum   'La12 S18 O72'
_cell_volume   1998.47181481
_cell_formula_units_Z   6
loop_
 _symmetry_equiv_pos_site_id
 _symmetry_equiv_pos_as_xyz
  1  'x, y, z'
loop_
 _atom_site_type_symbol
 _atom_site_label
 _atom_site_symmetry_multiplicity
 _atom_site_fract_x
 _atom_site_fract_y
 _atom_site_fract_z
 _atom_site_occupancy
  La  La0  1  -0.00000000  -0.00000000  0.35505660  1
  La  La1  1  -0.00000000  -0.00000000  0.85505660  1
  La  La2  1  -0.00000000  -0.00000000  0.64494340  1
  La  La3  1  -0.00000000  -0.00000000  0.14494340  1
  La  La4  1  0.66666700  0.33333300  0.68838960  1
  La  La5  1  0.66666700  0.33333300  0.18838960  1
  La  La6  1  0.66666700  0.33333300  0.97827640  1
  La  La7  1  0.66666700  0.33333300  0.47827640  1
  La  La8  1  0.33333300  0.66666700  0.02172360  1
  La  La9  1  0.33333300  0.66666700  0.52172360  1
  La  La10  1  0.33333300  0.66666700  0.31161040  1
  La  La11  1  0.33333300  0.66666700  0.81161040  1
  S  S12  1  0.29211807  -0.00000000  0.25000000  1
  S  S13  1  0.70788193  0.70788193  0.25000000  1
  S  S14  1  1.00000000  0.29211807  0.25000000  1
  S  S15  1  0.29211807  0.29211807  0.75000000  1
  S  S16  1  0.00000000  0.70788193  0.75000000  1
  S  S17  1  0.70788193  -0.00000000  0.75000000  1
  S  S18  1  0.95878507  0.33333300  0.58333300  1
  S  S19  1  0.37454893  0.04121493  0.58333300  1
  S  S20  1  0.66666700  0.62545107  0.58333300  1
  S  S21  1  0.95878507  0.62545107  0.08333300  1
  S  S22  1  0.66666700  0.04121493  0.08333300  1
  S  S23  1  0.37454893  0.33333300  0.08333300  1
  S  S24  1  0.62545107  0.66666700  0.91666700  1
  S  S25  1  0.04121493  0.37454893  0.91666700  1
  S  S26  1  0.33333300  0.95878507  0.91666700  1
  S  S27  1  0.62545107  0.95878507  0.41666700  1
  S  S28  1  0.33333300  0.37454893  0.41666700  1
  S  S29  1  0.04121493  0.66666700  0.41666700  1
  O  O30  1  0.21561788  0.02386541  0.29873816  1
  O  O31  1  0.80824752  0.78438212  0.29873816  1
  O  O32  1  0.97613459  0.19175248  0.29873816  1
  O  O33  1  0.21561788  0.19175248  0.79873816  1
  O  O34  1  0.97613459  0.78438212  0.79873816  1
  O  O35  1  0.80824752  0.02386541  0.79873816  1
  O  O36  1  0.78438212  0.97613459  0.70126184  1
  O  O37  1  0.19175248  0.21561788  0.70126184  1
  O  O38  1  0.02386541  0.80824752  0.70126184  1
  O  O39  1  0.78438212  0.80824752  0.20126184  1
  O  O40  1  0.02386541  0.21561788  0.20126184  1
  O  O41  1  0.19175248  0.97613459  0.20126184  1
  O  O42  1  0.88228488  0.35719841  0.63207116  1
  O  O43  1  0.47491452  0.11771512  0.63207116  1
  O  O44  1  0.64280159  0.52508548  0.63207116  1
  O  O45  1  0.88228488  0.52508548  0.13207116  1
  O  O46  1  0.64280159  0.11771512  0.13207116  1
  O  O47  1  0.47491452  0.35719841  0.13207116  1
  O  O48  1  0.45104912  0.30946759  0.03459484  1
  O  O49  1  0.85841948  0.54895088  0.03459484  1
  O  O50  1  0.69053241  0.14158052  0.03459484  1
  O  O51  1  0.45104912  0.14158052  0.53459484  1
  O  O52  1  0.69053241  0.54895088  0.53459484  1
  O  O53  1  0.85841948  0.30946759  0.53459484  1
  O  O54  1  0.54895088  0.69053241  0.96540516  1
  O  O55  1  0.14158052  0.45104912  0.96540516  1
  O  O56  1  0.30946759  0.85841948  0.96540516  1
  O  O57  1  0.54895088  0.85841948  0.46540516  1
  O  O58  1  0.30946759  0.45104912  0.46540516  1
  O  O59  1  0.14158052  0.69053241  0.46540516  1
  O  O60  1  0.11771512  0.64280159  0.36792884  1
  O  O61  1  0.52508548  0.88228488  0.36792884  1
  O  O62  1  0.35719841  0.47491452  0.36792884  1
  O  O63  1  0.11771512  0.47491452  0.86792884  1
  O  O64  1  0.35719841  0.88228488  0.86792884  1
  O  O65  1  0.52508548  0.64280159  0.86792884  1
  O  O66  1  0.02355588  0.80901636  0.40901112  1
  O  O67  1  0.78546048  0.97644412  0.40901112  1
  O  O68  1  0.19098364  0.21453952  0.40901112  1
  O  O69  1  0.02355588  0.21453952  0.90901112  1
  O  O70  1  0.19098364  0.97644412  0.90901112  1
  O  O71  1  0.78546048  0.80901636  0.90901112  1
  O  O72  1  0.97644412  0.19098364  0.59098888  1
  O  O73  1  0.21453952  0.02355588  0.59098888  1
  O  O74  1  0.80901636  0.78546048  0.59098888  1
  O  O75  1  0.97644412  0.78546048  0.09098888  1
  O  O76  1  0.80901636  0.02355588  0.09098888  1
  O  O77  1  0.21453952  0.19098364  0.09098888  1
  O  O78  1  0.69022288  0.14234936  0.74234412  1
  O  O79  1  0.45212748  0.30977712  0.74234412  1
  O  O80  1  0.85765064  0.54787252  0.74234412  1
  O  O81  1  0.69022288  0.54787252  0.24234412  1
  O  O82  1  0.85765064  0.30977712  0.24234412  1
  O  O83  1  0.45212748  0.14234936  0.24234412  1
  O  O84  1  0.64311112  0.52431664  0.92432188  1
  O  O85  1  0.88120652  0.35688888  0.92432188  1
  O  O86  1  0.47568336  0.11879348  0.92432188  1
  O  O87  1  0.64311112  0.11879348  0.42432188  1
  O  O88  1  0.47568336  0.35688888  0.42432188  1
  O  O89  1  0.88120652  0.52431664  0.42432188  1
  O  O90  1  0.35688888  0.47568336  0.07567812  1
  O  O91  1  0.11879348  0.64311112  0.07567812  1
  O  O92  1  0.52431664  0.88120652  0.07567812  1
  O  O93  1  0.35688888  0.88120652  0.57567812  1
  O  O94  1  0.52431664  0.64311112  0.57567812  1
  O  O95  1  0.11879348  0.47568336  0.57567812  1
  O  O96  1  0.30977712  0.85765064  0.25765588  1
  O  O97  1  0.54787252  0.69022288  0.25765588  1
  O  O98  1  0.14234936  0.45212748  0.25765588  1
  O  O99  1  0.30977712  0.45212748  0.75765588  1
  O  O100  1  0.14234936  0.69022288  0.75765588  1
  O  O101  1  0.54787252  0.85765064  0.75765588  1
