# generated using pymatgen
data_Ti2Si(SO6)2
_symmetry_space_group_name_H-M   'P 1'
_cell_length_a   8.68420499
_cell_length_b   8.68352576
_cell_length_c   22.38343931
_cell_angle_alpha   90.00106445
_cell_angle_beta   90.00000000
_cell_angle_gamma   120.00258759
_symmetry_Int_Tables_number   1
_chemical_formula_structural   Ti2Si(SO6)2
_chemical_formula_sum   'Ti12 Si6 S12 O72'
_cell_volume   1461.74726147
_cell_formula_units_Z   6
loop_
 _symmetry_equiv_pos_site_id
 _symmetry_equiv_pos_as_xyz
  1  'x, y, z'
loop_
 _atom_site_type_symbol
 _atom_site_label
 _atom_site_symmetry_multiplicity
 _atom_site_fract_x
 _atom_site_fract_y
 _atom_site_fract_z
 _atom_site_occupancy
  Ti  Ti0  1  0.98835225  0.01006673  0.35600168  1
  Ti  Ti1  1  0.02171449  0.01006673  0.85600168  1
  Ti  Ti2  1  0.00848739  0.02126177  0.64416232  1
  Ti  Ti3  1  0.01277438  0.02126177  0.14416232  1
  Ti  Ti4  1  0.67232713  0.33856550  0.68925841  1
  Ti  Ti5  1  0.66623938  0.33856550  0.18925841  1
  Ti  Ti6  1  0.64546326  0.32287213  0.97727538  1
  Ti  Ti7  1  0.67740987  0.32287213  0.47727538  1
  Ti  Ti8  1  0.32809883  0.66753809  0.02281454  1
  Ti  Ti9  1  0.33943826  0.66753809  0.52281454  1
  Ti  Ti10  1  0.33476649  0.67165525  0.31067837  1
  Ti  Ti11  1  0.33688775  0.67165525  0.81067837  1
  Si  Si12  1  0.00012676  0.29438029  0.24993421  1
  Si  Si13  1  0.29425353  0.29438029  0.74993421  1
  Si  Si14  1  0.95837589  0.33870188  0.58416574  1
  Si  Si15  1  0.38032699  0.33870188  0.08416574  1
  Si  Si16  1  0.33354597  0.95034501  0.91667857  1
  Si  Si17  1  0.61679804  0.95034501  0.41667857  1
  S  S18  1  0.28719397  0.00047951  0.25018759  1
  S  S19  1  0.71315343  0.71367476  0.24981549  1
  S  S20  1  0.00052133  0.71367476  0.74981549  1
  S  S21  1  0.71328554  0.00047951  0.75018759  1
  S  S22  1  0.37919456  0.04566087  0.58336272  1
  S  S23  1  0.66903902  0.62154585  0.58311062  1
  S  S24  1  0.95250783  0.62154585  0.08311062  1
  S  S25  1  0.66646731  0.04566087  0.08336272  1
  S  S26  1  0.62197132  0.66895662  0.91671098  1
  S  S27  1  0.04445111  0.37990777  0.91660164  1
  S  S28  1  0.33545566  0.37990777  0.41660164  1
  S  S29  1  0.04698429  0.66895662  0.41671098  1
  O  O30  1  0.20758676  0.03016362  0.30375391  1
  O  O31  1  0.82518415  0.79139139  0.30386139  1
  O  O32  1  0.96897734  0.16255720  0.30721357  1
  O  O33  1  0.19357986  0.16255720  0.80721357  1
  O  O34  1  0.96620725  0.79139139  0.80386139  1
  O  O35  1  0.82257687  0.03016362  0.80375391  1
  O  O36  1  0.79126682  0.96623702  0.69622247  1
  O  O37  1  0.16248664  0.19340935  0.69270057  1
  O  O38  1  0.03016825  0.82244933  0.69626860  1
  O  O39  1  0.79228108  0.82244933  0.19626860  1
  O  O40  1  0.03092271  0.19340935  0.19270057  1
  O  O41  1  0.17497020  0.96623702  0.19622247  1
  O  O42  1  0.85748034  0.36348125  0.64137162  1
  O  O43  1  0.49051673  0.12562650  0.63667538  1
  O  O44  1  0.63346296  0.50800097  0.63721883  1
  O  O45  1  0.87453901  0.50800097  0.13721883  1
  O  O46  1  0.63511077  0.12562650  0.13667538  1
  O  O47  1  0.50600191  0.36348125  0.14137162  1
  O  O48  1  0.47365543  0.30275308  0.02592787  1
  O  O49  1  0.84387067  0.53933337  0.02952645  1
  O  O50  1  0.70163287  0.15855194  0.02965658  1
  O  O51  1  0.45692007  0.15855194  0.52965658  1
  O  O52  1  0.69546369  0.53933337  0.52952645  1
  O  O53  1  0.82909864  0.30275308  0.52592787  1
  O  O54  1  0.53948906  0.69700558  0.97012931  1
  O  O55  1  0.15855043  0.45741924  0.97031452  1
  O  O56  1  0.30373342  0.82704275  0.97490214  1
  O  O57  1  0.52330834  0.82704275  0.47490214  1
  O  O58  1  0.29886781  0.45741924  0.47031452  1
  O  O59  1  0.15751552  0.69700558  0.47012931  1
  O  O60  1  0.12419397  0.63230868  0.36297502  1
  O  O61  1  0.49374911  0.85673611  0.35844619  1
  O  O62  1  0.36364617  0.49076283  0.36325821  1
  O  O63  1  0.12711566  0.49076283  0.86325821  1
  O  O64  1  0.36298600  0.85673611  0.85844619  1
  O  O65  1  0.50811370  0.63230868  0.86297502  1
  O  O66  1  0.02879332  0.82704531  0.40730790  1
  O  O67  1  0.81399972  0.97241612  0.40668381  1
  O  O68  1  0.17677249  0.19965626  0.40809298  1
  O  O69  1  0.02288378  0.19965626  0.90809298  1
  O  O70  1  0.15841641  0.97241612  0.90668381  1
  O  O71  1  0.79825198  0.82704531  0.90730790  1
  O  O72  1  0.97180656  0.15810786  0.59343552  1
  O  O73  1  0.19882387  0.02201931  0.59171872  1
  O  O74  1  0.82556235  0.79820075  0.59296487  1
  O  O75  1  0.97263839  0.79820075  0.09296487  1
  O  O76  1  0.82319544  0.02201931  0.09171872  1
  O  O77  1  0.18630130  0.15810786  0.09343552  1
  O  O78  1  0.69103819  0.15750404  0.74135077  1
  O  O79  1  0.48494138  0.30981173  0.73682176  1
  O  O80  1  0.84043708  0.53418013  0.74241415  1
  O  O81  1  0.69374405  0.53418013  0.24241415  1
  O  O82  1  0.82487135  0.30981173  0.23682176  1
  O  O83  1  0.46646685  0.15750404  0.24135077  1
  O  O84  1  0.64384452  0.51033521  0.92516888  1
  O  O85  1  0.86844698  0.36199321  0.92595936  1
  O  O86  1  0.50856075  0.14744946  0.92672713  1
  O  O87  1  0.63888971  0.14744946  0.42672713  1
  O  O88  1  0.49354723  0.36199321  0.42595936  1
  O  O89  1  0.86649170  0.51033521  0.42516888  1
  O  O90  1  0.35605875  0.50809658  0.07041328  1
  O  O91  1  0.13148017  0.63858586  0.07547471  1
  O  O92  1  0.50808252  0.86724459  0.07499510  1
  O  O93  1  0.35916106  0.86724459  0.57499510  1
  O  O94  1  0.50710469  0.63858586  0.57547471  1
  O  O95  1  0.15203684  0.50809658  0.57041328  1
  O  O96  1  0.30611145  0.84042505  0.25765550  1
  O  O97  1  0.53371420  0.69102336  0.25856153  1
  O  O98  1  0.17495556  0.48506293  0.26307312  1
  O  O99  1  0.31010637  0.48506293  0.76307312  1
  O  O100  1  0.15730816  0.69102336  0.75856153  1
  O  O101  1  0.53431260  0.84042505  0.75765550  1
