# generated using pymatgen
data_Cs3Bi2Br9
_symmetry_space_group_name_H-M   'P 1'
_cell_length_a   8.01402722
_cell_length_b   8.01402757
_cell_length_c   9.94480076
_cell_angle_alpha   90.00000000
_cell_angle_beta   90.00000000
_cell_angle_gamma   119.99999857
_symmetry_Int_Tables_number   1
_chemical_formula_structural   Cs3Bi2Br9
_chemical_formula_sum   'Cs3 Bi2 Br9'
_cell_volume   553.13147227
_cell_formula_units_Z   1
loop_
 _symmetry_equiv_pos_site_id
 _symmetry_equiv_pos_as_xyz
  1  'x, y, z'
loop_
 _atom_site_type_symbol
 _atom_site_label
 _atom_site_symmetry_multiplicity
 _atom_site_fract_x
 _atom_site_fract_y
 _atom_site_fract_z
 _atom_site_occupancy
  Cs  Cs0  1  0.33333300  0.66666700  0.33723250  1
  Cs  Cs1  1  0.66666700  0.33333300  0.66276750  1
  Cs  Cs2  1  0.00000000  -0.00000000  -0.00000000  1
  Bi  Bi3  1  0.33333300  0.66666700  0.81045269  1
  Bi  Bi4  1  0.66666700  0.33333300  0.18954731  1
  Br  Br5  1  0.16692730  0.33385261  0.66240679  1
  Br  Br6  1  0.66614739  0.83307270  0.66240679  1
  Br  Br7  1  0.16692730  0.83307270  0.66240679  1
  Br  Br8  1  0.83307270  0.66614739  0.33759321  1
  Br  Br9  1  0.83307270  0.16692730  0.33759321  1
  Br  Br10  1  0.50000000  0.50000000  -0.00000000  1
  Br  Br11  1  0.50000000  -0.00000000  -0.00000000  1
  Br  Br12  1  0.00000000  0.50000000  -0.00000000  1
  Br  Br13  1  0.33385261  0.16692730  0.33759321  1
