# generated using pymatgen
data_Zr6Ag7F31
_symmetry_space_group_name_H-M   'P 1'
_cell_length_a   8.68043535
_cell_length_b   8.68043535
_cell_length_c   8.68043468
_cell_angle_alpha   106.83084109
_cell_angle_beta   106.83084117
_cell_angle_gamma   106.83084131
_symmetry_Int_Tables_number   1
_chemical_formula_structural   Zr6Ag7F31
_chemical_formula_sum   'Zr6 Ag7 F31'
_cell_volume   547.21019256
_cell_formula_units_Z   1
loop_
 _symmetry_equiv_pos_site_id
 _symmetry_equiv_pos_as_xyz
  1  'x, y, z'
loop_
 _atom_site_type_symbol
 _atom_site_label
 _atom_site_symmetry_multiplicity
 _atom_site_fract_x
 _atom_site_fract_y
 _atom_site_fract_z
 _atom_site_occupancy
  Zr  Zr0  1  0.11665723  0.03644298  0.35877564  1
  Zr  Zr1  1  0.35877564  0.11665723  0.03644298  1
  Zr  Zr2  1  0.03644298  0.35877564  0.11665723  1
  Zr  Zr3  1  0.88334277  0.96355702  0.64122436  1
  Zr  Zr4  1  0.64122436  0.88334277  0.96355702  1
  Zr  Zr5  1  0.96355702  0.64122436  0.88334277  1
  Ag  Ag6  1  0.50000000  0.50000000  0.50000000  1
  Ag  Ag7  1  0.81399298  0.28831443  0.42635645  1
  Ag  Ag8  1  0.42635645  0.81399298  0.28831443  1
  Ag  Ag9  1  0.28831443  0.42635645  0.81399298  1
  Ag  Ag10  1  0.18600702  0.71168557  0.57364355  1
  Ag  Ag11  1  0.57364355  0.18600702  0.71168557  1
  Ag  Ag12  1  0.71168557  0.57364355  0.18600702  1
  F  F13  1  0.00000000  -0.00000000  -0.00000000  1
  F  F14  1  0.09134766  0.25319122  0.30634927  1
  F  F15  1  0.30634927  0.09134766  0.25319122  1
  F  F16  1  0.25319122  0.30634927  0.09134766  1
  F  F17  1  0.90865234  0.74680878  0.69365073  1
  F  F18  1  0.69365073  0.90865234  0.74680878  1
  F  F19  1  0.74680878  0.69365073  0.90865234  1
  F  F20  1  0.04618640  0.78692704  0.16028556  1
  F  F21  1  0.16028556  0.04618640  0.78692704  1
  F  F22  1  0.78692704  0.16028556  0.04618640  1
  F  F23  1  0.95381360  0.21307296  0.83971444  1
  F  F24  1  0.83971444  0.95381360  0.21307296  1
  F  F25  1  0.21307296  0.83971444  0.95381360  1
  F  F26  1  0.85064075  0.44930376  0.97917606  1
  F  F27  1  0.44930376  0.97917606  0.85064075  1
  F  F28  1  0.97917606  0.85064075  0.44930376  1
  F  F29  1  0.14935925  0.55069624  0.02082394  1
  F  F30  1  0.55069624  0.02082394  0.14935925  1
  F  F31  1  0.02082394  0.14935925  0.55069624  1
  F  F32  1  0.74235343  0.43823709  0.67227094  1
  F  F33  1  0.43823709  0.67227094  0.74235343  1
  F  F34  1  0.67227094  0.74235343  0.43823709  1
  F  F35  1  0.25764657  0.56176291  0.32772906  1
  F  F36  1  0.56176291  0.32772906  0.25764657  1
  F  F37  1  0.32772906  0.25764657  0.56176291  1
  F  F38  1  0.05552873  0.52517031  0.70812967  1
  F  F39  1  0.52517031  0.70812967  0.05552873  1
  F  F40  1  0.70812967  0.05552873  0.52517031  1
  F  F41  1  0.94447127  0.47482969  0.29187033  1
  F  F42  1  0.47482969  0.29187033  0.94447127  1
  F  F43  1  0.29187033  0.94447127  0.47482969  1
