# generated using pymatgen
data_Na6Ta8Zn4Si9(SO8)9
_symmetry_space_group_name_H-M   'P 1'
_cell_length_a   8.85764447
_cell_length_b   8.85224356
_cell_length_c   22.84669479
_cell_angle_alpha   89.87321257
_cell_angle_beta   90.20474918
_cell_angle_gamma   120.00374768
_symmetry_Int_Tables_number   1
_chemical_formula_structural   Na6Ta8Zn4Si9(SO8)9
_chemical_formula_sum   'Na6 Ta8 Zn4 Si9 S9 O72'
_cell_volume   1551.33783149
_cell_formula_units_Z   1
loop_
 _symmetry_equiv_pos_site_id
 _symmetry_equiv_pos_as_xyz
  1  'x, y, z'
loop_
 _atom_site_type_symbol
 _atom_site_label
 _atom_site_symmetry_multiplicity
 _atom_site_fract_x
 _atom_site_fract_y
 _atom_site_fract_z
 _atom_site_occupancy
  Na  Na0  1  0.99901104  0.00012090  0.49235381  1
  Na  Na1  1  0.99061320  0.00542318  0.99858742  1
  Na  Na2  1  0.68032732  0.33833436  0.81978022  1
  Na  Na3  1  0.66463641  0.32101552  0.32191024  1
  Na  Na4  1  0.32835698  0.66621598  0.16935239  1
  Na  Na5  1  0.33185701  0.67339266  0.65666520  1
  Ta  Ta6  1  0.01158430  0.01408789  0.35605727  1
  Ta  Ta7  1  0.98102466  0.99060039  0.85357312  1
  Ta  Ta8  1  0.99009133  0.98678485  0.64472984  1
  Ta  Ta9  1  0.00811793  0.00603592  0.14930961  1
  Ta  Ta10  1  0.67544477  0.33789913  0.97706692  1
  Ta  Ta11  1  0.66485208  0.32628505  0.47327573  1
  Ta  Ta12  1  0.32088581  0.66441550  0.31580463  1
  Ta  Ta13  1  0.33002924  0.65886206  0.81040097  1
  Zn  Zn14  1  0.68657968  0.33755119  0.68969334  1
  Zn  Zn15  1  0.66349576  0.31420907  0.19295927  1
  Zn  Zn16  1  0.33960938  0.65187376  0.01175901  1
  Zn  Zn17  1  0.33209120  0.67002782  0.50227027  1
  Si  Si18  1  0.29490486  0.00028369  0.25130891  1
  Si  Si19  1  0.00404829  0.29889999  0.25091528  1
  Si  Si20  1  0.99860179  0.70901960  0.75025543  1
  Si  Si21  1  0.70334069  -0.00001236  0.74842622  1
  Si  Si22  1  0.61618603  0.66626760  0.91993432  1
  Si  Si23  1  0.05295607  0.37791015  0.91889829  1
  Si  Si24  1  0.62090549  0.94449272  0.41856692  1
  Si  Si25  1  0.33419276  0.38596604  0.42012361  1
  Si  Si26  1  0.04549808  0.67294305  0.42061287  1
  S  S27  1  0.71259958  0.71564506  0.24918041  1
  S  S28  1  0.28189343  0.28395928  0.75003199  1
  S  S29  1  0.96030245  0.33477926  0.58501443  1
  S  S30  1  0.37943345  0.04852085  0.58691704  1
  S  S31  1  0.66181897  0.61555858  0.58576522  1
  S  S32  1  0.95582246  0.62419323  0.08430667  1
  S  S33  1  0.66274157  0.03888041  0.08356703  1
  S  S34  1  0.37939512  0.33084478  0.08534230  1
  S  S35  1  0.33335261  0.95656093  0.91729659  1
  O  O36  1  0.17983205  0.00542956  0.30518017  1
  O  O37  1  0.81642667  0.80056988  0.30131674  1
  O  O38  1  0.98200430  0.17190705  0.30526010  1
  O  O39  1  0.19673089  0.18340758  0.80345490  1
  O  O40  1  0.99543863  0.82288634  0.80609584  1
  O  O41  1  0.82638601  0.01896738  0.80611682  1
  O  O42  1  0.80956483  0.97615831  0.69214687  1
  O  O43  1  0.17273369  0.20365436  0.69697654  1
  O  O44  1  0.03207496  0.83676626  0.69187883  1
  O  O45  1  0.80413961  0.82958264  0.19429574  1
  O  O46  1  0.02503924  0.19088696  0.19140423  1
  O  O47  1  0.16453801  0.96824566  0.19093113  1
  O  O48  1  0.87587532  0.34890408  0.63784824  1
  O  O49  1  0.47897445  0.13694038  0.63924957  1
  O  O50  1  0.65214161  0.51945796  0.63867322  1
  O  O51  1  0.87014980  0.52191208  0.13522877  1
  O  O52  1  0.65030075  0.12504062  0.13553372  1
  O  O53  1  0.48000277  0.34422030  0.13678947  1
  O  O54  1  0.46170940  0.30680883  0.03053334  1
  O  O55  1  0.84268725  0.52969736  0.02907135  1
  O  O56  1  0.68633606  0.15216922  0.02959031  1
  O  O57  1  0.46311342  0.15472329  0.53287616  1
  O  O58  1  0.69010787  0.53750614  0.53258356  1
  O  O59  1  0.84884882  0.30593952  0.53203802  1
  O  O60  1  0.56136532  0.72104105  0.97810119  1
  O  O61  1  0.14896702  0.44912506  0.97911584  1
  O  O62  1  0.29881745  0.85544422  0.97047971  1
  O  O63  1  0.56169600  0.84656799  0.47926381  1
  O  O64  1  0.28962319  0.44358753  0.47982075  1
  O  O65  1  0.15208170  0.71915647  0.47965639  1
  O  O66  1  0.13104899  0.63078372  0.36185115  1
  O  O67  1  0.49468736  0.86025282  0.36053076  1
  O  O68  1  0.36780398  0.50474017  0.36096229  1
  O  O69  1  0.13673607  0.50207286  0.86040318  1
  O  O70  1  0.36638312  0.87768599  0.86468711  1
  O  O71  1  0.49471897  0.63639064  0.86164020  1
  O  O72  1  0.00522966  0.82716462  0.40387597  1
  O  O73  1  0.81565765  0.98219056  0.40349133  1
  O  O74  1  0.17382830  0.18623551  0.40741750  1
  O  O75  1  0.02667525  0.18421916  0.90586387  1
  O  O76  1  0.18785723  0.99122753  0.90634465  1
  O  O77  1  0.81925302  0.82298303  0.90667996  1
  O  O78  1  0.97263935  0.16651917  0.58992721  1
  O  O79  1  0.19961190  0.04012967  0.59041906  1
  O  O80  1  0.83675002  0.80168881  0.58965743  1
  O  O81  1  0.95983520  0.79819950  0.08436743  1
  O  O82  1  0.82821674  0.02612015  0.08529855  1
  O  O83  1  0.19822671  0.16131345  0.08756500  1
  O  O84  1  0.67764809  0.16377560  0.74675162  1
  O  O85  1  0.45501694  0.30780943  0.74528972  1
  O  O86  1  0.82344355  0.52804898  0.74736357  1
  O  O87  1  0.69769029  0.54673818  0.24103174  1
  O  O88  1  0.84046381  0.32556393  0.24599214  1
  O  O89  1  0.47256715  0.17957379  0.24702349  1
  O  O90  1  0.63447899  0.48752091  0.92847785  1
  O  O91  1  0.84848473  0.34695862  0.92712435  1
  O  O92  1  0.49555018  0.13481397  0.92416257  1
  O  O93  1  0.64023785  0.14293448  0.42636563  1
  O  O94  1  0.50781067  0.36032091  0.42787845  1
  O  O95  1  0.85256894  0.49200465  0.42882219  1
  O  O96  1  0.34932667  0.47866031  0.08026840  1
  O  O97  1  0.13203832  0.65352198  0.07606651  1
  O  O98  1  0.50845947  0.86648041  0.07674724  1
  O  O99  1  0.34865665  0.87147791  0.58259572  1
  O  O100  1  0.51920044  0.65127382  0.58205455  1
  O  O101  1  0.13534023  0.48352003  0.58037557  1
  O  O102  1  0.30774244  0.82238250  0.25438631  1
  O  O103  1  0.54304952  0.70994737  0.25065014  1
  O  O104  1  0.19182670  0.47973830  0.25460305  1
  O  O105  1  0.29074589  0.45979935  0.75494526  1
  O  O106  1  0.17810179  0.69799708  0.75861498  1
  O  O107  1  0.52008231  0.81466796  0.75790214  1
