# generated using pymatgen
data_MgFe3OF7
_symmetry_space_group_name_H-M   'P 1'
_cell_length_a   5.83415303
_cell_length_b   5.83415219
_cell_length_c   5.83415181
_cell_angle_alpha   113.22259453
_cell_angle_beta   113.22259510
_cell_angle_gamma   66.77740459
_symmetry_Int_Tables_number   1
_chemical_formula_structural   MgFe3OF7
_chemical_formula_sum   'Mg1 Fe3 O1 F7'
_cell_volume   160.85902139
_cell_formula_units_Z   1
loop_
 _symmetry_equiv_pos_site_id
 _symmetry_equiv_pos_as_xyz
  1  'x, y, z'
loop_
 _atom_site_type_symbol
 _atom_site_label
 _atom_site_symmetry_multiplicity
 _atom_site_fract_x
 _atom_site_fract_y
 _atom_site_fract_z
 _atom_site_occupancy
  Mg  Mg0  1  0.86944500  0.86944500  0.13055500  1
  Fe  Fe1  1  0.38719700  0.38720100  0.13044000  1
  Fe  Fe2  1  0.38720000  0.86956000  0.61280200  1
  Fe  Fe3  1  0.86955900  0.38719700  0.61280100  1
  O  O4  1  0.60509200  0.60509100  0.39490800  1
  F  F5  1  0.14699900  0.14699800  0.85300200  1
  F  F6  1  0.10832700  0.10832600  0.37714300  1
  F  F7  1  0.10832600  0.62285700  0.89167300  1
  F  F8  1  0.12086800  0.64085900  0.35914100  1
  F  F9  1  0.62285700  0.10832600  0.89167400  1
  F  F10  1  0.64085900  0.12086900  0.35914000  1
  F  F11  1  0.64086000  0.64085900  0.87913200  1
