# generated using pymatgen
data_NbInP2SO12
_symmetry_space_group_name_H-M   'P 1'
_cell_length_a   8.87500730
_cell_length_b   8.90418315
_cell_length_c   22.88982194
_cell_angle_alpha   90.56683585
_cell_angle_beta   90.00000000
_cell_angle_gamma   119.89166850
_symmetry_Int_Tables_number   1
_chemical_formula_structural   NbInP2SO12
_chemical_formula_sum   'Nb6 In6 P12 S6 O72'
_cell_volume   1568.12479888
_cell_formula_units_Z   6
loop_
 _symmetry_equiv_pos_site_id
 _symmetry_equiv_pos_as_xyz
  1  'x, y, z'
loop_
 _atom_site_type_symbol
 _atom_site_label
 _atom_site_symmetry_multiplicity
 _atom_site_fract_x
 _atom_site_fract_y
 _atom_site_fract_z
 _atom_site_occupancy
  Nb  Nb0  1  0.99278812  0.00644213  0.64199636  1
  Nb  Nb1  1  0.01365401  0.00644213  0.14199636  1
  Nb  Nb2  1  0.65945512  0.33977513  0.97532936  1
  Nb  Nb3  1  0.68032101  0.33977513  0.47532936  1
  Nb  Nb4  1  0.32612112  0.67310913  0.30866336  1
  Nb  Nb5  1  0.34698701  0.67310913  0.80866336  1
  In  In6  1  0.99825508  0.00122937  0.35488938  1
  In  In7  1  0.00297428  0.00122937  0.85488938  1
  In  In8  1  0.66492208  0.33456237  0.68822238  1
  In  In9  1  0.66964128  0.33456237  0.18822238  1
  In  In10  1  0.33158808  0.66789637  0.02155638  1
  In  In11  1  0.33630728  0.66789637  0.52155638  1
  P  P12  1  0.28799268  0.00343778  0.25030351  1
  P  P13  1  0.00168848  0.28643742  0.25058017  1
  P  P14  1  0.28474895  0.28643742  0.75058017  1
  P  P15  1  0.71544510  0.00343778  0.75030351  1
  P  P16  1  0.95465968  0.33677078  0.58363651  1
  P  P17  1  0.66835548  0.61977042  0.58391317  1
  P  P18  1  0.95141595  0.61977042  0.08391317  1
  P  P19  1  0.38211210  0.33677078  0.08363651  1
  P  P20  1  0.62132568  0.67010478  0.91697051  1
  P  P21  1  0.33502148  0.95310442  0.91724717  1
  P  P22  1  0.61808195  0.95310442  0.41724717  1
  P  P23  1  0.04877810  0.67010478  0.41697051  1
  S  S24  1  0.70809050  0.71336327  0.24980198  1
  S  S25  1  0.00527277  0.71336327  0.74980198  1
  S  S26  1  0.37475750  0.04669627  0.58313498  1
  S  S27  1  0.67193977  0.04669627  0.08313498  1
  S  S28  1  0.04142350  0.38003027  0.91646898  1
  S  S29  1  0.33860577  0.38003027  0.41646898  1
  O  O30  1  0.20747216  0.02764669  0.30484023  1
  O  O31  1  0.81168044  0.78646226  0.30293450  1
  O  O32  1  0.97282410  0.18061959  0.30485140  1
  O  O33  1  0.20779548  0.18061959  0.80485140  1
  O  O34  1  0.97478182  0.78646226  0.80293450  1
  O  O35  1  0.82017453  0.02764669  0.80484023  1
  O  O36  1  0.80243036  0.96797075  0.69521913  1
  O  O37  1  0.16221922  0.19410848  0.69578192  1
  O  O38  1  0.03595208  0.82480980  0.69799877  1
  O  O39  1  0.78885772  0.82480980  0.19799877  1
  O  O40  1  0.03188926  0.19410848  0.19578192  1
  O  O41  1  0.16554039  0.96797075  0.19521913  1
  O  O42  1  0.87413916  0.36097969  0.63817323  1
  O  O43  1  0.47834744  0.11979526  0.63626750  1
  O  O44  1  0.63949110  0.51395259  0.63818440  1
  O  O45  1  0.87446248  0.51395259  0.13818440  1
  O  O46  1  0.64144882  0.11979526  0.13626750  1
  O  O47  1  0.48684153  0.36097969  0.13817323  1
  O  O48  1  0.46909736  0.30130375  0.02855213  1
  O  O49  1  0.82888622  0.52744148  0.02911492  1
  O  O50  1  0.70261908  0.15814280  0.03133177  1
  O  O51  1  0.45552472  0.15814280  0.53133177  1
  O  O52  1  0.69855626  0.52744148  0.52911492  1
  O  O53  1  0.83220739  0.30130375  0.52855213  1
  O  O54  1  0.54080516  0.69431369  0.97150723  1
  O  O55  1  0.14501344  0.45312926  0.96960150  1
  O  O56  1  0.30615710  0.84728659  0.97151840  1
  O  O57  1  0.54112848  0.84728659  0.47151840  1
  O  O58  1  0.30811482  0.45312926  0.46960150  1
  O  O59  1  0.15350753  0.69431369  0.47150723  1
  O  O60  1  0.13576336  0.63463775  0.36188613  1
  O  O61  1  0.49555222  0.86077548  0.36244892  1
  O  O62  1  0.36928508  0.49147680  0.36466577  1
  O  O63  1  0.12219072  0.49147680  0.86466577  1
  O  O64  1  0.36522226  0.86077548  0.86244892  1
  O  O65  1  0.49887339  0.63463775  0.86188613  1
  O  O66  1  0.01326368  0.81552761  0.40637871  1
  O  O67  1  0.80021809  0.98886732  0.40679063  1
  O  O68  1  0.19292475  0.20498034  0.40876306  1
  O  O69  1  0.01205559  0.20498034  0.90876306  1
  O  O70  1  0.18864923  0.98886732  0.90679063  1
  O  O71  1  0.80226393  0.81552761  0.90637871  1
  O  O72  1  0.96357123  0.16271108  0.59227827  1
  O  O73  1  0.19919536  0.03383736  0.59212423  1
  O  O74  1  0.84118429  0.80154876  0.59446775  1
  O  O75  1  0.96036447  0.80154876  0.09446775  1
  O  O76  1  0.83464200  0.03383736  0.09212423  1
  O  O77  1  0.19913984  0.16271108  0.09227827  1
  O  O78  1  0.67993068  0.14886061  0.73971171  1
  O  O79  1  0.46688509  0.32220032  0.74012363  1
  O  O80  1  0.85959175  0.53831334  0.74209606  1
  O  O81  1  0.67872259  0.53831334  0.24209606  1
  O  O82  1  0.85531623  0.32220032  0.24012363  1
  O  O83  1  0.46893093  0.14886061  0.23971171  1
  O  O84  1  0.63023823  0.49604408  0.92561127  1
  O  O85  1  0.86586236  0.36717036  0.92545723  1
  O  O86  1  0.50785129  0.13488176  0.92780075  1
  O  O87  1  0.62703147  0.13488176  0.42780075  1
  O  O88  1  0.50130900  0.36717036  0.42545723  1
  O  O89  1  0.86580684  0.49604408  0.42561127  1
  O  O90  1  0.34659668  0.48219461  0.07304571  1
  O  O91  1  0.13355109  0.65553432  0.07345763  1
  O  O92  1  0.52625775  0.87164734  0.07543006  1
  O  O93  1  0.34538859  0.87164734  0.57543006  1
  O  O94  1  0.52198223  0.65553432  0.57345763  1
  O  O95  1  0.13559693  0.48219461  0.57304571  1
  O  O96  1  0.29690423  0.82937808  0.25894527  1
  O  O97  1  0.53252836  0.70050436  0.25879123  1
  O  O98  1  0.17451729  0.46821576  0.26113475  1
  O  O99  1  0.29369747  0.46821576  0.76113475  1
  O  O100  1  0.16797500  0.70050436  0.75879123  1
  O  O101  1  0.53247284  0.82937808  0.75894527  1
