# generated using pymatgen
data_WCl4O
_symmetry_space_group_name_H-M   'P 1'
_cell_length_a   3.90617600
_cell_length_b   6.73122305
_cell_length_c   6.73122305
_cell_angle_alpha   85.17060573
_cell_angle_beta   73.13285329
_cell_angle_gamma   73.13285329
_symmetry_Int_Tables_number   1
_chemical_formula_structural   WCl4O
_chemical_formula_sum   'W1 Cl4 O1'
_cell_volume   162.08603505
_cell_formula_units_Z   1
loop_
 _symmetry_equiv_pos_site_id
 _symmetry_equiv_pos_as_xyz
  1  'x, y, z'
loop_
 _atom_site_type_symbol
 _atom_site_label
 _atom_site_symmetry_multiplicity
 _atom_site_fract_x
 _atom_site_fract_y
 _atom_site_fract_z
 _atom_site_occupancy
  W  W0  1  0.02336500  0.00000000  0.00000000  1
  Cl  Cl1  1  0.14215100  0.69058300  0.18339700  1
  Cl  Cl2  1  0.01613100  0.30941700  0.81660300  1
  Cl  Cl3  1  0.32554800  0.81660300  0.69058300  1
  Cl  Cl4  1  0.83273400  0.18339700  0.30941700  1
  O  O5  1  0.56087100  0.00000000  0.00000000  1
