# generated using pymatgen
data_Na14La3Ta5(SiO4)12
_symmetry_space_group_name_H-M   'P 1'
_cell_length_a   18.72736087
_cell_length_b   9.34917773
_cell_length_c   22.45180881
_cell_angle_alpha   90.02614115
_cell_angle_beta   89.94409803
_cell_angle_gamma   119.92045067
_symmetry_Int_Tables_number   1
_chemical_formula_structural   Na14La3Ta5(SiO4)12
_chemical_formula_sum   'Na42 La9 Ta15 Si36 O144'
_cell_volume   3407.05641198
_cell_formula_units_Z   3
loop_
 _symmetry_equiv_pos_site_id
 _symmetry_equiv_pos_as_xyz
  1  'x, y, z'
loop_
 _atom_site_type_symbol
 _atom_site_label
 _atom_site_symmetry_multiplicity
 _atom_site_fract_x
 _atom_site_fract_y
 _atom_site_fract_z
 _atom_site_occupancy
  Na  Na0  1  0.31779472  0.01104918  0.24685536  1
  Na  Na1  1  0.82027533  0.00921122  0.24436043  1
  Na  Na2  1  0.18348656  0.35873945  0.24479926  1
  Na  Na3  1  0.68809120  0.36326860  0.24706394  1
  Na  Na4  1  0.99610128  0.62310022  0.24782139  1
  Na  Na5  1  0.49269989  0.63198506  0.24454521  1
  Na  Na6  1  0.31632733  0.62459296  0.74747996  1
  Na  Na7  1  0.81603646  0.62420300  0.74800466  1
  Na  Na8  1  0.99552217  0.36731745  0.74843557  1
  Na  Na9  1  0.49499573  0.36679686  0.74794433  1
  Na  Na10  1  0.18893542  0.00843772  0.74789753  1
  Na  Na11  1  0.68826809  0.00831094  0.74780861  1
  Na  Na12  1  0.15609979  0.34732086  0.57863174  1
  Na  Na13  1  0.65401250  0.34619705  0.57831717  1
  Na  Na14  1  0.01816243  0.69292502  0.57892874  1
  Na  Na15  1  0.51806232  0.68945200  0.57789378  1
  Na  Na16  1  0.32478890  0.95924725  0.57652273  1
  Na  Na17  1  0.82940556  0.96602411  0.58001294  1
  Na  Na18  1  0.15564464  0.96265000  0.07777549  1
  Na  Na19  1  0.65588805  0.96320906  0.07779864  1
  Na  Na20  1  0.32622480  0.68977725  0.07726236  1
  Na  Na21  1  0.82670391  0.69262360  0.07741988  1
  Na  Na22  1  0.01788528  0.34515723  0.07741843  1
  Na  Na23  1  0.51806009  0.34517574  0.07735611  1
  Na  Na24  1  0.34736591  0.02497123  0.91788080  1
  Na  Na25  1  0.84732686  0.02525593  0.91813176  1
  Na  Na26  1  0.48597861  0.29681697  0.41328811  1
  Na  Na27  1  0.66206435  0.02532176  0.41200695  1
  Na  Na28  1  0.34964190  0.67574038  0.41321518  1
  Na  Na29  1  0.84830196  0.67378653  0.41569920  1
  Na  Na30  1  0.00810576  0.01505345  0.49746935  1
  Na  Na31  1  0.49925461  0.99936157  0.49393767  1
  Na  Na32  1  0.00706891  0.99987424  0.99803760  1
  Na  Na33  1  0.50725627  0.00029954  0.99858869  1
  Na  Na34  1  0.33281585  0.34107707  0.83643789  1
  Na  Na35  1  0.83271338  0.34121782  0.83694939  1
  Na  Na36  1  0.32884519  0.32792801  0.33176401  1
  Na  Na37  1  0.83749087  0.33004182  0.33251806  1
  Na  Na38  1  0.16743054  0.66733508  0.15778999  1
  Na  Na39  1  0.66632448  0.66672164  0.15817989  1
  Na  Na40  1  0.16760193  0.66797403  0.65826402  1
  Na  Na41  1  0.66617268  0.66586330  0.66041767  1
  La  La42  1  0.49875534  0.99899380  0.34165992  1
  La  La43  1  0.33273171  0.33255939  0.68422660  1
  La  La44  1  0.83351767  0.33309247  0.68606149  1
  La  La45  1  0.33003918  0.32854008  0.17590123  1
  La  La46  1  0.83657606  0.33899491  0.17933944  1
  La  La47  1  0.16412141  0.66354589  0.00014960  1
  La  La48  1  0.66418188  0.66355844  0.00162402  1
  La  La49  1  0.15908441  0.65626046  0.50317641  1
  La  La50  1  0.67192787  0.67578826  0.50728718  1
  Ta  Ta51  1  0.00292392  0.00430950  0.35236202  1
  Ta  Ta52  1  0.00167621  0.00048494  0.85319458  1
  Ta  Ta53  1  0.50160684  0.00007797  0.85304310  1
  Ta  Ta54  1  0.00054904  0.00006779  0.64551940  1
  Ta  Ta55  1  0.49958498  -0.00003981  0.64454025  1
  Ta  Ta56  1  0.00007527  -0.00007087  0.14456816  1
  Ta  Ta57  1  0.49960750  0.99978111  0.14791726  1
  Ta  Ta58  1  0.33368462  0.33690989  0.98026413  1
  Ta  Ta59  1  0.83356617  0.33649933  0.98041638  1
  Ta  Ta60  1  0.33027456  0.32790831  0.48083438  1
  Ta  Ta61  1  0.83666344  0.33642159  0.48082910  1
  Ta  Ta62  1  0.16629653  0.66799233  0.31654313  1
  Ta  Ta63  1  0.66674361  0.66616594  0.31504499  1
  Ta  Ta64  1  0.16648080  0.66511633  0.81689430  1
  Ta  Ta65  1  0.66622513  0.66490681  0.81699585  1
  Si  Si66  1  0.13942638  0.98211917  0.25038203  1
  Si  Si67  1  0.64888797  0.98711293  0.25136061  1
  Si  Si68  1  0.34281055  0.70157217  0.25090954  1
  Si  Si69  1  0.85387283  0.72064419  0.25211309  1
  Si  Si70  1  0.00782691  0.29498370  0.25090002  1
  Si  Si71  1  0.50669421  0.31206117  0.25116353  1
  Si  Si72  1  0.13895595  0.29585675  0.75119799  1
  Si  Si73  1  0.63847220  0.29529229  0.75095928  1
  Si  Si74  1  0.00870914  0.72186289  0.75140934  1
  Si  Si75  1  0.50835059  0.72176132  0.75075164  1
  Si  Si76  1  0.35242704  0.98317234  0.75194331  1
  Si  Si77  1  0.85224267  0.98221324  0.75201631  1
  Si  Si78  1  0.48151022  0.32541646  0.58425665  1
  Si  Si79  1  0.98181319  0.32403589  0.58573645  1
  Si  Si80  1  0.18014316  0.03401553  0.58540176  1
  Si  Si81  1  0.68110349  0.04003170  0.58422303  1
  Si  Si82  1  0.33636023  0.63786751  0.58357707  1
  Si  Si83  1  0.83876433  0.64019714  0.58540439  1
  Si  Si84  1  0.48244497  0.64035739  0.08382169  1
  Si  Si85  1  0.98392095  0.64030653  0.08403368  1
  Si  Si86  1  0.33649441  0.03094561  0.08352998  1
  Si  Si87  1  0.83713075  0.03405670  0.08224769  1
  Si  Si88  1  0.17878959  0.32466396  0.08245481  1
  Si  Si89  1  0.68091954  0.32572799  0.08480095  1
  Si  Si90  1  0.32089414  0.66402117  0.91557321  1
  Si  Si91  1  0.82074848  0.66440077  0.91576368  1
  Si  Si92  1  0.01061998  0.35868277  0.91624495  1
  Si  Si93  1  0.51090771  0.35850947  0.91643877  1
  Si  Si94  1  0.16853177  0.97937335  0.91672068  1
  Si  Si95  1  0.66847752  0.97908382  0.91677288  1
  Si  Si96  1  0.31442447  0.97473571  0.41898645  1
  Si  Si97  1  0.82215037  0.97932331  0.41518289  1
  Si  Si98  1  0.16826426  0.35924482  0.41671610  1
  Si  Si99  1  0.67243734  0.36608598  0.41853878  1
  Si  Si100  1  0.01192776  0.66561840  0.41647978  1
  Si  Si101  1  0.51062409  0.65373974  0.41830139  1
  O  O102  1  0.08310933  0.98725012  0.30391042  1
  O  O103  1  0.61928165  0.01771093  0.31446293  1
  O  O104  1  0.38822139  0.75913613  0.31388138  1
  O  O105  1  0.91025733  0.82671891  0.30731767  1
  O  O106  1  0.49120324  0.22301352  0.31443416  1
  O  O107  1  0.00427563  0.17460991  0.30358418  1
  O  O108  1  0.08130052  0.17919722  0.80482566  1
  O  O109  1  0.58110710  0.17905326  0.80482733  1
  O  O110  1  0.50531114  0.83547608  0.80418354  1
  O  O111  1  0.00544068  0.83584350  0.80445906  1
  O  O112  1  0.40892542  0.98931651  0.80758807  1
  O  O113  1  0.90896920  0.98848305  0.80738222  1
  O  O114  1  0.40173769  0.96661145  0.69174260  1
  O  O115  1  0.90159395  0.96659918  0.69158465  1
  O  O116  1  0.08276350  0.19927083  0.69034692  1
  O  O117  1  0.58254066  0.19904243  0.69010654  1
  O  O118  1  0.01737775  0.83462344  0.69039047  1
  O  O119  1  0.51740270  0.83485913  0.68981106  1
  O  O120  1  0.40301595  0.83683025  0.19638257  1
  O  O121  1  0.90225635  0.83559698  0.19148255  1
  O  O122  1  0.01670213  0.19880232  0.18982293  1
  O  O123  1  0.51483390  0.19369280  0.19631332  1
  O  O124  1  0.08320245  0.96796031  0.18952136  1
  O  O125  1  0.58132778  0.96885664  0.19671657  1
  O  O126  1  0.45044910  0.35936037  0.64707345  1
  O  O127  1  0.95001146  0.35475162  0.64860962  1
  O  O128  1  0.22735067  0.09508755  0.64849521  1
  O  O129  1  0.72919558  0.10343040  0.64672800  1
  O  O130  1  0.32015938  0.54210077  0.64643087  1
  O  O131  1  0.82294681  0.54329338  0.64772474  1
  O  O132  1  0.45116414  0.54727144  0.14652446  1
  O  O133  1  0.95806080  0.55171607  0.14835552  1
  O  O134  1  0.31730813  0.08428243  0.14734698  1
  O  O135  1  0.82286879  0.10061645  0.14457721  1
  O  O136  1  0.22263684  0.35766376  0.14640534  1
  O  O137  1  0.72801313  0.36317832  0.14805256  1
  O  O138  1  0.23976251  0.30686529  0.03040478  1
  O  O139  1  0.73971148  0.30611216  0.03136971  1
  O  O140  1  0.41479488  0.52168049  0.03017329  1
  O  O141  1  0.91452191  0.51823939  0.03184680  1
  O  O142  1  0.34669416  0.16612297  0.02919481  1
  O  O143  1  0.84663551  0.16439167  0.02654318  1
  O  O144  1  0.23908072  0.17188334  0.53216437  1
  O  O145  1  0.73812237  0.16846549  0.52811666  1
  O  O146  1  0.34674625  0.52639647  0.52811634  1
  O  O147  1  0.84643403  0.52627677  0.52932890  1
  O  O148  1  0.41508405  0.30566749  0.52922164  1
  O  O149  1  0.91566173  0.31026635  0.53110031  1
  O  O150  1  0.29738563  0.72376691  0.97574985  1
  O  O151  1  0.79690792  0.72412399  0.97589019  1
  O  O152  1  0.05552514  0.40480356  0.97945840  1
  O  O153  1  0.55607696  0.40552881  0.97960749  1
  O  O154  1  0.14759359  0.88891530  0.97989367  1
  O  O155  1  0.64768966  0.88803871  0.97988457  1
  O  O156  1  0.28259519  0.87379514  0.47998403  1
  O  O157  1  0.80171554  0.88004860  0.47710606  1
  O  O158  1  0.14528950  0.40124526  0.48047929  1
  O  O159  1  0.65866499  0.43214450  0.48078103  1
  O  O160  1  0.05462731  0.70850824  0.48057483  1
  O  O161  1  0.55948684  0.68752207  0.47990214  1
  O  O162  1  0.07075657  0.64447447  0.36396074  1
  O  O163  1  0.57120172  0.63937491  0.36287708  1
  O  O164  1  0.24974715  0.85729571  0.36255699  1
  O  O165  1  0.74959598  0.86150170  0.36350514  1
  O  O166  1  0.17997117  0.50349088  0.36493407  1
  O  O167  1  0.68162241  0.50220785  0.36332038  1
  O  O168  1  0.07132182  0.49815605  0.86359360  1
  O  O169  1  0.57127322  0.49804496  0.86369522  1
  O  O170  1  0.18075831  0.85801856  0.86475878  1
  O  O171  1  0.68073895  0.85812239  0.86463944  1
  O  O172  1  0.25111319  0.64182291  0.86215827  1
  O  O173  1  0.75108692  0.64200230  0.86215811  1
  O  O174  1  0.99136395  0.81431313  0.40260526  1
  O  O175  1  0.49301706  0.80493993  0.41231755  1
  O  O176  1  0.40782925  0.01070354  0.41267971  1
  O  O177  1  0.91381663  0.00873239  0.39987881  1
  O  O178  1  0.09338079  0.17346603  0.40066445  1
  O  O179  1  0.59625698  0.18103232  0.41281482  1
  O  O180  1  0.99142664  0.16896613  0.90240737  1
  O  O181  1  0.49175800  0.16878769  0.90272410  1
  O  O182  1  0.09190220  0.01116767  0.90125134  1
  O  O183  1  0.59168277  0.01054893  0.90140150  1
  O  O184  1  0.41314159  0.82019749  0.90074654  1
  O  O185  1  0.91300981  0.82062651  0.90099387  1
  O  O186  1  0.47825539  0.14269720  0.58724029  1
  O  O187  1  0.97837493  0.14179481  0.58706250  1
  O  O188  1  0.09279728  0.04254821  0.58746078  1
  O  O189  1  0.59273946  0.04417351  0.58654831  1
  O  O190  1  0.42740294  0.81496035  0.58718539  1
  O  O191  1  0.92967645  0.81559966  0.58736547  1
  O  O192  1  0.48016019  0.81755706  0.08801441  1
  O  O193  1  0.97915534  0.81435913  0.08623884  1
  O  O194  1  0.42849478  0.03959244  0.08875952  1
  O  O195  1  0.92768904  0.03753481  0.08619575  1
  O  O196  1  0.09119776  0.14216091  0.08513604  1
  O  O197  1  0.59276476  0.14381463  0.08938433  1
  O  O198  1  0.34212247  0.14468487  0.75552981  1
  O  O199  1  0.84152712  0.14314348  0.75611884  1
  O  O200  1  0.22929000  0.31496116  0.75555945  1
  O  O201  1  0.72885644  0.31453737  0.75588935  1
  O  O202  1  0.42759224  0.54083319  0.75499604  1
  O  O203  1  0.92804097  0.54107616  0.75599290  1
  O  O204  1  0.32530265  0.51573926  0.24376171  1
  O  O205  1  0.84290149  0.53741802  0.25508811  1
  O  O206  1  0.43088432  0.34632596  0.24424949  1
  O  O207  1  0.92738790  0.31581058  0.25421805  1
  O  O208  1  0.23084966  0.14153054  0.25358733  1
  O  O209  1  0.74146415  0.13981457  0.24487335  1
  O  O210  1  0.32207730  0.49038901  0.92318455  1
  O  O211  1  0.82213933  0.49112759  0.92359586  1
  O  O212  1  0.42033377  0.34874373  0.92080450  1
  O  O213  1  0.92024539  0.34987798  0.92050859  1
  O  O214  1  0.25836417  0.15243939  0.92035404  1
  O  O215  1  0.75796310  0.15269999  0.92037002  1
  O  O216  1  0.31510202  0.15260983  0.42290777  1
  O  O217  1  0.81775949  0.15113530  0.42206128  1
  O  O218  1  0.25961850  0.37062735  0.42104877  1
  O  O219  1  0.76218269  0.36929366  0.42063853  1
  O  O220  1  0.42359138  0.47339939  0.42069253  1
  O  O221  1  0.92198080  0.49049773  0.42162135  1
  O  O222  1  0.16342752  0.47822581  0.07341318  1
  O  O223  1  0.66458365  0.47830009  0.07534393  1
  O  O224  1  0.07635076  0.67366734  0.07466398  1
  O  O225  1  0.57492380  0.67192860  0.07591957  1
  O  O226  1  0.26094722  0.84558333  0.07418368  1
  O  O227  1  0.76009986  0.84866347  0.07587938  1
  O  O228  1  0.16263738  0.84778246  0.57797186  1
  O  O229  1  0.66374513  0.85332779  0.57884466  1
  O  O230  1  0.25973339  0.66953214  0.57623707  1
  O  O231  1  0.76377957  0.67812430  0.58109493  1
  O  O232  1  0.07461927  0.47607148  0.57970467  1
  O  O233  1  0.57482207  0.47597614  0.57756170  1
  O  O234  1  0.14314767  0.80839148  0.25719982  1
  O  O235  1  0.64758970  0.80674139  0.25405681  1
  O  O236  1  0.25506815  0.70849490  0.25378555  1
  O  O237  1  0.76242885  0.70963174  0.25837021  1
  O  O238  1  0.09311184  0.47719551  0.25854253  1
  O  O239  1  0.59864102  0.48633942  0.25416214  1
  O  O240  1  0.14542136  0.48032645  0.75690531  1
  O  O241  1  0.64522436  0.48016874  0.75682001  1
  O  O242  1  0.09433961  0.70974508  0.75820987  1
  O  O243  1  0.59411430  0.70944668  0.75804432  1
  O  O244  1  0.25999939  0.81187379  0.75722110  1
  O  O245  1  0.75979741  0.81106929  0.75704249  1
