# generated using pymatgen
data_Na3Hf2Mg2P3(SO8)3
_symmetry_space_group_name_H-M   'P 1'
_cell_length_a   8.82214056
_cell_length_b   8.80100402
_cell_length_c   22.86160587
_cell_angle_alpha   90.05787933
_cell_angle_beta   89.91464776
_cell_angle_gamma   119.89212095
_symmetry_Int_Tables_number   1
_chemical_formula_structural   Na3Hf2Mg2P3(SO8)3
_chemical_formula_sum   'Na9 Hf6 Mg6 P9 S9 O72'
_cell_volume   1538.91323038
_cell_formula_units_Z   3
loop_
 _symmetry_equiv_pos_site_id
 _symmetry_equiv_pos_as_xyz
  1  'x, y, z'
loop_
 _atom_site_type_symbol
 _atom_site_label
 _atom_site_symmetry_multiplicity
 _atom_site_fract_x
 _atom_site_fract_y
 _atom_site_fract_z
 _atom_site_occupancy
  Na  Na0  1  0.66309493  0.68919064  0.08221077  1
  Na  Na1  1  0.33278643  0.29924154  0.91735302  1
  Na  Na2  1  0.33292736  0.03327265  0.41745365  1
  Na  Na3  1  0.99681806  0.00018284  0.49928256  1
  Na  Na4  1  0.00308732  0.99827908  0.99905183  1
  Na  Na5  1  0.67465909  0.33419257  0.83320193  1
  Na  Na6  1  0.67399260  0.33926134  0.33288921  1
  Na  Na7  1  0.32167891  0.66099525  0.16387234  1
  Na  Na8  1  0.33422389  0.67195343  0.66342974  1
  Hf  Hf9  1  0.00612177  -0.00033511  0.64865257  1
  Hf  Hf10  1  0.01201999  0.00481428  0.14922607  1
  Hf  Hf11  1  0.66018144  0.32461076  0.68715354  1
  Hf  Hf12  1  0.67031106  0.34169226  0.18694625  1
  Hf  Hf13  1  0.33265649  0.66366162  0.31083632  1
  Hf  Hf14  1  0.33264993  0.66969860  0.81058947  1
  Mg  Mg15  1  0.99369428  0.99969459  0.34762456  1
  Mg  Mg16  1  0.99353893  0.99472224  0.84743724  1
  Mg  Mg17  1  0.67226402  0.33819470  0.98497935  1
  Mg  Mg18  1  0.66675931  0.33408458  0.48455282  1
  Mg  Mg19  1  0.31917956  0.66047989  0.02032541  1
  Mg  Mg20  1  0.33437901  0.67189056  0.52024211  1
  P  P21  1  0.29199966  0.00264494  0.25342723  1
  P  P22  1  0.71396643  0.71416385  0.25140556  1
  P  P23  1  0.99703932  0.28610378  0.25213174  1
  P  P24  1  0.28833495  0.28773416  0.75277832  1
  P  P25  1  0.99611249  0.70967100  0.75192741  1
  P  P26  1  0.71509750  0.00081181  0.75158308  1
  P  P27  1  0.37598980  0.03840976  0.58008723  1
  P  P28  1  0.96131558  0.62335697  0.08126298  1
  P  P29  1  0.37588940  0.33489848  0.08016139  1
  S  S30  1  0.95906854  0.33591078  0.58161736  1
  S  S31  1  0.66385279  0.62273307  0.58174204  1
  S  S32  1  0.66456096  0.04209964  0.08175199  1
  S  S33  1  0.62815113  0.67030302  0.91817435  1
  S  S34  1  0.03930870  0.37370725  0.91756473  1
  S  S35  1  0.33331693  0.95847348  0.91826208  1
  S  S36  1  0.62791131  0.95771155  0.41805469  1
  S  S37  1  0.33269702  0.37540144  0.41850917  1
  S  S38  1  0.03932383  0.66478468  0.41804923  1
  O  O39  1  0.21473150  0.03107059  0.30851167  1
  O  O40  1  0.82244922  0.79139926  0.30498349  1
  O  O41  1  0.96911825  0.17947393  0.30604419  1
  O  O42  1  0.21481581  0.18333407  0.80825065  1
  O  O43  1  0.96793494  0.78851452  0.80585087  1
  O  O44  1  0.82131194  0.03209660  0.80578214  1
  O  O45  1  0.79370869  0.97035634  0.69513415  1
  O  O46  1  0.17642692  0.20661848  0.69700059  1
  O  O47  1  0.02949360  0.82213864  0.69574910  1
  O  O48  1  0.78855290  0.81946503  0.19355266  1
  O  O49  1  0.02920074  0.20739288  0.19570518  1
  O  O50  1  0.17848876  0.96968690  0.19755569  1
  O  O51  1  0.87649011  0.36073296  0.63544113  1
  O  O52  1  0.48958977  0.13256934  0.63550491  1
  O  O53  1  0.64250955  0.51718111  0.63554783  1
  O  O54  1  0.87125915  0.51125490  0.13705337  1
  O  O55  1  0.63971042  0.12252043  0.13548129  1
  O  O56  1  0.49162804  0.36083327  0.13538862  1
  O  O57  1  0.45226097  0.30049020  0.02516173  1
  O  O58  1  0.84079654  0.54511071  0.02888418  1
  O  O59  1  0.69565746  0.15010778  0.03011566  1
  O  O60  1  0.45354702  0.15132740  0.52564373  1
  O  O61  1  0.69721362  0.54584297  0.53018463  1
  O  O62  1  0.85008183  0.30574420  0.53014829  1
  O  O63  1  0.54537743  0.69379591  0.97088587  1
  O  O64  1  0.15327772  0.45598704  0.96847721  1
  O  O65  1  0.30880538  0.84960361  0.96926766  1
  O  O66  1  0.54300384  0.84883736  0.46935847  1
  O  O67  1  0.30780425  0.45961691  0.46964383  1
  O  O68  1  0.15297861  0.69555786  0.46893694  1
  O  O69  1  0.12503879  0.64008262  0.36434712  1
  O  O70  1  0.51206677  0.87429246  0.36483416  1
  O  O71  1  0.35819655  0.48498116  0.36477987  1
  O  O72  1  0.12569573  0.48495634  0.86418196  1
  O  O73  1  0.35816451  0.87355471  0.86452857  1
  O  O74  1  0.51106981  0.63926791  0.86556786  1
  O  O75  1  0.02780102  0.82687740  0.41046461  1
  O  O76  1  0.80163080  0.97656107  0.41022283  1
  O  O77  1  0.17806123  0.19720314  0.41109893  1
  O  O78  1  0.02813333  0.20029644  0.91016477  1
  O  O79  1  0.17806836  0.98120021  0.91093724  1
  O  O80  1  0.80141513  0.82512666  0.91033451  1
  O  O81  1  0.97387462  0.17406731  0.58998578  1
  O  O82  1  0.19214998  0.02362721  0.59052356  1
  O  O83  1  0.82335425  0.80094107  0.58992626  1
  O  O84  1  0.96912049  0.80558910  0.09102918  1
  O  O85  1  0.82269042  0.01948863  0.08951442  1
  O  O86  1  0.19134814  0.17122385  0.08988268  1
  O  O87  1  0.68867569  0.16184456  0.74209666  1
  O  O88  1  0.47418457  0.31381231  0.74208995  1
  O  O89  1  0.83770372  0.52458644  0.74076276  1
  O  O90  1  0.68685477  0.52639030  0.24295671  1
  O  O91  1  0.83699477  0.31118363  0.24220945  1
  O  O92  1  0.47558290  0.16145171  0.24194958  1
  O  O93  1  0.63701022  0.50526619  0.92173883  1
  O  O94  1  0.86521048  0.35667599  0.92294828  1
  O  O95  1  0.49138789  0.13648557  0.92208822  1
  O  O96  1  0.63835148  0.13242475  0.42254237  1
  O  O97  1  0.49104502  0.35527545  0.42219747  1
  O  O98  1  0.86512389  0.50744551  0.42354883  1
  O  O99  1  0.36541651  0.50410802  0.07652381  1
  O  O100  1  0.14343827  0.64765321  0.07723630  1
  O  O101  1  0.51218701  0.86374468  0.07620312  1
  O  O102  1  0.35478548  0.85580275  0.57708706  1
  O  O103  1  0.50815483  0.64111520  0.57645545  1
  O  O104  1  0.13443243  0.48959220  0.57639838  1
  O  O105  1  0.31093536  0.83600253  0.25810566  1
  O  O106  1  0.52636877  0.68956753  0.25761261  1
  O  O107  1  0.16216274  0.47314163  0.25758718  1
  O  O108  1  0.31110939  0.47470193  0.75792637  1
  O  O109  1  0.16208081  0.68917114  0.75734155  1
  O  O110  1  0.52707040  0.83782727  0.75768900  1
