# generated using pymatgen
data_Na3LaTiSi(PO6)2
_symmetry_space_group_name_H-M   'P 1'
_cell_length_a   9.39601140
_cell_length_b   9.39601105
_cell_length_c   22.28333885
_cell_angle_alpha   90.15328419
_cell_angle_beta   89.84671582
_cell_angle_gamma   119.56334313
_symmetry_Int_Tables_number   1
_chemical_formula_structural   Na3LaTiSi(PO6)2
_chemical_formula_sum   'Na18 La6 Ti6 Si6 P12 O72'
_cell_volume   1711.15762434
_cell_formula_units_Z   6
loop_
 _symmetry_equiv_pos_site_id
 _symmetry_equiv_pos_as_xyz
  1  'x, y, z'
loop_
 _atom_site_type_symbol
 _atom_site_label
 _atom_site_symmetry_multiplicity
 _atom_site_fract_x
 _atom_site_fract_y
 _atom_site_fract_z
 _atom_site_occupancy
  Na  Na0  1  0.99495981  0.98852387  0.50373579  1
  Na  Na1  1  0.01147613  0.00504019  0.00373579  1
  Na  Na2  1  0.66855939  0.31944794  0.83811741  1
  Na  Na3  1  0.68055206  0.33144061  0.33811741  1
  Na  Na4  1  0.36181700  0.69217498  0.17084755  1
  Na  Na5  1  0.30782502  0.63818300  0.67084755  1
  Na  Na6  1  0.36193827  0.35830155  0.24779256  1
  Na  Na7  1  0.99554959  0.64297783  0.24225876  1
  Na  Na8  1  0.64169845  0.63806173  0.74779256  1
  Na  Na9  1  0.35702217  0.00445041  0.74225876  1
  Na  Na10  1  0.04036606  0.69935602  0.57938127  1
  Na  Na11  1  0.65865473  0.97287393  0.58309855  1
  Na  Na12  1  0.30064398  0.95963394  0.07938127  1
  Na  Na13  1  0.02712607  0.34134527  0.08309855  1
  Na  Na14  1  0.98583806  0.68340383  0.91453602  1
  Na  Na15  1  0.69326642  0.03010163  0.91469583  1
  Na  Na16  1  0.96989837  0.30673358  0.41469583  1
  Na  Na17  1  0.31659617  0.01416194  0.41453602  1
  La  La18  1  0.97807554  0.98853104  0.34720107  1
  La  La19  1  0.01146896  0.02192446  0.84720107  1
  La  La20  1  0.67604487  0.32914243  0.68185824  1
  La  La21  1  0.67085757  0.32395513  0.18185824  1
  La  La22  1  0.33660901  0.65971993  0.01279701  1
  La  La23  1  0.34028007  0.66339099  0.51279701  1
  Ti  Ti24  1  0.01348837  0.01658358  0.65028305  1
  Ti  Ti25  1  0.98341642  0.98651163  0.15028305  1
  Ti  Ti26  1  0.66132954  0.34642440  0.98299396  1
  Ti  Ti27  1  0.65357560  0.33867046  0.48299396  1
  Ti  Ti28  1  0.31690648  0.65324131  0.31754186  1
  Ti  Ti29  1  0.34675869  0.68309352  0.81754186  1
  Si  Si30  1  0.01922955  0.31216853  0.25325653  1
  Si  Si31  1  0.68783147  0.98077045  0.75325653  1
  Si  Si32  1  0.35569802  0.04415730  0.58430180  1
  Si  Si33  1  0.95584270  0.64430198  0.08430180  1
  Si  Si34  1  0.35390133  0.98322349  0.92104850  1
  Si  Si35  1  0.01677651  0.64609867  0.42104850  1
  P  P36  1  0.28088461  0.97534410  0.25041462  1
  P  P37  1  0.68329415  0.70699963  0.24621900  1
  P  P38  1  0.29300037  0.31670585  0.74621900  1
  P  P39  1  0.02465590  0.71911539  0.75041462  1
  P  P40  1  0.95750707  0.30974561  0.57838656  1
  P  P41  1  0.69244447  0.64538705  0.58480647  1
  P  P42  1  0.69025439  0.04249293  0.07838656  1
  P  P43  1  0.35461295  0.30755553  0.08480647  1
  P  P44  1  0.62802628  0.64643589  0.91199806  1
  P  P45  1  0.02156624  0.38438547  0.91841900  1
  P  P46  1  0.61561453  0.97843376  0.41841900  1
  P  P47  1  0.35356411  0.37197372  0.41199806  1
  O  O48  1  0.21322787  0.99382563  0.31037268  1
  O  O49  1  0.78657998  0.75598139  0.30297809  1
  O  O50  1  0.00984254  0.23220889  0.31770975  1
  O  O51  1  0.24401861  0.21342002  0.80297809  1
  O  O52  1  0.00617437  0.78677213  0.81037268  1
  O  O53  1  0.76779111  0.99015746  0.81770975  1
  O  O54  1  0.80649811  0.97007358  0.69728380  1
  O  O55  1  0.16913375  0.19949970  0.69468900  1
  O  O56  1  0.04184868  0.84271272  0.69788191  1
  O  O57  1  0.80050030  0.83086625  0.19468900  1
  O  O58  1  0.02992642  0.19350189  0.19728380  1
  O  O59  1  0.15728728  0.95815132  0.19788191  1
  O  O60  1  0.89774059  0.34653674  0.63704616  1
  O  O61  1  0.45533496  0.10591005  0.64606463  1
  O  O62  1  0.67599235  0.56532606  0.64544564  1
  O  O63  1  0.89408995  0.54466504  0.14606463  1
  O  O64  1  0.65346326  0.10225941  0.13704616  1
  O  O65  1  0.43467394  0.32400765  0.14544564  1
  O  O66  1  0.47826801  0.31126450  0.03353835  1
  O  O67  1  0.82520399  0.52616476  0.02793593  1
  O  O68  1  0.70678515  0.16307541  0.02594086  1
  O  O69  1  0.47383524  0.17479601  0.52793593  1
  O  O70  1  0.68873550  0.52173199  0.53353835  1
  O  O71  1  0.83692459  0.29321485  0.52594086  1
  O  O72  1  0.56739474  0.69048801  0.96822009  1
  O  O73  1  0.09272119  0.43517896  0.98166010  1
  O  O74  1  0.33559640  0.88661216  0.98218938  1
  O  O75  1  0.56482104  0.90727881  0.48166010  1
  O  O76  1  0.30951199  0.43260526  0.46822009  1
  O  O77  1  0.11338784  0.66440360  0.48218938  1
  O  O78  1  0.14226655  0.62856696  0.36450773  1
  O  O79  1  0.49333434  0.85413423  0.37053643  1
  O  O80  1  0.36950336  0.48652150  0.35707560  1
  O  O81  1  0.14586577  0.50666566  0.87053643  1
  O  O82  1  0.37143304  0.85773345  0.86450773  1
  O  O83  1  0.51347850  0.63049664  0.85707560  1
  O  O84  1  0.00911136  0.81293749  0.41346406  1
  O  O85  1  0.79552737  0.02156726  0.41108349  1
  O  O86  1  0.21915621  0.19289375  0.40390693  1
  O  O87  1  0.97843274  0.20447263  0.91108349  1
  O  O88  1  0.18706251  0.99088864  0.91346406  1
  O  O89  1  0.80710625  0.78084379  0.90390693  1
  O  O90  1  0.94864382  0.13753449  0.58459667  1
  O  O91  1  0.17367976  0.03532618  0.59096076  1
  O  O92  1  0.86137636  0.80466662  0.58036278  1
  O  O93  1  0.96467382  0.82632024  0.09096076  1
  O  O94  1  0.86246551  0.05135618  0.08459667  1
  O  O95  1  0.19533338  0.13862364  0.08036278  1
  O  O96  1  0.64013373  0.12504919  0.75044681  1
  O  O97  1  0.47009143  0.35773144  0.73446775  1
  O  O98  1  0.87289922  0.55044215  0.74236944  1
  O  O99  1  0.64226856  0.52990857  0.23446775  1
  O  O100  1  0.87495081  0.35986627  0.25044681  1
  O  O101  1  0.44955785  0.12710078  0.24236944  1
  O  O102  1  0.62488185  0.47811641  0.92026599  1
  O  O103  1  0.85912193  0.39346617  0.91525539  1
  O  O104  1  0.52981231  0.15770172  0.92203916  1
  O  O105  1  0.60653383  0.14087807  0.41525539  1
  O  O106  1  0.52188359  0.37511815  0.42026599  1
  O  O107  1  0.84229828  0.47018769  0.42203916  1
  O  O108  1  0.31304082  0.44544533  0.07821459  1
  O  O109  1  0.14201329  0.67692595  0.07624152  1
  O  O110  1  0.55143184  0.86618600  0.07140319  1
  O  O111  1  0.32307405  0.85798671  0.57624152  1
  O  O112  1  0.55455467  0.68695918  0.57821459  1
  O  O113  1  0.13381400  0.44856816  0.57140319  1
  O  O114  1  0.28645115  0.81115885  0.25169715  1
  O  O115  1  0.52612896  0.71870504  0.25055990  1
  O  O116  1  0.20106467  0.49390690  0.25559881  1
  O  O117  1  0.28129496  0.47387104  0.75055990  1
  O  O118  1  0.18884115  0.71354885  0.75169715  1
  O  O119  1  0.50609310  0.79893533  0.75559881  1
