# generated using pymatgen
data_Na5La3Hf(PO4)6
_symmetry_space_group_name_H-M   'P 1'
_cell_length_a   9.44409080
_cell_length_b   9.45280502
_cell_length_c   23.38794191
_cell_angle_alpha   89.70182183
_cell_angle_beta   89.99193877
_cell_angle_gamma   120.00693128
_symmetry_Int_Tables_number   1
_chemical_formula_structural   Na5La3Hf(PO4)6
_chemical_formula_sum   'Na15 La9 Hf3 P18 O72'
_cell_volume   1808.02776013
_cell_formula_units_Z   3
loop_
 _symmetry_equiv_pos_site_id
 _symmetry_equiv_pos_as_xyz
  1  'x, y, z'
loop_
 _atom_site_type_symbol
 _atom_site_label
 _atom_site_symmetry_multiplicity
 _atom_site_fract_x
 _atom_site_fract_y
 _atom_site_fract_z
 _atom_site_occupancy
  Na  Na0  1  0.64516464  0.00306816  0.26175515  1
  Na  Na1  1  0.36271477  0.36010694  0.26006336  1
  Na  Na2  1  0.99231642  0.63274815  0.26118370  1
  Na  Na3  1  0.66563418  0.66270971  0.75368591  1
  Na  Na4  1  0.99231709  0.34951976  0.75356372  1
  Na  Na5  1  0.03692419  0.70172430  0.57270426  1
  Na  Na6  1  0.66661767  0.96834620  0.57238953  1
  Na  Na7  1  0.66210998  0.69497202  0.07111485  1
  Na  Na8  1  0.04040974  0.33605540  0.07072344  1
  Na  Na9  1  0.02203433  0.01872159  0.49714370  1
  Na  Na10  1  0.02774529  0.00330970  0.99677641  1
  Na  Na11  1  0.64844485  0.31837689  0.83897028  1
  Na  Na12  1  0.66633533  0.33127146  0.34733926  1
  Na  Na13  1  0.33731261  0.68578439  0.17274374  1
  Na  Na14  1  0.33543148  0.67279796  0.66963268  1
  La  La15  1  0.99341344  0.99562042  0.35488978  1
  La  La16  1  0.00191281  0.99872089  0.85370407  1
  La  La17  1  0.01675288  0.00816297  0.65336048  1
  La  La18  1  0.01164835  0.00079458  0.14530381  1
  La  La19  1  0.64639899  0.32355750  0.68397709  1
  La  La20  1  0.65740644  0.32348724  0.17672732  1
  La  La21  1  0.33267749  0.67839216  0.00848285  1
  La  La22  1  0.33237887  0.64824897  0.51468672  1
  La  La23  1  0.33382256  0.66172510  0.33260042  1
  Hf  Hf24  1  0.66319696  0.32975893  0.97901249  1
  Hf  Hf25  1  0.66100037  0.33304735  0.48593766  1
  Hf  Hf26  1  0.33240208  0.67472917  0.82505737  1
  P  P27  1  0.30448133  0.98860411  0.25179857  1
  P  P28  1  0.68774948  0.69621580  0.24350607  1
  P  P29  1  0.00997603  0.31251649  0.24425301  1
  P  P30  1  0.30470698  0.33154160  0.75554427  1
  P  P31  1  0.01314165  0.69302534  0.74830601  1
  P  P32  1  0.68372032  0.98311048  0.74902946  1
  P  P33  1  0.94990789  0.32324114  0.58669221  1
  P  P34  1  0.36109608  0.03104673  0.57942584  1
  P  P35  1  0.67977172  0.63923595  0.58529813  1
  P  P36  1  0.95255885  0.62702720  0.07856553  1
  P  P37  1  0.67882831  0.03976938  0.07788440  1
  P  P38  1  0.36517391  0.32955138  0.07684832  1
  P  P39  1  0.62275351  0.64318917  0.91896901  1
  P  P40  1  0.02003159  0.37495287  0.92000004  1
  P  P41  1  0.35656286  0.98572787  0.91861032  1
  P  P42  1  0.64797327  0.99532018  0.42175493  1
  P  P43  1  0.34693679  0.34736091  0.41280272  1
  P  P44  1  0.00602991  0.65322682  0.42167491  1
  O  O45  1  0.21012406  0.00377121  0.30250909  1
  O  O46  1  0.80846958  0.79420070  0.29178792  1
  O  O47  1  0.99088803  0.19264289  0.29269989  1
  O  O48  1  0.21753181  0.21620423  0.80518646  1
  O  O49  1  0.96876881  0.78781088  0.79126506  1
  O  O50  1  0.81586656  0.01571531  0.79379728  1
  O  O51  1  0.74245469  0.94903096  0.69078491  1
  O  O52  1  0.20846465  0.25647520  0.69919237  1
  O  O53  1  0.04213518  0.77670613  0.68856667  1
  O  O54  1  0.76140497  0.78162630  0.18517231  1
  O  O55  1  0.02479071  0.24119875  0.18614195  1
  O  O56  1  0.21265215  0.97789020  0.19538159  1
  O  O57  1  0.87933678  0.32508683  0.64614090  1
  O  O58  1  0.43927535  0.10856799  0.63720590  1
  O  O59  1  0.67082693  0.56413327  0.64498242  1
  O  O60  1  0.87848092  0.55647812  0.13833252  1
  O  O61  1  0.67297522  0.10725123  0.13771013  1
  O  O62  1  0.43192821  0.32180464  0.13678823  1
  O  O63  1  0.48234522  0.32902856  0.02980668  1
  O  O64  1  0.83510175  0.50794488  0.03166113  1
  O  O65  1  0.66964777  0.15319931  0.03063095  1
  O  O66  1  0.47148631  0.14374546  0.53033362  1
  O  O67  1  0.66837314  0.51689276  0.53795436  1
  O  O68  1  0.83073212  0.32127491  0.53948838  1
  O  O69  1  0.56132028  0.66501882  0.97731252  1
  O  O70  1  0.10373925  0.43391893  0.97847031  1
  O  O71  1  0.33492731  0.90511827  0.97719905  1
  O  O72  1  0.54800102  0.88219026  0.47194065  1
  O  O73  1  0.33043055  0.46368192  0.45487682  1
  O  O74  1  0.11830294  0.66746435  0.47215104  1
  O  O75  1  0.08098415  0.63953265  0.36357313  1
  O  O76  1  0.56333467  0.91834597  0.36330717  1
  O  O77  1  0.35927337  0.42075409  0.35202306  1
  O  O78  1  0.13426437  0.50197638  0.87275980  1
  O  O79  1  0.36307529  0.87075672  0.87111556  1
  O  O80  1  0.50165315  0.63777954  0.87092193  1
  O  O81  1  0.97869003  0.80059887  0.42206935  1
  O  O82  1  0.82353533  0.02367033  0.42342337  1
  O  O83  1  0.20111345  0.17390653  0.41950891  1
  O  O84  1  0.99177859  0.20370522  0.90799406  1
  O  O85  1  0.21320134  0.01502529  0.90893936  1
  O  O86  1  0.79591430  0.78643518  0.90832191  1
  O  O87  1  0.95819565  0.16380844  0.58021632  1
  O  O88  1  0.18676365  0.00792865  0.57503109  1
  O  O89  1  0.84591224  0.80130201  0.57860774  1
  O  O90  1  0.95865073  0.79333273  0.07003409  1
  O  O91  1  0.84532602  0.04431467  0.07058035  1
  O  O92  1  0.19079932  0.18116571  0.06886887  1
  O  O93  1  0.65964492  0.13338299  0.74827484  1
  O  O94  1  0.48700092  0.37619501  0.75276385  1
  O  O95  1  0.86855468  0.51250822  0.74802374  1
  O  O96  1  0.65840836  0.51828190  0.24620301  1
  O  O97  1  0.85734966  0.33589159  0.24661126  1
  O  O98  1  0.48158279  0.13980685  0.25182931  1
  O  O99  1  0.62558418  0.47936789  0.91935921  1
  O  O100  1  0.85268811  0.37139358  0.92092472  1
  O  O101  1  0.52155851  0.15030666  0.91772158  1
  O  O102  1  0.65538250  0.16302189  0.42794907  1
  O  O103  1  0.50838583  0.34736589  0.42534225  1
  O  O104  1  0.83816852  0.49334392  0.42931382  1
  O  O105  1  0.35669153  0.48968153  0.07509832  1
  O  O106  1  0.12121029  0.63774436  0.07608449  1
  O  O107  1  0.53716577  0.86062716  0.07516043  1
  O  O108  1  0.34896082  0.86051609  0.57767176  1
  O  O109  1  0.53815867  0.67725562  0.58073602  1
  O  O110  1  0.11830576  0.48138652  0.58125146  1
  O  O111  1  0.31633731  0.83009204  0.25620899  1
  O  O112  1  0.52148909  0.69111332  0.25223523  1
  O  O113  1  0.16681125  0.48237295  0.25260478  1
  O  O114  1  0.30247669  0.49590793  0.76373424  1
  O  O115  1  0.17070651  0.68755421  0.76587562  1
  O  O116  1  0.52017313  0.82268033  0.76509297  1
