# generated using pymatgen
data_Na2HfZrSi(PO6)2
_symmetry_space_group_name_H-M   'P 1'
_cell_length_a   9.00809246
_cell_length_b   9.00597123
_cell_length_c   23.19187206
_cell_angle_alpha   90.02200276
_cell_angle_beta   89.96434638
_cell_angle_gamma   119.76477354
_symmetry_Int_Tables_number   1
_chemical_formula_structural   Na2HfZrSi(PO6)2
_chemical_formula_sum   'Na12 Hf6 Zr6 Si6 P12 O72'
_cell_volume   1633.25605792
_cell_formula_units_Z   6
loop_
 _symmetry_equiv_pos_site_id
 _symmetry_equiv_pos_as_xyz
  1  'x, y, z'
loop_
 _atom_site_type_symbol
 _atom_site_label
 _atom_site_symmetry_multiplicity
 _atom_site_fract_x
 _atom_site_fract_y
 _atom_site_fract_z
 _atom_site_occupancy
  Na  Na0  1  0.00020857  0.63359807  0.25030852  1
  Na  Na1  1  0.36689498  0.99957270  0.75051106  1
  Na  Na2  1  0.66431045  0.96852115  0.58493843  1
  Na  Na3  1  0.03174117  0.33566864  0.08481830  1
  Na  Na4  1  0.97233989  0.66933460  0.91829266  1
  Na  Na5  1  0.33059046  0.02804389  0.41819702  1
  Na  Na6  1  0.00343130  0.99720648  0.50020940  1
  Na  Na7  1  0.00289535  0.99649750  0.00009161  1
  Na  Na8  1  0.66504276  0.32784636  0.83373963  1
  Na  Na9  1  0.67184284  0.33465390  0.33349457  1
  Na  Na10  1  0.34226502  0.67017447  0.16666540  1
  Na  Na11  1  0.32991837  0.65760102  0.66686621  1
  Hf  Hf12  1  0.99882246  0.00749510  0.85325623  1
  Hf  Hf13  1  0.66766631  0.33067024  0.18523192  1
  Hf  Hf14  1  0.65958769  0.32940697  0.98070340  1
  Hf  Hf15  1  0.33379342  0.67474864  0.01912156  1
  Hf  Hf16  1  0.33009771  0.65943355  0.31413663  1
  Hf  Hf17  1  0.34087829  0.67039551  0.81485193  1
  Zr  Zr18  1  0.99199876  0.00149831  0.35228380  1
  Zr  Zr19  1  0.00405491  0.99914057  0.64850241  1
  Zr  Zr20  1  0.00099037  0.99573030  0.14772791  1
  Zr  Zr21  1  0.66946828  0.33189464  0.68632163  1
  Zr  Zr22  1  0.67120652  0.34126654  0.48073353  1
  Zr  Zr23  1  0.32460036  0.66609529  0.51915499  1
  Si  Si24  1  -0.00001729  0.29428515  0.24841399  1
  Si  Si25  1  0.70726078  0.99802195  0.74968430  1
  Si  Si26  1  0.37246273  0.04202042  0.58243770  1
  Si  Si27  1  0.95680906  0.62471979  0.08202636  1
  Si  Si28  1  0.33502275  0.96168101  0.91543955  1
  Si  Si29  1  0.03837173  0.66532155  0.41458093  1
  P  P30  1  0.29493619  0.00209848  0.25136006  1
  P  P31  1  0.70586446  0.70755977  0.24959469  1
  P  P32  1  0.28888798  0.29256651  0.75080816  1
  P  P33  1  0.99964443  0.70842279  0.75249383  1
  P  P34  1  0.95882045  0.33360533  0.58349755  1
  P  P35  1  0.66678778  0.62568956  0.58397482  1
  P  P36  1  0.66437087  0.04253377  0.08296077  1
  P  P37  1  0.37762625  0.33483204  0.08340052  1
  P  P38  1  0.62363184  0.66661905  0.91706664  1
  P  P39  1  0.04481368  0.37753031  0.91762272  1
  P  P40  1  0.62219484  0.95515308  0.41709465  1
  P  P41  1  0.33345362  0.37610934  0.41638066  1
  O  O42  1  0.21108922  0.02647129  0.30592013  1
  O  O43  1  0.82359895  0.78810959  0.30272232  1
  O  O44  1  0.97162247  0.17409743  0.30452905  1
  O  O45  1  0.20505568  0.17373989  0.80342207  1
  O  O46  1  0.97690407  0.79540813  0.80644674  1
  O  O47  1  0.82856473  0.02550512  0.80509010  1
  O  O48  1  0.79159055  0.97166545  0.69086323  1
  O  O49  1  0.17981291  0.20681456  0.69681663  1
  O  O50  1  0.03461648  0.82484289  0.69899683  1
  O  O51  1  0.79325094  0.81962859  0.19633393  1
  O  O52  1  0.02792964  0.20790422  0.19045646  1
  O  O53  1  0.17565214  0.96595601  0.19854674  1
  O  O54  1  0.87502245  0.36235650  0.63717860  1
  O  O55  1  0.49385846  0.12884389  0.63977069  1
  O  O56  1  0.64282740  0.51514079  0.63721315  1
  O  O57  1  0.86915412  0.50377148  0.13934820  1
  O  O58  1  0.63674449  0.12667849  0.13685678  1
  O  O59  1  0.48727558  0.35768714  0.13688188  1
  O  O60  1  0.46302914  0.30720843  0.03005200  1
  O  O61  1  0.84320795  0.53303317  0.02460690  1
  O  O62  1  0.69450638  0.15874473  0.03018853  1
  O  O63  1  0.46301842  0.15446499  0.52453348  1
  O  O64  1  0.69483709  0.54165819  0.53023959  1
  O  O65  1  0.84381342  0.30329763  0.53040554  1
  O  O66  1  0.53759101  0.69165393  0.97030151  1
  O  O67  1  0.15311819  0.45840250  0.97258455  1
  O  O68  1  0.30029171  0.83360254  0.97056486  1
  O  O69  1  0.54338101  0.84913752  0.47249791  1
  O  O70  1  0.30841577  0.46016831  0.47007426  1
  O  O71  1  0.16405477  0.70024797  0.47039068  1
  O  O72  1  0.13262536  0.64279968  0.35770752  1
  O  O73  1  0.50752027  0.86818063  0.36435006  1
  O  O74  1  0.36009823  0.48823579  0.36307271  1
  O  O75  1  0.13004467  0.49252944  0.86469427  1
  O  O76  1  0.35823404  0.86860841  0.85817355  1
  O  O77  1  0.51182961  0.63856669  0.86347127  1
  O  O78  1  0.03282772  0.84403404  0.40974342  1
  O  O79  1  0.80159080  0.97578116  0.41089856  1
  O  O80  1  0.17654726  0.19400003  0.40969677  1
  O  O81  1  0.02411545  0.19813989  0.91035645  1
  O  O82  1  0.15628558  0.96759942  0.90929863  1
  O  O83  1  0.80590618  0.82361293  0.90935380  1
  O  O84  1  0.96776595  0.16722973  0.58963381  1
  O  O85  1  0.18318086  0.01962025  0.58879814  1
  O  O86  1  0.82429326  0.80789844  0.58923390  1
  O  O87  1  0.97987547  0.81479865  0.08878162  1
  O  O88  1  0.83094276  0.03297443  0.08934375  1
  O  O89  1  0.19465925  0.17739170  0.08901872  1
  O  O90  1  0.67880667  0.16525414  0.74535160  1
  O  O91  1  0.46619358  0.30485498  0.74413304  1
  O  O92  1  0.84038631  0.53242442  0.74473297  1
  O  O93  1  0.69258683  0.53010855  0.24188542  1
  O  O94  1  0.83296805  0.32204896  0.24341391  1
  O  O95  1  0.47051873  0.16084148  0.24241952  1
  O  O96  1  0.65053382  0.50944328  0.92320401  1
  O  O97  1  0.86723632  0.36528256  0.92421748  1
  O  O98  1  0.50349953  0.14873857  0.92310832  1
  O  O99  1  0.63334083  0.13204400  0.42250438  1
  O  O100  1  0.49090712  0.35002753  0.42132244  1
  O  O101  1  0.85173615  0.49608946  0.42119017  1
  O  O102  1  0.35391442  0.49262900  0.07587706  1
  O  O103  1  0.14304913  0.63080459  0.07647104  1
  O  O104  1  0.50796617  0.86305342  0.07583265  1
  O  O105  1  0.36832099  0.85708586  0.57789863  1
  O  O106  1  0.50932919  0.64896587  0.57708045  1
  O  O107  1  0.13776519  0.49022695  0.57733027  1
  O  O108  1  0.30916237  0.83787868  0.25756961  1
  O  O109  1  0.52986048  0.69097588  0.25744366  1
  O  O110  1  0.16640025  0.48755963  0.25562037  1
  O  O111  1  0.30654530  0.46918604  0.75827416  1
  O  O112  1  0.16336517  0.69336213  0.75840282  1
  O  O113  1  0.51314114  0.83230700  0.75625902  1
