# generated using pymatgen
data_SiSnGe(SO6)2
_symmetry_space_group_name_H-M   'P 1'
_cell_length_a   8.61096178
_cell_length_b   8.60570925
_cell_length_c   22.42096183
_cell_angle_alpha   89.85348154
_cell_angle_beta   89.88260931
_cell_angle_gamma   119.89674234
_symmetry_Int_Tables_number   1
_chemical_formula_structural   SiSnGe(SO6)2
_chemical_formula_sum   'Si6 Sn6 Ge6 S12 O72'
_cell_volume   1440.35495591
_cell_formula_units_Z   6
loop_
 _symmetry_equiv_pos_site_id
 _symmetry_equiv_pos_as_xyz
  1  'x, y, z'
loop_
 _atom_site_type_symbol
 _atom_site_label
 _atom_site_symmetry_multiplicity
 _atom_site_fract_x
 _atom_site_fract_y
 _atom_site_fract_z
 _atom_site_occupancy
  Si  Si0  1  0.99067491  0.29660822  0.24747603  1
  Si  Si1  1  0.29364502  0.30068919  0.75374706  1
  Si  Si2  1  0.96848459  0.34368777  0.58292482  1
  Si  Si3  1  0.38892335  0.34533987  0.08217169  1
  Si  Si4  1  0.33342541  0.94468857  0.91727194  1
  Si  Si5  1  0.61287455  0.94595434  0.41856951  1
  Sn  Sn6  1  0.98491157  0.00621190  0.35479348  1
  Sn  Sn7  1  0.00561472  0.01799241  0.64756014  1
  Sn  Sn8  1  0.01122747  0.01624875  0.14276784  1
  Sn  Sn9  1  0.67030692  0.33521021  0.68861149  1
  Sn  Sn10  1  0.67119790  0.32333614  0.47869440  1
  Sn  Sn11  1  0.33167677  0.66503108  0.31153776  1
  Ge  Ge12  1  0.02871574  0.00870328  0.85683657  1
  Ge  Ge13  1  0.66642296  0.33803622  0.18502144  1
  Ge  Ge14  1  0.64193451  0.31397201  0.97647262  1
  Ge  Ge15  1  0.32935993  0.66443155  0.02054616  1
  Ge  Ge16  1  0.33489388  0.66600347  0.52131577  1
  Ge  Ge17  1  0.33786070  0.66968725  0.81505524  1
  S  S18  1  0.29460796  0.00569300  0.24910030  1
  S  S19  1  0.71208190  0.70424234  0.24746771  1
  S  S20  1  0.00552992  0.71518513  0.75302985  1
  S  S21  1  0.70930818  0.99294255  0.75463874  1
  S  S22  1  0.37196646  0.03405896  0.58266579  1
  S  S23  1  0.66385775  0.62678760  0.58234505  1
  S  S24  1  0.95324150  0.61589721  0.08087381  1
  S  S25  1  0.66012316  0.04388455  0.08137038  1
  S  S26  1  0.62851363  0.66960008  0.91649760  1
  S  S27  1  0.03920983  0.37484942  0.91772416  1
  S  S28  1  0.33405023  0.37657223  0.41890047  1
  S  S29  1  0.04437214  0.67076874  0.41751800  1
  O  O30  1  0.21401259  0.03448625  0.30415717  1
  O  O31  1  0.82317875  0.77742482  0.30173460  1
  O  O32  1  0.95132984  0.17539877  0.30744755  1
  O  O33  1  0.19809223  0.16569329  0.81079832  1
  O  O34  1  0.96620651  0.79642639  0.80540681  1
  O  O35  1  0.82494212  0.02451925  0.80677602  1
  O  O36  1  0.77707708  0.95315765  0.69869896  1
  O  O37  1  0.17422890  0.22173466  0.69452013  1
  O  O38  1  0.03513645  0.82120300  0.69673489  1
  O  O39  1  0.79242197  0.81743153  0.19380013  1
  O  O40  1  0.03538739  0.21190372  0.19060036  1
  O  O41  1  0.17716899  0.96354839  0.19627632  1
  O  O42  1  0.88303541  0.38274165  0.64291514  1
  O  O43  1  0.48373759  0.11250550  0.63683057  1
  O  O44  1  0.62615021  0.51288617  0.63626302  1
  O  O45  1  0.87911944  0.50655181  0.13630003  1
  O  O46  1  0.62910222  0.12188118  0.13583681  1
  O  O47  1  0.51302810  0.37509410  0.14207671  1
  O  O48  1  0.47943500  0.30738337  0.02379518  1
  O  O49  1  0.84297875  0.53759255  0.02763522  1
  O  O50  1  0.70358886  0.16227326  0.02783389  1
  O  O51  1  0.44460786  0.15327520  0.53024177  1
  O  O52  1  0.69552301  0.54742065  0.52831237  1
  O  O53  1  0.84347332  0.30365826  0.52542190  1
  O  O54  1  0.54984557  0.70433868  0.96992661  1
  O  O55  1  0.15635687  0.44943182  0.97094723  1
  O  O56  1  0.29959931  0.81770141  0.97650049  1
  O  O57  1  0.51582960  0.81764966  0.47756695  1
  O  O58  1  0.29681759  0.45530539  0.47175984  1
  O  O59  1  0.15451887  0.69875664  0.47097552  1
  O  O60  1  0.11456650  0.62918440  0.36325855  1
  O  O61  1  0.49732726  0.86528052  0.35792949  1
  O  O62  1  0.36726211  0.48185637  0.36358246  1
  O  O63  1  0.11677638  0.48835980  0.86393180  1
  O  O64  1  0.36697142  0.85361135  0.85762953  1
  O  O65  1  0.51095932  0.62741160  0.86308669  1
  O  O66  1  0.03782765  0.83791247  0.40953765  1
  O  O67  1  0.80544137  0.95639206  0.41612969  1
  O  O68  1  0.18018639  0.19601555  0.41282833  1
  O  O69  1  0.01470820  0.19226750  0.90934260  1
  O  O70  1  0.15425201  0.96367232  0.90940317  1
  O  O71  1  0.80566061  0.83403414  0.90648740  1
  O  O72  1  0.97823597  0.16254356  0.58727149  1
  O  O73  1  0.19113353  0.00812949  0.59000343  1
  O  O74  1  0.82738665  0.80119590  0.59077912  1
  O  O75  1  0.96887261  0.79522244  0.08930666  1
  O  O76  1  0.81614836  0.01789276  0.08711987  1
  O  O77  1  0.19796041  0.16602476  0.08626656  1
  O  O78  1  0.69361726  0.15466704  0.74714530  1
  O  O79  1  0.48730973  0.31638988  0.74439218  1
  O  O80  1  0.84467004  0.53794134  0.74773557  1
  O  O81  1  0.69294499  0.52502009  0.24095447  1
  O  O82  1  0.81018937  0.31178821  0.23463601  1
  O  O83  1  0.46966628  0.16813007  0.24084202  1
  O  O84  1  0.65234798  0.51051195  0.92424920  1
  O  O85  1  0.86139213  0.36226002  0.92725521  1
  O  O86  1  0.51169078  0.14312002  0.92472358  1
  O  O87  1  0.62641866  0.13857617  0.42134900  1
  O  O88  1  0.50002554  0.36772691  0.42634039  1
  O  O89  1  0.86207106  0.51842047  0.42305008  1
  O  O90  1  0.36505006  0.52150761  0.06961155  1
  O  O91  1  0.13473783  0.63662164  0.07500514  1
  O  O92  1  0.49752090  0.86648788  0.07397337  1
  O  O93  1  0.36124375  0.86015103  0.57459906  1
  O  O94  1  0.50357152  0.64495526  0.57574476  1
  O  O95  1  0.16620469  0.52212424  0.57029775  1
  O  O96  1  0.31471974  0.84730163  0.25450417  1
  O  O97  1  0.53555696  0.68948596  0.25397911  1
  O  O98  1  0.16764959  0.48934411  0.25636788  1
  O  O99  1  0.30998550  0.49664256  0.76674487  1
  O  O100  1  0.16627727  0.69910514  0.76014786  1
  O  O101  1  0.52851767  0.83302469  0.76086066  1
