# generated using pymatgen
data_TaI2O
_symmetry_space_group_name_H-M   'P 1'
_cell_length_a   3.87727793
_cell_length_b   7.49696833
_cell_length_c   8.26055019
_cell_angle_alpha   105.66081365
_cell_angle_beta   103.57314284
_cell_angle_gamma   90.00000563
_symmetry_Int_Tables_number   1
_chemical_formula_structural   TaI2O
_chemical_formula_sum   'Ta2 I4 O2'
_cell_volume   224.22971591
_cell_formula_units_Z   2
loop_
 _symmetry_equiv_pos_site_id
 _symmetry_equiv_pos_as_xyz
  1  'x, y, z'
loop_
 _atom_site_type_symbol
 _atom_site_label
 _atom_site_symmetry_multiplicity
 _atom_site_fract_x
 _atom_site_fract_y
 _atom_site_fract_z
 _atom_site_occupancy
  Ta  Ta0  1  0.00013272  0.29501615  0.00026444  1
  Ta  Ta1  1  0.99986728  0.70498385  0.99973556  1
  I  I2  1  0.87819213  0.92743490  0.75638526  1
  I  I3  1  0.12180787  0.07256510  0.24361474  1
  I  I4  1  0.85005241  0.41027420  0.70010382  1
  I  I5  1  0.14994759  0.58972580  0.29989618  1
  O  O6  1  0.49978779  0.28792914  0.99957558  1
  O  O7  1  0.50021221  0.71207086  0.00042442  1
