# generated using pymatgen
data_MgCu2GeS4
_symmetry_space_group_name_H-M   'P 1'
_cell_length_a   5.47650104
_cell_length_b   5.47650154
_cell_length_c   6.53415707
_cell_angle_alpha   114.77570446
_cell_angle_beta   114.77569847
_cell_angle_gamma   89.99999521
_symmetry_Int_Tables_number   1
_chemical_formula_structural   MgCu2GeS4
_chemical_formula_sum   'Mg1 Cu2 Ge1 S4'
_cell_volume   157.84828632
_cell_formula_units_Z   1
loop_
 _symmetry_equiv_pos_site_id
 _symmetry_equiv_pos_as_xyz
  1  'x, y, z'
loop_
 _atom_site_type_symbol
 _atom_site_label
 _atom_site_symmetry_multiplicity
 _atom_site_fract_x
 _atom_site_fract_y
 _atom_site_fract_z
 _atom_site_occupancy
  Mg  Mg0  1  0.00000000  0.00000000  0.00000000  1
  Cu  Cu1  1  0.75000000  0.25000000  0.50000000  1
  Cu  Cu2  1  0.25000000  0.75000000  0.50000000  1
  Ge  Ge3  1  0.50000000  0.50000000  0.00000000  1
  S  S4  1  0.86458500  0.86458500  0.26091600  1
  S  S5  1  0.60367000  0.13541500  0.73908400  1
  S  S6  1  0.39633100  0.39633000  0.26091600  1
  S  S7  1  0.13541500  0.60367000  0.73908400  1
