# generated using pymatgen
data_Sr4MgIn2(SbO6)2
_symmetry_space_group_name_H-M   'P 1'
_cell_length_a   5.92765852
_cell_length_b   6.21320163
_cell_length_c   8.58678579
_cell_angle_alpha   91.09865925
_cell_angle_beta   88.15574030
_cell_angle_gamma   92.87860423
_symmetry_Int_Tables_number   1
_chemical_formula_structural   Sr4MgIn2(SbO6)2
_chemical_formula_sum   'Sr4 Mg1 In2 Sb2 O12'
_cell_volume   315.63757005
_cell_formula_units_Z   1
loop_
 _symmetry_equiv_pos_site_id
 _symmetry_equiv_pos_as_xyz
  1  'x, y, z'
loop_
 _atom_site_type_symbol
 _atom_site_label
 _atom_site_symmetry_multiplicity
 _atom_site_fract_x
 _atom_site_fract_y
 _atom_site_fract_z
 _atom_site_occupancy
  Sr  Sr0  1  0.02585700  0.04325700  0.73952500  1
  Sr  Sr1  1  0.50762000  0.55301100  0.74322600  1
  Sr  Sr2  1  0.90587300  0.93844100  0.22597500  1
  Sr  Sr3  1  0.54644000  0.39029400  0.28500300  1
  Mg  Mg4  1  0.34278700  0.74813300  0.15857700  1
  In  In5  1  0.03260400  0.49229500  0.50345900  1
  In  In6  1  0.49359200  0.04768600  0.95270800  1
  Sb  Sb7  1  0.50530400  0.98184900  0.50886300  1
  Sb  Sb8  1  0.98692400  0.48401700  0.97674700  1
  O  O9  1  0.69282300  0.71771500  0.44929000  1
  O  O10  1  0.63169700  0.73010300  0.04674600  1
  O  O11  1  0.91177500  0.45368000  0.74224000  1
  O  O12  1  0.32743700  0.25412300  0.56008800  1
  O  O13  1  0.27906400  0.32282500  0.93070500  1
  O  O14  1  0.61599800  0.96446700  0.72732000  1
  O  O15  1  0.14240800  0.54042400  0.27138700  1
  O  O16  1  0.40568300  0.00585900  0.28835200  1
  O  O17  1  0.18132700  0.86469900  0.98286000  1
  O  O18  1  0.24443600  0.77982800  0.58223100  1
  O  O19  1  0.77535700  0.22213400  0.04546700  1
  O  O20  1  0.78874100  0.18390800  0.45110600  1
