# generated using pymatgen
data_Na8Hf2Ga2Si5SO24
_symmetry_space_group_name_H-M   'P 1'
_cell_length_a   9.08267897
_cell_length_b   9.07098179
_cell_length_c   22.38674786
_cell_angle_alpha   89.90446489
_cell_angle_beta   89.70271848
_cell_angle_gamma   119.77212225
_symmetry_Int_Tables_number   1
_chemical_formula_structural   Na8Hf2Ga2Si5SO24
_chemical_formula_sum   'Na24 Hf6 Ga6 Si15 S3 O72'
_cell_volume   1600.92702832
_cell_formula_units_Z   3
loop_
 _symmetry_equiv_pos_site_id
 _symmetry_equiv_pos_as_xyz
  1  'x, y, z'
loop_
 _atom_site_type_symbol
 _atom_site_label
 _atom_site_symmetry_multiplicity
 _atom_site_fract_x
 _atom_site_fract_y
 _atom_site_fract_z
 _atom_site_occupancy
  Na  Na0  1  0.63942136  0.00162044  0.25207578  1
  Na  Na1  1  0.36045020  0.36217784  0.24750410  1
  Na  Na2  1  0.00006784  0.63644243  0.24982710  1
  Na  Na3  1  0.63606114  0.63583364  0.74793531  1
  Na  Na4  1  0.99798956  0.36250951  0.75025708  1
  Na  Na5  1  0.36629218  0.00351981  0.75018846  1
  Na  Na6  1  0.30236268  0.33843603  0.58460928  1
  Na  Na7  1  0.03656495  0.69920771  0.58213519  1
  Na  Na8  1  0.66319681  0.96297308  0.58244477  1
  Na  Na9  1  0.28836718  0.96461680  0.08162952  1
  Na  Na10  1  0.66897392  0.69510981  0.08554117  1
  Na  Na11  1  0.04212423  0.33583936  0.08543375  1
  Na  Na12  1  0.97264495  0.66880757  0.91661213  1
  Na  Na13  1  0.70362656  0.04177674  0.91237891  1
  Na  Na14  1  0.32326915  0.28746670  0.91818404  1
  Na  Na15  1  0.96215751  0.29460010  0.41284528  1
  Na  Na16  1  0.32720412  0.02221827  0.41561493  1
  Na  Na17  1  0.71249200  0.68072290  0.41709291  1
  Na  Na18  1  0.99379263  0.99218987  0.49927423  1
  Na  Na19  1  0.01327227  0.00498552  0.99983460  1
  Na  Na20  1  0.66704201  0.32728941  0.83387375  1
  Na  Na21  1  0.67304344  0.33160757  0.33231113  1
  Na  Na22  1  0.32737332  0.65880023  0.16481451  1
  Na  Na23  1  0.33470579  0.66683996  0.66348206  1
  Hf  Hf24  1  0.99931326  -0.00021141  0.64803787  1
  Hf  Hf25  1  0.66802832  0.33414772  0.68520476  1
  Hf  Hf26  1  0.66908889  0.34399042  0.18617125  1
  Hf  Hf27  1  0.67481619  0.33256185  0.48341718  1
  Hf  Hf28  1  0.32990940  0.67322164  0.31228339  1
  Hf  Hf29  1  0.32433326  0.67044742  0.81451936  1
  Ga  Ga30  1  0.98607512  0.98449001  0.34626415  1
  Ga  Ga31  1  0.01478077  0.01309503  0.84742165  1
  Ga  Ga32  1  0.01434213  0.99930089  0.15300193  1
  Ga  Ga33  1  0.66416692  0.33312356  0.98349869  1
  Ga  Ga34  1  0.29444215  0.64417427  0.01634004  1
  Ga  Ga35  1  0.33822778  0.68772235  0.52117947  1
  Si  Si36  1  0.28645769  0.00299477  0.25134997  1
  Si  Si37  1  0.71394821  0.71608498  0.24829747  1
  Si  Si38  1  0.99966023  0.28102496  0.24980241  1
  Si  Si39  1  0.29345079  0.29328839  0.75114415  1
  Si  Si40  1  0.99668936  0.71207761  0.75307726  1
  Si  Si41  1  0.71144261  0.99910387  0.75328411  1
  Si  Si42  1  0.97056206  0.33905763  0.58262820  1
  Si  Si43  1  0.37233122  0.03882487  0.58255277  1
  Si  Si44  1  0.66060033  0.62814274  0.58161869  1
  Si  Si45  1  0.95789617  0.62959382  0.08065433  1
  Si  Si46  1  0.37170539  0.33631573  0.08003212  1
  Si  Si47  1  0.03076323  0.36392375  0.91818141  1
  Si  Si48  1  0.33514685  0.96327388  0.92035449  1
  Si  Si49  1  0.62906433  0.95744329  0.41745612  1
  Si  Si50  1  0.04215498  0.67204788  0.41800555  1
  S  S51  1  0.66664855  0.03999064  0.08223679  1
  S  S52  1  0.62435265  0.66752260  0.91842274  1
  S  S53  1  0.33177519  0.37455932  0.41735722  1
  O  O54  1  0.20578513  0.04135811  0.31046818  1
  O  O55  1  0.82709083  0.78499459  0.30855342  1
  O  O56  1  0.96567776  0.16725412  0.31038604  1
  O  O57  1  0.21528631  0.17365544  0.80989884  1
  O  O58  1  0.96087617  0.79659675  0.81144874  1
  O  O59  1  0.83154263  0.03387534  0.81125116  1
  O  O60  1  0.79139086  0.96388549  0.69287265  1
  O  O61  1  0.17308786  0.21169353  0.69244719  1
  O  O62  1  0.03656066  0.82841322  0.69292414  1
  O  O63  1  0.79486362  0.83599094  0.18948039  1
  O  O64  1  0.03424023  0.20087272  0.18965331  1
  O  O65  1  0.17236959  0.95788544  0.19137443  1
  O  O66  1  0.88088873  0.37295542  0.64059770  1
  O  O67  1  0.49430915  0.12623690  0.64056584  1
  O  O68  1  0.62969153  0.50745317  0.64049988  1
  O  O69  1  0.87485790  0.50444280  0.13955485  1
  O  O70  1  0.63705893  0.11970188  0.13633945  1
  O  O71  1  0.49252035  0.36737643  0.13951817  1
  O  O72  1  0.46207807  0.29695843  0.02339910  1
  O  O73  1  0.83474594  0.53736453  0.02328080  1
  O  O74  1  0.69609450  0.14911123  0.02886291  1
  O  O75  1  0.45764180  0.16143081  0.52389987  1
  O  O76  1  0.69829710  0.54013592  0.52384213  1
  O  O77  1  0.84279451  0.29765261  0.52527871  1
  O  O78  1  0.54411253  0.69502325  0.97155680  1
  O  O79  1  0.15845239  0.44622128  0.97513703  1
  O  O80  1  0.30555815  0.83675350  0.97778997  1
  O  O81  1  0.54093049  0.83393014  0.47532746  1
  O  O82  1  0.30601519  0.45434740  0.47092513  1
  O  O83  1  0.16260628  0.70037106  0.47565673  1
  O  O84  1  0.12460576  0.62950756  0.35934394  1
  O  O85  1  0.50737862  0.86978632  0.35892160  1
  O  O86  1  0.36154976  0.48174797  0.36314405  1
  O  O87  1  0.12227856  0.49114689  0.86046938  1
  O  O88  1  0.37293433  0.87828080  0.86106302  1
  O  O89  1  0.51739875  0.63940545  0.86416921  1
  O  O90  1  0.02758340  0.84498944  0.41114616  1
  O  O91  1  0.82100590  0.98263955  0.41139553  1
  O  O92  1  0.18164238  0.20481417  0.41198479  1
  O  O93  1  0.01308029  0.17509632  0.91146389  1
  O  O94  1  0.15951122  0.97275514  0.91297286  1
  O  O95  1  0.79462090  0.81898700  0.91247498  1
  O  O96  1  0.98067412  0.16514862  0.58729218  1
  O  O97  1  0.18548806  0.02187628  0.58734922  1
  O  O98  1  0.83347858  0.81305143  0.58738916  1
  O  O99  1  0.97266202  0.81717067  0.08816017  1
  O  O100  1  0.82045410  0.02471899  0.08756072  1
  O  O101  1  0.18222695  0.16627082  0.08779345  1
  O  O102  1  0.69058378  0.16825983  0.74639804  1
  O  O103  1  0.48171560  0.31158676  0.74526260  1
  O  O104  1  0.83096333  0.52188515  0.74660359  1
  O  O105  1  0.69170586  0.52316926  0.24405758  1
  O  O106  1  0.83018701  0.30420516  0.24385888  1
  O  O107  1  0.47949913  0.16671298  0.24379219  1
  O  O108  1  0.63979236  0.51115784  0.92153245  1
  O  O109  1  0.84533143  0.35537822  0.92568717  1
  O  O110  1  0.50743524  0.15321069  0.92500367  1
  O  O111  1  0.63996149  0.14559918  0.42084339  1
  O  O112  1  0.48850347  0.35900707  0.42093637  1
  O  O113  1  0.85020265  0.50096168  0.42102775  1
  O  O114  1  0.36403636  0.51605986  0.07439247  1
  O  O115  1  0.14914938  0.64795580  0.07843375  1
  O  O116  1  0.51394781  0.87030964  0.07746284  1
  O  O117  1  0.35717387  0.85260765  0.57926719  1
  O  O118  1  0.48885195  0.64115545  0.57554438  1
  O  O119  1  0.15572381  0.50682432  0.57420336  1
  O  O120  1  0.30866271  0.83232877  0.25555190  1
  O  O121  1  0.52062400  0.68646974  0.25578249  1
  O  O122  1  0.16905120  0.47281356  0.25573023  1
  O  O123  1  0.31569219  0.48331157  0.75791685  1
  O  O124  1  0.16796274  0.69205762  0.75639645  1
  O  O125  1  0.52257391  0.82871053  0.75773353  1
