# generated using pymatgen
data_MgZn2(FeO2)4
_symmetry_space_group_name_H-M   'P 1'
_cell_length_a   6.35708550
_cell_length_b   5.99144801
_cell_length_c   5.99596000
_cell_angle_alpha   59.97507442
_cell_angle_beta   61.86200356
_cell_angle_gamma   62.00823307
_symmetry_Int_Tables_number   1
_chemical_formula_structural   MgZn2(FeO2)4
_chemical_formula_sum   'Mg1 Zn2 Fe4 O8'
_cell_volume   166.01518600
_cell_formula_units_Z   1
loop_
 _symmetry_equiv_pos_site_id
 _symmetry_equiv_pos_as_xyz
  1  'x, y, z'
loop_
 _atom_site_type_symbol
 _atom_site_label
 _atom_site_symmetry_multiplicity
 _atom_site_fract_x
 _atom_site_fract_y
 _atom_site_fract_z
 _atom_site_occupancy
  Mg  Mg0  1  0.62500000  0.12500000  0.12500000  1
  Zn  Zn1  1  0.12500000  0.62500000  0.62500000  1
  Zn  Zn2  1  0.62500000  0.12500000  0.62500000  1
  Fe  Fe3  1  0.08548400  0.96276600  0.97587500  1
  Fe  Fe4  1  0.16451600  0.28723400  0.27412500  1
  Fe  Fe5  1  0.62500000  0.62500000  0.12500000  1
  Fe  Fe6  1  0.62500000  0.62500000  0.62500000  1
  O  O7  1  0.38876700  0.38274900  0.35822300  1
  O  O8  1  0.38876700  0.38274900  0.87026000  1
  O  O9  1  0.39676700  0.87245900  0.36538600  1
  O  O10  1  0.80747900  0.40344200  0.39453900  1
  O  O11  1  0.44252100  0.84655800  0.85546100  1
  O  O12  1  0.85323300  0.37754100  0.88461400  1
  O  O13  1  0.86123300  0.86725100  0.37974000  1
  O  O14  1  0.86123300  0.86725100  0.89177700  1
