# generated using pymatgen
data_MgTi2(Fe2O5)2
_symmetry_space_group_name_H-M   'P 1'
_cell_length_a   3.82591678
_cell_length_b   5.49018533
_cell_length_c   10.08051872
_cell_angle_alpha   90.91920112
_cell_angle_beta   90.00712257
_cell_angle_gamma   69.60962729
_symmetry_Int_Tables_number   1
_chemical_formula_structural   MgTi2(Fe2O5)2
_chemical_formula_sum   'Mg1 Ti2 Fe4 O10'
_cell_volume   198.44471269
_cell_formula_units_Z   1
loop_
 _symmetry_equiv_pos_site_id
 _symmetry_equiv_pos_as_xyz
  1  'x, y, z'
loop_
 _atom_site_type_symbol
 _atom_site_label
 _atom_site_symmetry_multiplicity
 _atom_site_fract_x
 _atom_site_fract_y
 _atom_site_fract_z
 _atom_site_occupancy
  Mg  Mg0  1  0.48876835  0.02263313  0.25066292  1
  Ti  Ti1  1  0.13735808  0.72517218  0.04759919  1
  Ti  Ti2  1  0.88874621  0.22246690  0.57047766  1
  Fe  Fe3  1  0.14997713  0.69991925  0.43739190  1
  Fe  Fe4  1  0.20423540  0.59131217  0.75241278  1
  Fe  Fe5  1  0.79092887  0.41803966  0.24813173  1
  Fe  Fe6  1  0.87075004  0.25846068  0.93542860  1
  O  O7  1  0.05563742  0.88874299  0.62178510  1
  O  O8  1  0.06302860  0.87334013  0.88464758  1
  O  O9  1  0.65441720  0.69128958  0.08747827  1
  O  O10  1  0.63254961  0.73468980  0.39594044  1
  O  O11  1  0.27312413  0.45362612  0.25685757  1
  O  O12  1  0.76885480  0.46206097  0.73391243  1
  O  O13  1  0.30639053  0.38720125  0.93600048  1
  O  O14  1  0.31609821  0.36751223  0.56145068  1
  O  O15  1  0.94184369  0.11581235  0.39573207  1
  O  O16  1  0.97514972  0.05022061  0.14033761  1
