# generated using pymatgen
data_Na7Hf2Mg2SiP5O24
_symmetry_space_group_name_H-M   'P 1'
_cell_length_a   9.06373196
_cell_length_b   9.06005831
_cell_length_c   22.22734195
_cell_angle_alpha   90.09609675
_cell_angle_beta   89.90582151
_cell_angle_gamma   120.04733012
_symmetry_Int_Tables_number   1
_chemical_formula_structural   Na7Hf2Mg2SiP5O24
_chemical_formula_sum   'Na21 Hf6 Mg6 Si3 P15 O72'
_cell_volume   1579.96725161
_cell_formula_units_Z   3
loop_
 _symmetry_equiv_pos_site_id
 _symmetry_equiv_pos_as_xyz
  1  'x, y, z'
loop_
 _atom_site_type_symbol
 _atom_site_label
 _atom_site_symmetry_multiplicity
 _atom_site_fract_x
 _atom_site_fract_y
 _atom_site_fract_z
 _atom_site_occupancy
  Na  Na0  1  0.35658173  0.36888527  0.25541524  1
  Na  Na1  1  0.01086000  0.63977425  0.25261622  1
  Na  Na2  1  0.62948107  0.64847967  0.75225036  1
  Na  Na3  1  0.00726556  0.36616308  0.75629790  1
  Na  Na4  1  0.36078047  0.98405250  0.75352311  1
  Na  Na5  1  0.29438216  0.31107013  0.58403757  1
  Na  Na6  1  0.02670916  0.70821917  0.58736000  1
  Na  Na7  1  0.67770086  0.97488910  0.59226381  1
  Na  Na8  1  0.29135406  0.97404616  0.08801253  1
  Na  Na9  1  0.68863543  0.70540186  0.08527401  1
  Na  Na10  1  0.02402177  0.32561987  0.08933050  1
  Na  Na11  1  0.95918014  0.65209127  0.92538730  1
  Na  Na12  1  0.69258294  0.03681963  0.91880945  1
  Na  Na13  1  0.96358516  0.30780542  0.42031557  1
  Na  Na14  1  0.34885714  0.03991008  0.42425577  1
  Na  Na15  1  0.99412722  0.98747138  0.50650782  1
  Na  Na16  1  0.01373934  0.00546554  0.00638525  1
  Na  Na17  1  0.65026500  0.32945574  0.84134028  1
  Na  Na18  1  0.66556854  0.33633689  0.34081074  1
  Na  Na19  1  0.34693423  0.68469049  0.17546201  1
  Na  Na20  1  0.34012648  0.67595034  0.67337274  1
  Hf  Hf21  1  0.99267847  0.99356419  0.35161722  1
  Hf  Hf22  1  0.00275808  0.00513295  0.85205319  1
  Hf  Hf23  1  0.66424408  0.32745582  0.68438813  1
  Hf  Hf24  1  0.67029687  0.33080736  0.18555849  1
  Hf  Hf25  1  0.33182456  0.66329351  0.01787569  1
  Hf  Hf26  1  0.33912184  0.67045152  0.51707538  1
  Mg  Mg27  1  0.99931538  0.99893038  0.64968052  1
  Mg  Mg28  1  0.99679666  0.99613864  0.15013683  1
  Mg  Mg29  1  0.66189805  0.33614902  0.98262372  1
  Mg  Mg30  1  0.66203803  0.33608752  0.48199347  1
  Mg  Mg31  1  0.34034058  0.67324994  0.31616967  1
  Mg  Mg32  1  0.33678560  0.66849844  0.81669452  1
  Si  Si33  1  0.70223961  0.99910773  0.74767148  1
  Si  Si34  1  0.36565652  0.03467737  0.57967124  1
  Si  Si35  1  0.96420586  0.63214367  0.08045046  1
  P  P36  1  0.29512691  0.99880910  0.24881294  1
  P  P37  1  0.70026263  0.70297010  0.24597517  1
  P  P38  1  0.00016727  0.29493012  0.24836732  1
  P  P39  1  0.29478210  0.29643977  0.74647336  1
  P  P40  1  0.99949936  0.70445674  0.74869238  1
  P  P41  1  0.96178912  0.33364859  0.57967365  1
  P  P42  1  0.66719724  0.62552905  0.58228634  1
  P  P43  1  0.66839792  0.04015176  0.07898306  1
  P  P44  1  0.37437835  0.33280399  0.08360683  1
  P  P45  1  0.62975124  0.66410739  0.91348784  1
  P  P46  1  0.03699555  0.37043995  0.91417629  1
  P  P47  1  0.33502033  0.96407891  0.91504972  1
  P  P48  1  0.62884696  0.96421693  0.41547972  1
  P  P49  1  0.33378446  0.37042292  0.41245070  1
  P  P50  1  0.03675977  0.66379114  0.41367988  1
  O  O51  1  0.20277098  0.02357968  0.30503555  1
  O  O52  1  0.82165640  0.79886226  0.30009853  1
  O  O53  1  0.98283752  0.18594578  0.30567898  1
  O  O54  1  0.20491020  0.17382960  0.80116864  1
  O  O55  1  0.97742532  0.79559684  0.80551977  1
  O  O56  1  0.82661004  0.02835536  0.80728571  1
  O  O57  1  0.79106779  0.97574835  0.68883658  1
  O  O58  1  0.19397757  0.21607667  0.68916506  1
  O  O59  1  0.02747510  0.81250356  0.69272795  1
  O  O60  1  0.78127588  0.79800421  0.18772670  1
  O  O61  1  0.01743792  0.20798160  0.19236214  1
  O  O62  1  0.18989498  0.98006106  0.19250577  1
  O  O63  1  0.87771129  0.36532676  0.63694432  1
  O  O64  1  0.48990466  0.12776997  0.63966593  1
  O  O65  1  0.63985816  0.52080300  0.64164592  1
  O  O66  1  0.87021118  0.50665128  0.14015293  1
  O  O67  1  0.63366350  0.12846875  0.13394420  1
  O  O68  1  0.48288746  0.36073004  0.14222739  1
  O  O69  1  0.45812242  0.29843282  0.03067519  1
  O  O70  1  0.85044383  0.54334353  0.02200118  1
  O  O71  1  0.68946352  0.14134266  0.02198210  1
  O  O72  1  0.45413138  0.14868594  0.52137730  1
  O  O73  1  0.69516193  0.53622791  0.52982079  1
  O  O74  1  0.85623972  0.31459171  0.52412074  1
  O  O75  1  0.54165842  0.68868400  0.97041649  1
  O  O76  1  0.14474046  0.46140091  0.97199953  1
  O  O77  1  0.31090786  0.84682196  0.97118311  1
  O  O78  1  0.54908617  0.86061391  0.47527747  1
  O  O79  1  0.30968969  0.45848567  0.46976583  1
  O  O80  1  0.15631084  0.69274632  0.46981281  1
  O  O81  1  0.12218514  0.64374496  0.35753068  1
  O  O82  1  0.51260232  0.87094013  0.36333302  1
  O  O83  1  0.34176427  0.46956792  0.35625572  1
  O  O84  1  0.12584193  0.47560476  0.85867298  1
  O  O85  1  0.35258480  0.87725349  0.85865062  1
  O  O86  1  0.53165215  0.65590467  0.85674699  1
  O  O87  1  0.02869515  0.83362167  0.41132107  1
  O  O88  1  0.81097570  0.98242505  0.41121688  1
  O  O89  1  0.16363681  0.18854591  0.41184289  1
  O  O90  1  0.02105024  0.18904644  0.91368204  1
  O  O91  1  0.16543165  0.97074706  0.91360075  1
  O  O92  1  0.81176430  0.83346303  0.91290327  1
  O  O93  1  0.98376423  0.17767182  0.58670414  1
  O  O94  1  0.17478362  0.00644316  0.58741349  1
  O  O95  1  0.81799684  0.80810013  0.58752522  1
  O  O96  1  0.99325609  0.82384969  0.08760912  1
  O  O97  1  0.82535336  0.02094241  0.08833538  1
  O  O98  1  0.19009007  0.18506581  0.09069018  1
  O  O99  1  0.69233357  0.17867431  0.74696915  1
  O  O100  1  0.47655732  0.31531149  0.74499378  1
  O  O101  1  0.83022787  0.52890376  0.74587578  1
  O  O102  1  0.69173239  0.52326774  0.24633407  1
  O  O103  1  0.83579155  0.31269189  0.24728067  1
  O  O104  1  0.47184135  0.16797756  0.24669774  1
  O  O105  1  0.65816447  0.51204690  0.91841982  1
  O  O106  1  0.85690256  0.34517866  0.91871705  1
  O  O107  1  0.49305879  0.13967173  0.92204224  1
  O  O108  1  0.65656977  0.14548723  0.42011116  1
  O  O109  1  0.48531620  0.34081479  0.41709661  1
  O  O110  1  0.86137635  0.50695648  0.42177427  1
  O  O111  1  0.36900651  0.50309529  0.07748455  1
  O  O112  1  0.15536275  0.64507316  0.07919254  1
  O  O113  1  0.50550232  0.85725453  0.07698987  1
  O  O114  1  0.35310897  0.84397334  0.57881643  1
  O  O115  1  0.49741767  0.63307089  0.57696191  1
  O  O116  1  0.14400744  0.49778035  0.57664352  1
  O  O117  1  0.31218518  0.84032367  0.25563268  1
  O  O118  1  0.51903801  0.67059501  0.25425642  1
  O  O119  1  0.15592222  0.47550011  0.25323267  1
  O  O120  1  0.31412011  0.47283029  0.75562678  1
  O  O121  1  0.15027092  0.67323148  0.75597695  1
  O  O122  1  0.51086102  0.83656282  0.75449693  1
