# generated using pymatgen
data_Ba2In2O5
_symmetry_space_group_name_H-M   'P 1'
_cell_length_a   9.43779893
_cell_length_b   9.43779893
_cell_length_c   9.43779893
_cell_angle_alpha   142.93168864
_cell_angle_beta   141.96883068
_cell_angle_gamma   54.15509656
_symmetry_Int_Tables_number   1
_chemical_formula_structural   Ba2In2O5
_chemical_formula_sum   'Ba4 In4 O10'
_cell_volume   310.08967785
_cell_formula_units_Z   2
loop_
 _symmetry_equiv_pos_site_id
 _symmetry_equiv_pos_as_xyz
  1  'x, y, z'
loop_
 _atom_site_type_symbol
 _atom_site_label
 _atom_site_symmetry_multiplicity
 _atom_site_fract_x
 _atom_site_fract_y
 _atom_site_fract_z
 _atom_site_occupancy
  Ba  Ba0  1  0.62382089  0.08899964  0.49450303  1
  Ba  Ba1  1  0.37617911  0.87068214  0.46517875  1
  Ba  Ba2  1  0.09449661  0.58899964  0.46517875  1
  Ba  Ba3  1  0.90550339  0.37068214  0.49450303  1
  In  In4  1  0.31325186  0.25581634  0.06906820  1
  In  In5  1  0.68674814  0.75581634  0.94256448  1
  In  In6  1  0.50000000  0.47506997  0.97506997  1
  In  In7  1  -0.00000000  0.97506997  0.97506997  1
  O  O8  1  0.38370639  0.59753371  0.48124009  1
  O  O9  1  0.61629361  0.09753371  0.21382732  1
  O  O10  1  0.68831787  0.59091417  0.00506339  1
  O  O11  1  0.31168213  0.31674653  0.90259730  1
  O  O12  1  0.08585078  0.09091417  0.90259730  1
  O  O13  1  0.91414922  0.81674653  0.00506339  1
  O  O14  1  0.74649928  0.22107341  0.98296437  1
  O  O15  1  0.25350072  0.23646410  0.47457313  1
  O  O16  1  0.26189196  0.73646410  0.98296437  1
  O  O17  1  0.73810804  0.72107341  0.47457313  1
