# generated using pymatgen
data_SeOF2
_symmetry_space_group_name_H-M   'P 1'
_cell_length_a   5.50715117
_cell_length_b   6.08236604
_cell_length_c   7.55280572
_cell_angle_alpha   90.00000000
_cell_angle_beta   90.00000000
_cell_angle_gamma   90.00000000
_symmetry_Int_Tables_number   1
_chemical_formula_structural   SeOF2
_chemical_formula_sum   'Se4 O4 F8'
_cell_volume   252.99262669
_cell_formula_units_Z   4
loop_
 _symmetry_equiv_pos_site_id
 _symmetry_equiv_pos_as_xyz
  1  'x, y, z'
loop_
 _atom_site_type_symbol
 _atom_site_label
 _atom_site_symmetry_multiplicity
 _atom_site_fract_x
 _atom_site_fract_y
 _atom_site_fract_z
 _atom_site_occupancy
  Se  Se0  1  0.46091103  0.75477598  0.18473750  1
  Se  Se1  1  0.53908897  0.25477598  0.81526250  1
  Se  Se2  1  0.03908897  0.25477598  0.18473750  1
  Se  Se3  1  0.96091103  0.75477598  0.81526250  1
  O  O4  1  0.25977465  0.38861995  0.09147007  1
  O  O5  1  0.24022535  0.88861995  0.09147007  1
  O  O6  1  0.75977465  0.38861995  0.90852993  1
  O  O7  1  0.74022535  0.88861995  0.90852993  1
  F  F8  1  0.12400837  0.97767468  0.72517872  1
  F  F9  1  0.62400837  0.97767468  0.27482128  1
  F  F10  1  0.87599163  0.47767468  0.27482128  1
  F  F11  1  0.37599163  0.47767468  0.72517872  1
  F  F12  1  0.83606533  0.69692740  0.60881603  1
  F  F13  1  0.16393467  0.19692740  0.39118397  1
  F  F14  1  0.66393467  0.19692740  0.60881603  1
  F  F15  1  0.33606533  0.69692740  0.39118397  1
