# generated using pymatgen
data_Zr6FeCl14
_symmetry_space_group_name_H-M   'P 1'
_cell_length_a   9.73659072
_cell_length_b   9.73659072
_cell_length_c   11.85035879
_cell_angle_alpha   90.00000000
_cell_angle_beta   90.00000000
_cell_angle_gamma   96.46248622
_symmetry_Int_Tables_number   1
_chemical_formula_structural   Zr6FeCl14
_chemical_formula_sum   'Zr12 Fe2 Cl28'
_cell_volume   1116.28968818
_cell_formula_units_Z   2
loop_
 _symmetry_equiv_pos_site_id
 _symmetry_equiv_pos_as_xyz
  1  'x, y, z'
loop_
 _atom_site_type_symbol
 _atom_site_label
 _atom_site_symmetry_multiplicity
 _atom_site_fract_x
 _atom_site_fract_y
 _atom_site_fract_z
 _atom_site_occupancy
  Zr  Zr0  1  0.04774297  0.80730070  0.38056106  1
  Zr  Zr1  1  0.84686683  0.84686683  0.61179813  1
  Zr  Zr2  1  0.15313317  0.15313317  0.38820187  1
  Zr  Zr3  1  0.34686683  0.34686683  0.88820187  1
  Zr  Zr4  1  0.45225703  0.69269930  0.88056106  1
  Zr  Zr5  1  0.65313317  0.65313317  0.11179813  1
  Zr  Zr6  1  0.19269930  0.95225703  0.61943894  1
  Zr  Zr7  1  0.30730070  0.54774297  0.11943894  1
  Zr  Zr8  1  0.54774297  0.30730070  0.11943894  1
  Zr  Zr9  1  0.95225703  0.19269930  0.61943894  1
  Zr  Zr10  1  0.80730070  0.04774297  0.38056106  1
  Zr  Zr11  1  0.69269930  0.45225703  0.88056106  1
  Fe  Fe12  1  0.00000000  0.00000000  0.50000000  1
  Fe  Fe13  1  0.50000000  0.50000000  -0.00000000  1
  Cl  Cl14  1  0.36420360  0.11838647  0.50769490  1
  Cl  Cl15  1  0.09711762  0.59711762  0.25000000  1
  Cl  Cl16  1  0.24939549  0.75060451  0.50000000  1
  Cl  Cl17  1  0.25060451  0.74939549  -0.00000000  1
  Cl  Cl18  1  0.75060451  0.24939549  0.50000000  1
  Cl  Cl19  1  0.74939549  0.25060451  -0.00000000  1
  Cl  Cl20  1  0.84247867  0.84247867  0.24178182  1
  Cl  Cl21  1  0.65752133  0.65752133  0.74178182  1
  Cl  Cl22  1  0.34247867  0.34247867  0.25821818  1
  Cl  Cl23  1  0.15752133  0.15752133  0.75821818  1
  Cl  Cl24  1  0.59711762  0.09711762  0.25000000  1
  Cl  Cl25  1  0.90288238  0.40288238  0.75000000  1
  Cl  Cl26  1  0.96404708  0.20888031  0.25273931  1
  Cl  Cl27  1  0.53595292  0.29111969  0.75273931  1
  Cl  Cl28  1  0.38161353  0.13579640  0.00769490  1
  Cl  Cl29  1  0.79111969  0.03595292  0.74726069  1
  Cl  Cl30  1  0.03595292  0.79111969  0.74726069  1
  Cl  Cl31  1  0.46404708  0.70888031  0.24726069  1
  Cl  Cl32  1  0.29111969  0.53595292  0.75273931  1
  Cl  Cl33  1  0.20888031  0.96404708  0.25273931  1
  Cl  Cl34  1  0.13579640  0.38161353  0.00769490  1
  Cl  Cl35  1  0.70888031  0.46404708  0.24726069  1
  Cl  Cl36  1  0.88161353  0.63579640  0.49230510  1
  Cl  Cl37  1  0.61838647  0.86420360  0.99230510  1
  Cl  Cl38  1  0.86420360  0.61838647  0.99230510  1
  Cl  Cl39  1  0.63579640  0.88161353  0.49230510  1
  Cl  Cl40  1  0.11838647  0.36420360  0.50769490  1
  Cl  Cl41  1  0.40288238  0.90288238  0.75000000  1
