# generated using pymatgen
data_Na6Sc2Ta2Si5SO24
_symmetry_space_group_name_H-M   'P 1'
_cell_length_a   9.08188662
_cell_length_b   9.07824726
_cell_length_c   22.62880839
_cell_angle_alpha   89.87274064
_cell_angle_beta   90.15641931
_cell_angle_gamma   119.97758278
_symmetry_Int_Tables_number   1
_chemical_formula_structural   Na6Sc2Ta2Si5SO24
_chemical_formula_sum   'Na18 Sc6 Ta6 Si15 S3 O72'
_cell_volume   1616.09403663
_cell_formula_units_Z   3
loop_
 _symmetry_equiv_pos_site_id
 _symmetry_equiv_pos_as_xyz
  1  'x, y, z'
loop_
 _atom_site_type_symbol
 _atom_site_label
 _atom_site_symmetry_multiplicity
 _atom_site_fract_x
 _atom_site_fract_y
 _atom_site_fract_z
 _atom_site_occupancy
  Na  Na0  1  0.64185883  0.01378642  0.24851373  1
  Na  Na1  1  0.36648307  0.35364225  0.25269859  1
  Na  Na2  1  0.99022065  0.62939654  0.24819291  1
  Na  Na3  1  0.99369715  0.35750665  0.74940388  1
  Na  Na4  1  0.29868021  0.34212259  0.58055555  1
  Na  Na5  1  0.66074017  0.95972752  0.58031299  1
  Na  Na6  1  0.66760136  0.69958622  0.07667858  1
  Na  Na7  1  0.02126557  0.33753569  0.08035396  1
  Na  Na8  1  0.95601566  0.66353630  0.91274727  1
  Na  Na9  1  0.71300624  0.03590659  0.91810922  1
  Na  Na10  1  0.32942663  0.30491316  0.91289808  1
  Na  Na11  1  0.69806879  0.67452447  0.41663511  1
  Na  Na12  1  0.00778615  0.01212966  0.49518590  1
  Na  Na13  1  0.99189080  0.99608253  0.99699986  1
  Na  Na14  1  0.66453144  0.34144998  0.83129713  1
  Na  Na15  1  0.66105543  0.32116991  0.33222440  1
  Na  Na16  1  0.32984559  0.68667533  0.16192089  1
  Na  Na17  1  0.33018470  0.67553922  0.66130066  1
  Sc  Sc18  1  0.00541229  0.01422041  0.35317183  1
  Sc  Sc19  1  0.99188053  0.99879437  0.84752538  1
  Sc  Sc20  1  0.67470454  0.32886536  0.18501829  1
  Sc  Sc21  1  0.68884350  0.34603858  0.98207230  1
  Sc  Sc22  1  0.33546322  0.67207258  0.01859744  1
  Sc  Sc23  1  0.33599259  0.66384438  0.52164351  1
  Ta  Ta24  1  0.99666140  0.99334984  0.64690972  1
  Ta  Ta25  1  0.99338680  0.99257151  0.15040883  1
  Ta  Ta26  1  0.66523716  0.33454906  0.68703479  1
  Ta  Ta27  1  0.65454045  0.32020885  0.48128317  1
  Ta  Ta28  1  0.34489744  0.67123956  0.31382887  1
  Ta  Ta29  1  0.33471883  0.65418809  0.80741557  1
  Si  Si30  1  0.29051215  0.00035865  0.25199418  1
  Si  Si31  1  0.70901771  0.70588972  0.25362152  1
  Si  Si32  1  0.00221801  0.29368781  0.25015011  1
  Si  Si33  1  0.29246428  0.28227977  0.75054983  1
  Si  Si34  1  -0.00015719  0.70916870  0.75185157  1
  Si  Si35  1  0.70477454  0.99834403  0.74972650  1
  Si  Si36  1  0.95565462  0.33513313  0.58456816  1
  Si  Si37  1  0.37257234  0.04120325  0.58542988  1
  Si  Si38  1  0.67298723  0.62334425  0.58202016  1
  Si  Si39  1  0.96686933  0.63361754  0.08446770  1
  Si  Si40  1  0.66419881  0.03548178  0.08389249  1
  Si  Si41  1  0.62584184  0.66589117  0.91790870  1
  Si  Si42  1  0.04444947  0.37384517  0.91713165  1
  Si  Si43  1  0.62787770  0.96164588  0.41950190  1
  Si  Si44  1  0.33210966  0.37081615  0.41971337  1
  S  S45  1  0.36815625  0.32568101  0.08341449  1
  S  S46  1  0.33285367  0.95546146  0.91510723  1
  S  S47  1  0.04152477  0.66185405  0.41633395  1
  O  O48  1  0.20247079  0.03334419  0.30658262  1
  O  O49  1  0.82501875  0.78571527  0.31026094  1
  O  O50  1  0.96134818  0.16650874  0.30437619  1
  O  O51  1  0.21440612  0.18171794  0.81112620  1
  O  O52  1  0.96996735  0.78469459  0.81165673  1
  O  O53  1  0.82177659  0.04158218  0.80825135  1
  O  O54  1  0.80051785  0.97116481  0.69185506  1
  O  O55  1  0.16399012  0.19615404  0.69310285  1
  O  O56  1  0.02575249  0.83547133  0.69468331  1
  O  O57  1  0.79912731  0.83513804  0.19424841  1
  O  O58  1  0.03918556  0.20604424  0.19061421  1
  O  O59  1  0.16186563  0.96638177  0.19335399  1
  O  O60  1  0.85988740  0.35229173  0.64285636  1
  O  O61  1  0.50154857  0.14515117  0.64003503  1
  O  O62  1  0.64692987  0.49796796  0.63811940  1
  O  O63  1  0.87411970  0.51805388  0.14216298  1
  O  O64  1  0.64360589  0.12288900  0.14305152  1
  O  O65  1  0.47372652  0.35172742  0.13665473  1
  O  O66  1  0.44807815  0.30451076  0.02938399  1
  O  O67  1  0.84425218  0.55561064  0.02557975  1
  O  O68  1  0.70124357  0.15559150  0.02514703  1
  O  O69  1  0.46667289  0.17041627  0.52663251  1
  O  O70  1  0.69809451  0.53177519  0.52260636  1
  O  O71  1  0.82495471  0.30206371  0.52785022  1
  O  O72  1  0.54184214  0.69806641  0.97613727  1
  O  O73  1  0.15857073  0.46400528  0.97531666  1
  O  O74  1  0.30730058  0.85223928  0.96896157  1
  O  O75  1  0.53476651  0.84573940  0.47629806  1
  O  O76  1  0.31419431  0.46336787  0.47713358  1
  O  O77  1  0.14652404  0.68377493  0.46901068  1
  O  O78  1  0.12565088  0.64213266  0.36151432  1
  O  O79  1  0.50142354  0.86344390  0.35921733  1
  O  O80  1  0.36071274  0.50141760  0.36017428  1
  O  O81  1  0.14265497  0.50033994  0.85858040  1
  O  O82  1  0.35855226  0.87380591  0.86295071  1
  O  O83  1  0.49664940  0.64693949  0.86084766  1
  O  O84  1  0.01794524  0.81117998  0.41123292  1
  O  O85  1  0.80681610  0.96636956  0.41231435  1
  O  O86  1  0.17383288  0.18344070  0.41313691  1
  O  O87  1  0.02750972  0.18689175  0.91280871  1
  O  O88  1  0.18090803  0.97413195  0.91093188  1
  O  O89  1  0.81538239  0.83095228  0.91240293  1
  O  O90  1  0.96585905  0.15667030  0.59053274  1
  O  O91  1  0.19067247  0.03874527  0.59170445  1
  O  O92  1  0.84075126  0.81524117  0.59014741  1
  O  O93  1  0.97834496  0.82322149  0.09203821  1
  O  O94  1  0.84753559  0.02766364  0.09102517  1
  O  O95  1  0.19628327  0.17628799  0.08859238  1
  O  O96  1  0.68950393  0.16992309  0.74037350  1
  O  O97  1  0.48406150  0.31618006  0.74066742  1
  O  O98  1  0.83871002  0.51545781  0.74113525  1
  O  O99  1  0.67080604  0.51534933  0.24183135  1
  O  O100  1  0.84083397  0.32254350  0.24445586  1
  O  O101  1  0.47843724  0.16138383  0.24324760  1
  O  O102  1  0.62805837  0.48623848  0.91917920  1
  O  O103  1  0.85544255  0.35822427  0.91804541  1
  O  O104  1  0.48651709  0.12675986  0.92088141  1
  O  O105  1  0.64371562  0.15203813  0.42339610  1
  O  O106  1  0.51944833  0.37403128  0.42178592  1
  O  O107  1  0.87092551  0.50669045  0.41980559  1
  O  O108  1  0.35134473  0.48109661  0.07921273  1
  O  O109  1  0.14827461  0.64247142  0.07857760  1
  O  O110  1  0.51127969  0.84018845  0.08045503  1
  O  O111  1  0.36375053  0.86126909  0.57972941  1
  O  O112  1  0.50544318  0.64311884  0.58064132  1
  O  O113  1  0.14571342  0.49372062  0.58046541  1
  O  O114  1  0.30058492  0.82123070  0.25766617  1
  O  O115  1  0.52016844  0.69924011  0.25729003  1
  O  O116  1  0.17681754  0.48357278  0.25824592  1
  O  O117  1  0.30391142  0.47436377  0.75591467  1
  O  O118  1  0.16949879  0.68388430  0.75728867  1
  O  O119  1  0.51480640  0.82941092  0.75818438  1
