# generated using pymatgen
data_Na5Al3Sn(PO4)6
_symmetry_space_group_name_H-M   'P 1'
_cell_length_a   8.62366705
_cell_length_b   8.61566171
_cell_length_c   21.81944906
_cell_angle_alpha   89.93962817
_cell_angle_beta   90.01318421
_cell_angle_gamma   120.00829447
_symmetry_Int_Tables_number   1
_chemical_formula_structural   Na5Al3Sn(PO4)6
_chemical_formula_sum   'Na15 Al9 Sn3 P18 O72'
_cell_volume   1403.84273745
_cell_formula_units_Z   3
loop_
 _symmetry_equiv_pos_site_id
 _symmetry_equiv_pos_as_xyz
  1  'x, y, z'
loop_
 _atom_site_type_symbol
 _atom_site_label
 _atom_site_symmetry_multiplicity
 _atom_site_fract_x
 _atom_site_fract_y
 _atom_site_fract_z
 _atom_site_occupancy
  Na  Na0  1  0.63410741  0.99950115  0.25253545  1
  Na  Na1  1  0.36489377  0.36548905  0.25285974  1
  Na  Na2  1  0.00074842  0.63553352  0.25252987  1
  Na  Na3  1  0.63771250  0.63337952  0.74914487  1
  Na  Na4  1  0.99871710  0.36273950  0.74924720  1
  Na  Na5  1  0.03106909  0.69969362  0.58222040  1
  Na  Na6  1  0.66609491  0.96850646  0.58203208  1
  Na  Na7  1  0.66658673  0.69837793  0.08251793  1
  Na  Na8  1  0.03092601  0.33120200  0.08267690  1
  Na  Na9  1  0.00719079  0.00776287  0.49665154  1
  Na  Na10  1  0.00678970  0.99918655  0.99657208  1
  Na  Na11  1  0.65922552  0.32529723  0.83347682  1
  Na  Na12  1  0.66624543  0.33323265  0.33622337  1
  Na  Na13  1  0.33256835  0.67285352  0.16614280  1
  Na  Na14  1  0.33320350  0.66604669  0.66396456  1
  Al  Al15  1  0.00074522  0.00027803  0.35622228  1
  Al  Al16  1  0.00247830  0.00105769  0.85436927  1
  Al  Al17  1  0.00558329  0.00511606  0.64818721  1
  Al  Al18  1  0.00455440  0.99919720  0.14939082  1
  Al  Al19  1  0.66037613  0.32766585  0.68497990  1
  Al  Al20  1  0.66581195  0.33208008  0.18482172  1
  Al  Al21  1  0.33249683  0.67237970  0.01669827  1
  Al  Al22  1  0.33254087  0.66086490  0.51576506  1
  Al  Al23  1  0.33321758  0.66671317  0.31912621  1
  Sn  Sn24  1  0.66535343  0.33233474  0.98018000  1
  Sn  Sn25  1  0.66457045  0.33271321  0.47866990  1
  Sn  Sn26  1  0.33385797  0.67212490  0.81559402  1
  P  P27  1  0.28691506  0.00021298  0.25051181  1
  P  P28  1  0.71327177  0.71284230  0.25018319  1
  P  P29  1  0.99952416  0.28692539  0.25017468  1
  P  P30  1  0.28765413  0.27755900  0.74976915  1
  P  P31  1  0.99762029  0.71586364  0.74896584  1
  P  P32  1  0.71740284  0.00584863  0.74902171  1
  P  P33  1  0.96296138  0.33335019  0.58568206  1
  P  P34  1  0.37238187  0.04283367  0.58548539  1
  P  P35  1  0.66295286  0.62444627  0.58592290  1
  P  P36  1  0.96370637  0.63073377  0.08579359  1
  P  P37  1  0.66329278  0.03787490  0.08614898  1
  P  P38  1  0.37092586  0.32905221  0.08590865  1
  P  P39  1  0.62971029  0.67476860  0.91795978  1
  P  P40  1  0.04485469  0.37046557  0.91816103  1
  P  P41  1  0.32533680  0.95512570  0.91826507  1
  P  P42  1  0.62308525  0.94879560  0.41574454  1
  P  P43  1  0.32570716  0.37748454  0.41531746  1
  P  P44  1  0.05115109  0.67384047  0.41587453  1
  O  O45  1  0.20369617  0.03881098  0.30597223  1
  O  O46  1  0.83615716  0.79793910  0.30511047  1
  O  O47  1  0.96184939  0.16377033  0.30510306  1
  O  O48  1  0.20153945  0.16929408  0.80759642  1
  O  O49  1  0.96422178  0.79904897  0.80573820  1
  O  O50  1  0.83392782  0.03660217  0.80583208  1
  O  O51  1  0.79733798  0.96758111  0.69156263  1
  O  O52  1  0.16655047  0.20036446  0.69364233  1
  O  O53  1  0.02780027  0.82720858  0.69089967  1
  O  O54  1  0.79317589  0.82928777  0.19170015  1
  O  O55  1  0.03567072  0.20691943  0.19172555  1
  O  O56  1  0.16735244  0.96250682  0.19353286  1
  O  O57  1  0.87481003  0.37061648  0.64179642  1
  O  O58  1  0.50080003  0.12996044  0.63980343  1
  O  O59  1  0.63427282  0.50634230  0.64259278  1
  O  O60  1  0.87442877  0.50404412  0.14160892  1
  O  O61  1  0.63385398  0.12767731  0.14244020  1
  O  O62  1  0.49705284  0.36939391  0.14163406  1
  O  O63  1  0.44856124  0.29281508  0.02805673  1
  O  O64  1  0.84030535  0.55311590  0.02897153  1
  O  O65  1  0.71330630  0.16078783  0.02919294  1
  O  O66  1  0.44733705  0.15554379  0.52678909  1
  O  O67  1  0.71293142  0.55143406  0.52890180  1
  O  O68  1  0.83932914  0.28737303  0.52872394  1
  O  O69  1  0.53697682  0.69758074  0.97490342  1
  O  O70  1  0.16097131  0.46300663  0.97495901  1
  O  O71  1  0.30044880  0.83682249  0.97388831  1
  O  O72  1  0.53699417  0.83971559  0.47463195  1
  O  O73  1  0.30169326  0.46540651  0.47257378  1
  O  O74  1  0.16057650  0.69756551  0.47463835  1
  O  O75  1  0.13306457  0.63993847  0.35780497  1
  O  O76  1  0.50702304  0.86656147  0.35774980  1
  O  O77  1  0.35990916  0.49201483  0.35664898  1
  O  O78  1  0.11497829  0.48270444  0.85814634  1
  O  O79  1  0.37109569  0.88709115  0.85920257  1
  O  O80  1  0.51661583  0.63195564  0.85819461  1
  O  O81  1  0.02953408  0.83935680  0.40846500  1
  O  O82  1  0.80991248  0.97004465  0.40835877  1
  O  O83  1  0.16029463  0.19009525  0.40809990  1
  O  O84  1  0.02769158  0.18669027  0.91026638  1
  O  O85  1  0.15820289  0.97153945  0.90994202  1
  O  O86  1  0.81310374  0.84181840  0.90977796  1
  O  O87  1  0.97675425  0.16309291  0.59373277  1
  O  O88  1  0.18314506  0.01660294  0.59337595  1
  O  O89  1  0.83234743  0.81401164  0.59306786  1
  O  O90  1  0.97691878  0.81417975  0.09381581  1
  O  O91  1  0.83278441  0.01855277  0.09346258  1
  O  O92  1  0.18219977  0.16600407  0.09362798  1
  O  O93  1  0.69657374  0.17293152  0.74154347  1
  O  O94  1  0.47953166  0.30966188  0.74209232  1
  O  O95  1  0.83069692  0.52321119  0.74254428  1
  O  O96  1  0.69065397  0.52170618  0.24155789  1
  O  O97  1  0.83125991  0.30977559  0.24176941  1
  O  O98  1  0.47792538  0.16864389  0.24165598  1
  O  O99  1  0.64612536  0.50405518  0.92183734  1
  O  O100  1  0.85818153  0.35493745  0.92214724  1
  O  O101  1  0.49579581  0.14256231  0.92219544  1
  O  O102  1  0.64083021  0.13807631  0.41935109  1
  O  O103  1  0.49761327  0.36042928  0.41905955  1
  O  O104  1  0.86212429  0.50203582  0.41975421  1
  O  O105  1  0.35510183  0.50080225  0.07777810  1
  O  O106  1  0.14540033  0.64015553  0.07664840  1
  O  O107  1  0.49833372  0.85070312  0.07694688  1
  O  O108  1  0.35495763  0.85452894  0.57735755  1
  O  O109  1  0.49829403  0.64728935  0.57675637  1
  O  O110  1  0.14538588  0.50501942  0.57641343  1
  O  O111  1  0.31117581  0.83293871  0.25713935  1
  O  O112  1  0.52224180  0.68936119  0.25660818  1
  O  O113  1  0.16690555  0.47817278  0.25663123  1
  O  O114  1  0.31011865  0.47295939  0.75382540  1
  O  O115  1  0.16240505  0.68617237  0.75270917  1
  O  O116  1  0.52871032  0.83236075  0.75305653  1
