# generated using pymatgen
data_Sn4OF6
_symmetry_space_group_name_H-M   'P 1'
_cell_length_a   4.92917304
_cell_length_b   10.70789491
_cell_length_c   15.95162214
_cell_angle_alpha   90.00000000
_cell_angle_beta   90.00000000
_cell_angle_gamma   90.00000000
_symmetry_Int_Tables_number   1
_chemical_formula_structural   Sn4OF6
_chemical_formula_sum   'Sn16 O4 F24'
_cell_volume   841.94363542
_cell_formula_units_Z   4
loop_
 _symmetry_equiv_pos_site_id
 _symmetry_equiv_pos_as_xyz
  1  'x, y, z'
loop_
 _atom_site_type_symbol
 _atom_site_label
 _atom_site_symmetry_multiplicity
 _atom_site_fract_x
 _atom_site_fract_y
 _atom_site_fract_z
 _atom_site_occupancy
  Sn  Sn0  1  0.46081900  0.58536070  0.51395702  1
  Sn  Sn1  1  0.96081900  0.91463930  0.48604298  1
  Sn  Sn2  1  0.53918100  0.08536070  0.98604298  1
  Sn  Sn3  1  0.03918100  0.41463930  0.01395702  1
  Sn  Sn4  1  0.46212483  0.47153500  0.19437324  1
  Sn  Sn5  1  0.96212483  0.02846500  0.80562676  1
  Sn  Sn6  1  0.53787517  0.97153500  0.30562676  1
  Sn  Sn7  1  0.03787517  0.52846500  0.69437324  1
  Sn  Sn8  1  0.96070838  0.69721821  0.31942990  1
  Sn  Sn9  1  0.46070838  0.80278179  0.68057010  1
  Sn  Sn10  1  0.03929162  0.19721821  0.18057010  1
  Sn  Sn11  1  0.53929162  0.30278179  0.81942990  1
  Sn  Sn12  1  0.86299293  0.30911427  0.40842289  1
  Sn  Sn13  1  0.36299293  0.19088573  0.59157711  1
  Sn  Sn14  1  0.13700707  0.80911427  0.09157711  1
  Sn  Sn15  1  0.63700707  0.69088573  0.90842289  1
  O  O16  1  0.16868917  0.36772026  0.13362482  1
  O  O17  1  0.66868917  0.13227974  0.86637518  1
  O  O18  1  0.83131083  0.86772026  0.36637518  1
  O  O19  1  0.33131083  0.63227974  0.63362482  1
  F  F20  1  0.65253147  0.47609533  0.07598551  1
  F  F21  1  0.15253147  0.02390467  0.92401449  1
  F  F22  1  0.34746853  0.97609533  0.42401449  1
  F  F23  1  0.84746853  0.52390467  0.57598551  1
  F  F24  1  0.19494922  0.62106104  0.12133339  1
  F  F25  1  0.69494922  0.87893896  0.87866661  1
  F  F26  1  0.80505078  0.12106104  0.37866661  1
  F  F27  1  0.30505078  0.37893896  0.62133339  1
  F  F28  1  0.73561530  0.23391226  0.53523841  1
  F  F29  1  0.23561530  0.26608774  0.46476159  1
  F  F30  1  0.26438470  0.73391226  0.96476159  1
  F  F31  1  0.76438470  0.76608774  0.03523841  1
  F  F32  1  0.35785138  0.71108408  0.79574502  1
  F  F33  1  0.85785138  0.78891592  0.20425498  1
  F  F34  1  0.64214862  0.21108408  0.70425498  1
  F  F35  1  0.14214862  0.28891592  0.29574502  1
  F  F36  1  0.64421082  0.76418560  0.53508817  1
  F  F37  1  0.14421082  0.73581440  0.46491183  1
  F  F38  1  0.35578918  0.26418560  0.96491183  1
  F  F39  1  0.85578918  0.23581440  0.03508817  1
  F  F40  1  0.84396352  0.72201410  0.70458511  1
  F  F41  1  0.34396352  0.77798590  0.29541489  1
  F  F42  1  0.15603648  0.22201410  0.79541489  1
  F  F43  1  0.65603648  0.27798590  0.20458511  1
