# generated using pymatgen
data_As2S2O9
_symmetry_space_group_name_H-M   'P 1'
_cell_length_a   6.63654400
_cell_length_b   6.69763459
_cell_length_c   16.63257883
_cell_angle_alpha   85.40670213
_cell_angle_beta   90.00000000
_cell_angle_gamma   90.00000000
_symmetry_Int_Tables_number   1
_chemical_formula_structural   As2S2O9
_chemical_formula_sum   'As8 S8 O36'
_cell_volume   736.92947850
_cell_formula_units_Z   4
loop_
 _symmetry_equiv_pos_site_id
 _symmetry_equiv_pos_as_xyz
  1  'x, y, z'
loop_
 _atom_site_type_symbol
 _atom_site_label
 _atom_site_symmetry_multiplicity
 _atom_site_fract_x
 _atom_site_fract_y
 _atom_site_fract_z
 _atom_site_occupancy
  As  As0  1  0.75885094  0.80278164  0.46670568  1
  As  As1  1  0.74114906  0.80278164  0.96670568  1
  As  As2  1  0.61347385  0.68155014  0.29351692  1
  As  As3  1  0.88652615  0.68155014  0.79351692  1
  As  As4  1  0.11347385  0.31844986  0.20648308  1
  As  As5  1  0.38652615  0.31844986  0.70648308  1
  As  As6  1  0.25885094  0.19721836  0.03329432  1
  As  As7  1  0.24114906  0.19721836  0.53329432  1
  S  S8  1  0.07388304  0.77305348  0.32508678  1
  S  S9  1  0.42611696  0.77305348  0.82508678  1
  S  S10  1  0.72367521  0.35269433  0.43187733  1
  S  S11  1  0.77632479  0.35269433  0.93187733  1
  S  S12  1  0.57388304  0.22694652  0.17491322  1
  S  S13  1  0.92611696  0.22694652  0.67491322  1
  S  S14  1  0.22367521  0.64730567  0.06812267  1
  S  S15  1  0.27632479  0.64730567  0.56812267  1
  O  O16  1  0.10699854  0.97161920  0.28987922  1
  O  O17  1  0.39300146  0.97161920  0.78987922  1
  O  O18  1  0.24006742  0.63593981  0.32296708  1
  O  O19  1  0.25993258  0.63593981  0.82296708  1
  O  O20  1  0.01124958  0.78025449  0.41362998  1
  O  O21  1  0.48875042  0.78025449  0.91362998  1
  O  O22  1  0.89834460  0.67421854  0.28341122  1
  O  O23  1  0.60165540  0.67421854  0.78341122  1
  O  O24  1  0.92349204  0.29443988  0.41223824  1
  O  O25  1  0.57650796  0.29443988  0.91223824  1
  O  O26  1  0.59952543  0.19928757  0.47177599  1
  O  O27  1  0.90047457  0.19928757  0.97177599  1
  O  O28  1  0.72880847  0.52685734  0.48722211  1
  O  O29  1  0.77119153  0.52685734  0.98722211  1
  O  O30  1  0.61011834  0.43308541  0.35614615  1
  O  O31  1  0.88988166  0.43308541  0.85614615  1
  O  O32  1  0.38188659  0.16840277  0.62358308  1
  O  O33  1  0.11811341  0.16840277  0.12358308  1
  O  O34  1  0.88188659  0.83159723  0.87641692  1
  O  O35  1  0.61811341  0.83159723  0.37641692  1
  O  O36  1  0.27119153  0.47314266  0.51277789  1
  O  O37  1  0.22880847  0.47314266  0.01277789  1
  O  O38  1  0.38988166  0.56691459  0.64385385  1
  O  O39  1  0.11011834  0.56691459  0.14385385  1
  O  O40  1  0.40047457  0.80071243  0.52822401  1
  O  O41  1  0.09952543  0.80071243  0.02822401  1
  O  O42  1  0.07650796  0.70556012  0.58776176  1
  O  O43  1  0.42349204  0.70556012  0.08776176  1
  O  O44  1  0.98875042  0.21974551  0.58637002  1
  O  O45  1  0.51124958  0.21974551  0.08637002  1
  O  O46  1  0.10165540  0.32578146  0.71658878  1
  O  O47  1  0.39834460  0.32578146  0.21658878  1
  O  O48  1  0.75993258  0.36406019  0.67703292  1
  O  O49  1  0.74006742  0.36406019  0.17703292  1
  O  O50  1  0.89300146  0.02838080  0.71012078  1
  O  O51  1  0.60699854  0.02838080  0.21012078  1
