# generated using pymatgen
data_Na5La3Si3Sn(SO8)3
_symmetry_space_group_name_H-M   'P 1'
_cell_length_a   9.54343307
_cell_length_b   9.49756631
_cell_length_c   23.65662088
_cell_angle_alpha   91.21515992
_cell_angle_beta   89.74480531
_cell_angle_gamma   119.74443956
_symmetry_Int_Tables_number   1
_chemical_formula_structural   Na5La3Si3Sn(SO8)3
_chemical_formula_sum   'Na15 La9 Si9 Sn3 S9 O72'
_cell_volume   1861.24978824
_cell_formula_units_Z   3
loop_
 _symmetry_equiv_pos_site_id
 _symmetry_equiv_pos_as_xyz
  1  'x, y, z'
loop_
 _atom_site_type_symbol
 _atom_site_label
 _atom_site_symmetry_multiplicity
 _atom_site_fract_x
 _atom_site_fract_y
 _atom_site_fract_z
 _atom_site_occupancy
  Na  Na0  1  0.65765667  0.01633644  0.26491820  1
  Na  Na1  1  0.99545784  0.61992233  0.24908828  1
  Na  Na2  1  0.63456429  0.65461452  0.74771884  1
  Na  Na3  1  0.35713858  0.00464550  0.76873777  1
  Na  Na4  1  0.66706737  0.94435247  0.58095861  1
  Na  Na5  1  0.97664648  0.68640952  0.92452545  1
  Na  Na6  1  0.68097461  0.99926395  0.90900588  1
  Na  Na7  1  0.95261654  0.31234181  0.40801222  1
  Na  Na8  1  0.69351071  0.68329803  0.43748338  1
  Na  Na9  1  0.99801390  0.95251772  0.50300698  1
  Na  Na10  1  0.00811409  0.96586697  0.99612003  1
  Na  Na11  1  0.63090079  0.31862983  0.83555528  1
  Na  Na12  1  0.67349339  0.31559755  0.34117581  1
  Na  Na13  1  0.25688444  0.59961689  0.16054739  1
  Na  Na14  1  0.33714824  0.61474848  0.67599008  1
  La  La15  1  0.00084719  0.00511125  0.35243846  1
  La  La16  1  0.00906167  0.01798663  0.84896185  1
  La  La17  1  0.00191143  0.00996678  0.65420517  1
  La  La18  1  0.99919981  0.00020880  0.14186182  1
  La  La19  1  0.66733853  0.34303746  0.68742774  1
  La  La20  1  0.67744985  0.34141923  0.17962335  1
  La  La21  1  0.33259127  0.66892730  0.01824037  1
  La  La22  1  0.33072548  0.66907003  0.51667540  1
  La  La23  1  0.31810276  0.66421814  0.32487996  1
  Si  Si24  1  -0.00018023  0.30755660  0.25448630  1
  Si  Si25  1  0.30751220  0.32028780  0.75324773  1
  Si  Si26  1  0.67826475  0.99227589  0.75438724  1
  Si  Si27  1  0.67459280  0.64113460  0.58300489  1
  Si  Si28  1  0.95697645  0.63067634  0.07999474  1
  Si  Si29  1  0.63794598  0.66017506  0.91588520  1
  Si  Si30  1  0.34840460  0.97233299  0.91674148  1
  Si  Si31  1  0.64127069  0.98616976  0.41907360  1
  Si  Si32  1  0.00620441  0.65519411  0.41692788  1
  Sn  Sn33  1  0.66121458  0.34300946  0.97779294  1
  Sn  Sn34  1  0.67340575  0.34529167  0.48381058  1
  Sn  Sn35  1  0.36689995  0.67946812  0.81980618  1
  S  S36  1  0.30724509  0.99252805  0.24911484  1
  S  S37  1  0.68965077  0.70021209  0.25161838  1
  S  S38  1  0.02555813  0.70082138  0.75662551  1
  S  S39  1  0.95239304  0.32016926  0.57684845  1
  S  S40  1  0.37523958  0.05609021  0.57844300  1
  S  S41  1  0.67823151  0.04519590  0.07625466  1
  S  S42  1  0.36764495  0.32117886  0.07663717  1
  S  S43  1  0.01858922  0.37945658  0.91595156  1
  S  S44  1  0.35434575  0.36050603  0.41963834  1
  O  O45  1  0.22636712  0.99855744  0.30192052  1
  O  O46  1  0.77820743  0.77520380  0.30575629  1
  O  O47  1  0.99829310  0.22829169  0.31620577  1
  O  O48  1  0.23542476  0.18313713  0.80181261  1
  O  O49  1  0.99655584  0.76819054  0.80977386  1
  O  O50  1  0.77584804  0.00274560  0.81220446  1
  O  O51  1  0.77383895  0.97298875  0.69842393  1
  O  O52  1  0.20479375  0.24117452  0.69434030  1
  O  O53  1  0.04412601  0.80804488  0.70849062  1
  O  O54  1  0.78865171  0.79685611  0.20362987  1
  O  O55  1  0.99365123  0.18653753  0.20263236  1
  O  O56  1  0.21265189  0.98848454  0.19907706  1
  O  O57  1  0.86462012  0.32620124  0.62703761  1
  O  O58  1  0.44884771  0.13290228  0.63320001  1
  O  O59  1  0.68268016  0.55576857  0.64080531  1
  O  O60  1  0.87229616  0.55839884  0.14184112  1
  O  O61  1  0.68146839  0.12521249  0.13151490  1
  O  O62  1  0.44746310  0.31007528  0.12841366  1
  O  O63  1  0.45909140  0.31920288  0.02468831  1
  O  O64  1  0.83905950  0.51394394  0.02501326  1
  O  O65  1  0.66601830  0.13810119  0.02768292  1
  O  O66  1  0.47572932  0.15691358  0.53013747  1
  O  O67  1  0.67271328  0.53380047  0.52386172  1
  O  O68  1  0.86298980  0.31951572  0.52375373  1
  O  O69  1  0.53863692  0.68387196  0.96634952  1
  O  O70  1  0.10226510  0.44679567  0.96928715  1
  O  O71  1  0.31125966  0.85099828  0.96792477  1
  O  O72  1  0.55569843  0.85317118  0.46918517  1
  O  O73  1  0.33461556  0.43866291  0.47111084  1
  O  O74  1  0.12606489  0.65999814  0.46654531  1
  O  O75  1  0.07499027  0.62898361  0.35552269  1
  O  O76  1  0.54611875  0.91189243  0.35807160  1
  O  O77  1  0.37481387  0.46107051  0.36951994  1
  O  O78  1  0.11271408  0.47559778  0.86655730  1
  O  O79  1  0.38481197  0.88657793  0.85814215  1
  O  O80  1  0.54242200  0.64674718  0.85448596  1
  O  O81  1  0.97235685  0.80848511  0.41918742  1
  O  O82  1  0.83120120  0.02733266  0.41685298  1
  O  O83  1  0.21500993  0.19546103  0.41431217  1
  O  O84  1  0.97453987  0.20585949  0.91162810  1
  O  O85  1  0.19202097  0.99578915  0.90948949  1
  O  O86  1  0.82364398  0.81673549  0.91498733  1
  O  O87  1  0.95392888  0.16385095  0.57500480  1
  O  O88  1  0.21055018  0.03185126  0.57301092  1
  O  O89  1  0.83330691  0.82473760  0.57793328  1
  O  O90  1  0.97576330  0.81108691  0.07301402  1
  O  O91  1  0.82945019  0.03742077  0.07000005  1
  O  O92  1  0.20277096  0.17841799  0.07155522  1
  O  O93  1  0.63379852  0.13852925  0.75131967  1
  O  O94  1  0.50132758  0.37561163  0.74933770  1
  O  O95  1  0.88751578  0.53560021  0.74794118  1
  O  O96  1  0.66399742  0.53234043  0.24904752  1
  O  O97  1  0.83061259  0.32084038  0.25351719  1
  O  O98  1  0.47530104  0.13309104  0.24879649  1
  O  O99  1  0.65464372  0.49288684  0.91895037  1
  O  O100  1  0.85978491  0.38267076  0.91481076  1
  O  O101  1  0.52811330  0.14778839  0.92359415  1
  O  O102  1  0.64977325  0.16502842  0.43006326  1
  O  O103  1  0.50625286  0.35039852  0.42256669  1
  O  O104  1  0.82581367  0.48651232  0.42249094  1
  O  O105  1  0.35931071  0.47218859  0.08031547  1
  O  O106  1  0.12979714  0.63463502  0.08116005  1
  O  O107  1  0.53705499  0.88068498  0.07810321  1
  O  O108  1  0.37362292  0.89816594  0.57591354  1
  O  O109  1  0.51192250  0.66196000  0.58305477  1
  O  O110  1  0.11771612  0.45934703  0.57739024  1
  O  O111  1  0.31824800  0.83977468  0.24743994  1
  O  O112  1  0.53398083  0.70013182  0.25108131  1
  O  O113  1  0.15523362  0.49336916  0.24897244  1
  O  O114  1  0.29996414  0.49052112  0.76493085  1
  O  O115  1  0.18028816  0.69780469  0.76055900  1
  O  O116  1  0.50145756  0.81473640  0.75329936  1
