# generated using pymatgen
data_K3InP2
_symmetry_space_group_name_H-M   'P 1'
_cell_length_a   6.79975480
_cell_length_b   7.67688410
_cell_length_c   8.88910950
_cell_angle_alpha   115.58273150
_cell_angle_beta   112.48718280
_cell_angle_gamma   90.00000840
_symmetry_Int_Tables_number   1
_chemical_formula_structural   K3InP2
_chemical_formula_sum   'K6 In2 P4'
_cell_volume   379.03577758
_cell_formula_units_Z   2
loop_
 _symmetry_equiv_pos_site_id
 _symmetry_equiv_pos_as_xyz
  1  'x, y, z'
loop_
 _atom_site_type_symbol
 _atom_site_label
 _atom_site_symmetry_multiplicity
 _atom_site_fract_x
 _atom_site_fract_y
 _atom_site_fract_z
 _atom_site_occupancy
  K  K0  1  0.81589338  0.01605249  0.63178776  1
  K  K1  1  0.75000000  0.50000000  -0.00000000  1
  K  K2  1  0.31589338  0.61573527  0.63178776  1
  K  K3  1  0.68410662  0.38426473  0.36821224  1
  K  K4  1  0.25000000  0.50000000  -0.00000000  1
  K  K5  1  0.18410662  0.98394751  0.36821224  1
  In  In6  1  0.25000000  -0.00000000  -0.00000000  1
  In  In7  1  0.75000000  -0.00000000  -0.00000000  1
  P  P8  1  0.40317086  0.09258266  0.80634071  1
  P  P9  1  0.59682914  0.90741734  0.19365929  1
  P  P10  1  0.09682914  0.28624195  0.19365929  1
  P  P11  1  0.90317086  0.71375805  0.80634071  1
