# generated using pymatgen
data_MgFe12(OF)12
_symmetry_space_group_name_H-M   'P 1'
_cell_length_a   9.65414846
_cell_length_b   14.66802278
_cell_length_c   3.09862927
_cell_angle_alpha   89.75679925
_cell_angle_beta   90.08945680
_cell_angle_gamma   91.94172465
_symmetry_Int_Tables_number   1
_chemical_formula_structural   MgFe12(OF)12
_chemical_formula_sum   'Mg1 Fe12 O12 F12'
_cell_volume   438.53208857
_cell_formula_units_Z   1
loop_
 _symmetry_equiv_pos_site_id
 _symmetry_equiv_pos_as_xyz
  1  'x, y, z'
loop_
 _atom_site_type_symbol
 _atom_site_label
 _atom_site_symmetry_multiplicity
 _atom_site_fract_x
 _atom_site_fract_y
 _atom_site_fract_z
 _atom_site_occupancy
  Mg  Mg0  1  0.76296400  0.66223000  0.97280800  1
  Fe  Fe1  1  0.99685300  0.01121100  0.99652300  1
  Fe  Fe2  1  0.01562800  0.32642800  0.98677700  1
  Fe  Fe3  1  0.05654800  0.65767100  0.98354100  1
  Fe  Fe4  1  0.22207000  0.16662400  0.49207000  1
  Fe  Fe5  1  0.25691900  0.47057000  0.48603500  1
  Fe  Fe6  1  0.23923900  0.87308800  0.50478500  1
  Fe  Fe7  1  0.49783700  0.33518900  0.98684200  1
  Fe  Fe8  1  0.49610100  0.00964100  0.99646000  1
  Fe  Fe9  1  0.48918500  0.66890700  0.02838200  1
  Fe  Fe10  1  0.74668600  0.14824100  0.49279600  1
  Fe  Fe11  1  0.73258600  0.48269600  0.47771500  1
  Fe  Fe12  1  0.70173200  0.85372100  0.49354600  1
  O  O13  1  0.09464000  0.26931400  0.48875300  1
  O  O14  1  0.07691100  0.93990400  0.49893300  1
  O  O15  1  0.15044400  0.10556900  0.99341500  1
  O  O16  1  0.15060500  0.43167100  0.98616100  1
  O  O17  1  0.34048000  0.91534600  0.00365100  1
  O  O18  1  0.40708300  0.38833100  0.48593600  1
  O  O19  1  0.58232200  0.94897100  0.49785400  1
  O  O20  1  0.65339300  0.60392700  0.47408500  1
  O  O21  1  0.63930500  0.10895000  0.99341600  1
  O  O22  1  0.65621800  0.42633400  0.97949600  1
  O  O23  1  0.65252300  0.77315700  0.99478400  1
  O  O24  1  0.89459200  0.06657400  0.49478900  1
  F  F25  1  0.14499400  0.59245200  0.48686400  1
  F  F26  1  0.15328000  0.77803500  0.00652200  1
  F  F27  1  0.34830700  0.23085400  0.99019600  1
  F  F28  1  0.36566200  0.55020700  0.99944500  1
  F  F29  1  0.39437900  0.07775400  0.49552800  1
  F  F30  1  0.38670300  0.73066600  0.53054600  1
  F  F31  1  0.59495000  0.26764300  0.48727400  1
  F  F32  1  0.84192800  0.23606800  0.98779500  1
  F  F33  1  0.83019700  0.89947200  0.99571600  1
  F  F34  1  0.88264100  0.55441300  0.97593200  1
  F  F35  1  0.90116900  0.39499000  0.48155000  1
  F  F36  1  0.90721300  0.70521500  0.48141200  1
