# generated using pymatgen
data_Sr2MgCoO4
_symmetry_space_group_name_H-M   'P 1'
_cell_length_a   3.85287941
_cell_length_b   5.13139651
_cell_length_c   8.19188056
_cell_angle_alpha   116.74389888
_cell_angle_beta   109.53075989
_cell_angle_gamma   84.86638533
_symmetry_Int_Tables_number   1
_chemical_formula_structural   Sr2MgCoO4
_chemical_formula_sum   'Sr2 Mg1 Co1 O4'
_cell_volume   135.95361339
_cell_formula_units_Z   1
loop_
 _symmetry_equiv_pos_site_id
 _symmetry_equiv_pos_as_xyz
  1  'x, y, z'
loop_
 _atom_site_type_symbol
 _atom_site_label
 _atom_site_symmetry_multiplicity
 _atom_site_fract_x
 _atom_site_fract_y
 _atom_site_fract_z
 _atom_site_occupancy
  Sr  Sr0  1  0.57946226  0.46867782  0.31605089  1
  Sr  Sr1  1  0.36987476  0.47599114  0.73005024  1
  Mg  Mg2  1  -0.00646924  0.90080239  0.12489248  1
  Co  Co3  1  0.01887389  0.08489435  0.87669627  1
  O  O4  1  0.79986165  0.74585291  0.67222781  1
  O  O5  1  0.15125900  0.22918707  0.38136682  1
  O  O6  1  0.97930949  0.47215196  0.01794909  1
  O  O7  1  0.42925720  0.95577537  0.03817340  1
