# generated using pymatgen
data_Na7TaZn3Si3(SO8)3
_symmetry_space_group_name_H-M   'P 1'
_cell_length_a   9.15101877
_cell_length_b   9.18558894
_cell_length_c   22.16773431
_cell_angle_alpha   89.55188593
_cell_angle_beta   90.64638896
_cell_angle_gamma   120.43250929
_symmetry_Int_Tables_number   1
_chemical_formula_structural   Na7TaZn3Si3(SO8)3
_chemical_formula_sum   'Na21 Ta3 Zn9 Si9 S9 O72'
_cell_volume   1606.53483500
_cell_formula_units_Z   3
loop_
 _symmetry_equiv_pos_site_id
 _symmetry_equiv_pos_as_xyz
  1  'x, y, z'
loop_
 _atom_site_type_symbol
 _atom_site_label
 _atom_site_symmetry_multiplicity
 _atom_site_fract_x
 _atom_site_fract_y
 _atom_site_fract_z
 _atom_site_occupancy
  Na  Na0  1  0.63899714  0.00546419  0.23721686  1
  Na  Na1  1  0.37792373  0.34739253  0.25486812  1
  Na  Na2  1  0.98359239  0.65060345  0.24893231  1
  Na  Na3  1  0.66627359  0.63838165  0.74956927  1
  Na  Na4  1  0.97762319  0.34082663  0.74897324  1
  Na  Na5  1  0.35856577  0.01647082  0.74813516  1
  Na  Na6  1  0.28789493  0.32458994  0.58822703  1
  Na  Na7  1  0.04015326  0.71417724  0.58726232  1
  Na  Na8  1  0.67586299  0.96733381  0.59394050  1
  Na  Na9  1  0.30247239  0.96425187  0.09234908  1
  Na  Na10  1  0.67124733  0.72504925  0.08181759  1
  Na  Na11  1  0.03330682  0.32159959  0.08027139  1
  Na  Na12  1  0.97341815  0.30037094  0.42135892  1
  Na  Na13  1  0.31775873  0.03921770  0.41497145  1
  Na  Na14  1  0.71128667  0.66075779  0.40854986  1
  Na  Na15  1  0.01360271  0.00024369  0.49662459  1
  Na  Na16  1  0.97648084  0.99243933  0.98898474  1
  Na  Na17  1  0.66880327  0.33974394  0.82070099  1
  Na  Na18  1  0.65597635  0.33957685  0.33312491  1
  Na  Na19  1  0.35647787  0.68912165  0.16304673  1
  Na  Na20  1  0.32959325  0.66742569  0.66329348  1
  Ta  Ta21  1  0.67006808  0.33024323  0.97528964  1
  Ta  Ta22  1  0.33039972  0.66379128  0.31654356  1
  Ta  Ta23  1  0.34445193  0.66126252  0.81298458  1
  Zn  Zn24  1  0.01380535  0.97904214  0.34879352  1
  Zn  Zn25  1  0.97776758  0.97895659  0.84017600  1
  Zn  Zn26  1  0.99824252  0.99339587  0.68141367  1
  Zn  Zn27  1  0.97915910  0.97948423  0.15803146  1
  Zn  Zn28  1  0.66065940  0.33236103  0.68920671  1
  Zn  Zn29  1  0.64887884  0.32042221  0.18585710  1
  Zn  Zn30  1  0.66743859  0.35183722  0.47800299  1
  Zn  Zn31  1  0.37593525  0.70015244  0.00939667  1
  Zn  Zn32  1  0.31289244  0.64335989  0.50629283  1
  Si  Si33  1  0.29587468  0.99818051  0.24900578  1
  Si  Si34  1  0.69766393  0.70056518  0.25003306  1
  Si  Si35  1  0.28867188  0.28699371  0.75074632  1
  Si  Si36  1  0.00244458  0.69956234  0.74857760  1
  Si  Si37  1  0.70431280  0.00320474  0.74896914  1
  Si  Si38  1  0.67043336  0.04212079  0.08645172  1
  Si  Si39  1  0.64310019  0.67465431  0.92128736  1
  Si  Si40  1  0.32565016  0.36073139  0.42040850  1
  Si  Si41  1  0.03515024  0.66479680  0.42155934  1
  S  S42  1  0.00646929  0.30169149  0.25089246  1
  S  S43  1  0.95835027  0.33163758  0.58087642  1
  S  S44  1  0.37806127  0.04047733  0.57965615  1
  S  S45  1  0.66677060  0.63503220  0.58092984  1
  S  S46  1  0.95747760  0.61942579  0.08204049  1
  S  S47  1  0.37589160  0.33330363  0.08102502  1
  S  S48  1  0.04368837  0.38120135  0.92218490  1
  S  S49  1  0.33413683  0.96325057  0.91941409  1
  S  S50  1  0.62331160  0.95769781  0.41821204  1
  O  O51  1  0.22197398  0.03898969  0.30796237  1
  O  O52  1  0.81155025  0.78845759  0.30916134  1
  O  O53  1  0.98348342  0.20038942  0.30463088  1
  O  O54  1  0.20114073  0.15926193  0.80555611  1
  O  O55  1  0.94613894  0.77628742  0.80178118  1
  O  O56  1  0.83497089  0.05842316  0.80407431  1
  O  O57  1  0.76308713  0.94128855  0.68969594  1
  O  O58  1  0.17718295  0.23028474  0.68817021  1
  O  O59  1  0.06248475  0.81928987  0.68820373  1
  O  O60  1  0.75782438  0.81689322  0.18891930  1
  O  O61  1  0.03655152  0.23154249  0.19569724  1
  O  O62  1  0.17522295  0.95770545  0.18851101  1
  O  O63  1  0.87012131  0.33907112  0.63497269  1
  O  O64  1  0.47308548  0.12982520  0.63465013  1
  O  O65  1  0.64951027  0.53299314  0.63521338  1
  O  O66  1  0.88010624  0.52825535  0.13836245  1
  O  O67  1  0.64826263  0.13025325  0.14551958  1
  O  O68  1  0.47306577  0.36263004  0.13790673  1
  O  O69  1  0.47994291  0.32554976  0.02955898  1
  O  O70  1  0.84407309  0.51997548  0.02913269  1
  O  O71  1  0.68215486  0.17012335  0.02836246  1
  O  O72  1  0.46760757  0.13587084  0.52403318  1
  O  O73  1  0.67715138  0.55018581  0.52522926  1
  O  O74  1  0.86296972  0.32461735  0.52465135  1
  O  O75  1  0.56118781  0.68092117  0.98444375  1
  O  O76  1  0.13534311  0.47111941  0.97742469  1
  O  O77  1  0.31803804  0.86986967  0.97674369  1
  O  O78  1  0.54616115  0.85611031  0.47275305  1
  O  O79  1  0.30653686  0.44280620  0.48189971  1
  O  O80  1  0.15348283  0.70515759  0.48087500  1
  O  O81  1  0.14916770  0.65378202  0.36252813  1
  O  O82  1  0.51370817  0.86143644  0.36295965  1
  O  O83  1  0.34739413  0.49649721  0.36314013  1
  O  O84  1  0.12371285  0.48647105  0.86768870  1
  O  O85  1  0.35908663  0.87871203  0.86754172  1
  O  O86  1  0.50305995  0.64567416  0.86584053  1
  O  O87  1  0.00540122  0.82386034  0.41602154  1
  O  O88  1  0.79339099  0.98257018  0.41094831  1
  O  O89  1  0.15178544  0.18104643  0.41162305  1
  O  O90  1  0.01855424  0.21367084  0.91877961  1
  O  O91  1  0.19664822  0.99564432  0.91419855  1
  O  O92  1  0.82735175  0.83295414  0.91143112  1
  O  O93  1  0.97641266  0.18032443  0.58016510  1
  O  O94  1  0.20688878  0.02036093  0.57813194  1
  O  O95  1  0.82223771  0.80351700  0.58227131  1
  O  O96  1  0.97114096  0.78643202  0.07842893  1
  O  O97  1  0.84512556  0.03251395  0.08408368  1
  O  O98  1  0.21411451  0.17126082  0.08014308  1
  O  O99  1  0.65446278  0.14786927  0.74067544  1
  O  O100  1  0.48574516  0.33768967  0.74443540  1
  O  O101  1  0.85083163  0.50609670  0.73996838  1
  O  O102  1  0.67842794  0.51368146  0.24341997  1
  O  O103  1  0.86598140  0.33595709  0.24540894  1
  O  O104  1  0.49092214  0.15560430  0.24708147  1
  O  O105  1  0.64739685  0.48950761  0.92540726  1
  O  O106  1  0.86475115  0.36547394  0.92359741  1
  O  O107  1  0.50200868  0.13765171  0.92354633  1
  O  O108  1  0.62655571  0.11938314  0.41671168  1
  O  O109  1  0.49809787  0.34955895  0.41587683  1
  O  O110  1  0.85763782  0.48373259  0.41687293  1
  O  O111  1  0.34314816  0.47477656  0.07490788  1
  O  O112  1  0.12544531  0.63404369  0.07629668  1
  O  O113  1  0.49557379  0.85549979  0.08112207  1
  O  O114  1  0.36530111  0.87043242  0.58148579  1
  O  O115  1  0.51289619  0.65487415  0.57927105  1
  O  O116  1  0.13181456  0.48939951  0.58244664  1
  O  O117  1  0.31012486  0.82118346  0.25735843  1
  O  O118  1  0.50252038  0.67460757  0.25941685  1
  O  O119  1  0.16850212  0.47628594  0.25617000  1
  O  O120  1  0.30373808  0.47992221  0.76298596  1
  O  O121  1  0.17575485  0.68699128  0.76661894  1
  O  O122  1  0.51229864  0.82502439  0.76241769  1
