# generated using pymatgen
data_Na30Mg16Ta8Si15(S7O48)3
_symmetry_space_group_name_H-M   'P 1'
_cell_length_a   17.95140493
_cell_length_b   8.98261512
_cell_length_c   22.40202746
_cell_angle_alpha   89.98267638
_cell_angle_beta   89.87716867
_cell_angle_gamma   120.00241400
_symmetry_Int_Tables_number   1
_chemical_formula_structural   Na30Mg16Ta8Si15(S7O48)3
_chemical_formula_sum   'Na30 Mg16 Ta8 Si15 S21 O144'
_cell_volume   3128.29054762
_cell_formula_units_Z   1
loop_
 _symmetry_equiv_pos_site_id
 _symmetry_equiv_pos_as_xyz
  1  'x, y, z'
loop_
 _atom_site_type_symbol
 _atom_site_label
 _atom_site_symmetry_multiplicity
 _atom_site_fract_x
 _atom_site_fract_y
 _atom_site_fract_z
 _atom_site_occupancy
  Na  Na0  1  0.32387924  0.02245476  0.24774692  1
  Na  Na1  1  0.82363646  0.02118760  0.24816675  1
  Na  Na2  1  0.18652973  0.34938749  0.24835439  1
  Na  Na3  1  0.68447732  0.34886351  0.24789427  1
  Na  Na4  1  0.98898272  0.62726184  0.24886213  1
  Na  Na5  1  0.48747019  0.61876623  0.24170511  1
  Na  Na6  1  0.32279815  0.62522420  0.74908149  1
  Na  Na7  1  0.82571750  0.62795466  0.74956060  1
  Na  Na8  1  0.98760637  0.35509186  0.74349441  1
  Na  Na9  1  0.48721284  0.35450858  0.74268835  1
  Na  Na10  1  0.18405702  0.02185017  0.74902492  1
  Na  Na11  1  0.68578832  0.02222749  0.74837990  1
  Na  Na12  1  0.01325787  0.67697154  0.58888752  1
  Na  Na13  1  0.51350184  0.67719339  0.58811213  1
  Na  Na14  1  0.51333988  0.34893772  0.08569512  1
  Na  Na15  1  0.47926487  0.66533393  0.91828012  1
  Na  Na16  1  0.47960850  0.29362079  0.42028079  1
  Na  Na17  1  0.97926602  0.29299079  0.42156904  1
  Na  Na18  1  0.99842375  0.00623894  0.50087445  1
  Na  Na19  1  0.49897100  0.00648540  0.50029864  1
  Na  Na20  1  0.00060416  0.00106912  0.99240113  1
  Na  Na21  1  0.49796465  0.99024304  0.99719017  1
  Na  Na22  1  0.32744245  0.32113627  0.82692996  1
  Na  Na23  1  0.83551920  0.33675385  0.82804491  1
  Na  Na24  1  0.32955498  0.33462361  0.32708527  1
  Na  Na25  1  0.82749774  0.33309958  0.32860673  1
  Na  Na26  1  0.16710078  0.66595920  0.15588642  1
  Na  Na27  1  0.66390116  0.67756333  0.15437581  1
  Na  Na28  1  0.16368618  0.65074809  0.65664614  1
  Na  Na29  1  0.66430600  0.65138511  0.65578912  1
  Mg  Mg30  1  0.00021462  0.99662724  0.34773270  1
  Mg  Mg31  1  0.50124225  0.99695008  0.34772031  1
  Mg  Mg32  1  0.00087386  0.00152705  0.84876394  1
  Mg  Mg33  1  0.50109904  0.00559425  0.84739625  1
  Mg  Mg34  1  0.33772543  0.33472602  0.68498979  1
  Mg  Mg35  1  0.83816024  0.33459368  0.68489702  1
  Mg  Mg36  1  0.33774069  0.34077487  0.18435810  1
  Mg  Mg37  1  0.83390810  0.33326610  0.18462367  1
  Mg  Mg38  1  0.33157691  0.33860038  0.98578227  1
  Mg  Mg39  1  0.83536159  0.33691122  0.98093415  1
  Mg  Mg40  1  0.33358193  0.32668961  0.48839512  1
  Mg  Mg41  1  0.83327545  0.32608044  0.48864006  1
  Mg  Mg42  1  0.16584892  0.66532893  0.01631327  1
  Mg  Mg43  1  0.66798005  0.67529581  0.01936383  1
  Mg  Mg44  1  0.16737687  0.66112581  0.52038757  1
  Mg  Mg45  1  0.66753590  0.66128263  0.52007229  1
  Ta  Ta46  1  0.99943670  0.01300958  0.65090992  1
  Ta  Ta47  1  0.49888727  0.01205338  0.65098237  1
  Ta  Ta48  1  0.00016131  0.00023497  0.15053250  1
  Ta  Ta49  1  0.49922183  0.98615479  0.14983476  1
  Ta  Ta50  1  0.16725072  0.66783585  0.31101890  1
  Ta  Ta51  1  0.66680315  0.66568820  0.31072719  1
  Ta  Ta52  1  0.16419565  0.66695702  0.81184865  1
  Ta  Ta53  1  0.66751625  0.66623500  0.81145121  1
  Si  Si54  1  0.14668748  0.00543017  0.25239839  1
  Si  Si55  1  0.64723245  0.00524871  0.25404174  1
  Si  Si56  1  0.35514720  0.70588205  0.25390023  1
  Si  Si57  1  0.85557863  0.70681108  0.25243261  1
  Si  Si58  1  0.99827338  0.28868941  0.25492927  1
  Si  Si59  1  0.49790007  0.28455790  0.25334504  1
  Si  Si60  1  0.14743184  0.29026234  0.75467281  1
  Si  Si61  1  0.64791301  0.28949453  0.75396824  1
  Si  Si62  1  0.99762237  0.71207262  0.75133897  1
  Si  Si63  1  0.49844029  0.71109542  0.75379497  1
  Si  Si64  1  0.35386351  0.00296906  0.75453708  1
  Si  Si65  1  0.85553236  0.00464376  0.75481255  1
  Si  Si66  1  0.48265501  0.33524452  0.58064386  1
  Si  Si67  1  0.98273273  0.33480569  0.58055647  1
  Si  Si68  1  0.48243379  0.62816218  0.08065319  1
  S  S69  1  0.18507490  0.03949811  0.58298404  1
  S  S70  1  0.68471114  0.03852810  0.58320187  1
  S  S71  1  0.33405009  0.62877964  0.58303272  1
  S  S72  1  0.83381380  0.62905033  0.58296994  1
  S  S73  1  0.98098893  0.62988299  0.08319483  1
  S  S74  1  0.33149455  0.03552224  0.08333857  1
  S  S75  1  0.83636959  0.04274052  0.08298516  1
  S  S76  1  0.18356590  0.33177394  0.08366314  1
  S  S77  1  0.68733982  0.33218382  0.08273820  1
  S  S78  1  0.31124975  0.66566995  0.91791320  1
  S  S79  1  0.81182156  0.66647963  0.91960566  1
  S  S80  1  0.02054399  0.37451496  0.91938323  1
  S  S81  1  0.52094844  0.37049059  0.91869904  1
  S  S82  1  0.16711479  0.95906410  0.91945625  1
  S  S83  1  0.66848160  0.96110046  0.91804914  1
  S  S84  1  0.31085356  0.95576797  0.41832646  1
  S  S85  1  0.81081512  0.95542781  0.41810659  1
  S  S86  1  0.16824964  0.37651750  0.41796298  1
  S  S87  1  0.66826915  0.37613503  0.41814709  1
  S  S88  1  0.02106017  0.67142492  0.41808602  1
  S  S89  1  0.52147939  0.67166906  0.41822994  1
  O  O90  1  0.10684728  0.04809717  0.30810559  1
  O  O91  1  0.60904897  0.04988075  0.31003664  1
  O  O92  1  0.41586210  0.78855898  0.30933332  1
  O  O93  1  0.91634070  0.78738172  0.30805767  1
  O  O94  1  0.48359375  0.17802217  0.31325179  1
  O  O95  1  0.97958877  0.17874965  0.31437241  1
  O  O96  1  0.10871546  0.16932261  0.81055003  1
  O  O97  1  0.60887493  0.16860818  0.80990452  1
  O  O98  1  0.48377308  0.78892214  0.81361765  1
  O  O99  1  0.98055292  0.79653266  0.80728628  1
  O  O100  1  0.41599571  0.04409483  0.80922124  1
  O  O101  1  0.91695283  0.04622652  0.80979013  1
  O  O102  1  0.39808031  0.95778072  0.69485283  1
  O  O103  1  0.89886809  0.95835729  0.69493320  1
  O  O104  1  0.07932059  0.20370006  0.69589377  1
  O  O105  1  0.57918206  0.20329257  0.69569899  1
  O  O106  1  0.02117987  0.83526885  0.68954813  1
  O  O107  1  0.52069634  0.83783368  0.69333381  1
  O  O108  1  0.39879371  0.83871874  0.19445989  1
  O  O109  1  0.89963707  0.84158075  0.19338691  1
  O  O110  1  0.02033369  0.19557647  0.19711031  1
  O  O111  1  0.52060961  0.20324027  0.19303568  1
  O  O112  1  0.07851564  0.95647999  0.19365688  1
  O  O113  1  0.57948969  0.95608655  0.19564667  1
  O  O114  1  0.43895020  0.36346351  0.63979189  1
  O  O115  1  0.93880967  0.36245466  0.63955170  1
  O  O116  1  0.23194319  0.11749305  0.63813881  1
  O  O117  1  0.73183820  0.11740095  0.63834343  1
  O  O118  1  0.32173474  0.53095370  0.63865031  1
  O  O119  1  0.82168225  0.53097032  0.63850320  1
  O  O120  1  0.44010494  0.51602800  0.14083574  1
  O  O121  1  0.94242133  0.53377369  0.13919565  1
  O  O122  1  0.31999678  0.10849341  0.13935685  1
  O  O123  1  0.82617954  0.11834814  0.13910250  1
  O  O124  1  0.23107989  0.34980853  0.13921362  1
  O  O125  1  0.73394248  0.34778703  0.13877983  1
  O  O126  1  0.22325431  0.30380982  0.03092726  1
  O  O127  1  0.72905859  0.30692903  0.03075684  1
  O  O128  1  0.42747354  0.55114154  0.01972662  1
  O  O129  1  0.92722520  0.54609975  0.03106226  1
  O  O130  1  0.34444995  0.14644530  0.03140535  1
  O  O131  1  0.84792366  0.15059121  0.03089965  1
  O  O132  1  0.22471470  0.14700843  0.52986691  1
  O  O133  1  0.72402814  0.14659877  0.53003322  1
  O  O134  1  0.34660969  0.54360957  0.53064849  1
  O  O135  1  0.84621422  0.54287193  0.53045086  1
  O  O136  1  0.42880303  0.30121087  0.51875050  1
  O  O137  1  0.92899522  0.30139924  0.51857235  1
  O  O138  1  0.26619810  0.67965186  0.97013363  1
  O  O139  1  0.76507920  0.68145230  0.97075364  1
  O  O140  1  0.07400366  0.46590343  0.97070070  1
  O  O141  1  0.57224212  0.45834134  0.97174635  1
  O  O142  1  0.15924391  0.85086794  0.97070003  1
  O  O143  1  0.65802552  0.84906365  0.96891441  1
  O  O144  1  0.26448738  0.84976994  0.46959637  1
  O  O145  1  0.76496072  0.85074353  0.46936136  1
  O  O146  1  0.15812527  0.46810248  0.46824189  1
  O  O147  1  0.65858262  0.46844647  0.46833200  1
  O  O148  1  0.07256217  0.68535448  0.47047631  1
  O  O149  1  0.57246822  0.68571948  0.47083845  1
  O  O150  1  0.06857559  0.65066543  0.36283901  1
  O  O151  1  0.56944424  0.65128974  0.36332534  1
  O  O152  1  0.25849745  0.86138713  0.36181034  1
  O  O153  1  0.75942382  0.86232757  0.36150188  1
  O  O154  1  0.17627442  0.48311845  0.36083809  1
  O  O155  1  0.67676318  0.48242634  0.36096692  1
  O  O156  1  0.06668002  0.48448371  0.86317420  1
  O  O157  1  0.56843013  0.48640409  0.86419190  1
  O  O158  1  0.17533622  0.86678733  0.86284367  1
  O  O159  1  0.67689005  0.87148577  0.86160836  1
  O  O160  1  0.25956418  0.65483022  0.86213017  1
  O  O161  1  0.75773144  0.65004053  0.86302378  1
  O  O162  1  0.01349718  0.82504511  0.41186132  1
  O  O163  1  0.51354265  0.82506188  0.41209295  1
  O  O164  1  0.39745247  0.97624038  0.41441410  1
  O  O165  1  0.89793671  0.97650205  0.41439904  1
  O  O166  1  0.08817302  0.20791885  0.41311205  1
  O  O167  1  0.58842483  0.20786925  0.41370622  1
  O  O168  1  0.01342306  0.20556575  0.91408032  1
  O  O169  1  0.51313630  0.20134999  0.91290437  1
  O  O170  1  0.08929947  0.97235591  0.91432906  1
  O  O171  1  0.58844689  0.96991731  0.91387439  1
  O  O172  1  0.39841474  0.81856031  0.91464573  1
  O  O173  1  0.89663553  0.82086771  0.91438666  1
  O  O174  1  0.49129067  0.15432216  0.59012031  1
  O  O175  1  0.99155296  0.15409138  0.58949553  1
  O  O176  1  0.09388738  0.01224164  0.58660347  1
  O  O177  1  0.59331728  0.01068366  0.58731085  1
  O  O178  1  0.41861206  0.80075132  0.58753131  1
  O  O179  1  0.91821859  0.80075475  0.58707108  1
  O  O180  1  0.49141849  0.82742968  0.09013825  1
  O  O181  1  0.98861547  0.80799109  0.08824197  1
  O  O182  1  0.41582948  0.03061796  0.08792346  1
  O  O183  1  0.91842227  0.02926915  0.08823166  1
  O  O184  1  0.09365626  0.16980043  0.08899372  1
  O  O185  1  0.59609921  0.17595011  0.08707139  1
  O  O186  1  0.33218088  0.15262054  0.74244487  1
  O  O187  1  0.83294474  0.15297852  0.74247758  1
  O  O188  1  0.24232821  0.32883110  0.73878123  1
  O  O189  1  0.74291129  0.32924001  0.73846535  1
  O  O190  1  0.41945089  0.51974919  0.74436327  1
  O  O191  1  0.91994361  0.51863243  0.74314410  1
  O  O192  1  0.33274953  0.51232991  0.24258824  1
  O  O193  1  0.83588524  0.51537771  0.23915481  1
  O  O194  1  0.41901219  0.31850768  0.24430990  1
  O  O195  1  0.92207634  0.32644818  0.24023812  1
  O  O196  1  0.24202921  0.15580077  0.23795178  1
  O  O197  1  0.74295621  0.15661179  0.23976718  1
  O  O198  1  0.31735196  0.50659569  0.91740225  1
  O  O199  1  0.81662596  0.50683020  0.92085482  1
  O  O200  1  0.43628235  0.36270854  0.91824162  1
  O  O201  1  0.93579109  0.36499004  0.92063639  1
  O  O202  1  0.24682972  0.12799660  0.92083223  1
  O  O203  1  0.74630472  0.13051707  0.92066116  1
  O  O204  1  0.31603297  0.12563832  0.41675272  1
  O  O205  1  0.81660994  0.12646617  0.41665651  1
  O  O206  1  0.24619035  0.36281912  0.41997176  1
  O  O207  1  0.74654840  0.36245066  0.42018004  1
  O  O208  1  0.43676775  0.50994320  0.41725331  1
  O  O209  1  0.93650880  0.50984567  0.41705723  1
  O  O210  1  0.17102723  0.48247236  0.07740399  1
  O  O211  1  0.67551664  0.48431748  0.07706426  1
  O  O212  1  0.06904348  0.65547539  0.07751598  1
  O  O213  1  0.57832691  0.64813863  0.07682534  1
  O  O214  1  0.25858661  0.85838349  0.07643638  1
  O  O215  1  0.76257383  0.86659938  0.07726596  1
  O  O216  1  0.17418892  0.86423829  0.57643278  1
  O  O217  1  0.67403960  0.86416160  0.57662313  1
  O  O218  1  0.26262541  0.66279597  0.57581920  1
  O  O219  1  0.76234141  0.66223614  0.57575860  1
  O  O220  1  0.07836954  0.50761250  0.57724884  1
  O  O221  1  0.57823272  0.50783473  0.57715987  1
  O  O222  1  0.14992829  0.82124392  0.26003187  1
  O  O223  1  0.65181835  0.82292557  0.26070435  1
  O  O224  1  0.25991679  0.70143800  0.25942710  1
  O  O225  1  0.76025237  0.69938362  0.25901895  1
  O  O226  1  0.08984186  0.48009792  0.25981502  1
  O  O227  1  0.58853305  0.48041431  0.26052789  1
  O  O228  1  0.15110189  0.48086721  0.76141850  1
  O  O229  1  0.65126015  0.47990415  0.76091174  1
  O  O230  1  0.08835606  0.69797100  0.76009520  1
  O  O231  1  0.58904702  0.69684225  0.76123680  1
  O  O232  1  0.25906793  0.81875660  0.76078413  1
  O  O233  1  0.76043076  0.81886950  0.76036344  1
