# generated using pymatgen
data_MgMn2(WO4)2
_symmetry_space_group_name_H-M   'P 1'
_cell_length_a   5.17150926
_cell_length_b   5.10768726
_cell_length_c   6.10960900
_cell_angle_alpha   90.00000000
_cell_angle_beta   90.00000000
_cell_angle_gamma   94.01935559
_symmetry_Int_Tables_number   1
_chemical_formula_structural   MgMn2(WO4)2
_chemical_formula_sum   'Mg1 Mn2 W2 O8'
_cell_volume   160.98504289
_cell_formula_units_Z   1
loop_
 _symmetry_equiv_pos_site_id
 _symmetry_equiv_pos_as_xyz
  1  'x, y, z'
loop_
 _atom_site_type_symbol
 _atom_site_label
 _atom_site_symmetry_multiplicity
 _atom_site_fract_x
 _atom_site_fract_y
 _atom_site_fract_z
 _atom_site_occupancy
  Mg  Mg0  1  0.50000000  0.75000000  0.91090100  1
  Mn  Mn1  1  0.50000000  0.75000000  0.36565300  1
  Mn  Mn2  1  0.50000000  0.25000000  0.62794300  1
  W  W3  1  0.00000000  0.75000000  0.83532100  1
  W  W4  1  0.00000000  0.25000000  0.16190000  1
  O  O5  1  0.74628000  0.10591100  0.36625900  1
  O  O6  1  0.25372000  0.39408900  0.36625900  1
  O  O7  1  0.27672900  0.88797400  0.64418300  1
  O  O8  1  0.72327100  0.61202600  0.64418300  1
  O  O9  1  0.78064300  0.05512000  0.89930000  1
  O  O10  1  0.21935700  0.44488000  0.89930000  1
  O  O11  1  0.21717100  0.93055400  0.09252400  1
  O  O12  1  0.78282900  0.56944600  0.09252400  1
