# generated using pymatgen
data_La4MgCr2O12
_symmetry_space_group_name_H-M   'P 1'
_cell_length_a   4.83345258
_cell_length_b   7.37843252
_cell_length_c   8.77660047
_cell_angle_alpha   105.54543658
_cell_angle_beta   93.64585851
_cell_angle_gamma   108.63832308
_symmetry_Int_Tables_number   1
_chemical_formula_structural   La4MgCr2O12
_chemical_formula_sum   'La4 Mg1 Cr2 O12'
_cell_volume   281.89321543
_cell_formula_units_Z   1
loop_
 _symmetry_equiv_pos_site_id
 _symmetry_equiv_pos_as_xyz
  1  'x, y, z'
loop_
 _atom_site_type_symbol
 _atom_site_label
 _atom_site_symmetry_multiplicity
 _atom_site_fract_x
 _atom_site_fract_y
 _atom_site_fract_z
 _atom_site_occupancy
  La  La0  1  0.63038600  0.36281600  0.12542400  1
  La  La1  1  0.33230300  0.67095400  0.43521500  1
  La  La2  1  0.66037800  0.35845300  0.59164000  1
  La  La3  1  0.23670200  0.59046200  0.91622900  1
  Mg  Mg4  1  0.66668800  0.99942300  0.85537800  1
  Cr  Cr5  1  0.96056800  0.99758400  0.24506700  1
  Cr  Cr6  1  0.10499100  0.00860500  0.72111900  1
  O  O7  1  0.67020100  0.48662400  0.88858000  1
  O  O8  1  0.28530600  0.99252500  0.90166600  1
  O  O9  1  0.27975500  0.18971000  0.30592400  1
  O  O10  1  0.75611400  0.80262800  0.68478000  1
  O  O11  1  0.19640300  0.49827900  0.62709700  1
  O  O12  1  0.34482700  0.01059700  0.57866500  1
  O  O13  1  0.77464000  0.52387700  0.39019300  1
  O  O14  1  0.75955400  0.01876200  0.08764900  1
  O  O15  1  0.25051100  0.48974300  0.14702800  1
  O  O16  1  0.76642500  0.00068000  0.39371300  1
  O  O17  1  0.96722100  0.21395300  0.79706700  1
  O  O18  1  0.02369200  0.78432600  0.19037700  1
