# generated using pymatgen
data_Na3LaHf3(PO4)6
_symmetry_space_group_name_H-M   'P 1'
_cell_length_a   9.05017676
_cell_length_b   9.06627121
_cell_length_c   23.29409533
_cell_angle_alpha   89.82664544
_cell_angle_beta   90.15569431
_cell_angle_gamma   120.35264383
_symmetry_Int_Tables_number   1
_chemical_formula_structural   Na3LaHf3(PO4)6
_chemical_formula_sum   'Na9 La3 Hf9 P18 O72'
_cell_volume   1649.32256645
_cell_formula_units_Z   3
loop_
 _symmetry_equiv_pos_site_id
 _symmetry_equiv_pos_as_xyz
  1  'x, y, z'
loop_
 _atom_site_type_symbol
 _atom_site_label
 _atom_site_symmetry_multiplicity
 _atom_site_fract_x
 _atom_site_fract_y
 _atom_site_fract_z
 _atom_site_occupancy
  Na  Na0  1  0.35912263  0.35171330  0.24666843  1
  Na  Na1  1  0.63341047  0.62783387  0.74981525  1
  Na  Na2  1  0.97019640  0.29656463  0.41590330  1
  Na  Na3  1  0.00013741  0.98821975  0.50292616  1
  Na  Na4  1  0.99981373  0.00017001  0.00298976  1
  Na  Na5  1  0.66684279  0.32031870  0.83566646  1
  Na  Na6  1  0.66817112  0.33377481  0.32860791  1
  Na  Na7  1  0.33226681  0.67915260  0.16464214  1
  Na  Na8  1  0.31902094  0.66661806  0.66577226  1
  La  La9  1  0.99507998  0.98227450  0.35592776  1
  La  La10  1  0.66797126  0.32225825  0.68455461  1
  La  La11  1  0.67858619  0.33375744  0.17385954  1
  Hf  Hf12  1  0.00361936  0.00291214  0.85765557  1
  Hf  Hf13  1  0.00307905  0.00395820  0.64693029  1
  Hf  Hf14  1  0.99669258  0.99721199  0.14660542  1
  Hf  Hf15  1  0.66601222  0.33424002  0.98237945  1
  Hf  Hf16  1  0.65995577  0.33419588  0.48379403  1
  Hf  Hf17  1  0.33396449  0.66492809  0.01401850  1
  Hf  Hf18  1  0.33867870  0.66872895  0.52035371  1
  Hf  Hf19  1  0.33666695  0.67579709  0.31380381  1
  Hf  Hf20  1  0.32686764  0.66703408  0.81575980  1
  P  P21  1  0.29183102  0.99190295  0.24802615  1
  P  P22  1  0.69211304  0.70338069  0.24791475  1
  P  P23  1  0.00979046  0.30117317  0.25286515  1
  P  P24  1  0.27929253  0.29338567  0.75320961  1
  P  P25  1  0.01225159  0.72652597  0.75299006  1
  P  P26  1  0.71214951  0.98839380  0.75397648  1
  P  P27  1  0.96803057  0.32939489  0.57985183  1
  P  P28  1  0.35994311  0.03010687  0.58140417  1
  P  P29  1  0.67097240  0.63671799  0.58446258  1
  P  P30  1  0.97562239  0.64341524  0.07867589  1
  P  P31  1  0.66759025  0.02712012  0.07906709  1
  P  P32  1  0.36058567  0.33235089  0.08152926  1
  P  P33  1  0.62281128  0.66192380  0.91471364  1
  P  P34  1  0.03742577  0.37555529  0.91636536  1
  P  P35  1  0.33789681  0.96029801  0.91624466  1
  P  P36  1  0.61375872  0.96601541  0.41974670  1
  P  P37  1  0.34881499  0.39134935  0.41780387  1
  P  P38  1  0.04070127  0.65074193  0.42071452  1
  O  O39  1  0.21838197  0.02167735  0.30263688  1
  O  O40  1  0.78980244  0.77464089  0.30344831  1
  O  O41  1  0.99417878  0.21089733  0.30999059  1
  O  O42  1  0.18552293  0.18567932  0.80622944  1
  O  O43  1  0.00035599  0.82175525  0.80573868  1
  O  O44  1  0.81847255  0.99667101  0.80665822  1
  O  O45  1  0.79940213  0.97190376  0.69848109  1
  O  O46  1  0.17844874  0.20364642  0.69755546  1
  O  O47  1  0.02727294  0.82854375  0.69726976  1
  O  O48  1  0.79406663  0.81634246  0.19529802  1
  O  O49  1  0.02597274  0.19752951  0.20128424  1
  O  O50  1  0.17592483  0.97471040  0.19539732  1
  O  O51  1  0.90299060  0.36943077  0.63433505  1
  O  O52  1  0.46151511  0.09129063  0.63687529  1
  O  O53  1  0.63374565  0.54058018  0.64142555  1
  O  O54  1  0.92543791  0.54826916  0.13549320  1
  O  O55  1  0.62223740  0.07768097  0.13551058  1
  O  O56  1  0.45244605  0.37162567  0.13932678  1
  O  O57  1  0.46859325  0.30920046  0.03358889  1
  O  O58  1  0.84483239  0.53708654  0.03024087  1
  O  O59  1  0.69315555  0.15761282  0.03050184  1
  O  O60  1  0.46072265  0.15496774  0.53110655  1
  O  O61  1  0.69208364  0.53283618  0.53474902  1
  O  O62  1  0.84770834  0.30489504  0.52784753  1
  O  O63  1  0.53327588  0.68869569  0.96566633  1
  O  O64  1  0.15162487  0.46136770  0.96829690  1
  O  O65  1  0.31016657  0.84583394  0.96788074  1
  O  O66  1  0.51855866  0.85743473  0.47168949  1
  O  O67  1  0.34010945  0.49294794  0.46857909  1
  O  O68  1  0.14763263  0.65534838  0.47190964  1
  O  O69  1  0.12869780  0.63779018  0.36453545  1
  O  O70  1  0.51423436  0.87488045  0.36380785  1
  O  O71  1  0.36260997  0.48930706  0.36072386  1
  O  O72  1  0.12609461  0.48907294  0.86269786  1
  O  O73  1  0.36218517  0.87319079  0.86238110  1
  O  O74  1  0.51391341  0.63751855  0.85966541  1
  O  O75  1  0.01827229  0.80534498  0.42400240  1
  O  O76  1  0.79687786  0.99703236  0.42101915  1
  O  O77  1  0.18279829  0.21720359  0.41965396  1
  O  O78  1  0.01810925  0.19644978  0.90952007  1
  O  O79  1  0.17818330  0.98039071  0.90954507  1
  O  O80  1  0.80429592  0.82215963  0.90920790  1
  O  O81  1  0.97771784  0.16396627  0.58742726  1
  O  O82  1  0.18461572  0.02075011  0.58715872  1
  O  O83  1  0.83658370  0.81428151  0.58852220  1
  O  O84  1  0.98320596  0.81814349  0.08495097  1
  O  O85  1  0.83494707  0.01949112  0.08592350  1
  O  O86  1  0.18257836  0.16622385  0.08653154  1
  O  O87  1  0.69047127  0.14409865  0.75409628  1
  O  O88  1  0.46240111  0.32350467  0.75237774  1
  O  O89  1  0.84581732  0.55193855  0.75188410  1
  O  O90  1  0.65128576  0.51779438  0.24265968  1
  O  O91  1  0.86139313  0.33387995  0.24678852  1
  O  O92  1  0.47046438  0.14953217  0.24196455  1
  O  O93  1  0.63957425  0.50128405  0.92395865  1
  O  O94  1  0.85894728  0.35736891  0.92399218  1
  O  O95  1  0.49833624  0.13997017  0.92414382  1
  O  O96  1  0.62782661  0.14439769  0.42374384  1
  O  O97  1  0.50969564  0.37324405  0.42433012  1
  O  O98  1  0.86272155  0.48194111  0.42410865  1
  O  O99  1  0.33462179  0.48335494  0.06627135  1
  O  O100  1  0.15421376  0.67212605  0.06446880  1
  O  O101  1  0.51894812  0.84749580  0.06451054  1
  O  O102  1  0.32846934  0.84911308  0.57012699  1
  O  O103  1  0.52003739  0.66579922  0.57188245  1
  O  O104  1  0.15179283  0.47928831  0.57005040  1
  O  O105  1  0.29966600  0.82495448  0.25419353  1
  O  O106  1  0.51709327  0.69930184  0.25265119  1
  O  O107  1  0.18479701  0.47624877  0.25478183  1
  O  O108  1  0.29459761  0.47319866  0.75739886  1
  O  O109  1  0.17275009  0.70686782  0.75794460  1
  O  O110  1  0.53381323  0.81894992  0.75785681  1
