# generated using pymatgen
data_Na12Mg10Ta2Si3(S5O24)3
_symmetry_space_group_name_H-M   'P 1'
_cell_length_a   8.81960975
_cell_length_b   8.86237546
_cell_length_c   22.50962436
_cell_angle_alpha   90.12208662
_cell_angle_beta   90.14362927
_cell_angle_gamma   119.81933106
_symmetry_Int_Tables_number   1
_chemical_formula_structural   Na12Mg10Ta2Si3(S5O24)3
_chemical_formula_sum   'Na12 Mg10 Ta2 Si3 S15 O72'
_cell_volume   1526.44624039
_cell_formula_units_Z   1
loop_
 _symmetry_equiv_pos_site_id
 _symmetry_equiv_pos_as_xyz
  1  'x, y, z'
loop_
 _atom_site_type_symbol
 _atom_site_label
 _atom_site_symmetry_multiplicity
 _atom_site_fract_x
 _atom_site_fract_y
 _atom_site_fract_z
 _atom_site_occupancy
  Na  Na0  1  0.30341259  0.33795926  0.57700229  1
  Na  Na1  1  0.67213052  0.97208972  0.59401565  1
  Na  Na2  1  0.29843469  0.97088438  0.09349573  1
  Na  Na3  1  0.02896843  0.33363110  0.08346239  1
  Na  Na4  1  0.33081048  0.04795895  0.40590462  1
  Na  Na5  1  0.68661398  0.65149073  0.41530500  1
  Na  Na6  1  0.01198176  0.01788381  0.49699471  1
  Na  Na7  1  0.98569415  0.98840284  0.99525465  1
  Na  Na8  1  0.67278105  0.31558651  0.82771288  1
  Na  Na9  1  0.64446109  0.31770004  0.32668838  1
  Na  Na10  1  0.34487727  0.68193968  0.16643144  1
  Na  Na11  1  0.33049816  0.67594080  0.66608912  1
  Mg  Mg12  1  0.01943885  0.02136015  0.34862997  1
  Mg  Mg13  1  0.99472494  0.00417677  0.84937744  1
  Mg  Mg14  1  0.98778141  0.98778591  0.65639132  1
  Mg  Mg15  1  0.00190343  0.98690225  0.15523191  1
  Mg  Mg16  1  0.67020480  0.32946240  0.68763158  1
  Mg  Mg17  1  0.65558121  0.32739494  0.18699065  1
  Mg  Mg18  1  0.66714623  0.33446750  0.97930451  1
  Mg  Mg19  1  0.66473616  0.33423380  0.48110124  1
  Mg  Mg20  1  0.33877493  0.66769647  0.01505297  1
  Mg  Mg21  1  0.32313896  0.65809428  0.51678934  1
  Ta  Ta22  1  0.33151870  0.65957680  0.31236011  1
  Ta  Ta23  1  0.34074564  0.67204032  0.81252940  1
  Si  Si24  1  0.30193471  0.00741190  0.24995764  1
  Si  Si25  1  0.71633284  0.01565009  0.74873860  1
  Si  Si26  1  0.32825483  0.36497765  0.42254657  1
  S  S27  1  0.71150243  0.70907537  0.25223239  1
  S  S28  1  0.99559549  0.29216378  0.24830927  1
  S  S29  1  0.29395696  0.29265959  0.75044452  1
  S  S30  1  0.99832626  0.70807979  0.75214100  1
  S  S31  1  0.96020680  0.33752332  0.58324938  1
  S  S32  1  0.36966825  0.03756356  0.58221911  1
  S  S33  1  0.67309145  0.62997029  0.58272224  1
  S  S34  1  0.95496054  0.62462497  0.08194788  1
  S  S35  1  0.66889428  0.04055133  0.08228031  1
  S  S36  1  0.37442458  0.33755177  0.08163337  1
  S  S37  1  0.62735173  0.66549579  0.91795321  1
  S  S38  1  0.04096628  0.37242806  0.91916652  1
  S  S39  1  0.33024743  0.95851730  0.91813650  1
  S  S40  1  0.62526892  0.95550396  0.41787521  1
  S  S41  1  0.04082397  0.66268757  0.41700765  1
  O  O42  1  0.21041904  0.01800847  0.31037236  1
  O  O43  1  0.80359479  0.78943367  0.30772587  1
  O  O44  1  0.97116941  0.18662761  0.30093796  1
  O  O45  1  0.21418182  0.18594838  0.80250396  1
  O  O46  1  0.98418950  0.79236727  0.80553135  1
  O  O47  1  0.82446095  0.02569129  0.80622904  1
  O  O48  1  0.76884780  0.96202894  0.68635941  1
  O  O49  1  0.19087875  0.22427641  0.69519629  1
  O  O50  1  0.04322125  0.81592750  0.69833701  1
  O  O51  1  0.78342552  0.81964834  0.19979257  1
  O  O52  1  0.02860655  0.22179682  0.19355390  1
  O  O53  1  0.19256166  0.96289345  0.18794656  1
  O  O54  1  0.87437192  0.35327871  0.63660048  1
  O  O55  1  0.48372564  0.12441508  0.63378410  1
  O  O56  1  0.64723993  0.51678750  0.63399089  1
  O  O57  1  0.87534466  0.51763447  0.13522627  1
  O  O58  1  0.64073493  0.12283191  0.13507816  1
  O  O59  1  0.47769735  0.36036018  0.13561888  1
  O  O60  1  0.45635286  0.30894040  0.02883359  1
  O  O61  1  0.85373917  0.53864181  0.02805811  1
  O  O62  1  0.69731559  0.14884551  0.02869450  1
  O  O63  1  0.44667704  0.13999191  0.52677518  1
  O  O64  1  0.68696626  0.54860508  0.52672885  1
  O  O65  1  0.85240451  0.31083090  0.52950097  1
  O  O66  1  0.54318820  0.68933317  0.97046048  1
  O  O67  1  0.14049318  0.45629130  0.97429733  1
  O  O68  1  0.30990973  0.85765537  0.97261476  1
  O  O69  1  0.54657638  0.85402461  0.47231562  1
  O  O70  1  0.31612634  0.45747883  0.48210489  1
  O  O71  1  0.15621824  0.70243563  0.46889390  1
  O  O72  1  0.13286886  0.64718230  0.36281880  1
  O  O73  1  0.50492973  0.86705302  0.36504708  1
  O  O74  1  0.35292636  0.50182834  0.36516303  1
  O  O75  1  0.13691122  0.48562437  0.86680443  1
  O  O76  1  0.34814130  0.85799642  0.86558089  1
  O  O77  1  0.51205801  0.64847076  0.86399981  1
  O  O78  1  0.00764242  0.81001922  0.40987353  1
  O  O79  1  0.79271510  0.96116721  0.40802587  1
  O  O80  1  0.15949408  0.17309624  0.41591549  1
  O  O81  1  0.03003792  0.20160155  0.91351134  1
  O  O82  1  0.17403293  0.97398013  0.90904515  1
  O  O83  1  0.80089108  0.81848852  0.91109217  1
  O  O84  1  0.98563316  0.18094817  0.58678150  1
  O  O85  1  0.19514397  0.02314444  0.58938802  1
  O  O86  1  0.83102244  0.80538546  0.58696041  1
  O  O87  1  0.97616602  0.80189936  0.08572150  1
  O  O88  1  0.82777821  0.02312196  0.08952842  1
  O  O89  1  0.19369973  0.17954328  0.08613479  1
  O  O90  1  0.66980745  0.16867668  0.74551739  1
  O  O91  1  0.47518188  0.33384528  0.74365879  1
  O  O92  1  0.84671380  0.53553341  0.74414320  1
  O  O93  1  0.69003976  0.53599881  0.24454616  1
  O  O94  1  0.85475770  0.33153438  0.24232895  1
  O  O95  1  0.49773788  0.16905847  0.24590106  1
  O  O96  1  0.63285113  0.50247493  0.91917539  1
  O  O97  1  0.86655588  0.35821695  0.92035350  1
  O  O98  1  0.49206631  0.12856655  0.91947295  1
  O  O99  1  0.64192055  0.12903180  0.42103431  1
  O  O100  1  0.51067068  0.35516833  0.41819650  1
  O  O101  1  0.87293374  0.49978886  0.42131493  1
  O  O102  1  0.34852541  0.49149864  0.07600946  1
  O  O103  1  0.13756684  0.64666236  0.07767158  1
  O  O104  1  0.50802287  0.86585176  0.07575737  1
  O  O105  1  0.35562103  0.86272841  0.57673827  1
  O  O106  1  0.51504590  0.65463477  0.58056119  1
  O  O107  1  0.13767876  0.49495593  0.58000486  1
  O  O108  1  0.31847981  0.82251990  0.26170495  1
  O  O109  1  0.52518011  0.68571286  0.25756235  1
  O  O110  1  0.16485274  0.47067748  0.25729938  1
  O  O111  1  0.30271280  0.47139641  0.76036492  1
  O  O112  1  0.15814270  0.68010857  0.76098419  1
  O  O113  1  0.50936956  0.82604767  0.76260021  1
