# generated using pymatgen
data_Mg(NiO2)4
_symmetry_space_group_name_H-M   'P 1'
_cell_length_a   5.71033009
_cell_length_b   5.86645308
_cell_length_c   5.71018400
_cell_angle_alpha   60.87606508
_cell_angle_beta   59.99992129
_cell_angle_gamma   60.87423361
_symmetry_Int_Tables_number   1
_chemical_formula_structural   Mg(NiO2)4
_chemical_formula_sum   'Mg1 Ni4 O8'
_cell_volume   137.02239196
_cell_formula_units_Z   1
loop_
 _symmetry_equiv_pos_site_id
 _symmetry_equiv_pos_as_xyz
  1  'x, y, z'
loop_
 _atom_site_type_symbol
 _atom_site_label
 _atom_site_symmetry_multiplicity
 _atom_site_fract_x
 _atom_site_fract_y
 _atom_site_fract_z
 _atom_site_occupancy
  Mg  Mg0  1  0.00000100  0.50000200  0.99999800  1
  Ni  Ni1  1  0.50000400  0.50001200  0.50000000  1
  Ni  Ni2  1  0.50000100  0.00000000  0.49999900  1
  Ni  Ni3  1  0.99998400  0.50001100  0.50000400  1
  Ni  Ni4  1  0.50000300  0.50001000  0.99998300  1
  O  O5  1  0.75099600  0.70794500  0.29004500  1
  O  O6  1  0.75099800  0.70794200  0.75101500  1
  O  O7  1  0.24900100  0.29205600  0.70995700  1
  O  O8  1  0.26768200  0.69693300  0.26769300  1
  O  O9  1  0.24900400  0.29205800  0.24898600  1
  O  O10  1  0.70996900  0.29205100  0.24899000  1
  O  O11  1  0.29003200  0.70794500  0.75101300  1
  O  O12  1  0.73232900  0.30304200  0.73231600  1
