# generated using pymatgen
data_Na10TaAl7Si6(SO8)6
_symmetry_space_group_name_H-M   'P 1'
_cell_length_a   17.29079030
_cell_length_b   8.66974623
_cell_length_c   21.78030278
_cell_angle_alpha   89.70424595
_cell_angle_beta   89.36724135
_cell_angle_gamma   119.79076445
_symmetry_Int_Tables_number   1
_chemical_formula_structural   Na10TaAl7Si6(SO8)6
_chemical_formula_sum   'Na30 Ta3 Al21 Si18 S18 O144'
_cell_volume   2833.14236511
_cell_formula_units_Z   3
loop_
 _symmetry_equiv_pos_site_id
 _symmetry_equiv_pos_as_xyz
  1  'x, y, z'
loop_
 _atom_site_type_symbol
 _atom_site_label
 _atom_site_symmetry_multiplicity
 _atom_site_fract_x
 _atom_site_fract_y
 _atom_site_fract_z
 _atom_site_occupancy
  Na  Na0  1  0.31829000  0.99834658  0.24990957  1
  Na  Na1  1  0.81964420  0.99975748  0.25151949  1
  Na  Na2  1  0.18222249  0.36394285  0.25093364  1
  Na  Na3  1  0.68373651  0.37079251  0.24281953  1
  Na  Na4  1  0.99876874  0.63488434  0.24780561  1
  Na  Na5  1  0.49730260  0.62332879  0.25269824  1
  Na  Na6  1  0.31530188  0.62973516  0.75018948  1
  Na  Na7  1  0.80904839  0.62241708  0.75009655  1
  Na  Na8  1  0.99753206  0.35429852  0.74920464  1
  Na  Na9  1  0.68183715  0.00650957  0.75427773  1
  Na  Na10  1  0.16129262  0.34575324  0.58095332  1
  Na  Na11  1  0.01337177  0.69481638  0.57970262  1
  Na  Na12  1  0.33320464  0.96577906  0.58477284  1
  Na  Na13  1  0.82993106  0.96542898  0.57854977  1
  Na  Na14  1  0.83373584  0.68832373  0.07626600  1
  Na  Na15  1  0.17002534  0.30751898  0.91219848  1
  Na  Na16  1  0.67056512  0.30826037  0.91649741  1
  Na  Na17  1  0.35495135  0.66545427  0.41780637  1
  Na  Na18  1  0.99856938  0.99587719  0.49334210  1
  Na  Na19  1  0.50931036  0.99468490  0.49910920  1
  Na  Na20  1  0.99342572  0.98146073  0.99486573  1
  Na  Na21  1  0.49460816  0.97565820  0.99662873  1
  Na  Na22  1  0.33632985  0.33082264  0.83418804  1
  Na  Na23  1  0.83111392  0.33208193  0.83608795  1
  Na  Na24  1  0.33872980  0.33198685  0.33541664  1
  Na  Na25  1  0.83711814  0.33872823  0.33473614  1
  Na  Na26  1  0.16158963  0.66399274  0.16391126  1
  Na  Na27  1  0.65510816  0.64718092  0.16089892  1
  Na  Na28  1  0.16911330  0.67339525  0.66509525  1
  Na  Na29  1  0.65875737  0.63754589  0.66709880  1
  Ta  Ta30  1  0.99826475  0.00586930  0.64395979  1
  Ta  Ta31  1  0.00105522  0.99475030  0.14791715  1
  Ta  Ta32  1  0.49601355  0.00154114  0.14081951  1
  Al  Al33  1  0.99804310  0.00062964  0.34503169  1
  Al  Al34  1  0.49661436  0.98408276  0.35309654  1
  Al  Al35  1  0.99256413  0.00468209  0.85226135  1
  Al  Al36  1  0.49863182  0.99261939  0.85317511  1
  Al  Al37  1  0.50242320  0.00306091  0.64725985  1
  Al  Al38  1  0.32095217  0.32296248  0.68322585  1
  Al  Al39  1  0.82577302  0.33000570  0.68482703  1
  Al  Al40  1  0.34272696  0.34351748  0.19242406  1
  Al  Al41  1  0.84422010  0.36240194  0.18336963  1
  Al  Al42  1  0.34215540  0.36391384  0.97941201  1
  Al  Al43  1  0.83553408  0.36290553  0.98225711  1
  Al  Al44  1  0.34347418  0.35714282  0.48458231  1
  Al  Al45  1  0.83580953  0.33902004  0.48272894  1
  Al  Al46  1  0.17088083  0.67543588  0.01761544  1
  Al  Al47  1  0.66615484  0.65590375  0.02178055  1
  Al  Al48  1  0.16882255  0.66755204  0.52467105  1
  Al  Al49  1  0.66329030  0.65875040  0.51638475  1
  Al  Al50  1  0.16272127  0.66292816  0.30950110  1
  Al  Al51  1  0.66021754  0.64600857  0.31591048  1
  Al  Al52  1  0.17084753  0.66004253  0.81800454  1
  Al  Al53  1  0.67061350  0.65308304  0.81348429  1
  Si  Si54  1  0.14846832  0.00562278  0.25432503  1
  Si  Si55  1  0.35287946  0.70580171  0.25408216  1
  Si  Si56  1  0.85101249  0.70446010  0.25594501  1
  Si  Si57  1  0.99577342  0.29022793  0.25225299  1
  Si  Si58  1  0.50121579  0.28493708  0.25570003  1
  Si  Si59  1  0.14777739  0.29028500  0.75605118  1
  Si  Si60  1  0.63755421  0.28190564  0.75029041  1
  Si  Si61  1  0.84923539  0.00200452  0.75293786  1
  Si  Si62  1  0.97332524  0.34121505  0.58173309  1
  Si  Si63  1  0.19677276  0.05189631  0.57910096  1
  Si  Si64  1  0.34131975  0.63446781  0.58436056  1
  Si  Si65  1  0.82289294  0.60718007  0.58177518  1
  Si  Si66  1  0.48049687  0.61165743  0.08333412  1
  Si  Si67  1  0.98669900  0.62157883  0.08060075  1
  Si  Si68  1  0.69308877  0.33586776  0.08207859  1
  Si  Si69  1  0.31530076  0.67344666  0.91714090  1
  Si  Si70  1  0.81522149  0.67467656  0.91693845  1
  Si  Si71  1  0.52397948  0.66822407  0.41745118  1
  S  S72  1  0.64446309  0.99929753  0.25138744  1
  S  S73  1  0.00480126  0.71516486  0.75390648  1
  S  S74  1  0.49875097  0.70726452  0.74985867  1
  S  S75  1  0.35610222  0.00669299  0.75069183  1
  S  S76  1  0.47817367  0.33807080  0.58462181  1
  S  S77  1  0.68634787  0.04504097  0.58227116  1
  S  S78  1  0.32823183  0.05068571  0.08067000  1
  S  S79  1  0.83225373  0.05473030  0.08211607  1
  S  S80  1  0.19267843  0.33903267  0.08123911  1
  S  S81  1  0.02100057  0.38046490  0.91783079  1
  S  S82  1  0.52089278  0.37900752  0.91614534  1
  S  S83  1  0.16760725  0.95111378  0.91626896  1
  S  S84  1  0.66664584  0.94775828  0.91601321  1
  S  S85  1  0.30856905  0.95637474  0.41698566  1
  S  S86  1  0.81251940  0.96043089  0.41685862  1
  S  S87  1  0.16235195  0.37530303  0.41679127  1
  S  S88  1  0.66885470  0.37369317  0.41781942  1
  S  S89  1  0.02198219  0.66652584  0.41734997  1
  O  O90  1  0.10320942  0.05364749  0.31031742  1
  O  O91  1  0.60406703  0.03263742  0.30588618  1
  O  O92  1  0.41737846  0.78910065  0.31220865  1
  O  O93  1  0.92223504  0.79585438  0.30946565  1
  O  O94  1  0.48586583  0.15325896  0.31265625  1
  O  O95  1  0.97373736  0.15536827  0.30921446  1
  O  O96  1  0.09789534  0.16741404  0.81523915  1
  O  O97  1  0.59491968  0.15223868  0.81128996  1
  O  O98  1  0.47837151  0.78641677  0.80398865  1
  O  O99  1  0.98922488  0.80480078  0.80523814  1
  O  O100  1  0.41076378  0.02551747  0.80454464  1
  O  O101  1  0.92005211  0.04646767  0.80630809  1
  O  O102  1  0.39232730  0.96513591  0.69400645  1
  O  O103  1  0.89417291  0.95742787  0.69153791  1
  O  O104  1  0.08368056  0.19776789  0.69433158  1
  O  O105  1  0.57808081  0.18164287  0.69128416  1
  O  O106  1  0.01821488  0.81506228  0.69434422  1
  O  O107  1  0.51452147  0.82044419  0.69428506  1
  O  O108  1  0.39763186  0.84247911  0.19500267  1
  O  O109  1  0.89445064  0.83185651  0.19218324  1
  O  O110  1  0.02043326  0.20372756  0.19197217  1
  O  O111  1  0.52184453  0.20007258  0.19408040  1
  O  O112  1  0.08062037  0.95624434  0.19431805  1
  O  O113  1  0.58745891  0.96305212  0.19623445  1
  O  O114  1  0.43653970  0.36478098  0.64006110  1
  O  O115  1  0.93119854  0.37336021  0.64387462  1
  O  O116  1  0.25546292  0.12607907  0.64056067  1
  O  O117  1  0.74248916  0.12236761  0.63797266  1
  O  O118  1  0.31719093  0.50295972  0.64419257  1
  O  O119  1  0.81423412  0.50409527  0.64597876  1
  O  O120  1  0.43574010  0.49858897  0.14631001  1
  O  O121  1  0.94535605  0.52147171  0.14589187  1
  O  O122  1  0.31914400  0.12648644  0.13907054  1
  O  O123  1  0.82378484  0.13490493  0.13983928  1
  O  O124  1  0.24227156  0.35466846  0.13764553  1
  O  O125  1  0.75262853  0.36247209  0.14317234  1
  O  O126  1  0.23176397  0.30625243  0.02508397  1
  O  O127  1  0.73217360  0.29665391  0.02009852  1
  O  O128  1  0.41795395  0.53085184  0.02491799  1
  O  O129  1  0.91760888  0.53432373  0.02552176  1
  O  O130  1  0.34003302  0.15963806  0.02605842  1
  O  O131  1  0.84623503  0.16429368  0.02695038  1
  O  O132  1  0.24238577  0.18820860  0.52225841  1
  O  O133  1  0.72799648  0.15524715  0.52699337  1
  O  O134  1  0.35554420  0.55070585  0.52217985  1
  O  O135  1  0.84910168  0.52616034  0.52407825  1
  O  O136  1  0.42181834  0.30219597  0.52948396  1
  O  O137  1  0.90774173  0.28390569  0.52424157  1
  O  O138  1  0.26283262  0.69668573  0.97515763  1
  O  O139  1  0.76599018  0.69858431  0.97775979  1
  O  O140  1  0.07920487  0.46794830  0.96995145  1
  O  O141  1  0.57680456  0.45822490  0.97042853  1
  O  O142  1  0.15291290  0.84178427  0.97186869  1
  O  O143  1  0.65341542  0.83791610  0.97051952  1
  O  O144  1  0.26487739  0.83781064  0.47190086  1
  O  O145  1  0.77072597  0.85239121  0.47387217  1
  O  O146  1  0.15372535  0.46296676  0.47347370  1
  O  O147  1  0.65690361  0.46275784  0.47187559  1
  O  O148  1  0.07515760  0.68563492  0.47297519  1
  O  O149  1  0.58591467  0.69276244  0.47600488  1
  O  O150  1  0.06586029  0.64508070  0.36150544  1
  O  O151  1  0.56988119  0.64411754  0.35503946  1
  O  O152  1  0.25586355  0.87130364  0.36132339  1
  O  O153  1  0.75906696  0.87472476  0.36178021  1
  O  O154  1  0.17543249  0.49027077  0.36174099  1
  O  O155  1  0.68544568  0.48432920  0.36099740  1
  O  O156  1  0.06011406  0.48772040  0.85968444  1
  O  O157  1  0.56070180  0.49242058  0.86049494  1
  O  O158  1  0.17781309  0.86251062  0.86073693  1
  O  O159  1  0.67343782  0.86256795  0.85823089  1
  O  O160  1  0.25250462  0.63101393  0.85569756  1
  O  O161  1  0.75062498  0.63054185  0.85715759  1
  O  O162  1  0.01332621  0.82795773  0.41297224  1
  O  O163  1  0.51040461  0.84554262  0.41134888  1
  O  O164  1  0.39798718  0.96938834  0.41369744  1
  O  O165  1  0.90263790  0.97732467  0.41257570  1
  O  O166  1  0.08138753  0.19930761  0.41308351  1
  O  O167  1  0.58851993  0.19851760  0.41236690  1
  O  O168  1  0.01711567  0.20477080  0.91291848  1
  O  O169  1  0.51479262  0.20168878  0.90898266  1
  O  O170  1  0.08919624  0.97745629  0.91191171  1
  O  O171  1  0.58742078  0.97651194  0.91236399  1
  O  O172  1  0.41366602  0.84855273  0.90683115  1
  O  O173  1  0.91461875  0.84950871  0.90759366  1
  O  O174  1  0.48609867  0.17421511  0.59040472  1
  O  O175  1  0.98761302  0.16509304  0.58812064  1
  O  O176  1  0.09512509  0.02543070  0.58882093  1
  O  O177  1  0.59726337  0.02672607  0.58972472  1
  O  O178  1  0.42443908  0.83712127  0.59476475  1
  O  O179  1  0.91676003  0.80918613  0.58897069  1
  O  O180  1  0.48689649  0.81033494  0.09261622  1
  O  O181  1  0.99010311  0.82089984  0.08631761  1
  O  O182  1  0.41229161  0.03477933  0.08336030  1
  O  O183  1  0.91440709  0.03121111  0.08545241  1
  O  O184  1  0.10074942  0.17661230  0.08533482  1
  O  O185  1  0.59221014  0.16163268  0.08830139  1
  O  O186  1  0.35092693  0.17016373  0.74382249  1
  O  O187  1  0.84256671  0.18012020  0.74033986  1
  O  O188  1  0.24689223  0.31590784  0.74638750  1
  O  O189  1  0.73983293  0.30909937  0.74355430  1
  O  O190  1  0.42083075  0.52788309  0.74322801  1
  O  O191  1  0.92415089  0.53638600  0.74935972  1
  O  O192  1  0.34106899  0.51096528  0.24337229  1
  O  O193  1  0.83928715  0.50896191  0.24574529  1
  O  O194  1  0.41206082  0.30004937  0.24693397  1
  O  O195  1  0.90603408  0.30308915  0.24156692  1
  O  O196  1  0.24400866  0.17452379  0.23779599  1
  O  O197  1  0.73355322  0.15726386  0.24346360  1
  O  O198  1  0.31922835  0.48547706  0.92213687  1
  O  O199  1  0.82232092  0.48990803  0.92099039  1
  O  O200  1  0.42907634  0.35010996  0.92318418  1
  O  O201  1  0.92973060  0.35210388  0.92408248  1
  O  O202  1  0.24879757  0.12961891  0.92092085  1
  O  O203  1  0.74811320  0.12663956  0.91874627  1
  O  O204  1  0.31795768  0.13265900  0.42335971  1
  O  O205  1  0.81934841  0.13880924  0.42166638  1
  O  O206  1  0.24427716  0.36111909  0.41913047  1
  O  O207  1  0.74950421  0.35302444  0.42384362  1
  O  O208  1  0.42208238  0.48887786  0.42322450  1
  O  O209  1  0.93240129  0.50248837  0.42125366  1
  O  O210  1  0.18210429  0.49716635  0.07543295  1
  O  O211  1  0.68390459  0.51390140  0.07722354  1
  O  O212  1  0.08529667  0.64824508  0.07168986  1
  O  O213  1  0.58094214  0.64870651  0.07265158  1
  O  O214  1  0.25200418  0.86854092  0.07655301  1
  O  O215  1  0.75483714  0.87375992  0.07902445  1
  O  O216  1  0.17753347  0.84942075  0.57146124  1
  O  O217  1  0.67855827  0.86679044  0.57713151  1
  O  O218  1  0.25022745  0.65121243  0.57523011  1
  O  O219  1  0.74180258  0.65165440  0.57194010  1
  O  O220  1  0.07446037  0.50649833  0.57340269  1
  O  O221  1  0.56795451  0.49521646  0.57662181  1
  O  O222  1  0.15537424  0.82771397  0.26146958  1
  O  O223  1  0.65558945  0.84105074  0.25706375  1
  O  O224  1  0.25515181  0.68670015  0.26195083  1
  O  O225  1  0.75553419  0.69594405  0.26385345  1
  O  O226  1  0.08328111  0.48436703  0.26031305  1
  O  O227  1  0.58870204  0.48425773  0.25841946  1
  O  O228  1  0.15376122  0.48861093  0.75773505  1
  O  O229  1  0.64934174  0.48027715  0.75701014  1
  O  O230  1  0.08450811  0.69438170  0.76000685  1
  O  O231  1  0.58099162  0.69787422  0.75816905  1
  O  O232  1  0.26429603  0.84653916  0.75783301  1
  O  O233  1  0.75108018  0.82685805  0.75877842  1
