# generated using pymatgen
data_Sr4Mg(Fe2O5)2
_symmetry_space_group_name_H-M   'P 1'
_cell_length_a   5.66249742
_cell_length_b   5.89699639
_cell_length_c   8.99173335
_cell_angle_alpha   108.84053580
_cell_angle_beta   106.94755907
_cell_angle_gamma   83.57272223
_symmetry_Int_Tables_number   1
_chemical_formula_structural   Sr4Mg(Fe2O5)2
_chemical_formula_sum   'Sr4 Mg1 Fe4 O10'
_cell_volume   271.76923417
_cell_formula_units_Z   1
loop_
 _symmetry_equiv_pos_site_id
 _symmetry_equiv_pos_as_xyz
  1  'x, y, z'
loop_
 _atom_site_type_symbol
 _atom_site_label
 _atom_site_symmetry_multiplicity
 _atom_site_fract_x
 _atom_site_fract_y
 _atom_site_fract_z
 _atom_site_occupancy
  Sr  Sr0  1  0.37252263  0.90057023  0.76537260  1
  Sr  Sr1  1  0.51722843  0.02342372  0.17796637  1
  Sr  Sr2  1  0.92632963  0.40102721  0.77373495  1
  Sr  Sr3  1  0.12228148  0.64846844  0.20270157  1
  Mg  Mg4  1  0.88262715  0.36418505  0.33038302  1
  Fe  Fe5  1  0.96040129  0.99423633  0.96759902  1
  Fe  Fe6  1  0.50916856  0.47495052  0.98859028  1
  Fe  Fe7  1  0.76220123  0.77465052  0.50935343  1
  Fe  Fe8  1  0.35796019  0.32764473  0.51327603  1
  O  O9  1  0.77531528  0.25997698  0.08506522  1
  O  O10  1  0.74296397  0.74593901  0.97337253  1
  O  O11  1  0.21585513  0.23039976  0.99185598  1
  O  O12  1  0.22486317  0.73844993  0.97084664  1
  O  O13  1  0.82932283  0.94871152  0.73378761  1
  O  O14  1  0.15773607  0.10219751  0.32820195  1
  O  O15  1  0.38146747  0.31050576  0.72167332  1
  O  O16  1  0.62933372  0.67471338  0.28063203  1
  O  O17  1  0.14045500  0.60769163  0.48810889  1
  O  O18  1  0.67421578  0.34725477  0.47605258  1
