# generated using pymatgen
data_Sr7(H6Cl)2
_symmetry_space_group_name_H-M   'P 1'
_cell_length_a   9.96576543
_cell_length_b   9.96576126
_cell_length_c   3.94110332
_cell_angle_alpha   90.00001937
_cell_angle_beta   89.99998667
_cell_angle_gamma   119.99998591
_symmetry_Int_Tables_number   1
_chemical_formula_structural   Sr7(H6Cl)2
_chemical_formula_sum   'Sr7 H12 Cl2'
_cell_volume   338.97654886
_cell_formula_units_Z   1
loop_
 _symmetry_equiv_pos_site_id
 _symmetry_equiv_pos_as_xyz
  1  'x, y, z'
loop_
 _atom_site_type_symbol
 _atom_site_label
 _atom_site_symmetry_multiplicity
 _atom_site_fract_x
 _atom_site_fract_y
 _atom_site_fract_z
 _atom_site_occupancy
  Sr  Sr0  1  0.26707302  0.21633718  0.50000012  1
  Sr  Sr1  1  0.55885887  0.63768574  0.00000008  1
  Sr  Sr2  1  0.36231438  0.92117365  0.00000025  1
  Sr  Sr3  1  0.07882673  0.44114128  0.00000045  1
  Sr  Sr4  1  0.66666630  0.33333280  -0.00000015  1
  Sr  Sr5  1  0.94926459  0.73292757  0.49999967  1
  Sr  Sr6  1  0.78366293  0.05073545  0.50000020  1
  H  H7  1  0.56294705  0.11765341  0.49999990  1
  H  H8  1  0.88234675  0.44529284  0.50000015  1
  H  H9  1  0.55470722  0.43705300  0.49999986  1
  H  H10  1  0.71585957  0.77292125  0.50000003  1
  H  H11  1  0.22707878  0.94293848  0.50000002  1
  H  H12  1  0.05706166  0.28414044  0.50000005  1
  H  H13  1  0.82394615  0.21399324  -0.00000007  1
  H  H14  1  0.78600671  0.60995281  0.00000003  1
  H  H15  1  0.39004713  0.17605391  -0.00000014  1
  H  H16  1  0.30166715  0.39312192  0.00000002  1
  H  H17  1  0.09145401  0.69833291  -0.00000013  1
  H  H18  1  0.60687804  0.90854596  -0.00000003  1
  Cl  Cl19  1  0.00000002  -0.00000013  -0.00000033  1
  Cl  Cl20  1  0.33333293  0.66666630  0.50000001  1
