# generated using pymatgen
data_Na2Sc2Ta6Si7S5O48
_symmetry_space_group_name_H-M   'P 1'
_cell_length_a   17.74488512
_cell_length_b   8.88229761
_cell_length_c   22.96604352
_cell_angle_alpha   89.99217411
_cell_angle_beta   90.01411743
_cell_angle_gamma   120.02009804
_symmetry_Int_Tables_number   1
_chemical_formula_structural   Na2Sc2Ta6Si7S5O48
_chemical_formula_sum   'Na6 Sc6 Ta18 Si21 S15 O144'
_cell_volume   3134.20446440
_cell_formula_units_Z   3
loop_
 _symmetry_equiv_pos_site_id
 _symmetry_equiv_pos_as_xyz
  1  'x, y, z'
loop_
 _atom_site_type_symbol
 _atom_site_label
 _atom_site_symmetry_multiplicity
 _atom_site_fract_x
 _atom_site_fract_y
 _atom_site_fract_z
 _atom_site_occupancy
  Na  Na0  1  0.99806942  0.00069861  0.49733791  1
  Na  Na1  1  0.49860951  0.00201685  0.99417082  1
  Na  Na2  1  0.33451290  0.32880616  0.83264794  1
  Na  Na3  1  0.82890402  0.33356051  0.83347732  1
  Na  Na4  1  0.32945375  0.32468921  0.33737532  1
  Na  Na5  1  0.83378991  0.34058306  0.33697596  1
  Sc  Sc6  1  0.99924578  0.98124994  0.35552289  1
  Sc  Sc7  1  0.49951513  0.01762639  0.85377509  1
  Sc  Sc8  1  0.99683355  0.01642717  0.64787444  1
  Sc  Sc9  1  0.49831982  0.98780124  0.15207206  1
  Sc  Sc10  1  0.83365092  0.32992499  0.97978008  1
  Sc  Sc11  1  0.33271953  0.33599332  0.47993248  1
  Ta  Ta12  1  0.50052206  0.99452340  0.35831195  1
  Ta  Ta13  1  0.00028040  0.00384487  0.85566159  1
  Ta  Ta14  1  0.49941233  0.00475801  0.64326519  1
  Ta  Ta15  1  0.99852782  0.99421770  0.14385015  1
  Ta  Ta16  1  0.32661420  0.33512047  0.68875409  1
  Ta  Ta17  1  0.83137126  0.31335322  0.68721924  1
  Ta  Ta18  1  0.32760698  0.33974437  0.19019048  1
  Ta  Ta19  1  0.82756783  0.31789006  0.19013100  1
  Ta  Ta20  1  0.32780803  0.33081111  0.97337108  1
  Ta  Ta21  1  0.83282287  0.32189314  0.47579511  1
  Ta  Ta22  1  0.17091095  0.67143285  0.02091983  1
  Ta  Ta23  1  0.67374457  0.66995903  0.01949426  1
  Ta  Ta24  1  0.16803835  0.66918971  0.52331333  1
  Ta  Ta25  1  0.67310232  0.67015425  0.52194626  1
  Ta  Ta26  1  0.16873263  0.68542739  0.31186619  1
  Ta  Ta27  1  0.67812662  0.67726647  0.31004483  1
  Ta  Ta28  1  0.17745527  0.67863666  0.80848415  1
  Ta  Ta29  1  0.66765593  0.65017991  0.80965591  1
  Si  Si30  1  0.14091266  0.99880499  0.25054312  1
  Si  Si31  1  0.64016588  0.99242842  0.25094562  1
  Si  Si32  1  0.35505757  0.71592786  0.25117980  1
  Si  Si33  1  0.85876652  0.71161299  0.24909335  1
  Si  Si34  1  0.14082006  0.28711816  0.75036588  1
  Si  Si35  1  0.64449417  0.28212958  0.74965825  1
  Si  Si36  1  0.35945566  0.00742504  0.74862779  1
  Si  Si37  1  0.85510285  0.99647984  0.75074103  1
  Si  Si38  1  0.97806866  0.33280710  0.58262182  1
  Si  Si39  1  0.68781561  0.04316290  0.58171464  1
  Si  Si40  1  0.33422960  0.62359476  0.58139781  1
  Si  Si41  1  0.83323676  0.04450813  0.08200489  1
  Si  Si42  1  0.18781000  0.33237399  0.08246496  1
  Si  Si43  1  0.31386445  0.67487771  0.91608491  1
  Si  Si44  1  0.81273226  0.66269192  0.91544133  1
  Si  Si45  1  0.52469556  0.38087545  0.91764774  1
  Si  Si46  1  0.16313857  0.94690297  0.91632594  1
  Si  Si47  1  0.31118296  0.96048149  0.41804558  1
  Si  Si48  1  0.81412081  0.95514020  0.41656647  1
  Si  Si49  1  0.66613612  0.38012464  0.41702446  1
  Si  Si50  1  0.02388166  0.66756711  0.41775949  1
  S  S51  1  0.00089164  0.28827068  0.24964339  1
  S  S52  1  0.50053553  0.28965042  0.25047261  1
  S  S53  1  0.00026500  0.71148829  0.75036430  1
  S  S54  1  0.50042883  0.71239045  0.74955928  1
  S  S55  1  0.47755619  0.33502873  0.58348022  1
  S  S56  1  0.18812904  0.04351445  0.58300262  1
  S  S57  1  0.83429695  0.61885617  0.58262528  1
  S  S58  1  0.47740368  0.61922441  0.08215453  1
  S  S59  1  0.97752222  0.62052362  0.08362860  1
  S  S60  1  0.33418708  0.04796993  0.08245971  1
  S  S61  1  0.68789721  0.33228313  0.08304181  1
  S  S62  1  0.02423159  0.38179910  0.91570630  1
  S  S63  1  0.66659753  0.95215761  0.91639406  1
  S  S64  1  0.16641680  0.38165679  0.41664245  1
  S  S65  1  0.52443129  0.66551588  0.41609561  1
  O  O66  1  0.10747520  0.04872244  0.30687580  1
  O  O67  1  0.59780258  0.03298569  0.30770810  1
  O  O68  1  0.41958644  0.80650111  0.30714304  1
  O  O69  1  0.91360452  0.78794669  0.30663319  1
  O  O70  1  0.48293360  0.17783044  0.30232492  1
  O  O71  1  0.98066619  0.18280449  0.30127161  1
  O  O72  1  0.09880616  0.16493777  0.80839780  1
  O  O73  1  0.60688759  0.16777360  0.80705001  1
  O  O74  1  0.48090400  0.77865958  0.80178772  1
  O  O75  1  0.98525292  0.79363899  0.80326552  1
  O  O76  1  0.41247999  0.03811658  0.80740509  1
  O  O77  1  0.91883466  0.03107751  0.80759426  1
  O  O78  1  0.40296764  0.97174565  0.69172542  1
  O  O79  1  0.89374599  0.95906010  0.69406912  1
  O  O80  1  0.08830071  0.20482549  0.69260574  1
  O  O81  1  0.58246512  0.19077959  0.69268584  1
  O  O82  1  0.01628762  0.81513673  0.69826824  1
  O  O83  1  0.51359145  0.81824659  0.69691733  1
  O  O84  1  0.39477721  0.82636360  0.19297590  1
  O  O85  1  0.90301203  0.83363906  0.19165419  1
  O  O86  1  0.01310928  0.20734409  0.19646217  1
  O  O87  1  0.51550031  0.21595337  0.19764580  1
  O  O88  1  0.08272680  0.97414635  0.19209127  1
  O  O89  1  0.58812380  0.97120375  0.19210131  1
  O  O90  1  0.43662202  0.36094235  0.63581354  1
  O  O91  1  0.93097262  0.36691019  0.63978579  1
  O  O92  1  0.24503161  0.12861880  0.63627611  1
  O  O93  1  0.75079902  0.13505419  0.63958732  1
  O  O94  1  0.32062319  0.49669975  0.63915306  1
  O  O95  1  0.81747501  0.51209267  0.63542776  1
  O  O96  1  0.43730387  0.51069600  0.13526029  1
  O  O97  1  0.93683787  0.51224747  0.13571071  1
  O  O98  1  0.32034045  0.12727050  0.13507502  1
  O  O99  1  0.81978880  0.14360108  0.13925829  1
  O  O100  1  0.25306861  0.36581103  0.13929472  1
  O  O101  1  0.74370896  0.36204528  0.13597015  1
  O  O102  1  0.23907185  0.30620226  0.02794354  1
  O  O103  1  0.72842199  0.30687067  0.03131823  1
  O  O104  1  0.42105462  0.53280200  0.03079428  1
  O  O105  1  0.92443396  0.54784805  0.03122858  1
  O  O106  1  0.34609051  0.15502596  0.03017988  1
  O  O107  1  0.84903626  0.16563325  0.02669321  1
  O  O108  1  0.22906909  0.15168068  0.53158122  1
  O  O109  1  0.73520912  0.16943048  0.52668524  1
  O  O110  1  0.35062639  0.53221903  0.52682545  1
  O  O111  1  0.84480460  0.53752391  0.52992403  1
  O  O112  1  0.42442137  0.30112521  0.53122222  1
  O  O113  1  0.91389632  0.30971776  0.52717703  1
  O  O114  1  0.25987383  0.69040518  0.97362946  1
  O  O115  1  0.76531260  0.69619301  0.97331677  1
  O  O116  1  0.07767328  0.46195785  0.96981079  1
  O  O117  1  0.58497678  0.48422251  0.97511336  1
  O  O118  1  0.15113974  0.82904984  0.97466993  1
  O  O119  1  0.65569939  0.84313903  0.97060152  1
  O  O120  1  0.26475900  0.83321690  0.47370683  1
  O  O121  1  0.76009603  0.82919886  0.47343710  1
  O  O122  1  0.15534043  0.46547028  0.46999579  1
  O  O123  1  0.65027536  0.47332097  0.47421865  1
  O  O124  1  0.08620207  0.68962045  0.47361239  1
  O  O125  1  0.57721068  0.69385868  0.46947340  1
  O  O126  1  0.06824057  0.63090951  0.35988471  1
  O  O127  1  0.56410953  0.63981729  0.36378135  1
  O  O128  1  0.24925513  0.86016372  0.36007544  1
  O  O129  1  0.74934446  0.86179356  0.36012011  1
  O  O130  1  0.18031078  0.48959587  0.36387392  1
  O  O131  1  0.67786046  0.50193199  0.36025311  1
  O  O132  1  0.06410337  0.48926082  0.86427120  1
  O  O133  1  0.56754091  0.50623058  0.86068831  1
  O  O134  1  0.17929240  0.85544963  0.86025902  1
  O  O135  1  0.68029293  0.87193512  0.86461535  1
  O  O136  1  0.24882694  0.63489841  0.86036171  1
  O  O137  1  0.74799527  0.63788379  0.86032732  1
  O  O138  1  0.01600793  0.83848246  0.41444187  1
  O  O139  1  0.51621280  0.82496010  0.40957576  1
  O  O140  1  0.40532653  0.97357597  0.40347243  1
  O  O141  1  0.90873103  0.98177371  0.41275106  1
  O  O142  1  0.08890776  0.21110678  0.41195548  1
  O  O143  1  0.58095882  0.19000460  0.40469271  1
  O  O144  1  0.01649747  0.20768022  0.90979776  1
  O  O145  1  0.51538640  0.19322428  0.91534857  1
  O  O146  1  0.08082874  0.97395646  0.90565760  1
  O  O147  1  0.58848723  0.96595957  0.91351459  1
  O  O148  1  0.40923071  0.83533210  0.91350051  1
  O  O149  1  0.90605822  0.83849617  0.90438185  1
  O  O150  1  0.48854859  0.18024349  0.59207509  1
  O  O151  1  0.98678199  0.16208835  0.58587087  1
  O  O152  1  0.10161413  0.01926572  0.59101059  1
  O  O153  1  0.59368925  0.02159791  0.59584482  1
  O  O154  1  0.41821537  0.81195981  0.59688593  1
  O  O155  1  0.90993291  0.79249737  0.58830713  1
  O  O156  1  0.48553257  0.79240226  0.08749920  1
  O  O157  1  0.98867678  0.79726560  0.09215397  1
  O  O158  1  0.41038669  0.02581192  0.08791860  1
  O  O159  1  0.91677639  0.02177102  0.09647555  1
  O  O160  1  0.09415683  0.16546405  0.09545470  1
  O  O161  1  0.60040841  0.18186430  0.09048789  1
  O  O162  1  0.34492254  0.17401057  0.73573051  1
  O  O163  1  0.84715385  0.17548556  0.74398117  1
  O  O164  1  0.24145223  0.31358916  0.74261623  1
  O  O165  1  0.74486406  0.32385589  0.73720639  1
  O  O166  1  0.42225529  0.53001284  0.73941484  1
  O  O167  1  0.92098143  0.53665760  0.74482422  1
  O  O168  1  0.34850241  0.52031221  0.24169575  1
  O  O169  1  0.84463841  0.51649843  0.23485072  1
  O  O170  1  0.42103479  0.30808723  0.24145178  1
  O  O171  1  0.92208808  0.31378933  0.23884947  1
  O  O172  1  0.24295688  0.16493116  0.23658054  1
  O  O173  1  0.74030558  0.16800483  0.24185544  1
  O  O174  1  0.31794815  0.49368396  0.92626702  1
  O  O175  1  0.82190812  0.49350150  0.92327741  1
  O  O176  1  0.42776108  0.36185577  0.92948359  1
  O  O177  1  0.93681775  0.36022850  0.92283679  1
  O  O178  1  0.25104803  0.13923587  0.92615000  1
  O  O179  1  0.74518362  0.12555304  0.92359949  1
  O  O180  1  0.32277226  0.15129784  0.42240818  1
  O  O181  1  0.81620113  0.14097114  0.42352523  1
  O  O182  1  0.24559378  0.36520593  0.42246599  1
  O  O183  1  0.75193013  0.36323119  0.42597239  1
  O  O184  1  0.43650927  0.51343852  0.42206587  1
  O  O185  1  0.92683250  0.49445298  0.42622477  1
  O  O186  1  0.17681299  0.50280960  0.07119675  1
  O  O187  1  0.68127243  0.49349057  0.07618495  1
  O  O188  1  0.06521980  0.63997782  0.07536371  1
  O  O189  1  0.56433933  0.63826895  0.07451155  1
  O  O190  1  0.25369440  0.87185223  0.07483796  1
  O  O191  1  0.74576321  0.85314774  0.07297911  1
  O  O192  1  0.18358593  0.87263921  0.57734978  1
  O  O193  1  0.67585074  0.84944108  0.57073799  1
  O  O194  1  0.24850694  0.64194845  0.57290107  1
  O  O195  1  0.75345888  0.63668780  0.57484059  1
  O  O196  1  0.07268398  0.50594713  0.57136785  1
  O  O197  1  0.56502695  0.49041063  0.57564830  1
  O  O198  1  0.15386890  0.82925873  0.25790198  1
  O  O199  1  0.65222625  0.82591221  0.26331207  1
  O  O200  1  0.25688182  0.67448181  0.26413302  1
  O  O201  1  0.76040400  0.68542771  0.25751796  1
  O  O202  1  0.07738219  0.46273515  0.25596195  1
  O  O203  1  0.57533611  0.46454736  0.26045565  1
  O  O204  1  0.15289236  0.47806595  0.76395778  1
  O  O205  1  0.65300889  0.47587933  0.75810584  1
  O  O206  1  0.07599113  0.68753617  0.76205480  1
  O  O207  1  0.57740709  0.69172819  0.75693538  1
  O  O208  1  0.26096175  0.83600883  0.75769035  1
  O  O209  1  0.75705555  0.83827741  0.76529215  1
