# generated using pymatgen
data_Na10Y4Hf4Si7S5O48
_symmetry_space_group_name_H-M   'P 1'
_cell_length_a   18.49836758
_cell_length_b   9.23712369
_cell_length_c   23.09749309
_cell_angle_alpha   90.01379856
_cell_angle_beta   89.13766613
_cell_angle_gamma   119.76320267
_symmetry_Int_Tables_number   1
_chemical_formula_structural   Na10Y4Hf4Si7S5O48
_chemical_formula_sum   'Na30 Y12 Hf12 Si21 S15 O144'
_cell_volume   3425.56906505
_cell_formula_units_Z   3
loop_
 _symmetry_equiv_pos_site_id
 _symmetry_equiv_pos_as_xyz
  1  'x, y, z'
loop_
 _atom_site_type_symbol
 _atom_site_label
 _atom_site_symmetry_multiplicity
 _atom_site_fract_x
 _atom_site_fract_y
 _atom_site_fract_z
 _atom_site_occupancy
  Na  Na0  1  0.18414551  0.37330720  0.23840496  1
  Na  Na1  1  0.68426357  0.37454896  0.23852228  1
  Na  Na2  1  0.99077872  0.62985195  0.25688627  1
  Na  Na3  1  0.49199267  0.63013038  0.25671396  1
  Na  Na4  1  0.49113295  0.34731013  0.76276604  1
  Na  Na5  1  0.18458376  0.99716704  0.74272462  1
  Na  Na6  1  0.68310374  0.99655725  0.74240653  1
  Na  Na7  1  0.66281932  0.34471648  0.57776438  1
  Na  Na8  1  0.01675413  0.70644651  0.57673742  1
  Na  Na9  1  0.82497455  0.95936971  0.59377298  1
  Na  Na10  1  0.49610705  0.67709169  0.91046639  1
  Na  Na11  1  0.99775278  0.67727387  0.90930479  1
  Na  Na12  1  0.84934815  0.03709783  0.90486485  1
  Na  Na13  1  0.15576206  0.29561152  0.92577734  1
  Na  Na14  1  0.49523665  0.31668623  0.40924106  1
  Na  Na15  1  0.99221539  0.31122439  0.40971938  1
  Na  Na16  1  0.34758606  0.65976385  0.40392389  1
  Na  Na17  1  0.84975448  0.66440818  0.40906564  1
  Na  Na18  1  0.02769194  0.01012911  0.49757576  1
  Na  Na19  1  0.52388630  0.98866693  0.49556190  1
  Na  Na20  1  0.01652404  0.02537640  0.00114994  1
  Na  Na21  1  0.52472110  0.05737505  0.99571653  1
  Na  Na22  1  0.34377287  0.32186677  0.83398571  1
  Na  Na23  1  0.85088315  0.33860873  0.82616614  1
  Na  Na24  1  0.33982598  0.33659328  0.32926341  1
  Na  Na25  1  0.83818971  0.33480505  0.33169316  1
  Na  Na26  1  0.17863144  0.65283411  0.16329660  1
  Na  Na27  1  0.67813730  0.65343954  0.16383151  1
  Na  Na28  1  0.17792199  0.69200251  0.67018713  1
  Na  Na29  1  0.67666479  0.69008118  0.66717150  1
  Y  Y30  1  0.00143342  0.99833553  0.35119979  1
  Y  Y31  1  0.50188320  0.00007706  0.35017174  1
  Y  Y32  1  0.99807073  -0.00046078  0.84762762  1
  Y  Y33  1  0.49605139  0.00158768  0.85396098  1
  Y  Y34  1  0.33292600  0.33058420  0.68526874  1
  Y  Y35  1  0.83599527  0.33788212  0.68681838  1
  Y  Y36  1  0.33392772  0.33774453  0.18256268  1
  Y  Y37  1  0.83367071  0.33755291  0.18281414  1
  Y  Y38  1  0.16126992  0.65504748  0.01944943  1
  Y  Y39  1  0.65990199  0.65053195  0.02036784  1
  Y  Y40  1  0.16548758  0.67293194  0.51839350  1
  Y  Y41  1  0.65996128  0.66966335  0.51886566  1
  Hf  Hf42  1  0.99677275  0.98385862  0.65020559  1
  Hf  Hf43  1  0.49637473  0.97851448  0.64958846  1
  Hf  Hf44  1  0.99833923  0.01455055  0.14819839  1
  Hf  Hf45  1  0.49814721  0.01298759  0.14785319  1
  Hf  Hf46  1  0.32802860  0.31772742  0.98029741  1
  Hf  Hf47  1  0.82466089  0.32322069  0.98036822  1
  Hf  Hf48  1  0.32549816  0.32727246  0.48020882  1
  Hf  Hf49  1  0.82768522  0.34424881  0.48076558  1
  Hf  Hf50  1  0.16440965  0.64988902  0.31426398  1
  Hf  Hf51  1  0.66333918  0.65081604  0.31479392  1
  Hf  Hf52  1  0.16238434  0.67880975  0.81364273  1
  Hf  Hf53  1  0.66454251  0.67838289  0.81459457  1
  Si  Si54  1  0.35073352  0.70943497  0.25099830  1
  Si  Si55  1  0.85098548  0.71000158  0.25116797  1
  Si  Si56  1  0.00000178  0.29923575  0.25403651  1
  Si  Si57  1  0.50017989  0.29943997  0.25374560  1
  Si  Si58  1  0.00134099  0.69908972  0.75344230  1
  Si  Si59  1  0.50041116  0.69950895  0.75477147  1
  Si  Si60  1  0.35109347  0.99170117  0.74872464  1
  Si  Si61  1  0.84706187  0.99106265  0.75166288  1
  Si  Si62  1  0.18201976  0.03686962  0.58834344  1
  Si  Si63  1  0.68359049  0.04323352  0.58759630  1
  Si  Si64  1  0.83449669  0.63462737  0.58256075  1
  Si  Si65  1  0.18147458  0.32665592  0.08655328  1
  Si  Si66  1  0.68109077  0.32601585  0.08876728  1
  Si  Si67  1  0.01760859  0.37283734  0.91731227  1
  Si  Si68  1  0.51513373  0.37167514  0.91613364  1
  Si  Si69  1  0.16764984  0.96543615  0.91690784  1
  Si  Si70  1  0.66828070  0.96431341  0.91882470  1
  Si  Si71  1  0.16753662  0.37052856  0.41804351  1
  Si  Si72  1  0.66697244  0.36820681  0.42021732  1
  Si  Si73  1  0.01582849  0.66039435  0.41863391  1
  Si  Si74  1  0.51350047  0.65978827  0.41550251  1
  S  S75  1  0.14482032  0.99007284  0.24686704  1
  S  S76  1  0.64519325  0.98968337  0.24667098  1
  S  S77  1  0.14496568  0.30342772  0.74880021  1
  S  S78  1  0.64214258  0.29450606  0.74682271  1
  S  S79  1  0.47785906  0.31678127  0.58153893  1
  S  S80  1  0.97867690  0.32270877  0.57966087  1
  S  S81  1  0.33889267  0.63436317  0.58079255  1
  S  S82  1  0.47874221  0.64081183  0.08263012  1
  S  S83  1  0.97860912  0.64047705  0.08196658  1
  S  S84  1  0.33781694  0.04223750  0.08302962  1
  S  S85  1  0.83811697  0.04269288  0.08152316  1
  S  S86  1  0.30940452  0.65458572  0.91677387  1
  S  S87  1  0.81074351  0.65640501  0.91695472  1
  S  S88  1  0.31124668  0.96659050  0.41535832  1
  S  S89  1  0.81023908  0.96515166  0.41621880  1
  O  O90  1  0.10943915  0.02182517  0.30010004  1
  O  O91  1  0.60991692  0.02176707  0.30000554  1
  O  O92  1  0.40289143  0.77763494  0.31019054  1
  O  O93  1  0.90444532  0.77799066  0.30989796  1
  O  O94  1  0.49080723  0.20562923  0.31448395  1
  O  O95  1  0.99156727  0.20467588  0.31437127  1
  O  O96  1  0.11022018  0.20851304  0.80404541  1
  O  O97  1  0.60258098  0.18927732  0.79870029  1
  O  O98  1  0.49186542  0.77980944  0.81406441  1
  O  O99  1  0.99727406  0.78321123  0.81379603  1
  O  O100  1  0.41424040  0.04190728  0.80139186  1
  O  O101  1  0.89567057  0.00999626  0.81117976  1
  O  O102  1  0.40161812  0.97781825  0.69032275  1
  O  O103  1  0.90175090  0.98731665  0.69358316  1
  O  O104  1  0.09098322  0.20859886  0.69945556  1
  O  O105  1  0.59054575  0.20859446  0.69396645  1
  O  O106  1  0.01289619  0.82672109  0.69787021  1
  O  O107  1  0.51276678  0.82679796  0.69881470  1
  O  O108  1  0.40714865  0.82937859  0.19606733  1
  O  O109  1  0.90686021  0.83079262  0.19589941  1
  O  O110  1  0.01477950  0.19835235  0.19933002  1
  O  O111  1  0.51387814  0.19606771  0.19950744  1
  O  O112  1  0.09127128  0.97259132  0.19636917  1
  O  O113  1  0.59154309  0.97229740  0.19638707  1
  O  O114  1  0.43774230  0.33597985  0.63475407  1
  O  O115  1  0.93738311  0.34634625  0.63117748  1
  O  O116  1  0.22981069  0.11822835  0.64744627  1
  O  O117  1  0.73274208  0.11671400  0.64708722  1
  O  O118  1  0.32932307  0.53365653  0.63290997  1
  O  O119  1  0.81878652  0.50718407  0.63403860  1
  O  O120  1  0.44000052  0.54275828  0.13671369  1
  O  O121  1  0.93946035  0.54342844  0.13595116  1
  O  O122  1  0.32857879  0.11954387  0.13542498  1
  O  O123  1  0.82986005  0.12480730  0.13324995  1
  O  O124  1  0.22770953  0.33295713  0.14646156  1
  O  O125  1  0.72603035  0.33202863  0.14924857  1
  O  O126  1  0.23674934  0.31413916  0.02984096  1
  O  O127  1  0.73969972  0.31554670  0.03416752  1
  O  O128  1  0.42872382  0.54705749  0.03131735  1
  O  O129  1  0.92932933  0.54847168  0.03034967  1
  O  O130  1  0.34750231  0.14970196  0.03075370  1
  O  O131  1  0.84791278  0.14652174  0.02813235  1
  O  O132  1  0.23955931  0.15873029  0.53226141  1
  O  O133  1  0.73854754  0.17401456  0.53271054  1
  O  O134  1  0.34713401  0.54656927  0.52744077  1
  O  O135  1  0.85027015  0.54999576  0.52238168  1
  O  O136  1  0.42968371  0.31244955  0.52912755  1
  O  O137  1  0.92924124  0.30737689  0.52651613  1
  O  O138  1  0.27311864  0.67837585  0.97052770  1
  O  O139  1  0.77326393  0.67945412  0.97010750  1
  O  O140  1  0.08009285  0.44551455  0.97110783  1
  O  O141  1  0.57112443  0.46287615  0.97082751  1
  O  O142  1  0.15250637  0.84204469  0.97006011  1
  O  O143  1  0.66376128  0.85271784  0.97270377  1
  O  O144  1  0.27366420  0.87022624  0.46880168  1
  O  O145  1  0.77393187  0.87033593  0.47063565  1
  O  O146  1  0.16100293  0.47227136  0.47172115  1
  O  O147  1  0.65984875  0.45451374  0.47898516  1
  O  O148  1  0.06525367  0.68166462  0.47798751  1
  O  O149  1  0.56965301  0.68435749  0.47008955  1
  O  O150  1  0.06954598  0.64620580  0.36155656  1
  O  O151  1  0.56197610  0.64205434  0.35595076  1
  O  O152  1  0.25965362  0.88382084  0.36412863  1
  O  O153  1  0.75718396  0.87604598  0.36568712  1
  O  O154  1  0.18377903  0.48986517  0.35888326  1
  O  O155  1  0.67873820  0.49383563  0.36378088  1
  O  O156  1  0.06771809  0.49887275  0.86124794  1
  O  O157  1  0.56318095  0.48812922  0.85655556  1
  O  O158  1  0.17848524  0.87839494  0.85662288  1
  O  O159  1  0.68406241  0.87588106  0.85947907  1
  O  O160  1  0.25777129  0.63542472  0.86578645  1
  O  O161  1  0.75964175  0.63518992  0.86529809  1
  O  O162  1  0.99412056  0.81051027  0.41473643  1
  O  O163  1  0.49003923  0.80780771  0.41362085  1
  O  O164  1  0.39591271  0.98736247  0.40996980  1
  O  O165  1  0.89461439  0.98135279  0.41017470  1
  O  O166  1  0.08445213  0.18940842  0.41460931  1
  O  O167  1  0.58392456  0.18707679  0.41445635  1
  O  O168  1  -0.00275577  0.18003374  0.91173201  1
  O  O169  1  0.49670201  0.18213435  0.91440234  1
  O  O170  1  0.08867612  0.99992745  0.91387129  1
  O  O171  1  0.58506571  0.97956563  0.91445567  1
  O  O172  1  0.39635238  0.79095194  0.91124107  1
  O  O173  1  0.89632195  0.80353236  0.91122978  1
  O  O174  1  0.48462740  0.16211462  0.58424934  1
  O  O175  1  0.98264863  0.16528288  0.58529582  1
  O  O176  1  0.08883023  0.02432178  0.58869982  1
  O  O177  1  0.59226994  0.04031482  0.58909018  1
  O  O178  1  0.41905164  0.79947312  0.58425649  1
  O  O179  1  0.92129515  0.81795539  0.59032066  1
  O  O180  1  0.48232672  0.80605818  0.08642498  1
  O  O181  1  0.98320924  0.80708867  0.08534909  1
  O  O182  1  0.41660218  0.03157778  0.08612834  1
  O  O183  1  0.91761243  0.03292502  0.08550849  1
  O  O184  1  0.08855143  0.15241908  0.08855113  1
  O  O185  1  0.58852651  0.15234580  0.08913609  1
  O  O186  1  0.33297353  0.14951032  0.74463204  1
  O  O187  1  0.82567603  0.14246785  0.74894695  1
  O  O188  1  0.22930944  0.32024446  0.74251576  1
  O  O189  1  0.72643765  0.31665674  0.74204894  1
  O  O190  1  0.42592127  0.50809309  0.74625741  1
  O  O191  1  0.92274209  0.51513013  0.74797364  1
  O  O192  1  0.33365872  0.51629160  0.24586580  1
  O  O193  1  0.83482545  0.51780851  0.24544653  1
  O  O194  1  0.42486209  0.34055473  0.24591430  1
  O  O195  1  0.92464785  0.33984573  0.24614191  1
  O  O196  1  0.23071612  0.13289960  0.24069983  1
  O  O197  1  0.73128895  0.13246253  0.24070071  1
  O  O198  1  0.31242530  0.49131591  0.92195881  1
  O  O199  1  0.82186075  0.50396795  0.92258687  1
  O  O200  1  0.42610570  0.38002011  0.92350790  1
  O  O201  1  0.92793523  0.37390180  0.92660944  1
  O  O202  1  0.25242146  0.15351897  0.92362600  1
  O  O203  1  0.75650672  0.14972355  0.92347573  1
  O  O204  1  0.32163411  0.13998868  0.42071499  1
  O  O205  1  0.82147324  0.13739390  0.41985270  1
  O  O206  1  0.25513715  0.36079760  0.42336483  1
  O  O207  1  0.75579894  0.36237309  0.41977817  1
  O  O208  1  0.42358274  0.47643524  0.42237109  1
  O  O209  1  0.92636195  0.47656060  0.42056754  1
  O  O210  1  0.17220013  0.49249356  0.08393840  1
  O  O211  1  0.67206739  0.49148698  0.08523169  1
  O  O212  1  0.06439460  0.66420873  0.07931004  1
  O  O213  1  0.56461487  0.66632391  0.08005750  1
  O  O214  1  0.26509682  0.87260156  0.07692196  1
  O  O215  1  0.76620989  0.87265160  0.07729080  1
  O  O216  1  0.16420477  0.84434932  0.58451486  1
  O  O217  1  0.67645440  0.86183501  0.58073113  1
  O  O218  1  0.26775228  0.66219345  0.57636719  1
  O  O219  1  0.75548759  0.66595895  0.57896678  1
  O  O220  1  0.06340237  0.47125482  0.57649113  1
  O  O221  1  0.56454484  0.46288579  0.57965270  1
  O  O222  1  0.14602017  0.82929141  0.25258046  1
  O  O223  1  0.64673464  0.82954925  0.25227439  1
  O  O224  1  0.25804906  0.69726595  0.25519750  1
  O  O225  1  0.75791499  0.69580935  0.25639437  1
  O  O226  1  0.08917683  0.48519588  0.25521109  1
  O  O227  1  0.58993567  0.48406484  0.25490835  1
  O  O228  1  0.15286682  0.47132036  0.75217043  1
  O  O229  1  0.64449543  0.45855451  0.75137231  1
  O  O230  1  0.09213859  0.69955990  0.75203078  1
  O  O231  1  0.59036193  0.69533664  0.75442522  1
  O  O232  1  0.25980280  0.81972482  0.75617635  1
  O  O233  1  0.75599360  0.81211872  0.75375750  1
