# generated using pymatgen
data_Ba2MgCrMoO6
_symmetry_space_group_name_H-M   'P 1'
_cell_length_a   6.04778736
_cell_length_b   6.64558962
_cell_length_c   6.04646124
_cell_angle_alpha   63.57536078
_cell_angle_beta   60.04472125
_cell_angle_gamma   63.66377584
_symmetry_Int_Tables_number   1
_chemical_formula_structural   Ba2MgCrMoO6
_chemical_formula_sum   'Ba2 Mg1 Cr1 Mo1 O6'
_cell_volume   180.71141454
_cell_formula_units_Z   1
loop_
 _symmetry_equiv_pos_site_id
 _symmetry_equiv_pos_as_xyz
  1  'x, y, z'
loop_
 _atom_site_type_symbol
 _atom_site_label
 _atom_site_symmetry_multiplicity
 _atom_site_fract_x
 _atom_site_fract_y
 _atom_site_fract_z
 _atom_site_occupancy
  Ba  Ba0  1  0.30509722  0.08490630  0.30486830  1
  Ba  Ba1  1  0.72343993  0.82197585  0.72413463  1
  Mg  Mg2  1  0.09548239  0.70816616  0.09576471  1
  Cr  Cr3  1  0.92383273  0.23005871  0.92357707  1
  Mo  Mo4  1  0.50719810  0.47721008  0.50713551  1
  O  O5  1  0.75357598  0.21989984  0.27475170  1
  O  O6  1  0.75081742  0.22674302  0.75068368  1
  O  O7  1  0.73504785  0.71954133  0.27076071  1
  O  O8  1  0.27095893  0.71850467  0.73556034  1
  O  O9  1  0.27385352  0.70926591  0.27379179  1
  O  O10  1  0.27527893  0.21914511  0.75355455  1
