# generated using pymatgen
data_Na21Ca8Nb4Si3(P5O24)3
_symmetry_space_group_name_H-M   'P 1'
_cell_length_a   9.34774455
_cell_length_b   9.36933522
_cell_length_c   22.61367605
_cell_angle_alpha   90.00792248
_cell_angle_beta   90.03885592
_cell_angle_gamma   120.15247457
_symmetry_Int_Tables_number   1
_chemical_formula_structural   Na21Ca8Nb4Si3(P5O24)3
_chemical_formula_sum   'Na21 Ca8 Nb4 Si3 P15 O72'
_cell_volume   1712.56840380
_cell_formula_units_Z   1
loop_
 _symmetry_equiv_pos_site_id
 _symmetry_equiv_pos_as_xyz
  1  'x, y, z'
loop_
 _atom_site_type_symbol
 _atom_site_label
 _atom_site_symmetry_multiplicity
 _atom_site_fract_x
 _atom_site_fract_y
 _atom_site_fract_z
 _atom_site_occupancy
  Na  Na0  1  0.66221117  0.01025067  0.24249057  1
  Na  Na1  1  0.98787518  0.64071858  0.24241633  1
  Na  Na2  1  0.65457862  0.64562057  0.74733215  1
  Na  Na3  1  0.98702963  0.34121692  0.74780474  1
  Na  Na4  1  0.35456042  0.00828796  0.74766395  1
  Na  Na5  1  0.29586923  0.33757029  0.58331969  1
  Na  Na6  1  0.04586765  0.70745588  0.57797825  1
  Na  Na7  1  0.66046019  0.95235059  0.57934438  1
  Na  Na8  1  0.29431728  0.95617672  0.08135720  1
  Na  Na9  1  0.66386406  0.70309225  0.08121067  1
  Na  Na10  1  0.04447056  0.34125608  0.07798947  1
  Na  Na11  1  0.97991141  0.68004423  0.91335060  1
  Na  Na12  1  0.98027931  0.29755563  0.40709632  1
  Na  Na13  1  0.31085915  0.01454207  0.41082067  1
  Na  Na14  1  0.70895536  0.69441905  0.41049509  1
  Na  Na15  1  0.99023755  0.99084115  0.49587555  1
  Na  Na16  1  0.00124969  0.02777925  0.99356565  1
  Na  Na17  1  0.65375764  0.31931627  0.83381207  1
  Na  Na18  1  0.65098599  0.33444766  0.32373416  1
  Na  Na19  1  0.33236782  0.64559328  0.16343297  1
  Na  Na20  1  0.33679356  0.67019022  0.66400401  1
  Ca  Ca21  1  0.00427060  0.00443300  0.34504242  1
  Ca  Ca22  1  0.99897588  0.00765111  0.85134727  1
  Ca  Ca23  1  0.99867836  0.99985184  0.65157252  1
  Ca  Ca24  1  0.00509501  0.00734227  0.15101533  1
  Ca  Ca25  1  0.66768404  0.33362510  0.68432085  1
  Ca  Ca26  1  0.65951565  0.33211374  0.18482084  1
  Ca  Ca27  1  0.33533790  0.66463080  0.01276119  1
  Ca  Ca28  1  0.33460452  0.66793476  0.51386528  1
  Nb  Nb29  1  0.66494985  0.32959823  0.97872582  1
  Nb  Nb30  1  0.66995489  0.33271544  0.47909967  1
  Nb  Nb31  1  0.33181193  0.66738734  0.31975508  1
  Nb  Nb32  1  0.33228292  0.66256341  0.82370082  1
  Si  Si33  1  0.02216090  0.36317307  0.92355231  1
  Si  Si34  1  0.63350747  0.97119697  0.42092578  1
  Si  Si35  1  0.02949917  0.66344359  0.42132798  1
  P  P36  1  0.30794616  0.98763173  0.25397506  1
  P  P37  1  0.68471635  0.69616592  0.25344166  1
  P  P38  1  0.00863514  0.31801364  0.25240143  1
  P  P39  1  0.30465921  0.31562426  0.74997379  1
  P  P40  1  0.01316225  0.69566436  0.75323215  1
  P  P41  1  0.68283671  0.98682227  0.74911895  1
  P  P42  1  0.95901029  0.32762718  0.58261941  1
  P  P43  1  0.36997332  0.04172285  0.58279582  1
  P  P44  1  0.67039413  0.62757166  0.58244731  1
  P  P45  1  0.95739402  0.62903791  0.08234023  1
  P  P46  1  0.67065422  0.04280690  0.08266763  1
  P  P47  1  0.37321090  0.33073461  0.08009503  1
  P  P48  1  0.63076110  0.65371484  0.92009237  1
  P  P49  1  0.34236544  0.96913394  0.91981287  1
  P  P50  1  0.34280387  0.37301295  0.42003517  1
  O  O51  1  0.22834864  0.00433608  0.31026743  1
  O  O52  1  0.78805667  0.78264114  0.30835762  1
  O  O53  1  0.98393549  0.21208128  0.30710727  1
  O  O54  1  0.21264742  0.19029704  0.79810839  1
  O  O55  1  0.98567867  0.77833277  0.80649238  1
  O  O56  1  0.80834007  0.01831386  0.79718353  1
  O  O57  1  0.74083848  0.95104293  0.68917177  1
  O  O58  1  0.20854839  0.26130585  0.69038153  1
  O  O59  1  0.04634804  0.79899812  0.69589966  1
  O  O60  1  0.75460748  0.80508073  0.19727116  1
  O  O61  1  0.02985152  0.24225131  0.19506531  1
  O  O62  1  0.20088611  0.95690847  0.19820595  1
  O  O63  1  0.87972932  0.33875570  0.63959727  1
  O  O64  1  0.45761292  0.12234787  0.64038863  1
  O  O65  1  0.66443325  0.54093892  0.64001648  1
  O  O66  1  0.87897132  0.53566803  0.13943727  1
  O  O67  1  0.65788214  0.11939777  0.14037610  1
  O  O68  1  0.47029421  0.34480406  0.13535189  1
  O  O69  1  0.48226706  0.32713998  0.02512959  1
  O  O70  1  0.84135790  0.51701522  0.02743486  1
  O  O71  1  0.67071894  0.15999619  0.02897991  1
  O  O72  1  0.48224178  0.15604354  0.52842036  1
  O  O73  1  0.67178252  0.51501949  0.52796907  1
  O  O74  1  0.84327917  0.32622445  0.52777365  1
  O  O75  1  0.56575743  0.67891076  0.97814003  1
  O  O76  1  0.11131291  0.44708531  0.98384211  1
  O  O77  1  0.32192545  0.87906576  0.97775780  1
  O  O78  1  0.56768722  0.86852876  0.48070864  1
  O  O79  1  0.31158176  0.43314192  0.47841308  1
  O  O80  1  0.12702561  0.68943834  0.48170680  1
  O  O81  1  0.13900958  0.63551861  0.36643575  1
  O  O82  1  0.49643330  0.85826262  0.36594438  1
  O  O83  1  0.36307507  0.49892797  0.36932095  1
  O  O84  1  0.14436784  0.50544093  0.86805037  1
  O  O85  1  0.36532185  0.86429083  0.86723307  1
  O  O86  1  0.50748009  0.64119348  0.86746455  1
  O  O87  1  0.99705671  0.81434956  0.41073082  1
  O  O88  1  0.82029673  0.01393441  0.40950179  1
  O  O89  1  0.20151698  0.19784796  0.40807957  1
  O  O90  1  0.99220232  0.18352647  0.91317495  1
  O  O91  1  0.18832073  0.97962354  0.90728723  1
  O  O92  1  0.80691069  0.79046549  0.90810615  1
  O  O93  1  0.96003730  0.16387939  0.57607121  1
  O  O94  1  0.20183364  0.03589874  0.57648550  1
  O  O95  1  0.83280253  0.79541478  0.57592420  1
  O  O96  1  0.95830922  0.79454308  0.07769367  1
  O  O97  1  0.83526484  0.04266026  0.07670954  1
  O  O98  1  0.20536549  0.16694126  0.07623884  1
  O  O99  1  0.64856810  0.13246256  0.74846731  1
  O  O100  1  0.48546637  0.35259779  0.74832866  1
  O  O101  1  0.86862070  0.51544988  0.74941652  1
  O  O102  1  0.66989178  0.52585936  0.24946103  1
  O  O103  1  0.86186731  0.35103003  0.25065924  1
  O  O104  1  0.48986825  0.12620226  0.25073122  1
  O  O105  1  0.63119151  0.48481229  0.91923526  1
  O  O106  1  0.84290902  0.36932680  0.92027879  1
  O  O107  1  0.50442271  0.14350613  0.92000960  1
  O  O108  1  0.62740165  0.14962289  0.42314232  1
  O  O109  1  0.51227696  0.37229579  0.42081610  1
  O  O110  1  0.84567193  0.48331822  0.42264282  1
  O  O111  1  0.35118337  0.48340307  0.07774751  1
  O  O112  1  0.13420856  0.65598851  0.07891911  1
  O  O113  1  0.51854875  0.86820457  0.07808952  1
  O  O114  1  0.35135750  0.86845388  0.58011485  1
  O  O115  1  0.51420209  0.64368654  0.57979995  1
  O  O116  1  0.13355516  0.47989968  0.57872774  1
  O  O117  1  0.31420590  0.81824940  0.26035309  1
  O  O118  1  0.50713856  0.67873124  0.26282675  1
  O  O119  1  0.17204808  0.49345491  0.26098007  1
  O  O120  1  0.31599123  0.48978677  0.76416677  1
  O  O121  1  0.17955086  0.68651284  0.76236736  1
  O  O122  1  0.50968121  0.82300857  0.76199984  1
