# generated using pymatgen
data_Na2La3TaP4(SO12)2
_symmetry_space_group_name_H-M   'P 1'
_cell_length_a   9.29951525
_cell_length_b   9.30798505
_cell_length_c   24.27293897
_cell_angle_alpha   90.36490101
_cell_angle_beta   89.75788340
_cell_angle_gamma   120.11554599
_symmetry_Int_Tables_number   1
_chemical_formula_structural   Na2La3TaP4(SO12)2
_chemical_formula_sum   'Na6 La9 Ta3 P12 S6 O72'
_cell_volume   1817.41049937
_cell_formula_units_Z   3
loop_
 _symmetry_equiv_pos_site_id
 _symmetry_equiv_pos_as_xyz
  1  'x, y, z'
loop_
 _atom_site_type_symbol
 _atom_site_label
 _atom_site_symmetry_multiplicity
 _atom_site_fract_x
 _atom_site_fract_y
 _atom_site_fract_z
 _atom_site_occupancy
  Na  Na0  1  0.98703842  0.98304941  0.50399284  1
  Na  Na1  1  0.01239355  0.99771571  0.00082812  1
  Na  Na2  1  0.66884473  0.32869723  0.83275896  1
  Na  Na3  1  0.69412251  0.34642197  0.32911804  1
  Na  Na4  1  0.32452021  0.63928282  0.16053192  1
  Na  Na5  1  0.33486062  0.66594486  0.67725034  1
  La  La6  1  0.98746270  0.99226633  0.35035135  1
  La  La7  1  0.00223664  0.00194093  0.85375923  1
  La  La8  1  0.99942928  0.99911508  0.66427020  1
  La  La9  1  0.99650869  0.00129868  0.14559797  1
  La  La10  1  0.66702864  0.33395997  0.69168898  1
  La  La11  1  0.67289266  0.34478300  0.18603657  1
  La  La12  1  0.67631795  0.33221381  0.47500487  1
  La  La13  1  0.32781773  0.66045584  0.01824544  1
  La  La14  1  0.33258266  0.67399151  0.51917162  1
  Ta  Ta15  1  0.66358342  0.34337885  0.97612559  1
  Ta  Ta16  1  0.33293439  0.66773537  0.31517963  1
  Ta  Ta17  1  0.33249266  0.66838012  0.82274921  1
  P  P18  1  0.68037898  0.69686079  0.25228224  1
  P  P19  1  0.01460151  0.31495717  0.25353016  1
  P  P20  1  0.30323833  0.32256801  0.75572959  1
  P  P21  1  0.01891252  0.69748330  0.75581511  1
  P  P22  1  0.67865762  0.98173937  0.75593786  1
  P  P23  1  0.94341531  0.62706171  0.07620610  1
  P  P24  1  0.37478525  0.31759227  0.07779004  1
  P  P25  1  0.61591693  0.64946139  0.91745870  1
  P  P26  1  0.02512605  0.38473011  0.91686449  1
  P  P27  1  0.35743746  0.97258248  0.91868501  1
  P  P28  1  0.61554317  0.95931222  0.41213623  1
  P  P29  1  0.04222664  0.66046396  0.41202246  1
  S  S30  1  0.30335316  0.98270258  0.25383416  1
  S  S31  1  0.96594733  0.32110568  0.58414294  1
  S  S32  1  0.35850528  0.03862217  0.58349599  1
  S  S33  1  0.67619056  0.63950792  0.58295980  1
  S  S34  1  0.67797550  0.05941925  0.07643483  1
  S  S35  1  0.34259136  0.38614771  0.41067649  1
  O  O36  1  0.22476725  0.00627669  0.30252530  1
  O  O37  1  0.79133081  0.77749877  0.30225887  1
  O  O38  1  0.99436707  0.20742228  0.30325067  1
  O  O39  1  0.21971615  0.20084426  0.80233160  1
  O  O40  1  0.98163703  0.78193053  0.80262653  1
  O  O41  1  0.80054396  0.01795685  0.80232447  1
  O  O42  1  0.74177574  0.94626710  0.70102593  1
  O  O43  1  0.20359793  0.25736117  0.70132264  1
  O  O44  1  0.05311124  0.79567062  0.70132176  1
  O  O45  1  0.75634876  0.79916625  0.19948836  1
  O  O46  1  0.04344456  0.24303110  0.19971408  1
  O  O47  1  0.20550910  0.95628107  0.20332577  1
  O  O48  1  0.87446485  0.32569011  0.63303325  1
  O  O49  1  0.45162576  0.13026438  0.63278648  1
  O  O50  1  0.67463307  0.54733763  0.63223771  1
  O  O51  1  0.85785794  0.53530723  0.12876674  1
  O  O52  1  0.67622196  0.13959887  0.12817180  1
  O  O53  1  0.46369852  0.31314520  0.12959048  1
  O  O54  1  0.48307251  0.31704061  0.02482788  1
  O  O55  1  0.83281000  0.51640998  0.02423041  1
  O  O56  1  0.67829732  0.15880659  0.02726406  1
  O  O57  1  0.44827353  0.12607894  0.53244292  1
  O  O58  1  0.67699727  0.54989475  0.53184794  1
  O  O59  1  0.87691910  0.31981187  0.53285106  1
  O  O60  1  0.54907091  0.67654254  0.97073382  1
  O  O61  1  0.12118734  0.45050462  0.96983848  1
  O  O62  1  0.33053243  0.87586380  0.97113067  1
  O  O63  1  0.53223213  0.87311882  0.46614271  1
  O  O64  1  0.33722531  0.46427656  0.46266625  1
  O  O65  1  0.12320996  0.65494315  0.46625148  1
  O  O66  1  0.15648921  0.66116395  0.36237211  1
  O  O67  1  0.50664570  0.84379994  0.36222922  1
  O  O68  1  0.33973542  0.48770448  0.36258329  1
  O  O69  1  0.13130219  0.50830137  0.86829605  1
  O  O70  1  0.37626738  0.87056473  0.86872550  1
  O  O71  1  0.49398191  0.62690452  0.86855545  1
  O  O72  1  0.02867712  0.81714039  0.41113519  1
  O  O73  1  0.79087111  0.98341555  0.41162075  1
  O  O74  1  0.19784599  0.21829649  0.40831155  1
  O  O75  1  0.98871415  0.20897224  0.90612914  1
  O  O76  1  0.21714673  0.00809493  0.90892807  1
  O  O77  1  0.79285624  0.78580400  0.90749030  1
  O  O78  1  0.97973404  0.16923724  0.58428969  1
  O  O79  1  0.19110294  0.02161168  0.58321413  1
  O  O80  1  0.82743738  0.80708102  0.58294904  1
  O  O81  1  0.95013287  0.79641147  0.07412956  1
  O  O82  1  0.83293793  0.04892087  0.07375435  1
  O  O83  1  0.20124336  0.15881726  0.07438901  1
  O  O84  1  0.63985052  0.12370954  0.75010176  1
  O  O85  1  0.48455631  0.36233427  0.74939864  1
  O  O86  1  0.87772353  0.51588971  0.74979061  1
  O  O87  1  0.64001765  0.51576800  0.24913132  1
  O  O88  1  0.86866049  0.34754494  0.25048769  1
  O  O89  1  0.47494208  0.11989894  0.24907679  1
  O  O90  1  0.62115089  0.47913525  0.92391488  1
  O  O91  1  0.85256391  0.38011316  0.92288425  1
  O  O92  1  0.52550972  0.14716376  0.92482542  1
  O  O93  1  0.62176304  0.12790812  0.40687885  1
  O  O94  1  0.49878962  0.38023771  0.40657200  1
  O  O95  1  0.86986986  0.50101347  0.40600115  1
  O  O96  1  0.36212846  0.47532517  0.07809780  1
  O  O97  1  0.11699674  0.64790805  0.07543254  1
  O  O98  1  0.53137628  0.89170502  0.07599309  1
  O  O99  1  0.34126487  0.87054838  0.58550555  1
  O  O100  1  0.52488262  0.65550984  0.58404026  1
  O  O101  1  0.13431803  0.47136479  0.58487487  1
  O  O102  1  0.31304280  0.82471059  0.26180254  1
  O  O103  1  0.50713330  0.68787346  0.26399198  1
  O  O104  1  0.17728797  0.49220149  0.26483689  1
  O  O105  1  0.30966440  0.49210424  0.77085177  1
  O  O106  1  0.18257657  0.69182120  0.77060888  1
  O  O107  1  0.50845874  0.81867686  0.77080488  1
