# generated using pymatgen
data_Te4P2O13
_symmetry_space_group_name_H-M   'P 1'
_cell_length_a   4.66932846
_cell_length_b   11.26896916
_cell_length_c   22.50659289
_cell_angle_alpha   63.06714955
_cell_angle_beta   90.00000000
_cell_angle_gamma   90.00000000
_symmetry_Int_Tables_number   1
_chemical_formula_structural   Te4P2O13
_chemical_formula_sum   'Te16 P8 O52'
_cell_volume   1055.81595359
_cell_formula_units_Z   4
loop_
 _symmetry_equiv_pos_site_id
 _symmetry_equiv_pos_as_xyz
  1  'x, y, z'
loop_
 _atom_site_type_symbol
 _atom_site_label
 _atom_site_symmetry_multiplicity
 _atom_site_fract_x
 _atom_site_fract_y
 _atom_site_fract_z
 _atom_site_occupancy
  Te  Te0  1  0.73389623  0.18405301  0.93911867  1
  Te  Te1  1  0.23389623  0.81594699  0.56088133  1
  Te  Te2  1  0.26610377  0.81594699  0.06088133  1
  Te  Te3  1  0.76610377  0.18405301  0.43911867  1
  Te  Te4  1  0.19190619  0.47767520  0.65069175  1
  Te  Te5  1  0.69190619  0.52232480  0.84930825  1
  Te  Te6  1  0.80809381  0.52232480  0.34930825  1
  Te  Te7  1  0.30809381  0.47767520  0.15069175  1
  Te  Te8  1  0.30611052  0.65292439  0.42454781  1
  Te  Te9  1  0.80611052  0.34707561  0.07545219  1
  Te  Te10  1  0.69388948  0.34707561  0.57545219  1
  Te  Te11  1  0.19388948  0.65292439  0.92454781  1
  Te  Te12  1  0.81621494  0.01019679  0.18898275  1
  Te  Te13  1  0.31621494  0.98980321  0.31101725  1
  Te  Te14  1  0.18378506  0.98980321  0.81101725  1
  Te  Te15  1  0.68378506  0.01019679  0.68898275  1
  P  P16  1  0.27757986  0.30352389  0.82228808  1
  P  P17  1  0.77757986  0.69647611  0.67771192  1
  P  P18  1  0.72242014  0.69647611  0.17771192  1
  P  P19  1  0.22242014  0.30352389  0.32228808  1
  P  P20  1  0.24890120  0.13679727  0.05747688  1
  P  P21  1  0.74890120  0.86320273  0.44252312  1
  P  P22  1  0.75109880  0.86320273  0.94252312  1
  P  P23  1  0.25109880  0.13679727  0.55747688  1
  O  O24  1  0.34032021  0.59418421  0.85669096  1
  O  O25  1  0.84032021  0.40581579  0.64330904  1
  O  O26  1  0.65967979  0.40581579  0.14330904  1
  O  O27  1  0.15967979  0.59418421  0.35669096  1
  O  O28  1  0.09613689  0.64893512  0.57181971  1
  O  O29  1  0.59613689  0.35106488  0.92818029  1
  O  O30  1  0.90386311  0.35106488  0.42818029  1
  O  O31  1  0.40386311  0.64893512  0.07181971  1
  O  O32  1  0.43905591  0.80597628  0.34656443  1
  O  O33  1  0.93905591  0.19402372  0.15343557  1
  O  O34  1  0.56094409  0.19402372  0.65343557  1
  O  O35  1  0.06094409  0.80597628  0.84656443  1
  O  O36  1  0.17160581  0.96118433  0.23438739  1
  O  O37  1  0.67160581  0.03881567  0.26561261  1
  O  O38  1  0.82839419  0.03881567  0.76561261  1
  O  O39  1  0.32839419  0.96118433  0.73438739  1
  O  O40  1  0.15920894  0.43221038  0.07669932  1
  O  O41  1  0.65920894  0.56778962  0.42330068  1
  O  O42  1  0.43978367  0.43457736  0.79821014  1
  O  O43  1  0.84079106  0.56778962  0.92330068  1
  O  O44  1  0.48139517  0.18479688  0.87052544  1
  O  O45  1  0.98139517  0.81520312  0.62947456  1
  O  O46  1  0.51860483  0.81520312  0.12947456  1
  O  O47  1  0.01860483  0.18479688  0.37052544  1
  O  O48  1  0.42576929  0.01266674  0.60220580  1
  O  O49  1  0.92576929  0.98733326  0.89779420  1
  O  O50  1  0.57423071  0.98733326  0.39779420  1
  O  O51  1  0.07423071  0.01266674  0.10220580  1
  O  O52  1  0.45530591  0.25689852  0.52218578  1
  O  O53  1  0.95530591  0.74310148  0.97781422  1
  O  O54  1  0.54469409  0.74310148  0.47781422  1
  O  O55  1  0.04469409  0.25689852  0.02218578  1
  O  O56  1  0.01402510  0.16539626  0.59526052  1
  O  O57  1  0.51402510  0.83460374  0.90473948  1
  O  O58  1  0.98597490  0.83460374  0.40473948  1
  O  O59  1  0.48597490  0.16539626  0.09526052  1
  O  O60  1  0.12689817  0.10779702  0.50131452  1
  O  O61  1  0.62689817  0.89220298  0.99868548  1
  O  O62  1  0.87310183  0.89220298  0.49868548  1
  O  O63  1  0.37310183  0.10779702  0.00131452  1
  O  O64  1  0.47905223  0.30652862  0.36570343  1
  O  O65  1  0.97905223  0.69347138  0.13429657  1
  O  O66  1  0.52094777  0.69347138  0.63429657  1
  O  O67  1  0.02094777  0.30652862  0.86570343  1
  O  O68  1  0.31235278  0.27163137  0.26744219  1
  O  O69  1  0.81235278  0.72836863  0.23255781  1
  O  O70  1  0.68764722  0.72836863  0.73255781  1
  O  O71  1  0.18764722  0.27163137  0.76744219  1
  O  O72  1  0.06021633  0.43457736  0.29821014  1
  O  O73  1  0.56021633  0.56542264  0.20178986  1
  O  O74  1  0.93978367  0.56542264  0.70178986  1
  O  O75  1  0.34079106  0.43221038  0.57669932  1
