# generated using pymatgen
data_MgMn4O8
_symmetry_space_group_name_H-M   'P 1'
_cell_length_a   2.92342197
_cell_length_b   5.31205762
_cell_length_c   9.29432899
_cell_angle_alpha   91.85504065
_cell_angle_beta   90.01490567
_cell_angle_gamma   90.02867065
_symmetry_Int_Tables_number   1
_chemical_formula_structural   MgMn4O8
_chemical_formula_sum   'Mg1 Mn4 O8'
_cell_volume   144.25955619
_cell_formula_units_Z   1
loop_
 _symmetry_equiv_pos_site_id
 _symmetry_equiv_pos_as_xyz
  1  'x, y, z'
loop_
 _atom_site_type_symbol
 _atom_site_label
 _atom_site_symmetry_multiplicity
 _atom_site_fract_x
 _atom_site_fract_y
 _atom_site_fract_z
 _atom_site_occupancy
  Mg  Mg0  1  0.77278800  0.92756900  0.57799000  1
  Mn  Mn1  1  0.27165300  0.43506300  0.65543900  1
  Mn  Mn2  1  0.77280100  0.56145400  0.34712500  1
  Mn  Mn3  1  0.77228600  0.92302700  0.87857400  1
  Mn  Mn4  1  0.27299000  0.07624100  0.14125200  1
  O  O5  1  0.27208000  0.05902100  0.75510700  1
  O  O6  1  0.77296000  0.93056800  0.24162500  1
  O  O7  1  0.77186600  0.63798600  0.73746500  1
  O  O8  1  0.27282400  0.39607900  0.24951000  1
  O  O9  1  0.27231900  0.80257200  0.99166500  1
  O  O10  1  0.77294100  0.19537500  0.01727200  1
  O  O11  1  0.27255400  0.72461900  0.47307700  1
  O  O12  1  0.77159900  0.28876000  0.54104500  1
