# generated using pymatgen
data_Na6Ca4Nb2P6(SO12)3
_symmetry_space_group_name_H-M   'P 1'
_cell_length_a   9.19474442
_cell_length_b   9.21394850
_cell_length_c   23.15223168
_cell_angle_alpha   90.39527152
_cell_angle_beta   90.00000000
_cell_angle_gamma   119.93107782
_symmetry_Int_Tables_number   1
_chemical_formula_structural   Na6Ca4Nb2P6(SO12)3
_chemical_formula_sum   'Na12 Ca8 Nb4 P12 S6 O72'
_cell_volume   1699.79432183
_cell_formula_units_Z   2
loop_
 _symmetry_equiv_pos_site_id
 _symmetry_equiv_pos_as_xyz
  1  'x, y, z'
loop_
 _atom_site_type_symbol
 _atom_site_label
 _atom_site_symmetry_multiplicity
 _atom_site_fract_x
 _atom_site_fract_y
 _atom_site_fract_z
 _atom_site_occupancy
  Na  Na0  1  0.99907290  0.65069762  0.24705541  1
  Na  Na1  1  0.65162472  0.65069762  0.74705541  1
  Na  Na2  1  0.30530914  0.34285001  0.58520187  1
  Na  Na3  1  0.66474098  0.95137076  0.58108375  1
  Na  Na4  1  0.28663077  0.95137076  0.08108375  1
  Na  Na5  1  0.03754187  0.34285001  0.08520187  1
  Na  Na6  1  0.99156245  0.97763172  0.49010339  1
  Na  Na7  1  0.98606927  0.97763172  0.99010339  1
  Na  Na8  1  0.65086691  0.30290942  0.82584919  1
  Na  Na9  1  0.65204351  0.30290942  0.32584919  1
  Na  Na10  1  0.34927527  0.66444865  0.16920652  1
  Na  Na11  1  0.31517238  0.66444865  0.66920652  1
  Ca  Ca12  1  0.00226696  0.01066978  0.35123330  1
  Ca  Ca13  1  0.00840282  0.01066978  0.85123330  1
  Ca  Ca14  1  0.99924376  0.99758691  0.65480333  1
  Ca  Ca15  1  0.99834316  0.99758691  0.15480333  1
  Ca  Ca16  1  0.66576632  0.32942931  0.68750213  1
  Ca  Ca17  1  0.66366398  0.32942931  0.18750213  1
  Ca  Ca18  1  0.33659191  0.66723979  0.01408833  1
  Ca  Ca19  1  0.33064687  0.66723979  0.51408833  1
  Nb  Nb20  1  0.67697175  0.34624166  0.97303771  1
  Nb  Nb21  1  0.66927092  0.34624166  0.47303771  1
  Nb  Nb22  1  0.32975107  0.66660138  0.32123650  1
  Nb  Nb23  1  0.33684931  0.66660138  0.82123650  1
  P  P24  1  0.30218850  0.98862230  0.25175105  1
  P  P25  1  0.00933328  0.31408353  0.25038084  1
  P  P26  1  0.30475025  0.31408353  0.75038084  1
  P  P27  1  0.68643379  0.98862230  0.75175105  1
  P  P28  1  0.67082849  0.62766498  0.58207438  1
  P  P29  1  0.95683750  0.62766498  0.08207438  1
  P  P30  1  0.63106345  0.66424582  0.91779080  1
  P  P31  1  0.03592179  0.37443769  0.92053917  1
  P  P32  1  0.34232658  0.96870078  0.92178759  1
  P  P33  1  0.62637320  0.96870078  0.42178759  1
  P  P34  1  0.33851490  0.37443769  0.42053917  1
  P  P35  1  0.03318137  0.66424582  0.41779080  1
  S  S36  1  0.68847003  0.70000254  0.25366996  1
  S  S37  1  0.01153251  0.70000254  0.75366996  1
  S  S38  1  0.95396887  0.32991043  0.57979685  1
  S  S39  1  0.37913905  0.04921264  0.57903869  1
  S  S40  1  0.67007459  0.04921264  0.07903869  1
  S  S41  1  0.37594256  0.32991043  0.07979685  1
  O  O42  1  0.20053762  0.00015548  0.30068933  1
  O  O43  1  0.79713510  0.78301240  0.30293687  1
  O  O44  1  0.98059463  0.19512432  0.29881060  1
  O  O45  1  0.21452969  0.19512432  0.79881060  1
  O  O46  1  0.98587730  0.78301240  0.80293687  1
  O  O47  1  0.79961785  0.00015548  0.80068933  1
  O  O48  1  0.73827602  0.94084839  0.69368778  1
  O  O49  1  0.21678603  0.25718919  0.69099124  1
  O  O50  1  0.04267418  0.79592347  0.69951467  1
  O  O51  1  0.75324928  0.79592347  0.19951467  1
  O  O52  1  0.04040316  0.25718919  0.19099124  1
  O  O53  1  0.20257237  0.94084839  0.19368778  1
  O  O54  1  0.87460118  0.34233815  0.63273410  1
  O  O55  1  0.47489335  0.12750491  0.63155882  1
  O  O56  1  0.65877158  0.53186773  0.63673310  1
  O  O57  1  0.87309715  0.53186773  0.13673310  1
  O  O58  1  0.65261256  0.12750491  0.13155882  1
  O  O59  1  0.46773797  0.34233815  0.13273410  1
  O  O60  1  0.47217530  0.32170005  0.02774293  1
  O  O61  1  0.83818853  0.51325518  0.02778309  1
  O  O62  1  0.67915360  0.15466982  0.02725044  1
  O  O63  1  0.47551722  0.15466982  0.52725044  1
  O  O64  1  0.67506765  0.51325518  0.52778309  1
  O  O65  1  0.84952576  0.32170005  0.52774293  1
  O  O66  1  0.55232970  0.68238973  0.97197122  1
  O  O67  1  0.11875930  0.44360108  0.97803372  1
  O  O68  1  0.32473365  0.88267884  0.97893457  1
  O  O69  1  0.55794420  0.88267884  0.47893457  1
  O  O70  1  0.32484079  0.44360108  0.47803372  1
  O  O71  1  0.13005903  0.68238973  0.47197122  1
  O  O72  1  0.12609546  0.63631680  0.36376364  1
  O  O73  1  0.49746002  0.86215248  0.37066403  1
  O  O74  1  0.36046724  0.49958395  0.36995965  1
  O  O75  1  0.13911571  0.49958395  0.86995965  1
  O  O76  1  0.36469146  0.86215248  0.87066403  1
  O  O77  1  0.51022034  0.63631680  0.86376364  1
  O  O78  1  0.99355760  0.80106401  0.40835145  1
  O  O79  1  0.80046143  0.99935668  0.41054521  1
  O  O80  1  0.19962153  0.19783985  0.41079490  1
  O  O81  1  -0.00178168  0.19783985  0.91079490  1
  O  O82  1  0.19889524  0.99935668  0.91054521  1
  O  O83  1  0.80750641  0.80106401  0.90835145  1
  O  O84  1  0.96093517  0.17059176  0.57883121  1
  O  O85  1  0.21502188  0.04498084  0.57923598  1
  O  O86  1  0.82642778  0.80239539  0.57738759  1
  O  O87  1  0.97596762  0.80239539  0.07738759  1
  O  O88  1  0.82995895  0.04498084  0.07923598  1
  O  O89  1  0.20965658  0.17059176  0.07883121  1
  O  O90  1  0.65652625  0.13625239  0.74902900  1
  O  O91  1  0.49207313  0.36389751  0.74960025  1
  O  O92  1  0.86284939  0.53085476  0.74807019  1
  O  O93  1  0.66800637  0.53085476  0.24807019  1
  O  O94  1  0.87182538  0.36389751  0.24960025  1
  O  O95  1  0.47972714  0.13625239  0.24902900  1
  O  O96  1  0.63301427  0.48876790  0.92291257  1
  O  O97  1  0.85584610  0.36971728  0.92183758  1
  O  O98  1  0.51483792  0.14659455  0.92426851  1
  O  O99  1  0.63175763  0.14659455  0.42426851  1
  O  O100  1  0.51387218  0.36971728  0.42183758  1
  O  O101  1  0.85575464  0.48876790  0.42291257  1
  O  O102  1  0.34668462  0.47343647  0.07726669  1
  O  O103  1  0.13068526  0.63921742  0.07842489  1
  O  O104  1  0.52158064  0.88036025  0.07557784  1
  O  O105  1  0.35877861  0.88036025  0.57557784  1
  O  O106  1  0.50853117  0.63921742  0.57842489  1
  O  O107  1  0.12675085  0.47343647  0.57726669  1
  O  O108  1  0.31735976  0.82211350  0.26565766  1
  O  O109  1  0.51595782  0.68135420  0.26273270  1
  O  O110  1  0.17934316  0.49240152  0.26515118  1
  O  O111  1  0.31305736  0.49240152  0.76515118  1
  O  O112  1  0.16539538  0.68135420  0.76273270  1
  O  O113  1  0.50475274  0.82211350  0.76565766  1
