# generated using pymatgen
data_MgMn5FeO12
_symmetry_space_group_name_H-M   'P 1'
_cell_length_a   5.10992706
_cell_length_b   5.08434524
_cell_length_c   10.09166749
_cell_angle_alpha   87.15437850
_cell_angle_beta   81.70986133
_cell_angle_gamma   60.72239377
_symmetry_Int_Tables_number   1
_chemical_formula_structural   MgMn5FeO12
_chemical_formula_sum   'Mg1 Mn5 Fe1 O12'
_cell_volume   226.24027297
_cell_formula_units_Z   1
loop_
 _symmetry_equiv_pos_site_id
 _symmetry_equiv_pos_as_xyz
  1  'x, y, z'
loop_
 _atom_site_type_symbol
 _atom_site_label
 _atom_site_symmetry_multiplicity
 _atom_site_fract_x
 _atom_site_fract_y
 _atom_site_fract_z
 _atom_site_occupancy
  Mg  Mg0  1  0.58761638  0.02017977  0.24523277  1
  Mn  Mn1  1  0.18395045  0.66328619  0.49715716  1
  Mn  Mn2  1  0.65265915  0.66652307  0.00065850  1
  Mn  Mn3  1  0.31784471  0.33623279  0.00050280  1
  Mn  Mn4  1  0.84602493  0.32972318  0.49628433  1
  Mn  Mn5  1  0.51168351  0.99852552  0.51616504  1
  Fe  Fe6  1  0.99260559  0.99946683  0.98109960  1
  O  O7  1  0.93943667  0.68373972  0.10307359  1
  O  O8  1  0.36705160  0.64544902  0.90320056  1
  O  O9  1  0.23109321  0.30372443  0.39966321  1
  O  O10  1  0.54846372  0.67477346  0.39972094  1
  O  O11  1  0.51699366  0.31394637  0.60386566  1
  O  O12  1  0.13813205  0.00893838  0.59586561  1
  O  O13  1  0.82374398  0.65964834  0.59532222  1
  O  O14  1  0.61533758  0.33200028  0.10260847  1
  O  O15  1  0.31363792  0.00563451  0.10629315  1
  O  O16  1  0.01527729  0.34874249  0.90345185  1
  O  O17  1  0.65769583  0.99683493  0.90010049  1
  O  O18  1  0.83325176  0.02013073  0.39223404  1
