# generated using pymatgen
data_NaTa2Al2P5SO24
_symmetry_space_group_name_H-M   'P 1'
_cell_length_a   8.56317688
_cell_length_b   8.54541182
_cell_length_c   22.11520621
_cell_angle_alpha   89.98492512
_cell_angle_beta   90.19044470
_cell_angle_gamma   119.93872699
_symmetry_Int_Tables_number   1
_chemical_formula_structural   NaTa2Al2P5SO24
_chemical_formula_sum   'Na3 Ta6 Al6 P15 S3 O72'
_cell_volume   1402.34344455
_cell_formula_units_Z   3
loop_
 _symmetry_equiv_pos_site_id
 _symmetry_equiv_pos_as_xyz
  1  'x, y, z'
loop_
 _atom_site_type_symbol
 _atom_site_label
 _atom_site_symmetry_multiplicity
 _atom_site_fract_x
 _atom_site_fract_y
 _atom_site_fract_z
 _atom_site_occupancy
  Na  Na0  1  0.99997189  0.99943959  0.00527989  1
  Na  Na1  1  0.66645268  0.33317682  0.83240336  1
  Na  Na2  1  0.66712815  0.33040410  0.33977682  1
  Ta  Ta3  1  0.00458188  0.00680256  0.36052058  1
  Ta  Ta4  1  0.99917070  -0.00000954  0.85305515  1
  Ta  Ta5  1  0.66630034  0.32823589  0.18936451  1
  Ta  Ta6  1  0.33188459  0.66648327  0.02748114  1
  Ta  Ta7  1  0.33862537  0.66773909  0.52547355  1
  Ta  Ta8  1  0.33409955  0.66614808  0.80675280  1
  Al  Al9  1  0.99326935  0.99294008  0.64416574  1
  Al  Al10  1  0.01055864  0.00784788  0.14612578  1
  Al  Al11  1  0.66398834  0.33772122  0.68684351  1
  Al  Al12  1  0.66740135  0.33402940  0.98075943  1
  Al  Al13  1  0.67002365  0.34251079  0.47935184  1
  Al  Al14  1  0.32391862  0.66630307  0.31329188  1
  P  P15  1  0.27776924  0.98709983  0.24917687  1
  P  P16  1  0.01427301  0.29180666  0.24896452  1
  P  P17  1  0.28821105  0.27839993  0.74385541  1
  P  P18  1  0.99049891  0.70903593  0.74462185  1
  P  P19  1  0.71838603  0.01160774  0.74419641  1
  P  P20  1  0.68078912  0.61811712  0.58485655  1
  P  P21  1  0.94333328  0.62567431  0.08216070  1
  P  P22  1  0.68235660  0.05459387  0.08137339  1
  P  P23  1  0.37712766  0.32030056  0.08134527  1
  P  P24  1  0.61921089  0.65761498  0.91829167  1
  P  P25  1  0.03792853  0.38114814  0.91776065  1
  P  P26  1  0.34301017  0.96226879  0.91781300  1
  P  P27  1  0.60984215  0.95750768  0.41536832  1
  P  P28  1  0.34918332  0.39375635  0.41529768  1
  P  P29  1  0.04262643  0.65380052  0.41627769  1
  S  S30  1  0.70914159  0.71934085  0.24925901  1
  S  S31  1  0.94308349  0.32376908  0.58454958  1
  S  S32  1  0.38089055  0.05818086  0.58449165  1
  O  O33  1  0.19591363  0.02876787  0.30571272  1
  O  O34  1  0.82482224  0.79404900  0.30400133  1
  O  O35  1  0.96796038  0.16743356  0.30563822  1
  O  O36  1  0.20186909  0.16600386  0.80373008  1
  O  O37  1  0.96226638  0.79512012  0.80424991  1
  O  O38  1  0.83187682  0.03920702  0.80413412  1
  O  O39  1  0.80342710  0.97280330  0.69154379  1
  O  O40  1  0.16530940  0.19236579  0.69070428  1
  O  O41  1  0.03052046  0.83307123  0.69185922  1
  O  O42  1  0.79335864  0.82431896  0.19504471  1
  O  O43  1  0.03044831  0.19854489  0.19311253  1
  O  O44  1  0.16628182  0.96535991  0.19317640  1
  O  O45  1  0.86606538  0.36050332  0.63826718  1
  O  O46  1  0.49639033  0.13237393  0.63829483  1
  O  O47  1  0.63689769  0.49713773  0.64022610  1
  O  O48  1  0.86349858  0.50551339  0.13932882  1
  O  O49  1  0.64111415  0.13385041  0.13895700  1
  O  O50  1  0.49511465  0.35925953  0.13904502  1
  O  O51  1  0.46559681  0.29511857  0.02606024  1
  O  O52  1  0.83064792  0.53687660  0.02638879  1
  O  O53  1  0.70741810  0.16959341  0.02635784  1
  O  O54  1  0.46357299  0.16338726  0.52947050  1
  O  O55  1  0.70255868  0.53023852  0.52770282  1
  O  O56  1  0.83504264  0.29649411  0.52954561  1
  O  O57  1  0.53413436  0.69531190  0.97359721  1
  O  O58  1  0.16050847  0.46563531  0.97347927  1
  O  O59  1  0.30521378  0.83970166  0.97340458  1
  O  O60  1  0.53024961  0.83859751  0.47304541  1
  O  O61  1  0.30805881  0.47119372  0.47282247  1
  O  O62  1  0.16181472  0.69377510  0.47350421  1
  O  O63  1  0.12774083  0.62607889  0.36031092  1
  O  O64  1  0.49594793  0.86861439  0.35971839  1
  O  O65  1  0.37400872  0.50630592  0.35952034  1
  O  O66  1  0.12927356  0.49502103  0.86067593  1
  O  O67  1  0.36558307  0.87054355  0.86072616  1
  O  O68  1  0.50508971  0.63430356  0.86081314  1
  O  O69  1  0.02281105  0.82485752  0.40719714  1
  O  O70  1  0.79845845  0.97241936  0.40707514  1
  O  O71  1  0.17477518  0.20290692  0.40889808  1
  O  O72  1  0.02323496  0.19250581  0.91028530  1
  O  O73  1  0.16951280  0.97731302  0.91011953  1
  O  O74  1  0.80748410  0.83089022  0.91035815  1
  O  O75  1  0.97032926  0.16885054  0.59229056  1
  O  O76  1  0.20086825  0.03451117  0.59225685  1
  O  O77  1  0.83945971  0.80788662  0.59346391  1
  O  O78  1  0.96890899  0.81283944  0.09217533  1
  O  O79  1  0.84207230  0.02739637  0.09230289  1
  O  O80  1  0.18934641  0.15922580  0.09010168  1
  O  O81  1  0.69347430  0.17468534  0.73848667  1
  O  O82  1  0.47552568  0.30169417  0.74014597  1
  O  O83  1  0.82805170  0.52074438  0.74014863  1
  O  O84  1  0.69132347  0.53312984  0.24389265  1
  O  O85  1  0.83980497  0.31153441  0.24304517  1
  O  O86  1  0.47004944  0.16382272  0.24313508  1
  O  O87  1  0.63951834  0.49322226  0.92503102  1
  O  O88  1  0.85362611  0.36063696  0.92481709  1
  O  O89  1  0.50711900  0.14653165  0.92500800  1
  O  O90  1  0.63731536  0.14534863  0.42704333  1
  O  O91  1  0.50734319  0.36248710  0.42529290  1
  O  O92  1  0.85540560  0.49105658  0.42560043  1
  O  O93  1  0.36033696  0.49359785  0.07480950  1
  O  O94  1  0.13292098  0.64158414  0.07499894  1
  O  O95  1  0.50785576  0.86633835  0.07483667  1
  O  O96  1  0.36007360  0.87133162  0.57692813  1
  O  O97  1  0.50699096  0.63924150  0.57485639  1
  O  O98  1  0.12783718  0.49092233  0.57654513  1
  O  O99  1  0.30624459  0.82884905  0.26026632  1
  O  O100  1  0.53051155  0.69645548  0.25801306  1
  O  O101  1  0.17560065  0.47590364  0.26028332  1
  O  O102  1  0.30535247  0.46679933  0.75701348  1
  O  O103  1  0.16170308  0.69289936  0.75781595  1
  O  O104  1  0.53145472  0.83997620  0.75765135  1
