# generated using pymatgen
data_Na2MgTi3P4(SO12)2
_symmetry_space_group_name_H-M   'P 1'
_cell_length_a   8.61070444
_cell_length_b   8.61163724
_cell_length_c   22.39112887
_cell_angle_alpha   89.93105783
_cell_angle_beta   89.95077004
_cell_angle_gamma   119.96563409
_symmetry_Int_Tables_number   1
_chemical_formula_structural   Na2MgTi3P4(SO12)2
_chemical_formula_sum   'Na6 Mg3 Ti9 P12 S6 O72'
_cell_volume   1438.40236692
_cell_formula_units_Z   3
loop_
 _symmetry_equiv_pos_site_id
 _symmetry_equiv_pos_as_xyz
  1  'x, y, z'
loop_
 _atom_site_type_symbol
 _atom_site_label
 _atom_site_symmetry_multiplicity
 _atom_site_fract_x
 _atom_site_fract_y
 _atom_site_fract_z
 _atom_site_occupancy
  Na  Na0  1  0.00009016  0.99774360  0.50333370  1
  Na  Na1  1  0.00234121  0.99908643  0.00122078  1
  Na  Na2  1  0.66596468  0.33124899  0.83248623  1
  Na  Na3  1  0.66717644  0.33272938  0.33530750  1
  Na  Na4  1  0.33183409  0.66538128  0.16789080  1
  Na  Na5  1  0.33609581  0.66705594  0.66551743  1
  Mg  Mg6  1  0.99848406  0.99987272  0.64642895  1
  Mg  Mg7  1  0.00363977  0.00027677  0.14646203  1
  Mg  Mg8  1  0.33254416  0.66654758  0.31656124  1
  Ti  Ti9  1  0.00157047  0.00080143  0.35985070  1
  Ti  Ti10  1  0.00237917  0.01055408  0.85228734  1
  Ti  Ti11  1  0.65039002  0.32401419  0.68495762  1
  Ti  Ti12  1  0.66887548  0.34342789  0.18506500  1
  Ti  Ti13  1  0.66337829  0.34007665  0.97865767  1
  Ti  Ti14  1  0.66053949  0.33697995  0.47937464  1
  Ti  Ti15  1  0.32594226  0.66020522  0.01842758  1
  Ti  Ti16  1  0.34061372  0.67299540  0.51794544  1
  Ti  Ti17  1  0.34104723  0.66866811  0.81320676  1
  P  P18  1  0.28668027  0.28918501  0.74871905  1
  P  P19  1  0.71236809  0.00167990  0.74859426  1
  P  P20  1  0.37382756  0.04202835  0.58190290  1
  P  P21  1  0.66777963  0.62421299  0.58291084  1
  P  P22  1  0.95568294  0.62401077  0.08235498  1
  P  P23  1  0.37582818  0.33287289  0.08264373  1
  P  P24  1  0.62294186  0.67034242  0.91697207  1
  P  P25  1  0.04407939  0.37928335  0.91584937  1
  P  P26  1  0.33247806  0.95412640  0.91653594  1
  P  P27  1  0.62002426  0.95792633  0.41517139  1
  P  P28  1  0.33506722  0.38252089  0.41578484  1
  P  P29  1  0.04493684  0.66242584  0.41600966  1
  S  S30  1  0.28898928  0.99833043  0.24944617  1
  S  S31  1  0.71060358  0.71408247  0.24946035  1
  S  S32  1  0.00122583  0.28938561  0.24925267  1
  S  S33  1  0.00022463  0.71085487  0.74988102  1
  S  S34  1  0.95453451  0.33380812  0.58297838  1
  S  S35  1  0.66662830  0.04548122  0.08296972  1
  O  O36  1  0.20846615  0.03164356  0.30359022  1
  O  O37  1  0.82290725  0.79087805  0.30345253  1
  O  O38  1  0.96851045  0.17630183  0.30357124  1
  O  O39  1  0.20211191  0.17141166  0.80632458  1
  O  O40  1  0.97003982  0.79169827  0.80456395  1
  O  O41  1  0.82924529  0.02877561  0.80619409  1
  O  O42  1  0.78802274  0.96263445  0.69451413  1
  O  O43  1  0.17541224  0.21068941  0.69428749  1
  O  O44  1  0.03372741  0.81862702  0.69679331  1
  O  O45  1  0.79149478  0.81854313  0.19580808  1
  O  O46  1  0.02610634  0.20787255  0.19590590  1
  O  O47  1  0.18200975  0.97273076  0.19626356  1
  O  O48  1  0.87299966  0.36473874  0.63738966  1
  O  O49  1  0.49744438  0.13103428  0.63861739  1
  O  O50  1  0.63605718  0.50001526  0.63871526  1
  O  O51  1  0.86622960  0.50014009  0.13860461  1
  O  O52  1  0.63507329  0.12711722  0.13731813  1
  O  O53  1  0.50004072  0.36417508  0.13840548  1
  O  O54  1  0.47132839  0.30739066  0.02771985  1
  O  O55  1  0.83634762  0.52665052  0.02768164  1
  O  O56  1  0.69422224  0.15608430  0.02924353  1
  O  O57  1  0.47232112  0.16255314  0.52799601  1
  O  O58  1  0.69183596  0.52877978  0.52789407  1
  O  O59  1  0.84439999  0.30706617  0.52933410  1
  O  O60  1  0.53402865  0.69742756  0.97269584  1
  O  O61  1  0.16257649  0.46418253  0.97233518  1
  O  O62  1  0.30346857  0.83588250  0.97269719  1
  O  O63  1  0.53856742  0.83810094  0.47228239  1
  O  O64  1  0.29990539  0.46227390  0.47276484  1
  O  O65  1  0.16294245  0.69953856  0.47274059  1
  O  O66  1  0.11997967  0.63119134  0.36016003  1
  O  O67  1  0.51109148  0.88008280  0.36015762  1
  O  O68  1  0.36947131  0.48929032  0.35990977  1
  O  O69  1  0.13114530  0.49676783  0.86111646  1
  O  O70  1  0.36453363  0.86757865  0.86137850  1
  O  O71  1  0.50394964  0.63408072  0.86147404  1
  O  O72  1  0.02286142  0.83358636  0.40822916  1
  O  O73  1  0.81112784  0.97640639  0.40822816  1
  O  O74  1  0.16614495  0.18896237  0.40856559  1
  O  O75  1  0.02606092  0.19182735  0.90957524  1
  O  O76  1  0.16521045  0.97324784  0.90885305  1
  O  O77  1  0.81019467  0.83364835  0.90877194  1
  O  O78  1  0.97331968  0.17524954  0.58883420  1
  O  O79  1  0.19348400  0.02645871  0.58923622  1
  O  O80  1  0.83176608  0.80608261  0.58878809  1
  O  O81  1  0.97192448  0.80512401  0.08922401  1
  O  O82  1  0.82503569  0.02653414  0.08981820  1
  O  O83  1  0.19362983  0.16932370  0.08924338  1
  O  O84  1  0.69164494  0.17035832  0.74375046  1
  O  O85  1  0.47853235  0.31164359  0.74399996  1
  O  O86  1  0.83971718  0.52929793  0.74440813  1
  O  O87  1  0.69398566  0.52888358  0.24298967  1
  O  O88  1  0.83392166  0.30509305  0.24276087  1
  O  O89  1  0.47207759  0.16460948  0.24262899  1
  O  O90  1  0.64054057  0.50008388  0.92446549  1
  O  O91  1  0.85728309  0.35699322  0.92547211  1
  O  O92  1  0.50080755  0.14053236  0.92555302  1
  O  O93  1  0.64966572  0.14638861  0.42708889  1
  O  O94  1  0.49631445  0.35189476  0.42595077  1
  O  O95  1  0.85510784  0.50202977  0.42701033  1
  O  O96  1  0.36630406  0.50665003  0.07545547  1
  O  O97  1  0.14105833  0.63657148  0.07540950  1
  O  O98  1  0.50306079  0.86652523  0.07689596  1
  O  O99  1  0.36301837  0.85750624  0.57556004  1
  O  O100  1  0.49336100  0.63387755  0.57542635  1
  O  O101  1  0.13387474  0.49771384  0.57678937  1
  O  O102  1  0.31253359  0.84231158  0.25634347  1
  O  O103  1  0.52984575  0.68707292  0.25612811  1
  O  O104  1  0.15697235  0.46914794  0.25607924  1
  O  O105  1  0.31184133  0.47835355  0.76061854  1
  O  O106  1  0.16090389  0.68977356  0.75871053  1
  O  O107  1  0.52204599  0.83606356  0.76081752  1
