# generated using pymatgen
data_YMgMo(WO4)2
_symmetry_space_group_name_H-M   'P 1'
_cell_length_a   5.29412219
_cell_length_b   6.79210859
_cell_length_c   6.92523140
_cell_angle_alpha   120.97217665
_cell_angle_beta   113.45588703
_cell_angle_gamma   93.80407456
_symmetry_Int_Tables_number   1
_chemical_formula_structural   YMgMo(WO4)2
_chemical_formula_sum   'Y1 Mg1 Mo1 W2 O8'
_cell_volume   183.86057097
_cell_formula_units_Z   1
loop_
 _symmetry_equiv_pos_site_id
 _symmetry_equiv_pos_as_xyz
  1  'x, y, z'
loop_
 _atom_site_type_symbol
 _atom_site_label
 _atom_site_symmetry_multiplicity
 _atom_site_fract_x
 _atom_site_fract_y
 _atom_site_fract_z
 _atom_site_occupancy
  Y  Y0  1  0.60684500  0.62442600  0.16263900  1
  Mg  Mg1  1  0.53854900  0.02222400  0.06702600  1
  Mo  Mo2  1  0.10609400  0.24599600  0.10227300  1
  W  W3  1  0.91029900  0.39406500  0.62930000  1
  W  W4  1  0.35652700  0.08449000  0.57646600  1
  O  O5  1  0.24826500  0.69796100  0.87664300  1
  O  O6  1  0.59220400  0.40262600  0.31877700  1
  O  O7  1  0.19866600  0.26621800  0.82790700  1
  O  O8  1  0.59355100  0.01871100  0.38800400  1
  O  O9  1  0.64184300  0.04928800  0.83894600  1
  O  O10  1  0.09557900  0.76429700  0.35086100  1
  O  O11  1  0.04354800  0.18750500  0.36430400  1
  O  O12  1  0.65152900  0.43110500  0.79479800  1
