# generated using pymatgen
data_Ta2Zn4(SO4)9
_symmetry_space_group_name_H-M   'P 1'
_cell_length_a   8.72027910
_cell_length_b   8.72027882
_cell_length_c   22.53123844
_cell_angle_alpha   90.00000000
_cell_angle_beta   90.00000000
_cell_angle_gamma   120.00000105
_symmetry_Int_Tables_number   1
_chemical_formula_structural   Ta2Zn4(SO4)9
_chemical_formula_sum   'Ta4 Zn8 S18 O72'
_cell_volume   1483.80369143
_cell_formula_units_Z   2
loop_
 _symmetry_equiv_pos_site_id
 _symmetry_equiv_pos_as_xyz
  1  'x, y, z'
loop_
 _atom_site_type_symbol
 _atom_site_label
 _atom_site_symmetry_multiplicity
 _atom_site_fract_x
 _atom_site_fract_y
 _atom_site_fract_z
 _atom_site_occupancy
  Ta  Ta0  1  0.66666700  0.33333300  0.98108107  1
  Ta  Ta1  1  0.66666700  0.33333300  0.48108107  1
  Ta  Ta2  1  0.33333300  0.66666700  0.30942681  1
  Ta  Ta3  1  0.33333300  0.66666700  0.80942681  1
  Zn  Zn4  1  0.00000000  -0.00000000  0.35161278  1
  Zn  Zn5  1  0.00000000  -0.00000000  0.85161278  1
  Zn  Zn6  1  0.00000000  0.00000000  0.64462915  1
  Zn  Zn7  1  0.00000000  0.00000000  0.14462915  1
  Zn  Zn8  1  0.66666700  0.33333300  0.68684128  1
  Zn  Zn9  1  0.66666700  0.33333300  0.18684128  1
  Zn  Zn10  1  0.33333300  0.66666700  0.02236231  1
  Zn  Zn11  1  0.33333300  0.66666700  0.52236231  1
  S  S12  1  0.29129300  0.00607423  0.25018058  1
  S  S13  1  0.71478123  0.70870700  0.25018058  1
  S  S14  1  0.99392577  0.28521877  0.25018058  1
  S  S15  1  0.29129300  0.28521877  0.75018058  1
  S  S16  1  0.99392577  0.70870700  0.75018058  1
  S  S17  1  0.71478123  0.00607423  0.75018058  1
  S  S18  1  0.95971011  0.33408101  0.58517856  1
  S  S19  1  0.37437191  0.04028989  0.58517856  1
  S  S20  1  0.66591899  0.62562809  0.58517856  1
  S  S21  1  0.95971011  0.62562809  0.08517856  1
  S  S22  1  0.66591899  0.04028989  0.08517856  1
  S  S23  1  0.37437191  0.33408101  0.08517856  1
  S  S24  1  0.62408344  0.66977421  0.91761612  1
  S  S25  1  0.04568978  0.37591656  0.91761612  1
  S  S26  1  0.33022579  0.95431022  0.91761612  1
  S  S27  1  0.62408344  0.95431022  0.41761612  1
  S  S28  1  0.33022579  0.37591656  0.41761612  1
  S  S29  1  0.04568978  0.66977421  0.41761612  1
  O  O30  1  0.21378180  0.02954272  0.30426290  1
  O  O31  1  0.81576092  0.78621820  0.30426290  1
  O  O32  1  0.97045728  0.18423908  0.30426290  1
  O  O33  1  0.21378180  0.18423908  0.80426290  1
  O  O34  1  0.97045728  0.78621820  0.80426290  1
  O  O35  1  0.81576092  0.02954272  0.80426290  1
  O  O36  1  0.77945185  0.95915742  0.69750467  1
  O  O37  1  0.17970557  0.22054815  0.69750467  1
  O  O38  1  0.04084258  0.82029443  0.69750467  1
  O  O39  1  0.77945185  0.82029443  0.19750467  1
  O  O40  1  0.04084258  0.22054815  0.19750467  1
  O  O41  1  0.17970557  0.95915742  0.19750467  1
  O  O42  1  0.87692313  0.36436425  0.63644883  1
  O  O43  1  0.48744212  0.12307687  0.63644883  1
  O  O44  1  0.63563575  0.51255788  0.63644883  1
  O  O45  1  0.87692313  0.51255788  0.13644883  1
  O  O46  1  0.63563575  0.12307687  0.13644883  1
  O  O47  1  0.48744212  0.36436425  0.13644883  1
  O  O48  1  0.47234942  0.30935427  0.02916130  1
  O  O49  1  0.83700585  0.52765058  0.02916130  1
  O  O50  1  0.69064573  0.16299415  0.02916130  1
  O  O51  1  0.47234942  0.16299415  0.52916130  1
  O  O52  1  0.69064573  0.52765058  0.52916130  1
  O  O53  1  0.83700585  0.30935427  0.52916130  1
  O  O54  1  0.54290597  0.69503002  0.96990583  1
  O  O55  1  0.15212305  0.45709403  0.96990583  1
  O  O56  1  0.30496998  0.84787695  0.96990583  1
  O  O57  1  0.54290597  0.84787695  0.46990583  1
  O  O58  1  0.30496998  0.45709403  0.46990583  1
  O  O59  1  0.15212305  0.69503002  0.46990583  1
  O  O60  1  0.12943376  0.63517578  0.36367768  1
  O  O61  1  0.50574102  0.87056624  0.36367768  1
  O  O62  1  0.36482422  0.49425898  0.36367768  1
  O  O63  1  0.12943376  0.49425898  0.86367768  1
  O  O64  1  0.36482422  0.87056624  0.86367768  1
  O  O65  1  0.50574102  0.63517578  0.86367768  1
  O  O66  1  0.01916791  0.81789518  0.40677654  1
  O  O67  1  0.79872727  0.98083209  0.40677654  1
  O  O68  1  0.18210482  0.20127273  0.40677654  1
  O  O69  1  0.01916791  0.20127273  0.90677654  1
  O  O70  1  0.18210482  0.98083209  0.90677654  1
  O  O71  1  0.79872727  0.81789518  0.90677654  1
  O  O72  1  0.96658485  0.17107473  0.58743864  1
  O  O73  1  0.20448988  0.03341515  0.58743864  1
  O  O74  1  0.82892527  0.79551012  0.58743864  1
  O  O75  1  0.96658485  0.79551012  0.08743864  1
  O  O76  1  0.82892527  0.03341515  0.08743864  1
  O  O77  1  0.20448988  0.17107473  0.08743864  1
  O  O78  1  0.68108437  0.15208050  0.74278993  1
  O  O79  1  0.47099713  0.31891563  0.74278993  1
  O  O80  1  0.84791950  0.52900287  0.74278993  1
  O  O81  1  0.68108437  0.52900287  0.24278993  1
  O  O82  1  0.84791950  0.31891563  0.24278993  1
  O  O83  1  0.47099713  0.15208050  0.24278993  1
  O  O84  1  0.63610229  0.50243867  0.92495750  1
  O  O85  1  0.86633738  0.36389771  0.92495750  1
  O  O86  1  0.49756133  0.13366262  0.92495750  1
  O  O87  1  0.63610229  0.13366262  0.42495750  1
  O  O88  1  0.49756133  0.36389771  0.42495750  1
  O  O89  1  0.86633738  0.50243867  0.42495750  1
  O  O90  1  0.36103197  0.49038395  0.07317237  1
  O  O91  1  0.12935099  0.63896803  0.07317237  1
  O  O92  1  0.50961605  0.87064901  0.07317237  1
  O  O93  1  0.36103197  0.87064901  0.57317237  1
  O  O94  1  0.50961605  0.63896803  0.57317237  1
  O  O95  1  0.12935099  0.49038395  0.57317237  1
  O  O96  1  0.30986134  0.83721520  0.26227742  1
  O  O97  1  0.52735286  0.69013866  0.26227742  1
  O  O98  1  0.16278480  0.47264714  0.26227742  1
  O  O99  1  0.30986134  0.47264714  0.76227742  1
  O  O100  1  0.16278480  0.69013866  0.76227742  1
  O  O101  1  0.52735286  0.83721520  0.76227742  1
