# generated using pymatgen
data_Na3LaNb3Si3(PO8)3
_symmetry_space_group_name_H-M   'P 1'
_cell_length_a   9.06381243
_cell_length_b   9.06193571
_cell_length_c   22.98968417
_cell_angle_alpha   90.01317691
_cell_angle_beta   89.97244932
_cell_angle_gamma   119.74537601
_symmetry_Int_Tables_number   1
_chemical_formula_structural   Na3LaNb3Si3(PO8)3
_chemical_formula_sum   'Na9 La3 Nb9 Si9 P9 O72'
_cell_volume   1639.47221133
_cell_formula_units_Z   3
loop_
 _symmetry_equiv_pos_site_id
 _symmetry_equiv_pos_as_xyz
  1  'x, y, z'
loop_
 _atom_site_type_symbol
 _atom_site_label
 _atom_site_symmetry_multiplicity
 _atom_site_fract_x
 _atom_site_fract_y
 _atom_site_fract_z
 _atom_site_occupancy
  Na  Na0  1  0.64639263  0.00712226  0.24625762  1
  Na  Na1  1  0.36191863  0.35236578  0.24474805  1
  Na  Na2  1  0.70712301  0.67653034  0.41587241  1
  Na  Na3  1  0.01231375  0.01309657  0.49918322  1
  Na  Na4  1  0.99957016  0.00040332  0.00112504  1
  Na  Na5  1  0.66833479  0.33296915  0.83246857  1
  Na  Na6  1  0.68349474  0.34658707  0.33144308  1
  Na  Na7  1  0.32032254  0.65972583  0.16322731  1
  Na  Na8  1  0.34023113  0.66481530  0.66610877  1
  La  La9  1  0.01070113  0.00421582  0.35875698  1
  La  La10  1  0.66431770  0.33526182  0.68860464  1
  La  La11  1  0.67240637  0.34994605  0.16867182  1
  Nb  Nb12  1  0.00101881  0.00180874  0.85929768  1
  Nb  Nb13  1  0.99728431  0.99689923  0.64486540  1
  Nb  Nb14  1  0.99690524  0.99491226  0.14498013  1
  Nb  Nb15  1  0.65978335  0.33150648  0.97910852  1
  Nb  Nb16  1  0.66892779  0.33395089  0.48026656  1
  Nb  Nb17  1  0.33569515  0.66452433  0.01344882  1
  Nb  Nb18  1  0.33481947  0.66848095  0.52093909  1
  Nb  Nb19  1  0.33279920  0.66800551  0.31594978  1
  Nb  Nb20  1  0.33294047  0.66605223  0.81356730  1
  Si  Si21  1  0.69672113  0.70108511  0.25300201  1
  Si  Si22  1  0.66532730  0.63166692  0.58334189  1
  Si  Si23  1  0.35665333  0.33271556  0.08291015  1
  Si  Si24  1  0.62247902  0.66304816  0.91426494  1
  Si  Si25  1  0.03971859  0.38017792  0.91485553  1
  Si  Si26  1  0.33828737  0.95817102  0.91478494  1
  Si  Si27  1  0.61002683  0.96194375  0.41946242  1
  Si  Si28  1  0.34600497  0.38524519  0.42051208  1
  Si  Si29  1  0.03780933  0.64833872  0.42071379  1
  P  P30  1  0.29261254  0.98773414  0.24551125  1
  P  P31  1  0.00741032  0.29996568  0.24715163  1
  P  P32  1  0.27114310  0.28784294  0.75323824  1
  P  P33  1  0.01819469  0.72944785  0.75334301  1
  P  P34  1  0.71162983  0.98309674  0.75347342  1
  P  P35  1  0.96475511  0.33131357  0.58296423  1
  P  P36  1  0.36686979  0.03656853  0.58289745  1
  P  P37  1  0.97647220  0.64146905  0.07868430  1
  P  P38  1  0.66571682  0.02742008  0.08152087  1
  O  O39  1  0.23033633  0.03421570  0.29977799  1
  O  O40  1  0.78773726  0.77731588  0.31381101  1
  O  O41  1  0.98112074  0.19901307  0.30233327  1
  O  O42  1  0.16807172  0.18292730  0.80697765  1
  O  O43  1  0.01404707  0.83141883  0.80680511  1
  O  O44  1  0.81748692  0.98676773  0.80703545  1
  O  O45  1  0.80794264  0.97631361  0.69701845  1
  O  O46  1  0.16994695  0.19511298  0.69709199  1
  O  O47  1  0.02682847  0.83316109  0.69689380  1
  O  O48  1  0.81399729  0.83273365  0.19662394  1
  O  O49  1  0.02617660  0.19636359  0.19366804  1
  O  O50  1  0.17520230  0.97656839  0.19220452  1
  O  O51  1  0.90232864  0.36920744  0.63858407  1
  O  O52  1  0.46783138  0.09410042  0.63850907  1
  O  O53  1  0.62364350  0.52435355  0.64159882  1
  O  O54  1  0.93566624  0.55289787  0.13743362  1
  O  O55  1  0.63011405  0.07726128  0.14109994  1
  O  O56  1  0.44276228  0.37532455  0.14609760  1
  O  O57  1  0.48039219  0.31203360  0.03260860  1
  O  O58  1  0.84356689  0.53501632  0.03094717  1
  O  O59  1  0.69267375  0.16090005  0.03337869  1
  O  O60  1  0.46428222  0.15980116  0.53109624  1
  O  O61  1  0.69568524  0.53104150  0.52725575  1
  O  O62  1  0.83983655  0.30190832  0.53098152  1
  O  O63  1  0.52960709  0.69368579  0.96944357  1
  O  O64  1  0.16695105  0.47517368  0.96896187  1
  O  O65  1  0.30988774  0.83630623  0.96941481  1
  O  O66  1  0.49607727  0.84577020  0.47312027  1
  O  O67  1  0.35017334  0.50333164  0.47386037  1
  O  O68  1  0.15026679  0.65434904  0.47547209  1
  O  O69  1  0.13910828  0.64049445  0.36010391  1
  O  O70  1  0.49952393  0.86574530  0.35765977  1
  O  O71  1  0.36144143  0.49764976  0.35868260  1
  O  O72  1  0.13594785  0.50357220  0.85777828  1
  O  O73  1  0.36675500  0.86371909  0.85764644  1
  O  O74  1  0.49782275  0.63307649  0.85773633  1
  O  O75  1  0.00013932  0.80245948  0.42415962  1
  O  O76  1  0.78677255  0.96425213  0.42228143  1
  O  O77  1  0.18437305  0.20273920  0.42604354  1
  O  O78  1  0.01587469  0.18874513  0.90786048  1
  O  O79  1  0.17360714  0.98636415  0.90749240  1
  O  O80  1  0.81351170  0.82807606  0.90764934  1
  O  O81  1  0.97541391  0.16309700  0.59011134  1
  O  O82  1  0.19051206  0.03102460  0.59052112  1
  O  O83  1  0.84468661  0.81994893  0.59309863  1
  O  O84  1  0.97787780  0.81526818  0.08531388  1
  O  O85  1  0.83272397  0.01507335  0.08624953  1
  O  O86  1  0.17138321  0.15406742  0.08765088  1
  O  O87  1  0.69458992  0.14098926  0.75553260  1
  O  O88  1  0.44551588  0.30304055  0.75674504  1
  O  O89  1  0.86070670  0.55500232  0.75517165  1
  O  O90  1  0.65439713  0.50622309  0.24662188  1
  O  O91  1  0.85100608  0.31973640  0.23945045  1
  O  O92  1  0.47636988  0.13108211  0.23627139  1
  O  O93  1  0.63975912  0.49292697  0.92639442  1
  O  O94  1  0.85254679  0.35976990  0.92749094  1
  O  O95  1  0.50720457  0.14617230  0.92685041  1
  O  O96  1  0.62187341  0.14656821  0.42507423  1
  O  O97  1  0.52745064  0.38357240  0.42353785  1
  O  O98  1  0.85254967  0.47064197  0.42471182  1
  O  O99  1  0.32998948  0.49414948  0.06679452  1
  O  O100  1  0.15710692  0.67797954  0.06409242  1
  O  O101  1  0.51523418  0.85023945  0.06690848  1
  O  O102  1  0.32369595  0.85114252  0.57132162  1
  O  O103  1  0.51344481  0.67719536  0.57301190  1
  O  O104  1  0.14780151  0.47728236  0.57154577  1
  O  O105  1  0.28927283  0.81480765  0.25070347  1
  O  O106  1  0.51231521  0.70459808  0.25298378  1
  O  O107  1  0.17914861  0.47134077  0.24997589  1
  O  O108  1  0.28470835  0.46721119  0.75569299  1
  O  O109  1  0.18416695  0.71703199  0.75499255  1
  O  O110  1  0.53453002  0.81708487  0.75512321  1
