# generated using pymatgen
data_Na4TiSi3GeO12
_symmetry_space_group_name_H-M   'P 1'
_cell_length_a   8.89069617
_cell_length_b   8.89069587
_cell_length_c   21.87686101
_cell_angle_alpha   90.00000000
_cell_angle_beta   90.00000000
_cell_angle_gamma   120.00000107
_symmetry_Int_Tables_number   1
_chemical_formula_structural   Na4TiSi3GeO12
_chemical_formula_sum   'Na24 Ti6 Si18 Ge6 O72'
_cell_volume   1497.57009140
_cell_formula_units_Z   6
loop_
 _symmetry_equiv_pos_site_id
 _symmetry_equiv_pos_as_xyz
  1  'x, y, z'
loop_
 _atom_site_type_symbol
 _atom_site_label
 _atom_site_symmetry_multiplicity
 _atom_site_fract_x
 _atom_site_fract_y
 _atom_site_fract_z
 _atom_site_occupancy
  Na  Na0  1  0.63337563  0.00005156  0.24986382  1
  Na  Na1  1  0.36667593  0.36662437  0.24986382  1
  Na  Na2  1  0.99994844  0.63332407  0.24986382  1
  Na  Na3  1  0.63245723  0.63127403  0.75046260  1
  Na  Na4  1  0.99881680  0.36754277  0.75046260  1
  Na  Na5  1  0.36872597  0.00118320  0.75046260  1
  Na  Na6  1  0.29895156  0.33327819  0.58337817  1
  Na  Na7  1  0.03432763  0.70104844  0.58337817  1
  Na  Na8  1  0.66672181  0.96567237  0.58337817  1
  Na  Na9  1  0.29734446  0.96488662  0.08281222  1
  Na  Na10  1  0.66754315  0.70265554  0.08281222  1
  Na  Na11  1  0.03511338  0.33245685  0.08281222  1
  Na  Na12  1  0.96481835  0.66669790  0.91676615  1
  Na  Na13  1  0.70187854  0.03518165  0.91676615  1
  Na  Na14  1  0.33330210  0.29812146  0.91676615  1
  Na  Na15  1  0.96468373  0.29833590  0.41669681  1
  Na  Na16  1  0.33365117  0.03531627  0.41669681  1
  Na  Na17  1  0.70166410  0.66634883  0.41669681  1
  Na  Na18  1  0.00000000  0.00000000  0.50002816  1
  Na  Na19  1  0.00000000  0.00000000  0.99987527  1
  Na  Na20  1  0.66666700  0.33333300  0.83352756  1
  Na  Na21  1  0.66666700  0.33333300  0.33343493  1
  Na  Na22  1  0.33333300  0.66666700  0.16630920  1
  Na  Na23  1  0.33333300  0.66666700  0.66678805  1
  Ti  Ti24  1  0.00000000  0.00000000  0.35165759  1
  Ti  Ti25  1  0.00000000  0.00000000  0.64916958  1
  Ti  Ti26  1  0.00000000  0.00000000  0.14721983  1
  Ti  Ti27  1  0.66666700  0.33333300  0.68639429  1
  Ti  Ti28  1  0.66666700  0.33333300  0.48055787  1
  Ti  Ti29  1  0.33333300  0.66666700  0.51859913  1
  Si  Si30  1  0.29414134  0.00022331  0.24971580  1
  Si  Si31  1  0.70608197  0.70585866  0.24971580  1
  Si  Si32  1  0.99977669  0.29391803  0.24971580  1
  Si  Si33  1  0.28739611  0.29068892  0.75252235  1
  Si  Si34  1  0.00329281  0.71260389  0.75252235  1
  Si  Si35  1  0.70931108  0.99670719  0.75252235  1
  Si  Si36  1  0.95709075  0.33301117  0.58346579  1
  Si  Si37  1  0.37592142  0.04290925  0.58346579  1
  Si  Si38  1  0.66698883  0.62407858  0.58346579  1
  Si  Si39  1  0.95380447  0.61760481  0.08214506  1
  Si  Si40  1  0.66380134  0.04619553  0.08214506  1
  Si  Si41  1  0.38239519  0.33619866  0.08214506  1
  Si  Si42  1  0.62066739  0.66661291  0.91679366  1
  Si  Si43  1  0.04594451  0.37933261  0.91679366  1
  Si  Si44  1  0.33338709  0.95405549  0.91679366  1
  Si  Si45  1  0.62127510  0.95411812  0.41533513  1
  Si  Si46  1  0.33284202  0.37872490  0.41533513  1
  Si  Si47  1  0.04588188  0.66715798  0.41533513  1
  Ge  Ge48  1  0.00000000  0.00000000  0.85347588  1
  Ge  Ge49  1  0.66666700  0.33333300  0.18472338  1
  Ge  Ge50  1  0.66666700  0.33333300  0.98009381  1
  Ge  Ge51  1  0.33333300  0.66666700  0.01892149  1
  Ge  Ge52  1  0.33333300  0.66666700  0.31410685  1
  Ge  Ge53  1  0.33333300  0.66666700  0.81493135  1
  O  O54  1  0.20525187  0.03846149  0.30897280  1
  O  O55  1  0.83320962  0.79474813  0.30897280  1
  O  O56  1  0.96153851  0.16679038  0.30897280  1
  O  O57  1  0.20080965  0.16126218  0.81155585  1
  O  O58  1  0.96045252  0.79919035  0.81155585  1
  O  O59  1  0.83873782  0.03954748  0.81155585  1
  O  O60  1  0.79590196  0.96020967  0.69191345  1
  O  O61  1  0.16430771  0.20409804  0.69191345  1
  O  O62  1  0.03979033  0.83569229  0.69191345  1
  O  O63  1  0.79581036  0.83391553  0.19075620  1
  O  O64  1  0.03810518  0.20418964  0.19075620  1
  O  O65  1  0.16608447  0.96189482  0.19075620  1
  O  O66  1  0.86749936  0.36950634  0.64292680  1
  O  O67  1  0.50200799  0.13250064  0.64292680  1
  O  O68  1  0.63049366  0.49799201  0.64292680  1
  O  O69  1  0.87022733  0.49437273  0.14329970  1
  O  O70  1  0.62414640  0.12977267  0.14329970  1
  O  O71  1  0.50562727  0.37585360  0.14329970  1
  O  O72  1  0.46631463  0.29340417  0.02229550  1
  O  O73  1  0.82709054  0.53368537  0.02229550  1
  O  O74  1  0.70659583  0.17290946  0.02229550  1
  O  O75  1  0.46525942  0.16833670  0.52380809  1
  O  O76  1  0.70307828  0.53474058  0.52380809  1
  O  O77  1  0.83166330  0.29692172  0.52380809  1
  O  O78  1  0.53644676  0.70812842  0.97706992  1
  O  O79  1  0.17168066  0.46355324  0.97706992  1
  O  O80  1  0.29187158  0.82831934  0.97706992  1
  O  O81  1  0.53439705  0.83064256  0.47552946  1
  O  O82  1  0.29624450  0.46560295  0.47552946  1
  O  O83  1  0.16935744  0.70375550  0.47552946  1
  O  O84  1  0.13211586  0.62642379  0.35552087  1
  O  O85  1  0.49430693  0.86788414  0.35552087  1
  O  O86  1  0.37357621  0.50569307  0.35552087  1
  O  O87  1  0.12993350  0.50483078  0.85646871  1
  O  O88  1  0.37489627  0.87006650  0.85646871  1
  O  O89  1  0.49516922  0.62510373  0.85646871  1
  O  O90  1  0.02665967  0.84023339  0.41065355  1
  O  O91  1  0.81357371  0.97334033  0.41065355  1
  O  O92  1  0.15976661  0.18642629  0.41065355  1
  O  O93  1  0.02607377  0.18453166  0.91054073  1
  O  O94  1  0.15845789  0.97392623  0.91054073  1
  O  O95  1  0.81546834  0.84154211  0.91054073  1
  O  O96  1  0.97455717  0.15953403  0.58872009  1
  O  O97  1  0.18497685  0.02544283  0.58872009  1
  O  O98  1  0.84046597  0.81502315  0.58872009  1
  O  O99  1  0.97432575  0.81094559  0.08863569  1
  O  O100  1  0.83661984  0.02567425  0.08863569  1
  O  O101  1  0.18905441  0.16338016  0.08863569  1
  O  O102  1  0.69075270  0.16978262  0.74578741  1
  O  O103  1  0.47903093  0.30924730  0.74578741  1
  O  O104  1  0.83021738  0.52096907  0.74578741  1
  O  O105  1  0.69055035  0.51409598  0.24319327  1
  O  O106  1  0.82354664  0.30944965  0.24319327  1
  O  O107  1  0.48590402  0.17645336  0.24319327  1
  O  O108  1  0.64064025  0.49174271  0.92291571  1
  O  O109  1  0.85110346  0.35935975  0.92291571  1
  O  O110  1  0.50825729  0.14889654  0.92291571  1
  O  O111  1  0.64016757  0.14591390  0.42091902  1
  O  O112  1  0.50574733  0.35983243  0.42091902  1
  O  O113  1  0.85408610  0.49425267  0.42091902  1
  O  O114  1  0.36157741  0.51064789  0.07658184  1
  O  O115  1  0.14906948  0.63842259  0.07658184  1
  O  O116  1  0.48935211  0.85093052  0.07658184  1
  O  O117  1  0.35853138  0.85198743  0.57843456  1
  O  O118  1  0.49345506  0.64146862  0.57843456  1
  O  O119  1  0.14801257  0.50654494  0.57843456  1
  O  O120  1  0.30957150  0.82392208  0.25623652  1
  O  O121  1  0.51434959  0.69042850  0.25623652  1
  O  O122  1  0.17607792  0.48565041  0.25623652  1
  O  O123  1  0.30568420  0.48429317  0.75736863  1
  O  O124  1  0.17860797  0.69431580  0.75736863  1
  O  O125  1  0.51570683  0.82139203  0.75736863  1
