# generated using pymatgen
data_Na3ZnInP2SO12
_symmetry_space_group_name_H-M   'P 1'
_cell_length_a   9.05270128
_cell_length_b   9.05662660
_cell_length_c   22.38089050
_cell_angle_alpha   89.38469597
_cell_angle_beta   90.00000000
_cell_angle_gamma   119.98566365
_symmetry_Int_Tables_number   1
_chemical_formula_structural   Na3ZnInP2SO12
_chemical_formula_sum   'Na18 Zn6 In6 P12 S6 O72'
_cell_volume   1589.21254561
_cell_formula_units_Z   6
loop_
 _symmetry_equiv_pos_site_id
 _symmetry_equiv_pos_as_xyz
  1  'x, y, z'
loop_
 _atom_site_type_symbol
 _atom_site_label
 _atom_site_symmetry_multiplicity
 _atom_site_fract_x
 _atom_site_fract_y
 _atom_site_fract_z
 _atom_site_occupancy
  Na  Na0  1  0.35751573  0.35334453  0.24470648  1
  Na  Na1  1  -0.00017822  0.63051421  0.24443589  1
  Na  Na2  1  0.63069242  0.63051421  0.74443589  1
  Na  Na3  1  0.99582880  0.35334453  0.74470648  1
  Na  Na4  1  0.02418273  0.68667753  0.57803948  1
  Na  Na5  1  0.66648878  0.96384721  0.57776889  1
  Na  Na6  1  0.29735942  0.96384721  0.07776889  1
  Na  Na7  1  0.66249580  0.68667753  0.07803948  1
  Na  Na8  1  0.69084873  0.02001153  0.91137348  1
  Na  Na9  1  0.33315478  0.29718121  0.91110289  1
  Na  Na10  1  0.96402542  0.29718121  0.41110289  1
  Na  Na11  1  0.32916180  0.02001153  0.41137348  1
  Na  Na12  1  0.97771970  0.98317886  0.49453008  1
  Na  Na13  1  0.00545917  0.98317886  0.99453008  1
  Na  Na14  1  0.64438670  0.31651186  0.82786308  1
  Na  Na15  1  0.67212617  0.31651186  0.32786308  1
  Na  Na16  1  0.31105270  0.64984586  0.16119708  1
  Na  Na17  1  0.33879217  0.64984586  0.66119708  1
  Zn  Zn18  1  0.98896873  0.99308173  0.34801799  1
  Zn  Zn19  1  0.00411300  0.99308173  0.84801799  1
  Zn  Zn20  1  0.65563573  0.32641473  0.68135099  1
  Zn  Zn21  1  0.67078000  0.32641473  0.18135099  1
  Zn  Zn22  1  0.32230173  0.65974873  0.01468499  1
  Zn  Zn23  1  0.33744600  0.65974873  0.51468499  1
  In  In24  1  0.00468478  0.01107353  0.65263057  1
  In  In25  1  0.00638874  0.01107353  0.15263057  1
  In  In26  1  0.67135178  0.34440653  0.98596357  1
  In  In27  1  0.67305574  0.34440653  0.48596357  1
  In  In28  1  0.33801778  0.67774053  0.31929757  1
  In  In29  1  0.33972174  0.67774053  0.81929757  1
  P  P30  1  0.30274272  0.00390845  0.25120722  1
  P  P31  1  0.00048202  0.30115735  0.25487165  1
  P  P32  1  0.30067533  0.30115735  0.75487165  1
  P  P33  1  0.70116573  0.00390845  0.75120722  1
  P  P34  1  0.96940972  0.33724145  0.58454022  1
  P  P35  1  0.66714902  0.63449035  0.58820465  1
  P  P36  1  0.96734233  0.63449035  0.08820465  1
  P  P37  1  0.36783273  0.33724145  0.08454022  1
  P  P38  1  0.63607572  0.67057545  0.91787422  1
  P  P39  1  0.33381502  0.96782435  0.92153865  1
  P  P40  1  0.63400833  0.96782435  0.42153865  1
  P  P41  1  0.03449873  0.67057545  0.41787422  1
  S  S42  1  0.69945641  0.70060950  0.24974537  1
  S  S43  1  0.00115309  0.70060950  0.74974537  1
  S  S44  1  0.36612341  0.03394250  0.58307837  1
  S  S45  1  0.66782009  0.03394250  0.08307837  1
  S  S46  1  0.03278941  0.36727650  0.91641237  1
  S  S47  1  0.33448609  0.36727650  0.41641237  1
  O  O48  1  0.21384054  0.02520190  0.30689672  1
  O  O49  1  0.80816852  0.79167844  0.30060445  1
  O  O50  1  0.98238080  0.19910830  0.31260623  1
  O  O51  1  0.21672750  0.19910830  0.81260623  1
  O  O52  1  0.98350992  0.79167844  0.80060445  1
  O  O53  1  0.81136137  0.02520190  0.80689672  1
  O  O54  1  0.77832690  0.96805093  0.69399837  1
  O  O55  1  0.18773440  0.21811639  0.69908259  1
  O  O56  1  0.02664953  0.79668532  0.69204727  1
  O  O57  1  0.77003579  0.79668532  0.19204727  1
  O  O58  1  0.03038198  0.21811639  0.19908259  1
  O  O59  1  0.18972403  0.96805093  0.19399837  1
  O  O60  1  0.88050754  0.35853490  0.64022972  1
  O  O61  1  0.47483552  0.12501144  0.63393745  1
  O  O62  1  0.64904780  0.53244130  0.64593923  1
  O  O63  1  0.88339450  0.53244130  0.14593923  1
  O  O64  1  0.65017692  0.12501144  0.13393745  1
  O  O65  1  0.47802837  0.35853490  0.14022972  1
  O  O66  1  0.44499390  0.30138393  0.02733137  1
  O  O67  1  0.85440140  0.55144939  0.03241559  1
  O  O68  1  0.69331653  0.13001832  0.02538027  1
  O  O69  1  0.43670279  0.13001832  0.52538027  1
  O  O70  1  0.69704898  0.55144939  0.53241559  1
  O  O71  1  0.85639103  0.30138393  0.52733137  1
  O  O72  1  0.54717354  0.69186890  0.97356372  1
  O  O73  1  0.14150152  0.45834544  0.96727145  1
  O  O74  1  0.31571380  0.86577530  0.97927323  1
  O  O75  1  0.55006050  0.86577530  0.47927323  1
  O  O76  1  0.31684292  0.45834544  0.46727145  1
  O  O77  1  0.14469437  0.69186890  0.47356372  1
  O  O78  1  0.11165990  0.63471793  0.36066537  1
  O  O79  1  0.52106740  0.88478339  0.36574959  1
  O  O80  1  0.35998253  0.46335232  0.35871427  1
  O  O81  1  0.10336879  0.46335232  0.85871427  1
  O  O82  1  0.36371498  0.88478339  0.86574959  1
  O  O83  1  0.52305703  0.63471793  0.86066537  1
  O  O84  1  0.02466877  0.83550431  0.41087488  1
  O  O85  1  0.81682699  0.99820128  0.41504679  1
  O  O86  1  0.17786957  0.19633832  0.41422421  1
  O  O87  1  0.01846875  0.19633832  0.91422421  1
  O  O88  1  0.18137429  0.99820128  0.91504679  1
  O  O89  1  0.81083554  0.83550431  0.91087488  1
  O  O90  1  0.98459606  0.17268435  0.58749626  1
  O  O91  1  0.18901955  0.00680016  0.58790639  1
  O  O92  1  0.83729597  0.81476214  0.58907058  1
  O  O93  1  0.97746617  0.81476214  0.08907058  1
  O  O94  1  0.81778061  0.00680016  0.08790639  1
  O  O95  1  0.18808828  0.17268435  0.08749626  1
  O  O96  1  0.69133577  0.16883731  0.74420788  1
  O  O97  1  0.48349399  0.33153428  0.74837979  1
  O  O98  1  0.84453657  0.52967132  0.74755721  1
  O  O99  1  0.68513575  0.52967132  0.24755721  1
  O  O100  1  0.84804129  0.33153428  0.24837979  1
  O  O101  1  0.47750254  0.16883731  0.24420788  1
  O  O102  1  0.65126306  0.50601735  0.92082926  1
  O  O103  1  0.85568655  0.34013316  0.92123939  1
  O  O104  1  0.50396297  0.14809514  0.92240358  1
  O  O105  1  0.64413317  0.14809514  0.42240358  1
  O  O106  1  0.48444761  0.34013316  0.42123939  1
  O  O107  1  0.85475528  0.50601735  0.42082926  1
  O  O108  1  0.35800177  0.50217131  0.07754188  1
  O  O109  1  0.15015999  0.66486828  0.08171379  1
  O  O110  1  0.51120257  0.86300532  0.08089121  1
  O  O111  1  0.35180175  0.86300532  0.58089121  1
  O  O112  1  0.51470729  0.66486828  0.58171379  1
  O  O113  1  0.14416854  0.50217131  0.57754188  1
  O  O114  1  0.31792906  0.83935135  0.25416326  1
  O  O115  1  0.52235255  0.67346716  0.25457339  1
  O  O116  1  0.17062897  0.48142914  0.25573758  1
  O  O117  1  0.31079917  0.48142914  0.75573758  1
  O  O118  1  0.15111361  0.67346716  0.75457339  1
  O  O119  1  0.52142128  0.83935135  0.75416326  1
