# generated using pymatgen
data_MgNb2V2O8
_symmetry_space_group_name_H-M   'P 1'
_cell_length_a   7.65834645
_cell_length_b   7.65869353
_cell_length_c   8.05672003
_cell_angle_alpha   142.99420898
_cell_angle_beta   142.15543453
_cell_angle_gamma   47.86959506
_symmetry_Int_Tables_number   1
_chemical_formula_structural   MgNb2V2O8
_chemical_formula_sum   'Mg1 Nb2 V2 O8'
_cell_volume   173.46418184
_cell_formula_units_Z   1
loop_
 _symmetry_equiv_pos_site_id
 _symmetry_equiv_pos_as_xyz
  1  'x, y, z'
loop_
 _atom_site_type_symbol
 _atom_site_label
 _atom_site_symmetry_multiplicity
 _atom_site_fract_x
 _atom_site_fract_y
 _atom_site_fract_z
 _atom_site_occupancy
  Mg  Mg0  1  0.23355635  0.98354814  0.24994575  1
  Nb  Nb1  1  0.90475629  0.65486493  0.25001790  1
  Nb  Nb2  1  0.07567803  0.32556704  0.74997314  1
  V  V3  1  0.43146492  0.18145321  0.25001453  1
  V  V4  1  0.56368788  0.81372364  0.75001163  1
  O  O5  1  0.72236818  0.47148775  0.78182550  1
  O  O6  1  0.78999116  0.05073830  0.27377527  1
  O  O7  1  0.35764525  0.14016947  0.67566059  1
  O  O8  1  0.06886823  0.32617684  0.24392655  1
  O  O9  1  0.96444045  0.68198848  0.82429003  1
  O  O10  1  0.58231367  0.82493069  0.25610592  1
  O  O11  1  0.18967629  0.94057849  0.71821540  1
  O  O12  1  0.27701129  0.51623102  0.22623779  1
