# generated using pymatgen
data_MgFe12(OF)12
_symmetry_space_group_name_H-M   'P 1'
_cell_length_a   9.63656616
_cell_length_b   14.64398968
_cell_length_c   3.07563238
_cell_angle_alpha   89.93056221
_cell_angle_beta   90.39881725
_cell_angle_gamma   88.55209613
_symmetry_Int_Tables_number   1
_chemical_formula_structural   MgFe12(OF)12
_chemical_formula_sum   'Mg1 Fe12 O12 F12'
_cell_volume   433.87689139
_cell_formula_units_Z   1
loop_
 _symmetry_equiv_pos_site_id
 _symmetry_equiv_pos_as_xyz
  1  'x, y, z'
loop_
 _atom_site_type_symbol
 _atom_site_label
 _atom_site_symmetry_multiplicity
 _atom_site_fract_x
 _atom_site_fract_y
 _atom_site_fract_z
 _atom_site_occupancy
  Mg  Mg0  1  0.76102300  0.99240000  0.02043100  1
  Fe  Fe1  1  0.04760600  0.01192000  0.97374600  1
  Fe  Fe2  1  0.02268100  0.33803900  0.00200800  1
  Fe  Fe3  1  0.99849600  0.66616000  0.00472700  1
  Fe  Fe4  1  0.24110300  0.17625300  0.49898100  1
  Fe  Fe5  1  0.24466400  0.48744100  0.50329700  1
  Fe  Fe6  1  0.25668900  0.84539600  0.48965800  1
  Fe  Fe7  1  0.49952000  0.35021400  0.00620600  1
  Fe  Fe8  1  0.48467700  0.99557100  0.00682500  1
  Fe  Fe9  1  0.50671100  0.65734900  0.00307100  1
  Fe  Fe10  1  0.75149300  0.16413200  0.51724100  1
  Fe  Fe11  1  0.72736800  0.49569800  0.50702600  1
  Fe  Fe12  1  0.71049000  0.81710300  0.51132900  1
  O  O13  1  0.10343800  0.27716600  0.50327300  1
  O  O14  1  0.11005900  0.94148100  0.47759800  1
  O  O15  1  0.16003900  0.11665300  0.99718100  1
  O  O16  1  0.14539400  0.44219200  0.00188100  1
  O  O17  1  0.35479200  0.89007600  0.99159500  1
  O  O18  1  0.40233300  0.40091600  0.50395500  1
  O  O19  1  0.63553100  0.94233900  0.51286500  1
  O  O20  1  0.59018600  0.59599500  0.50531800  1
  O  O21  1  0.65910500  0.11219000  0.01557700  1
  O  O22  1  0.65724300  0.43040200  0.00621500  1
  O  O23  1  0.62720400  0.76224600  0.00920900  1
  O  O24  1  0.88926100  0.05087000  0.52392600  1
  F  F25  1  0.10884200  0.60310800  0.50081900  1
  F  F26  1  0.15054800  0.77204700  0.99287400  1
  F  F27  1  0.35731000  0.23919300  0.00279700  1
  F  F28  1  0.34137800  0.56373200  0.00259000  1
  F  F29  1  0.39782700  0.08004800  0.50405400  1
  F  F30  1  0.38600200  0.71924900  0.49893800  1
  F  F31  1  0.60044800  0.27253800  0.50853300  1
  F  F32  1  0.85339500  0.23656500  0.01033200  1
  F  F33  1  0.84693500  0.87003700  0.01066900  1
  F  F34  1  0.84455800  0.55703900  0.00796300  1
  F  F35  1  0.90173500  0.39886400  0.50414900  1
  F  F36  1  0.88105900  0.72274600  0.50897600  1
