# generated using pymatgen
data_PI3
_symmetry_space_group_name_H-M   'P 1'
_cell_length_a   7.27460380
_cell_length_b   7.27460477
_cell_length_c   7.63920148
_cell_angle_alpha   90.00000000
_cell_angle_beta   90.00000000
_cell_angle_gamma   120.00000454
_symmetry_Int_Tables_number   1
_chemical_formula_structural   PI3
_chemical_formula_sum   'P2 I6'
_cell_volume   350.10420297
_cell_formula_units_Z   2
loop_
 _symmetry_equiv_pos_site_id
 _symmetry_equiv_pos_as_xyz
  1  'x, y, z'
loop_
 _atom_site_type_symbol
 _atom_site_label
 _atom_site_symmetry_multiplicity
 _atom_site_fract_x
 _atom_site_fract_y
 _atom_site_fract_z
 _atom_site_occupancy
  P  P0  1  0.66666700  0.33333300  0.63847451  1
  P  P1  1  0.33333300  0.66666700  0.13847451  1
  I  I2  1  0.34557790  0.30700591  0.50250916  1
  I  I3  1  0.65442210  0.69299409  0.00250916  1
  I  I4  1  0.30700591  0.96142701  0.00250916  1
  I  I5  1  0.96142701  0.65442210  0.50250916  1
  I  I6  1  0.69299409  0.03857299  0.50250916  1
  I  I7  1  0.03857299  0.34557790  0.00250916  1
