# generated using pymatgen
data_Na6NbAl3Si2(PO6)4
_symmetry_space_group_name_H-M   'P 1'
_cell_length_a   8.72754608
_cell_length_b   8.74351464
_cell_length_c   21.75950253
_cell_angle_alpha   89.95412827
_cell_angle_beta   89.87435202
_cell_angle_gamma   119.77980674
_symmetry_Int_Tables_number   1
_chemical_formula_structural   Na6NbAl3Si2(PO6)4
_chemical_formula_sum   'Na18 Nb3 Al9 Si6 P12 O72'
_cell_volume   1441.16949506
_cell_formula_units_Z   3
loop_
 _symmetry_equiv_pos_site_id
 _symmetry_equiv_pos_as_xyz
  1  'x, y, z'
loop_
 _atom_site_type_symbol
 _atom_site_label
 _atom_site_symmetry_multiplicity
 _atom_site_fract_x
 _atom_site_fract_y
 _atom_site_fract_z
 _atom_site_occupancy
  Na  Na0  1  0.99906303  0.98985533  0.50263910  1
  Na  Na1  1  0.97908437  0.99101034  0.99707082  1
  Na  Na2  1  0.66333255  0.33494082  0.82762759  1
  Na  Na3  1  0.66390066  0.33949779  0.32910258  1
  Na  Na4  1  0.33511034  0.65882571  0.16298855  1
  Na  Na5  1  0.33084977  0.66512318  0.66308763  1
  Na  Na6  1  0.63807334  0.00628481  0.24560290  1
  Na  Na7  1  0.99843465  0.36086986  0.74574032  1
  Na  Na8  1  0.36422636  0.00287626  0.74944946  1
  Na  Na9  1  0.29977628  0.33287057  0.58757845  1
  Na  Na10  1  0.66787497  0.96690940  0.58491872  1
  Na  Na11  1  0.29579214  0.96509843  0.08462111  1
  Na  Na12  1  0.03323583  0.33466363  0.08271512  1
  Na  Na13  1  0.97179429  0.67495868  0.91367470  1
  Na  Na14  1  0.32791517  0.29553368  0.91299810  1
  Na  Na15  1  0.96338923  0.29673351  0.41743780  1
  Na  Na16  1  0.33516859  0.03588596  0.41435146  1
  Na  Na17  1  0.69956176  0.67019952  0.41882302  1
  Nb  Nb18  1  0.66770379  0.33100035  0.97842034  1
  Nb  Nb19  1  0.33213682  0.67167618  0.30916766  1
  Nb  Nb20  1  0.33986322  0.66297324  0.81140078  1
  Al  Al21  1  0.99784242  0.99902896  0.35012799  1
  Al  Al22  1  0.00204592  0.00299071  0.85404781  1
  Al  Al23  1  0.00127020  0.99707611  0.64755454  1
  Al  Al24  1  0.99848348  0.99447146  0.14843839  1
  Al  Al25  1  0.66503970  0.33926609  0.68503829  1
  Al  Al26  1  0.66157378  0.33647179  0.18845050  1
  Al  Al27  1  0.66543742  0.33130881  0.48365408  1
  Al  Al28  1  0.33779442  0.66632497  0.01823673  1
  Al  Al29  1  0.33478921  0.67028563  0.52051116  1
  Si  Si30  1  0.28659294  0.01681544  0.24877786  1
  Si  Si31  1  0.28956715  0.27973293  0.74666396  1
  Si  Si32  1  0.63030999  0.68395293  0.92050476  1
  Si  Si33  1  0.04862571  0.37207838  0.91933061  1
  Si  Si34  1  0.32777061  0.94822856  0.91919316  1
  Si  Si35  1  0.63015954  0.96225958  0.42052466  1
  P  P36  1  0.72461474  0.71151481  0.24964595  1
  P  P37  1  0.99608572  0.28188469  0.24804084  1
  P  P38  1  0.98932747  0.71182364  0.74834801  1
  P  P39  1  0.72209626  0.00407440  0.74657783  1
  P  P40  1  0.95668045  0.33849934  0.58311644  1
  P  P41  1  0.37497673  0.04086259  0.58335654  1
  P  P42  1  0.67049222  0.62220533  0.58244506  1
  P  P43  1  0.95466855  0.62571103  0.08787412  1
  P  P44  1  0.66597371  0.03499649  0.08843947  1
  P  P45  1  0.37424203  0.33756209  0.08750820  1
  P  P46  1  0.33314971  0.37635981  0.42064728  1
  P  P47  1  0.04210420  0.66634391  0.42051809  1
  O  O48  1  0.19622805  0.02879446  0.31233944  1
  O  O49  1  0.82264036  0.79315063  0.31027755  1
  O  O50  1  0.96601268  0.17000638  0.30691462  1
  O  O51  1  0.20249287  0.16501021  0.80864359  1
  O  O52  1  0.97045484  0.79091062  0.80867711  1
  O  O53  1  0.83474603  0.02931137  0.80304595  1
  O  O54  1  0.79831220  0.97474761  0.68677603  1
  O  O55  1  0.16320113  0.19709033  0.68684605  1
  O  O56  1  0.02391854  0.83220613  0.69283872  1
  O  O57  1  0.80182004  0.83730658  0.19510866  1
  O  O58  1  0.02363724  0.19859568  0.19030015  1
  O  O59  1  0.16970413  0.97548951  0.18780184  1
  O  O60  1  0.86825730  0.35969949  0.64145438  1
  O  O61  1  0.49558110  0.12626046  0.63989410  1
  O  O62  1  0.63615494  0.49853257  0.63730807  1
  O  O63  1  0.85810986  0.49662376  0.14017016  1
  O  O64  1  0.63801867  0.12718093  0.14415645  1
  O  O65  1  0.49290090  0.35782441  0.14142939  1
  O  O66  1  0.45847070  0.30531124  0.02805595  1
  O  O67  1  0.84837771  0.54037985  0.02711471  1
  O  O68  1  0.69774073  0.15956771  0.03117506  1
  O  O69  1  0.46041247  0.16063742  0.52585080  1
  O  O70  1  0.69335461  0.53811329  0.52284788  1
  O  O71  1  0.83900033  0.30788150  0.52579890  1
  O  O72  1  0.53160964  0.70144587  0.97860453  1
  O  O73  1  0.16608324  0.46499418  0.97928661  1
  O  O74  1  0.29643239  0.82866829  0.97915534  1
  O  O75  1  0.53558351  0.82866083  0.47749994  1
  O  O76  1  0.29891672  0.46170785  0.47706373  1
  O  O77  1  0.16719241  0.69876646  0.47415566  1
  O  O78  1  0.12501157  0.62975453  0.36186777  1
  O  O79  1  0.50000652  0.86940789  0.35918779  1
  O  O80  1  0.36549318  0.49620409  0.36359356  1
  O  O81  1  0.13086375  0.50066075  0.85759061  1
  O  O82  1  0.36744770  0.86963519  0.85595604  1
  O  O83  1  0.49872945  0.62767674  0.85917936  1
  O  O84  1  0.02459464  0.83241956  0.41224169  1
  O  O85  1  0.82400599  0.98041166  0.40896611  1
  O  O86  1  0.16805786  0.19237034  0.41260082  1
  O  O87  1  0.02805754  0.18280196  0.90875592  1
  O  O88  1  0.15929043  0.97490236  0.91059737  1
  O  O89  1  0.82407469  0.84217136  0.90772717  1
  O  O90  1  0.97461377  0.16846913  0.58608679  1
  O  O91  1  0.19002531  0.02377913  0.58939054  1
  O  O92  1  0.83143273  0.81066553  0.58889146  1
  O  O93  1  0.97357640  0.81072998  0.09116883  1
  O  O94  1  0.83708972  0.02446264  0.09176649  1
  O  O95  1  0.18740406  0.16880195  0.08978728  1
  O  O96  1  0.69741353  0.16902643  0.74181881  1
  O  O97  1  0.48613673  0.30284020  0.73982514  1
  O  O98  1  0.83401203  0.52099261  0.74126534  1
  O  O99  1  0.70062507  0.52731753  0.24223064  1
  O  O100  1  0.83453748  0.30830778  0.24297263  1
  O  O101  1  0.49106304  0.17595153  0.24417884  1
  O  O102  1  0.64286565  0.49907791  0.92479956  1
  O  O103  1  0.85612752  0.36365646  0.92255416  1
  O  O104  1  0.50210397  0.14767024  0.92399000  1
  O  O105  1  0.64527235  0.15608299  0.42563175  1
  O  O106  1  0.50198555  0.36002950  0.42548873  1
  O  O107  1  0.85678651  0.50098697  0.42547741  1
  O  O108  1  0.35175909  0.50060480  0.08070218  1
  O  O109  1  0.14053764  0.64281028  0.08217452  1
  O  O110  1  0.49604778  0.85737016  0.08033607  1
  O  O111  1  0.36098552  0.85736545  0.57609127  1
  O  O112  1  0.49909711  0.63957058  0.57809744  1
  O  O113  1  0.14552050  0.50037385  0.57649725  1
  O  O114  1  0.31130074  0.83287036  0.25503337  1
  O  O115  1  0.53279021  0.69179531  0.25606632  1
  O  O116  1  0.16559221  0.46689696  0.25531252  1
  O  O117  1  0.30531648  0.47837347  0.75111501  1
  O  O118  1  0.16224326  0.69397083  0.75093198  1
  O  O119  1  0.52947095  0.84200664  0.75114056  1
