# generated using pymatgen
data_Na6YNb3(SiO4)6
_symmetry_space_group_name_H-M   'P 1'
_cell_length_a   15.93858599
_cell_length_b   9.15705297
_cell_length_c   9.17922651
_cell_angle_alpha   90.22557717
_cell_angle_beta   125.26995486
_cell_angle_gamma   89.95075818
_symmetry_Int_Tables_number   1
_chemical_formula_structural   Na6YNb3(SiO4)6
_chemical_formula_sum   'Na12 Y2 Nb6 Si12 O48'
_cell_volume   1093.78540771
_cell_formula_units_Z   2
loop_
 _symmetry_equiv_pos_site_id
 _symmetry_equiv_pos_as_xyz
  1  'x, y, z'
loop_
 _atom_site_type_symbol
 _atom_site_label
 _atom_site_symmetry_multiplicity
 _atom_site_fract_x
 _atom_site_fract_y
 _atom_site_fract_z
 _atom_site_occupancy
  Na  Na0  1  0.25207247  0.75004875  -0.00005581  1
  Na  Na1  1  0.74848952  0.74953612  0.49459572  1
  Na  Na2  1  0.75207247  0.25004875  -0.00005581  1
  Na  Na3  1  0.24848952  0.24953612  0.49459572  1
  Na  Na4  1  0.50529391  0.09808551  0.75884448  1
  Na  Na5  1  0.50125244  0.88497197  0.24105576  1
  Na  Na6  1  0.00529391  0.59808551  0.75884448  1
  Na  Na7  1  0.00125244  0.38497197  0.24105576  1
  Na  Na8  1  0.80362374  0.93134394  0.21624769  1
  Na  Na9  1  0.18580404  0.06900487  0.79325047  1
  Na  Na10  1  0.30362374  0.43134394  0.21624769  1
  Na  Na11  1  0.68580404  0.56900487  0.79325047  1
  Y  Y12  1  0.10384902  0.24067941  0.06656252  1
  Y  Y13  1  0.60384902  0.74067941  0.06656252  1
  Nb  Nb14  1  0.10659399  0.74891219  0.56115186  1
  Nb  Nb15  1  0.89560999  0.75575641  0.93148393  1
  Nb  Nb16  1  0.89242625  0.24948789  0.43872068  1
  Nb  Nb17  1  0.60659399  0.24891219  0.56115186  1
  Nb  Nb18  1  0.39560999  0.25575641  0.93148393  1
  Nb  Nb19  1  0.39242625  0.74948789  0.43872068  1
  Si  Si20  1  0.99565708  0.95214645  0.73946604  1
  Si  Si21  1  0.99793238  0.04140304  0.25898534  1
  Si  Si22  1  0.49565708  0.45214645  0.73946604  1
  Si  Si23  1  0.49793238  0.54140304  0.25898534  1
  Si  Si24  1  0.35261086  0.89869038  0.75910673  1
  Si  Si25  1  0.64859242  0.89694103  0.74822807  1
  Si  Si26  1  0.64668216  0.11726924  0.24516209  1
  Si  Si27  1  0.35896764  0.09819161  0.25138580  1
  Si  Si28  1  0.85261086  0.39869038  0.75910673  1
  Si  Si29  1  0.14859242  0.39694103  0.74822807  1
  Si  Si30  1  0.14668216  0.61726924  0.24516209  1
  Si  Si31  1  0.85896764  0.59819161  0.25138580  1
  O  O32  1  0.15683943  0.57309467  0.72354381  1
  O  O33  1  0.84971821  0.57958193  0.75301472  1
  O  O34  1  0.85577856  0.41867415  0.25900899  1
  O  O35  1  0.15879936  0.44210420  0.25946867  1
  O  O36  1  0.65683943  0.07309467  0.72354381  1
  O  O37  1  0.34971821  0.07958193  0.75301472  1
  O  O38  1  0.35577856  0.91867415  0.25900899  1
  O  O39  1  0.65879936  0.94210420  0.25946867  1
  O  O40  1  0.42724172  0.56118969  0.56348838  1
  O  O41  1  0.57934483  0.54923733  0.90684384  1
  O  O42  1  0.55193969  0.43264752  0.43137712  1
  O  O43  1  0.43536793  0.42771958  0.08249909  1
  O  O44  1  0.92724172  0.06118969  0.56348838  1
  O  O45  1  0.07934483  0.04923733  0.90684384  1
  O  O46  1  0.05193969  0.93264752  0.43137712  1
  O  O47  1  0.93536793  0.92771958  0.08249909  1
  O  O48  1  0.24608064  0.84540782  0.73363377  1
  O  O49  1  0.74230410  0.80779737  0.75981440  1
  O  O50  1  0.74373901  0.19253685  0.25541261  1
  O  O51  1  0.27525007  0.18650474  0.26111475  1
  O  O52  1  0.74608064  0.34540782  0.73363377  1
  O  O53  1  0.24230410  0.30779737  0.75981440  1
  O  O54  1  0.24373901  0.69253685  0.25541261  1
  O  O55  1  0.77525007  0.68650474  0.26111475  1
  O  O56  1  0.36279876  0.84822341  0.59304940  1
  O  O57  1  0.65204079  0.88086067  0.92637560  1
  O  O58  1  0.64610064  0.17910325  0.41280539  1
  O  O59  1  0.35528628  0.13955458  0.06961461  1
  O  O60  1  0.86279876  0.34822341  0.59304940  1
  O  O61  1  0.15204079  0.38086067  0.92637560  1
  O  O62  1  0.14610064  0.67910325  0.41280539  1
  O  O63  1  0.85528628  0.63955458  0.06961461  1
  O  O64  1  0.44981935  0.83970315  0.94466715  1
  O  O65  1  0.53810257  0.82418575  0.57552350  1
  O  O66  1  0.53662074  0.17201049  0.06137859  1
  O  O67  1  0.47441534  0.14633139  0.42209406  1
  O  O68  1  0.94981935  0.33970315  0.94466715  1
  O  O69  1  0.03810257  0.32418575  0.57552350  1
  O  O70  1  0.03662074  0.67201049  0.06137859  1
  O  O71  1  0.97441534  0.64633139  0.42209406  1
  O  O72  1  0.06477025  0.82963315  0.72023644  1
  O  O73  1  0.91525819  0.85575963  0.75919368  1
  O  O74  1  0.90763495  0.13573112  0.25390269  1
  O  O75  1  0.07929069  0.14993876  0.26774734  1
  O  O76  1  0.56477025  0.32963315  0.72023644  1
  O  O77  1  0.41525819  0.35575963  0.75919368  1
  O  O78  1  0.40763495  0.63573112  0.25390269  1
  O  O79  1  0.57929069  0.64993876  0.26774734  1
