# generated using pymatgen
data_NaTa2Nb2Si3(PO8)3
_symmetry_space_group_name_H-M   'P 1'
_cell_length_a   8.85225325
_cell_length_b   8.85491357
_cell_length_c   22.84362643
_cell_angle_alpha   90.06348167
_cell_angle_beta   90.14363543
_cell_angle_gamma   119.97251598
_symmetry_Int_Tables_number   1
_chemical_formula_structural   NaTa2Nb2Si3(PO8)3
_chemical_formula_sum   'Na3 Ta6 Nb6 Si9 P9 O72'
_cell_volume   1551.14026217
_cell_formula_units_Z   3
loop_
 _symmetry_equiv_pos_site_id
 _symmetry_equiv_pos_as_xyz
  1  'x, y, z'
loop_
 _atom_site_type_symbol
 _atom_site_label
 _atom_site_symmetry_multiplicity
 _atom_site_fract_x
 _atom_site_fract_y
 _atom_site_fract_z
 _atom_site_occupancy
  Na  Na0  1  0.99978976  0.99742489  0.99904526  1
  Na  Na1  1  0.66604506  0.33142373  0.83614673  1
  Na  Na2  1  0.66739468  0.33195435  0.33108734  1
  Ta  Ta3  1  0.99624191  0.00087566  0.35841313  1
  Ta  Ta4  1  0.99843438  0.00163774  0.64453713  1
  Ta  Ta5  1  0.66526561  0.33301538  0.68930608  1
  Ta  Ta6  1  0.66877717  0.33393512  0.47737061  1
  Ta  Ta7  1  0.33461755  0.67068178  0.52215030  1
  Ta  Ta8  1  0.32964527  0.66836914  0.30954087  1
  Nb  Nb9  1  0.00253421  0.00407578  0.85609113  1
  Nb  Nb10  1  0.00363143  0.00421494  0.14472307  1
  Nb  Nb11  1  0.67191604  0.33825563  0.18715721  1
  Nb  Nb12  1  0.66147374  0.33652693  0.97726304  1
  Nb  Nb13  1  0.33450710  0.66964981  0.02414440  1
  Nb  Nb14  1  0.34183932  0.67068643  0.80873443  1
  Si  Si15  1  0.99875777  0.28598892  0.25118311  1
  Si  Si16  1  0.28419762  0.28559183  0.74962651  1
  Si  Si17  1  0.71624830  0.00154003  0.74927097  1
  Si  Si18  1  0.95373494  0.62124654  0.08279799  1
  Si  Si19  1  0.37974750  0.33373403  0.08350602  1
  Si  Si20  1  0.61992197  0.66923725  0.91663068  1
  Si  Si21  1  0.33371465  0.95135026  0.91650172  1
  Si  Si22  1  0.61620280  0.95039565  0.41680061  1
  Si  Si23  1  0.04949107  0.66759292  0.41640053  1
  P  P24  1  0.28592961  0.00220907  0.25114981  1
  P  P25  1  0.71480591  0.71506754  0.25119881  1
  P  P26  1  0.00005854  0.71619568  0.74939796  1
  P  P27  1  0.95289104  0.33376197  0.58324358  1
  P  P28  1  0.38089967  0.04808134  0.58321235  1
  P  P29  1  0.66643989  0.61846322  0.58315364  1
  P  P30  1  0.66779052  0.04897970  0.08310265  1
  P  P31  1  0.04855734  0.38363597  0.91648566  1
  P  P32  1  0.33428898  0.38444606  0.41661790  1
  O  O33  1  0.19851467  0.02883239  0.30510897  1
  O  O34  1  0.83237252  0.80130850  0.30559026  1
  O  O35  1  0.97186618  0.16272375  0.30764297  1
  O  O36  1  0.19909668  0.16144648  0.80653215  1
  O  O37  1  0.96314338  0.79545389  0.80367518  1
  O  O38  1  0.83749388  0.03396347  0.80648592  1
  O  O39  1  0.80750234  0.97248031  0.69132226  1
  O  O40  1  0.16585720  0.18846659  0.69153813  1
  O  O41  1  0.02467819  0.82793493  0.69404448  1
  O  O42  1  0.79888538  0.82494008  0.19634085  1
  O  O43  1  0.02479092  0.19211451  0.19333063  1
  O  O44  1  0.17232225  0.97142409  0.19580232  1
  O  O45  1  0.86608852  0.36335433  0.63710197  1
  O  O46  1  0.49896420  0.13681162  0.63739173  1
  O  O47  1  0.63858438  0.50237486  0.63717232  1
  O  O48  1  0.86129141  0.49944100  0.14116937  1
  O  O49  1  0.64218570  0.13559519  0.13859235  1
  O  O50  1  0.49871645  0.35756221  0.14142118  1
  O  O51  1  0.46958979  0.29828343  0.02630418  1
  O  O52  1  0.82943748  0.52690163  0.02624666  1
  O  O53  1  0.70042333  0.16254869  0.02881901  1
  O  O54  1  0.46820211  0.16404166  0.52910278  1
  O  O55  1  0.69385827  0.52930500  0.52890382  1
  O  O56  1  0.83441418  0.30487508  0.52883270  1
  O  O57  1  0.52922320  0.69570718  0.97408857  1
  O  O58  1  0.16060197  0.46526947  0.97158096  1
  O  O59  1  0.30344358  0.83331391  0.97444979  1
  O  O60  1  0.52605202  0.83040199  0.47479529  1
  O  O61  1  0.30555343  0.46759080  0.47190489  1
  O  O62  1  0.16790896  0.69146964  0.47448477  1
  O  O63  1  0.13775458  0.63089777  0.35976816  1
  O  O64  1  0.49564467  0.86150001  0.35971987  1
  O  O65  1  0.36896171  0.49947575  0.36245144  1
  O  O66  1  0.12977113  0.49254477  0.86147054  1
  O  O67  1  0.35822693  0.85825749  0.85862682  1
  O  O68  1  0.49860998  0.63587215  0.85850211  1
  O  O69  1  0.03002444  0.83697620  0.40523527  1
  O  O70  1  0.80897715  0.97469590  0.40696436  1
  O  O71  1  0.17533737  0.20183893  0.40693602  1
  O  O72  1  0.02948730  0.19881649  0.90974606  1
  O  O73  1  0.16293879  0.97620491  0.90907750  1
  O  O74  1  0.81367612  0.83949826  0.90872482  1
  O  O75  1  0.97002748  0.16983051  0.59190407  1
  O  O76  1  0.19885862  0.02493093  0.59269598  1
  O  O77  1  0.82915876  0.79876041  0.59225391  1
  O  O78  1  0.96957085  0.81099466  0.09249714  1
  O  O79  1  0.82941718  0.02598259  0.09184017  1
  O  O80  1  0.18652961  0.15968949  0.09158122  1
  O  O81  1  0.69696332  0.17519465  0.73895128  1
  O  O82  1  0.48006231  0.31068143  0.73883806  1
  O  O83  1  0.83496449  0.53232029  0.73871595  1
  O  O84  1  0.69331262  0.53017576  0.24451323  1
  O  O85  1  0.82530938  0.30598415  0.24429021  1
  O  O86  1  0.46906883  0.16325793  0.24402844  1
  O  O87  1  0.64263357  0.49632687  0.92286295  1
  O  O88  1  0.86331471  0.35796627  0.92384084  1
  O  O89  1  0.50853234  0.14345576  0.92342775  1
  O  O90  1  0.63707281  0.14412331  0.42734316  1
  O  O91  1  0.49693759  0.36208343  0.42685019  1
  O  O92  1  0.85399004  0.49702159  0.42720276  1
  O  O93  1  0.35967431  0.50239461  0.07350727  1
  O  O94  1  0.14306837  0.64035898  0.07410316  1
  O  O95  1  0.50569099  0.86846058  0.07595582  1
  O  O96  1  0.36364095  0.86641453  0.57420477  1
  O  O97  1  0.50338757  0.63594360  0.57354187  1
  O  O98  1  0.13478987  0.49305081  0.57317283  1
  O  O99  1  0.30445289  0.83799429  0.25962718  1
  O  O100  1  0.53359499  0.69511019  0.26118841  1
  O  O101  1  0.17203929  0.47630593  0.26066874  1
  O  O102  1  0.30006800  0.47312750  0.75872259  1
  O  O103  1  0.15717451  0.69228001  0.75766073  1
  O  O104  1  0.52376369  0.83368439  0.75768467  1
