# generated using pymatgen
data_SmBr3
_symmetry_space_group_name_H-M   'P 1'
_cell_length_a   4.05174522
_cell_length_b   6.89076705
_cell_length_c   9.17687892
_cell_angle_alpha   89.99986883
_cell_angle_beta   89.99988548
_cell_angle_gamma   107.05972793
_symmetry_Int_Tables_number   1
_chemical_formula_structural   SmBr3
_chemical_formula_sum   'Sm2 Br6'
_cell_volume   244.94148255
_cell_formula_units_Z   2
loop_
 _symmetry_equiv_pos_site_id
 _symmetry_equiv_pos_as_xyz
  1  'x, y, z'
loop_
 _atom_site_type_symbol
 _atom_site_label
 _atom_site_symmetry_multiplicity
 _atom_site_fract_x
 _atom_site_fract_y
 _atom_site_fract_z
 _atom_site_occupancy
  Sm  Sm0  1  0.74263810  0.48506935  0.25000330  1
  Sm  Sm1  1  0.25736106  0.51493070  0.75000487  1
  Br  Br2  1  0.35054604  0.70182454  0.43344644  1
  Br  Br3  1  0.64948102  0.29819232  0.56655042  1
  Br  Br4  1  0.91181781  0.82456111  0.74999909  1
  Br  Br5  1  0.08816568  0.17543314  0.25000068  1
  Br  Br6  1  0.35057813  0.70180527  0.06654642  1
  Br  Br7  1  0.64941315  0.29818356  0.93345076  1
