# generated using pymatgen
data_SbBr3
_symmetry_space_group_name_H-M   'P 1'
_cell_length_a   4.43324559
_cell_length_b   10.30970947
_cell_length_c   12.86525500
_cell_angle_alpha   90.00000000
_cell_angle_beta   90.00000000
_cell_angle_gamma   90.00000000
_symmetry_Int_Tables_number   1
_chemical_formula_structural   SbBr3
_chemical_formula_sum   'Sb4 Br12'
_cell_volume   588.01257845
_cell_formula_units_Z   4
loop_
 _symmetry_equiv_pos_site_id
 _symmetry_equiv_pos_as_xyz
  1  'x, y, z'
loop_
 _atom_site_type_symbol
 _atom_site_label
 _atom_site_symmetry_multiplicity
 _atom_site_fract_x
 _atom_site_fract_y
 _atom_site_fract_z
 _atom_site_occupancy
  Sb  Sb0  1  0.24173142  0.50275331  0.47538090  1
  Sb  Sb1  1  0.74173142  0.99724669  0.52461910  1
  Sb  Sb2  1  0.75826858  0.00275331  0.02461910  1
  Sb  Sb3  1  0.25826858  0.49724669  0.97538090  1
  Br  Br4  1  0.53815491  0.32371428  0.38556102  1
  Br  Br5  1  0.03815491  0.17628572  0.61443898  1
  Br  Br6  1  0.46184509  0.82371428  0.11443898  1
  Br  Br7  1  0.96184509  0.67628572  0.88556102  1
  Br  Br8  1  0.96838784  0.50060414  0.14518219  1
  Br  Br9  1  0.46838784  -0.00060414  0.85481781  1
  Br  Br10  1  0.03161216  0.00060414  0.35481781  1
  Br  Br11  1  0.53161216  0.49939586  0.64518219  1
  Br  Br12  1  0.95921505  0.31913793  0.88459320  1
  Br  Br13  1  0.45921505  0.18086207  0.11540680  1
  Br  Br14  1  0.04078495  0.81913793  0.61540680  1
  Br  Br15  1  0.54078495  0.68086207  0.38459320  1
