# generated using pymatgen
data_MgNbV3O8
_symmetry_space_group_name_H-M   'P 1'
_cell_length_a   6.62670254
_cell_length_b   6.62670369
_cell_length_c   6.93529244
_cell_angle_alpha   73.86651343
_cell_angle_beta   106.13348137
_cell_angle_gamma   144.73629055
_symmetry_Int_Tables_number   1
_chemical_formula_structural   MgNbV3O8
_chemical_formula_sum   'Mg1 Nb1 V3 O8'
_cell_volume   168.18948800
_cell_formula_units_Z   1
loop_
 _symmetry_equiv_pos_site_id
 _symmetry_equiv_pos_as_xyz
  1  'x, y, z'
loop_
 _atom_site_type_symbol
 _atom_site_label
 _atom_site_symmetry_multiplicity
 _atom_site_fract_x
 _atom_site_fract_y
 _atom_site_fract_z
 _atom_site_occupancy
  Mg  Mg0  1  0.18082500  0.81917500  0.99603100  1
  Nb  Nb1  1  0.70685600  0.29314400  0.32270100  1
  V  V2  1  0.39781800  0.60218200  0.30723900  1
  V  V3  1  0.59835400  0.40164600  0.67225100  1
  V  V4  1  0.31255800  0.68744200  0.72974700  1
  O  O5  1  0.14317600  0.85682400  0.70312800  1
  O  O6  1  0.22463900  0.77536100  0.30794000  1
  O  O7  1  0.34582500  0.65417500  0.01090500  1
  O  O8  1  0.44025200  0.55974800  0.62255000  1
  O  O9  1  0.56264600  0.43735400  0.36361500  1
  O  O10  1  0.64716500  0.35283500  0.01734000  1
  O  O11  1  0.76316000  0.23684000  0.63571900  1
  O  O12  1  0.86672600  0.13327400  0.32083500  1
