# generated using pymatgen
data_As(IF2)3
_symmetry_space_group_name_H-M   'P 1'
_cell_length_a   5.83912998
_cell_length_b   8.01308883
_cell_length_c   10.43515380
_cell_angle_alpha   90.17519968
_cell_angle_beta   102.27981823
_cell_angle_gamma   100.37349924
_symmetry_Int_Tables_number   1
_chemical_formula_structural   As(IF2)3
_chemical_formula_sum   'As2 I6 F12'
_cell_volume   468.85167238
_cell_formula_units_Z   2
loop_
 _symmetry_equiv_pos_site_id
 _symmetry_equiv_pos_as_xyz
  1  'x, y, z'
loop_
 _atom_site_type_symbol
 _atom_site_label
 _atom_site_symmetry_multiplicity
 _atom_site_fract_x
 _atom_site_fract_y
 _atom_site_fract_z
 _atom_site_occupancy
  As  As0  1  0.55620168  0.77281048  0.80940031  1
  As  As1  1  0.44379832  0.22718952  0.19059969  1
  I  I2  1  0.76821416  0.76518411  0.46371426  1
  I  I3  1  0.23178584  0.23481589  0.53628574  1
  I  I4  1  0.08963001  0.62181021  0.17057852  1
  I  I5  1  0.91036999  0.37818979  0.82942148  1
  I  I6  1  0.80466938  0.83106748  0.21559947  1
  I  I7  1  0.19533062  0.16893252  0.78440053  1
  F  F8  1  0.33120927  0.67064118  0.68369521  1
  F  F9  1  0.66879073  0.32935882  0.31630479  1
  F  F10  1  0.53745246  0.96769768  0.73576691  1
  F  F11  1  0.46254754  0.03230232  0.26423309  1
  F  F12  1  0.35362562  0.80560197  0.90211655  1
  F  F13  1  0.64637438  0.19439803  0.09788345  1
  F  F14  1  0.58560352  0.57793089  0.88161047  1
  F  F15  1  0.41439648  0.42206911  0.11838953  1
  F  F16  1  0.23033948  0.25791365  0.28148639  1
  F  F17  1  0.76966052  0.74208635  0.71851361  1
  F  F18  1  0.20912471  0.12421799  0.06682472  1
  F  F19  1  0.79087529  0.87578201  0.93317528  1
