# generated using pymatgen
data_NaCaSnP(SO6)2
_symmetry_space_group_name_H-M   'P 1'
_cell_length_a   8.94319006
_cell_length_b   8.96814259
_cell_length_c   23.53545097
_cell_angle_alpha   89.22925020
_cell_angle_beta   90.00000000
_cell_angle_gamma   119.90800312
_symmetry_Int_Tables_number   1
_chemical_formula_structural   NaCaSnP(SO6)2
_chemical_formula_sum   'Na6 Ca6 Sn6 P6 S12 O72'
_cell_volume   1636.05415993
_cell_formula_units_Z   6
loop_
 _symmetry_equiv_pos_site_id
 _symmetry_equiv_pos_as_xyz
  1  'x, y, z'
loop_
 _atom_site_type_symbol
 _atom_site_label
 _atom_site_symmetry_multiplicity
 _atom_site_fract_x
 _atom_site_fract_y
 _atom_site_fract_z
 _atom_site_occupancy
  Na  Na0  1  0.97771465  0.98252532  0.50284119  1
  Na  Na1  1  0.00481067  0.98252532  0.00284119  1
  Na  Na2  1  0.65433270  0.31015179  0.83636288  1
  Na  Na3  1  0.65582010  0.31015179  0.33636288  1
  Na  Na4  1  0.32254459  0.67905876  0.16981569  1
  Na  Na5  1  0.35651316  0.67905876  0.66981569  1
  Ca  Ca6  1  0.99244630  0.99499112  0.64618913  1
  Ca  Ca7  1  0.00254482  0.99499112  0.14618913  1
  Ca  Ca8  1  0.66414470  0.33093937  0.97992706  1
  Ca  Ca9  1  0.66679568  0.33093937  0.47992706  1
  Ca  Ca10  1  0.33765652  0.67630666  0.31337372  1
  Ca  Ca11  1  0.33864913  0.67630666  0.81337372  1
  Sn  Sn12  1  0.00386428  0.99950998  0.34786797  1
  Sn  Sn13  1  0.99564570  0.99950998  0.84786797  1
  Sn  Sn14  1  0.66775808  0.33255487  0.68163332  1
  Sn  Sn15  1  0.66479779  0.33255487  0.18163332  1
  Sn  Sn16  1  0.31733339  0.67167265  0.01492304  1
  Sn  Sn17  1  0.35433826  0.67167265  0.51492304  1
  P  P18  1  0.30633704  0.01814319  0.24837985  1
  P  P19  1  0.71180615  0.01814319  0.74837985  1
  P  P20  1  0.65471078  0.61960861  0.58215881  1
  P  P21  1  0.96489883  0.61960861  0.08215881  1
  P  P22  1  0.31705216  0.96239344  0.91346293  1
  P  P23  1  0.64534027  0.96239344  0.41346293  1
  S  S24  1  0.70859872  0.69307936  0.24954341  1
  S  S25  1  0.98691771  0.29059462  0.24866137  1
  S  S26  1  0.30367691  0.29059462  0.74866137  1
  S  S27  1  0.98448064  0.69307936  0.74954341  1
  S  S28  1  0.97782935  0.35280103  0.58158452  1
  S  S29  1  0.37502349  0.02614925  0.58277649  1
  S  S30  1  0.65112676  0.02614925  0.08277649  1
  S  S31  1  0.37497268  0.35280103  0.08158452  1
  S  S32  1  0.63345770  0.68086702  0.91734188  1
  S  S33  1  0.04373013  0.36099005  0.91558342  1
  S  S34  1  0.31725892  0.36099005  0.41558342  1
  S  S35  1  0.04740832  0.68086702  0.41734188  1
  O  O36  1  0.22240528  0.04366907  0.30562599  1
  O  O37  1  0.81366144  0.77414065  0.30286567  1
  O  O38  1  0.95953469  0.18385812  0.30288190  1
  O  O39  1  0.22432343  0.18385812  0.80288190  1
  O  O40  1  0.96047921  0.77414065  0.80286567  1
  O  O41  1  0.82126379  0.04366907  0.80562599  1
  O  O42  1  0.80454639  0.00833372  0.69722124  1
  O  O43  1  0.20458750  0.20527247  0.69874689  1
  O  O44  1  0.00798040  0.79775952  0.69932489  1
  O  O45  1  0.78977912  0.79775952  0.19932489  1
  O  O46  1  0.00068497  0.20527247  0.19874689  1
  O  O47  1  0.20378733  0.00833372  0.19722124  1
  O  O48  1  0.89645423  0.37481315  0.63555904  1
  O  O49  1  0.48186557  0.10461579  0.63608414  1
  O  O50  1  0.62839883  0.50890495  0.63960999  1
  O  O51  1  0.88050712  0.50890495  0.13960999  1
  O  O52  1  0.62275122  0.10461579  0.13608414  1
  O  O53  1  0.47835991  0.37481315  0.13555904  1
  O  O54  1  0.45876012  0.33097755  0.03235985  1
  O  O55  1  0.86457639  0.52964461  0.03065367  1
  O  O56  1  0.66675333  0.12606606  0.03214226  1
  O  O57  1  0.45931373  0.12606606  0.53214226  1
  O  O58  1  0.66506921  0.52964461  0.53065367  1
  O  O59  1  0.87221843  0.33097755  0.53235985  1
  O  O60  1  0.54789797  0.70039449  0.97059792  1
  O  O61  1  0.14990973  0.43992033  0.96915137  1
  O  O62  1  0.28592886  0.85256316  0.97166115  1
  O  O63  1  0.56663330  0.85256316  0.47166115  1
  O  O64  1  0.29000960  0.43992033  0.46915137  1
  O  O65  1  0.15249552  0.70039449  0.47059792  1
  O  O66  1  0.12925657  0.66339242  0.36677696  1
  O  O67  1  0.53794501  0.87209638  0.36316819  1
  O  O68  1  0.33089506  0.46141348  0.36521408  1
  O  O69  1  0.13051742  0.46141348  0.86521408  1
  O  O70  1  0.33415037  0.87209638  0.86316819  1
  O  O71  1  0.53413485  0.66339242  0.86677696  1
  O  O72  1  0.03830404  0.84568440  0.41346207  1
  O  O73  1  0.82812141  0.97169766  0.40900852  1
  O  O74  1  0.15603943  0.18576635  0.41318789  1
  O  O75  1  0.02972692  0.18576635  0.91318789  1
  O  O76  1  0.14357625  0.97169766  0.90900852  1
  O  O77  1  0.80738036  0.84568440  0.91346207  1
  O  O78  1  0.00918133  0.20860652  0.58763030  1
  O  O79  1  0.20359280  0.00561038  0.58886144  1
  O  O80  1  0.80745245  0.80054402  0.58668912  1
  O  O81  1  0.99309157  0.80054402  0.08668912  1
  O  O82  1  0.80201758  0.00561038  0.08886144  1
  O  O83  1  0.19942519  0.20860652  0.08763030  1
  O  O84  1  0.69861481  0.18968757  0.74446843  1
  O  O85  1  0.47996234  0.30458846  0.74586093  1
  O  O86  1  0.81875877  0.52189445  0.74597249  1
  O  O87  1  0.70313668  0.52189445  0.24597249  1
  O  O88  1  0.82462712  0.30458846  0.24586093  1
  O  O89  1  0.49107376  0.18968757  0.24446843  1
  O  O90  1  0.66321640  0.53602282  0.92294025  1
  O  O91  1  0.87117299  0.33886673  0.92082055  1
  O  O92  1  0.46961281  0.14278628  0.91944432  1
  O  O93  1  0.67317446  0.14278628  0.41944432  1
  O  O94  1  0.46769474  0.33886673  0.42082055  1
  O  O95  1  0.87280742  0.53602282  0.42294025  1
  O  O96  1  0.36947493  0.51858560  0.07632639  1
  O  O97  1  0.14932755  0.63046961  0.08065295  1
  O  O98  1  0.49048660  0.84989523  0.07939915  1
  O  O99  1  0.35940764  0.84989523  0.57939915  1
  O  O100  1  0.48114105  0.63046961  0.58065295  1
  O  O101  1  0.14910967  0.51858560  0.57632639  1
  O  O102  1  0.33402324  0.86515739  0.25371005  1
  O  O103  1  0.53290637  0.66198996  0.25525324  1
  O  O104  1  0.13697839  0.46197357  0.25424004  1
  O  O105  1  0.32499418  0.46197357  0.75424004  1
  O  O106  1  0.12908259  0.66198996  0.75525324  1
  O  O107  1  0.53113315  0.86515739  0.75371005  1
