# generated using pymatgen
data_Rb3CrF7
_symmetry_space_group_name_H-M   'P 1'
_cell_length_a   8.03979291
_cell_length_b   8.03979291
_cell_length_c   5.81801311
_cell_angle_alpha   90.00000000
_cell_angle_beta   90.00000000
_cell_angle_gamma   90.00000000
_symmetry_Int_Tables_number   1
_chemical_formula_structural   Rb3CrF7
_chemical_formula_sum   'Rb6 Cr2 F14'
_cell_volume   376.06630248
_cell_formula_units_Z   2
loop_
 _symmetry_equiv_pos_site_id
 _symmetry_equiv_pos_as_xyz
  1  'x, y, z'
loop_
 _atom_site_type_symbol
 _atom_site_label
 _atom_site_symmetry_multiplicity
 _atom_site_fract_x
 _atom_site_fract_y
 _atom_site_fract_z
 _atom_site_occupancy
  Rb  Rb0  1  0.19106096  0.69106096  0.50000000  1
  Rb  Rb1  1  0.69106096  0.80893904  0.50000000  1
  Rb  Rb2  1  0.30893904  0.19106096  0.50000000  1
  Rb  Rb3  1  0.80893904  0.30893904  0.50000000  1
  Rb  Rb4  1  0.50000000  0.50000000  -0.00000000  1
  Rb  Rb5  1  -0.00000000  0.00000000  -0.00000000  1
  Cr  Cr6  1  -0.00000000  0.50000000  -0.00000000  1
  Cr  Cr7  1  0.50000000  0.00000000  -0.00000000  1
  F  F8  1  0.38875972  0.88875972  0.77652646  1
  F  F9  1  0.61124028  0.11124028  0.77652646  1
  F  F10  1  0.11124028  0.38875972  0.77652646  1
  F  F11  1  0.88875972  0.61124028  0.77652646  1
  F  F12  1  0.38875972  0.88875972  0.22347354  1
  F  F13  1  0.88875972  0.61124028  0.22347354  1
  F  F14  1  0.11124028  0.38875972  0.22347354  1
  F  F15  1  0.61124028  0.11124028  0.22347354  1
  F  F16  1  -0.00000000  0.00000000  0.50000000  1
  F  F17  1  0.50000000  0.50000000  0.50000000  1
  F  F18  1  0.83621260  0.33621260  -0.00000000  1
  F  F19  1  0.33621260  0.16378740  -0.00000000  1
  F  F20  1  0.66378740  0.83621260  -0.00000000  1
  F  F21  1  0.16378740  0.66378740  -0.00000000  1
