# generated using pymatgen
data_Na2Ca4Nb4Si3(S3O16)3
_symmetry_space_group_name_H-M   'P 1'
_cell_length_a   18.09774172
_cell_length_b   9.08046259
_cell_length_c   23.55097060
_cell_angle_alpha   89.94567632
_cell_angle_beta   90.02627424
_cell_angle_gamma   120.16306469
_symmetry_Int_Tables_number   1
_chemical_formula_structural   Na2Ca4Nb4Si3(S3O16)3
_chemical_formula_sum   'Na6 Ca12 Nb12 Si9 S27 O144'
_cell_volume   3346.22892279
_cell_formula_units_Z   3
loop_
 _symmetry_equiv_pos_site_id
 _symmetry_equiv_pos_as_xyz
  1  'x, y, z'
loop_
 _atom_site_type_symbol
 _atom_site_label
 _atom_site_symmetry_multiplicity
 _atom_site_fract_x
 _atom_site_fract_y
 _atom_site_fract_z
 _atom_site_occupancy
  Na  Na0  1  0.99835092  0.99690269  0.49963242  1
  Na  Na1  1  0.49853034  0.00158852  0.99690757  1
  Na  Na2  1  0.33289813  0.33229281  0.83524820  1
  Na  Na3  1  0.82951678  0.33125270  0.83387146  1
  Na  Na4  1  0.33804671  0.34258725  0.33776197  1
  Na  Na5  1  0.83135101  0.32862962  0.33870084  1
  Ca  Ca6  1  0.99882043  0.99805202  0.35462929  1
  Ca  Ca7  1  0.50252929  0.00586796  0.85121209  1
  Ca  Ca8  1  0.99977934  0.99984588  0.64747305  1
  Ca  Ca9  1  0.49994359  0.00041906  0.14789651  1
  Ca  Ca10  1  0.32507342  0.32702704  0.98186159  1
  Ca  Ca11  1  0.84151631  0.33936956  0.98251525  1
  Ca  Ca12  1  0.33993289  0.34683462  0.48289696  1
  Ca  Ca13  1  0.82716626  0.32440367  0.48262920  1
  Ca  Ca14  1  0.16169895  0.66367563  0.30790829  1
  Ca  Ca15  1  0.67083399  0.66929241  0.30770189  1
  Ca  Ca16  1  0.17259105  0.67469785  0.80755979  1
  Ca  Ca17  1  0.66073018  0.65124313  0.80443260  1
  Nb  Nb18  1  0.50034808  0.01191850  0.35454341  1
  Nb  Nb19  1  0.00044730  0.98792991  0.85141680  1
  Nb  Nb20  1  0.50550346  0.01180035  0.64264946  1
  Nb  Nb21  1  0.99924082  0.99864220  0.14163647  1
  Nb  Nb22  1  0.33797161  0.34069730  0.68009807  1
  Nb  Nb23  1  0.82909639  0.33040945  0.68912163  1
  Nb  Nb24  1  0.33643678  0.33632097  0.18494596  1
  Nb  Nb25  1  0.83432503  0.33148601  0.17938492  1
  Nb  Nb26  1  0.16120437  0.64863838  0.02435412  1
  Nb  Nb27  1  0.67163438  0.67447172  0.02072813  1
  Nb  Nb28  1  0.16987736  0.66549234  0.52425912  1
  Nb  Nb29  1  0.66385219  0.67497142  0.52662115  1
  Si  Si30  1  0.49622530  0.28971396  0.24783267  1
  Si  Si31  1  0.64197802  0.28192426  0.75099329  1
  Si  Si32  1  0.99785014  0.69934533  0.74568170  1
  Si  Si33  1  0.47907126  0.32982940  0.58010956  1
  Si  Si34  1  0.68963296  0.04725884  0.58452282  1
  Si  Si35  1  0.33517300  0.62979792  0.58467103  1
  Si  Si36  1  0.97948339  0.62873494  0.08139408  1
  Si  Si37  1  0.83175606  0.03823040  0.08317492  1
  Si  Si38  1  0.18861034  0.33290801  0.08520760  1
  S  S39  1  0.14771521  0.01312551  0.24635336  1
  S  S40  1  0.64975479  0.01887358  0.25194763  1
  S  S41  1  0.35793280  0.70077022  0.25147595  1
  S  S42  1  0.85908098  0.70193579  0.24613280  1
  S  S43  1  0.99177242  0.28252726  0.24641350  1
  S  S44  1  0.14972851  0.28127618  0.75173044  1
  S  S45  1  0.49146561  0.70227346  0.74661690  1
  S  S46  1  0.35756646  0.01495566  0.74529707  1
  S  S47  1  0.85916203  0.01570458  0.75210609  1
  S  S48  1  0.98292332  0.34199809  0.58140139  1
  S  S49  1  0.18847769  0.03776897  0.58007909  1
  S  S50  1  0.83006452  0.62355317  0.58095461  1
  S  S51  1  0.48313126  0.61985213  0.08181858  1
  S  S52  1  0.32916437  0.03570339  0.08106365  1
  S  S53  1  0.68891489  0.33961139  0.08018037  1
  S  S54  1  0.31211788  0.67369338  0.92028712  1
  S  S55  1  0.81368802  0.67656064  0.91493552  1
  S  S56  1  0.02565174  0.37303937  0.91499594  1
  S  S57  1  0.52329497  0.37737564  0.92040791  1
  S  S58  1  0.16265338  0.95230845  0.91475886  1
  S  S59  1  0.66436485  0.95172918  0.91883085  1
  S  S60  1  0.31289621  0.95207714  0.41469050  1
  S  S61  1  0.81198670  0.95115917  0.41965069  1
  S  S62  1  0.16485797  0.37983002  0.41891061  1
  S  S63  1  0.66427587  0.37389813  0.41463858  1
  S  S64  1  0.02390178  0.66996316  0.41951775  1
  S  S65  1  0.52571232  0.67848965  0.41503847  1
  O  O66  1  0.11760966  0.04952979  0.29930209  1
  O  O67  1  0.60213676  0.03858292  0.30298019  1
  O  O68  1  0.41463710  0.78582527  0.30246672  1
  O  O69  1  0.90835646  0.76307940  0.29898381  1
  O  O70  1  0.48128676  0.15102543  0.30678840  1
  O  O71  1  0.97589847  0.18686369  0.29940306  1
  O  O72  1  0.10019075  0.16350645  0.80321713  1
  O  O73  1  0.61849690  0.17514675  0.80826502  1
  O  O74  1  0.47225015  0.75938116  0.79979210  1
  O  O75  1  0.98148646  0.80944957  0.80645223  1
  O  O76  1  0.40614222  0.05357097  0.79865479  1
  O  O77  1  0.91727319  0.04063190  0.80340980  1
  O  O78  1  0.40414027  0.00069261  0.69661615  1
  O  O79  1  0.89542281  0.99428806  0.70042559  1
  O  O80  1  0.10038380  0.21125547  0.70029041  1
  O  O81  1  0.58117467  0.16401191  0.69769550  1
  O  O82  1  0.00671967  0.81512615  0.69433009  1
  O  O83  1  0.49634141  0.80411410  0.69747143  1
  O  O84  1  0.39426504  0.79471588  0.19944860  1
  O  O85  1  0.90865948  0.81438539  0.19787713  1
  O  O86  1  0.99893223  0.18807628  0.19771305  1
  O  O87  1  0.50392291  0.19689360  0.19453045  1
  O  O88  1  0.09175142  0.99715400  0.19816101  1
  O  O89  1  0.60065604  0.99033717  0.20028179  1
  O  O90  1  0.42850465  0.36430339  0.63593074  1
  O  O91  1  0.94612141  0.37187932  0.63302924  1
  O  O92  1  0.24222647  0.11680253  0.63219521  1
  O  O93  1  0.75793239  0.14175300  0.63763546  1
  O  O94  1  0.31223657  0.48748259  0.63888384  1
  O  O95  1  0.81754707  0.51661433  0.63237263  1
  O  O96  1  0.44073105  0.51048255  0.13487985  1
  O  O97  1  0.92754475  0.49126539  0.13664812  1
  O  O98  1  0.31854124  0.12480936  0.13298180  1
  O  O99  1  0.81236086  0.13454212  0.13875592  1
  O  O100  1  0.25556703  0.36924696  0.13936760  1
  O  O101  1  0.74370834  0.36485432  0.13293192  1
  O  O102  1  0.21659286  0.28229716  0.02967101  1
  O  O103  1  0.72708682  0.31369342  0.03039435  1
  O  O104  1  0.43022579  0.54166142  0.03254546  1
  O  O105  1  0.92206521  0.57121931  0.02775181  1
  O  O106  1  0.34595729  0.14108558  0.03118647  1
  O  O107  1  0.85559118  0.15020284  0.02895576  1
  O  O108  1  0.22631715  0.13771292  0.52946250  1
  O  O109  1  0.71784358  0.14903096  0.52777352  1
  O  O110  1  0.35308154  0.56108462  0.52888363  1
  O  O111  1  0.84567860  0.55225140  0.53040805  1
  O  O112  1  0.42358236  0.28346197  0.52564291  1
  O  O113  1  0.93282116  0.31842059  0.53066229  1
  O  O114  1  0.25864739  0.67764981  0.97130839  1
  O  O115  1  0.77107066  0.69442991  0.96921235  1
  O  O116  1  0.07658981  0.46218095  0.97065167  1
  O  O117  1  0.58022886  0.48247919  0.97165158  1
  O  O118  1  0.14899531  0.85008898  0.96715139  1
  O  O119  1  0.66366760  0.84137819  0.97236058  1
  O  O120  1  0.27276222  0.85027964  0.46757258  1
  O  O121  1  0.76034347  0.84199166  0.47037740  1
  O  O122  1  0.16314357  0.48259593  0.47120096  1
  O  O123  1  0.64961899  0.44633743  0.46642165  1
  O  O124  1  0.07906251  0.67827439  0.47003140  1
  O  O125  1  0.57558561  0.69564233  0.46940173  1
  O  O126  1  0.06370711  0.65941085  0.36678701  1
  O  O127  1  0.56908793  0.65920764  0.36667208  1
  O  O128  1  0.26216739  0.86858491  0.36449244  1
  O  O129  1  0.76773888  0.87220396  0.36714787  1
  O  O130  1  0.16929844  0.47359684  0.36761369  1
  O  O131  1  0.67352413  0.47095322  0.36375170  1
  O  O132  1  0.07008488  0.48140700  0.86766912  1
  O  O133  1  0.56342136  0.47008921  0.86870900  1
  O  O134  1  0.17326650  0.87431505  0.86462692  1
  O  O135  1  0.66945786  0.86602850  0.86855477  1
  O  O136  1  0.26759641  0.66311102  0.86817692  1
  O  O137  1  0.76135560  0.65784368  0.86602049  1
  O  O138  1  0.01965999  0.82892459  0.42168363  1
  O  O139  1  0.52014020  0.83887419  0.40780591  1
  O  O140  1  0.39984217  0.95853163  0.40736134  1
  O  O141  1  0.89637553  0.96098768  0.42303623  1
  O  O142  1  0.08449051  0.21397613  0.42245436  1
  O  O143  1  0.58199889  0.19319664  0.40594059  1
  O  O144  1  0.02131576  0.20485125  0.91074134  1
  O  O145  1  0.51930590  0.21146321  0.92425046  1
  O  O146  1  0.08128470  0.96830796  0.90629608  1
  O  O147  1  0.58350858  0.95152507  0.92516988  1
  O  O148  1  0.39578905  0.83209338  0.92471438  1
  O  O149  1  0.89934590  0.84181807  0.90917002  1
  O  O150  1  0.49896679  0.18229264  0.60050232  1
  O  O151  1  0.00140622  0.20350299  0.58713609  1
  O  O152  1  0.10146297  0.00473920  0.58739665  1
  O  O153  1  0.59217353  0.99678021  0.60261049  1
  O  O154  1  0.40711508  0.81426667  0.60703970  1
  O  O155  1  0.89883612  0.80010624  0.58795698  1
  O  O156  1  0.49815815  0.79175432  0.09022291  1
  O  O157  1  0.00034608  0.81755897  0.10443435  1
  O  O158  1  0.39867529  -0.00009674  0.08935702  1
  O  O159  1  0.90714539  -0.00010268  0.10495814  1
  O  O160  1  0.09178358  0.18377835  0.10572257  1
  O  O161  1  0.60259156  0.19656369  0.08857706  1
  O  O162  1  0.34504194  0.16884153  0.73457505  1
  O  O163  1  0.85613022  0.18066840  0.74839565  1
  O  O164  1  0.23323480  0.28214440  0.74850281  1
  O  O165  1  0.73936863  0.30153160  0.73193230  1
  O  O166  1  0.41156296  0.51856141  0.73740569  1
  O  O167  1  0.90588004  0.51371452  0.73861845  1
  O  O168  1  0.35324797  0.52611217  0.24551132  1
  O  O169  1  0.84713638  0.52563079  0.23480159  1
  O  O170  1  0.40290226  0.29372412  0.23852888  1
  O  O171  1  0.91185666  0.30033258  0.23689466  1
  O  O172  1  0.23613071  0.16866371  0.23502390  1
  O  O173  1  0.73452371  0.18623932  0.24712487  1
  O  O174  1  0.32169758  0.52275487  0.92486414  1
  O  O175  1  0.82785053  0.53330746  0.92088483  1
  O  O176  1  0.43843013  0.35947013  0.92597904  1
  O  O177  1  0.93951146  0.34849990  0.92005868  1
  O  O178  1  0.23456254  0.12732215  0.91955208  1
  O  O179  1  0.73909499  0.12101299  0.92455950  1
  O  O180  1  0.32891084  0.12563167  0.41922842  1
  O  O181  1  0.82272057  0.12248417  0.42333797  1
  O  O182  1  0.23972617  0.35873048  0.42226217  1
  O  O183  1  0.73540598  0.34111175  0.41874566  1
  O  O184  1  0.43839463  0.53273613  0.41890374  1
  O  O185  1  0.93822929  0.51873466  0.42363888  1
  O  O186  1  0.17828970  0.50580009  0.07276189  1
  O  O187  1  0.68482526  0.50143683  0.07344575  1
  O  O188  1  0.07328877  0.64211220  0.07020916  1
  O  O189  1  0.56864031  0.62910106  0.07503219  1
  O  O190  1  0.24669528  0.86796380  0.07358503  1
  O  O191  1  0.74601916  0.84530980  0.07166316  1
  O  O192  1  0.18348277  0.86492855  0.57178700  1
  O  O193  1  0.68054683  0.85277081  0.57242802  1
  O  O194  1  0.24648405  0.64616737  0.57128084  1
  O  O195  1  0.74711105  0.62837585  0.57166939  1
  O  O196  1  0.07147113  0.50664438  0.57208158  1
  O  O197  1  0.57347055  0.50672348  0.56935269  1
  O  O198  1  0.15796319  0.86460413  0.24885524  1
  O  O199  1  0.66661495  0.88276293  0.26283038  1
  O  O200  1  0.27251820  0.67008279  0.26143748  1
  O  O201  1  0.77591057  0.68752924  0.24789164  1
  O  O202  1  0.06581799  0.45300574  0.24817283  1
  O  O203  1  0.56644268  0.47310136  0.26407762  1
  O  O204  1  0.16462873  0.44876289  0.76362720  1
  O  O205  1  0.65687248  0.46778539  0.74701180  1
  O  O206  1  0.07003477  0.66515163  0.76398297  1
  O  O207  1  0.56544638  0.68040883  0.74917569  1
  O  O208  1  0.27338718  0.86502895  0.74830308  1
  O  O209  1  0.77439422  0.87567973  0.76331016  1
