# generated using pymatgen
data_Na2Ca5Ti3(SO4)12
_symmetry_space_group_name_H-M   'P 1'
_cell_length_a   17.93411018
_cell_length_b   8.99237107
_cell_length_c   23.46153165
_cell_angle_alpha   90.16709389
_cell_angle_beta   89.87251974
_cell_angle_gamma   120.16234706
_symmetry_Int_Tables_number   1
_chemical_formula_structural   Na2Ca5Ti3(SO4)12
_chemical_formula_sum   'Na6 Ca15 Ti9 S36 O144'
_cell_volume   3271.34414886
_cell_formula_units_Z   3
loop_
 _symmetry_equiv_pos_site_id
 _symmetry_equiv_pos_as_xyz
  1  'x, y, z'
loop_
 _atom_site_type_symbol
 _atom_site_label
 _atom_site_symmetry_multiplicity
 _atom_site_fract_x
 _atom_site_fract_y
 _atom_site_fract_z
 _atom_site_occupancy
  Na  Na0  1  0.00150924  0.00136786  0.50046920  1
  Na  Na1  1  0.50213365  0.00441263  0.00034692  1
  Na  Na2  1  0.33451939  0.33596765  0.83013057  1
  Na  Na3  1  0.83195773  0.33156526  0.83254470  1
  Na  Na4  1  0.33395205  0.33587719  0.33589790  1
  Na  Na5  1  0.83285239  0.33004283  0.33310537  1
  Ca  Ca6  1  0.00543537  0.00299161  0.35650915  1
  Ca  Ca7  1  0.50060362  0.00003207  0.85756968  1
  Ca  Ca8  1  0.00097798  0.00047176  0.64581410  1
  Ca  Ca9  1  0.50097177  0.00251062  0.14747678  1
  Ca  Ca10  1  0.32895089  0.32974337  0.67856181  1
  Ca  Ca11  1  0.83782097  0.33724753  0.68163164  1
  Ca  Ca12  1  0.82729456  0.32685740  0.17997346  1
  Ca  Ca13  1  0.32682545  0.32916516  0.98383530  1
  Ca  Ca14  1  0.83995634  0.33801502  0.98540564  1
  Ca  Ca15  1  0.34020871  0.34153820  0.48553727  1
  Ca  Ca16  1  0.82751392  0.32546468  0.48420090  1
  Ca  Ca17  1  0.16350392  0.66513088  0.30641674  1
  Ca  Ca18  1  0.67095590  0.66518057  0.30740236  1
  Ca  Ca19  1  0.17359620  0.67636409  0.80780431  1
  Ca  Ca20  1  0.65984962  0.65687879  0.80621511  1
  Ti  Ti21  1  0.50136988  0.99600686  0.35829259  1
  Ti  Ti22  1  0.99782403  0.99777267  0.85123861  1
  Ti  Ti23  1  0.49879638  0.99880291  0.65050167  1
  Ti  Ti24  1  0.99826597  0.00255997  0.14889145  1
  Ti  Ti25  1  0.33681351  0.33745797  0.18309039  1
  Ti  Ti26  1  0.16139156  0.67168145  0.01566497  1
  Ti  Ti27  1  0.67199158  0.66837444  0.01616862  1
  Ti  Ti28  1  0.16818711  0.66477341  0.51886534  1
  Ti  Ti29  1  0.66561204  0.67156712  0.52185712  1
  S  S30  1  0.15042444  0.01807803  0.24271504  1
  S  S31  1  0.64315942  0.01011625  0.25618229  1
  S  S32  1  0.35893412  0.69786988  0.25064185  1
  S  S33  1  0.86115463  0.71551340  0.24688938  1
  S  S34  1  0.99640504  0.27999289  0.24722619  1
  S  S35  1  0.48977957  0.28083985  0.25068415  1
  S  S36  1  0.14398915  0.27821868  0.75510249  1
  S  S37  1  0.64323988  0.28012839  0.74689640  1
  S  S38  1  0.99550433  0.71132825  0.75463030  1
  S  S39  1  0.49621904  0.71302515  0.74704312  1
  S  S40  1  0.35992153  0.00744923  0.74738056  1
  S  S41  1  0.85980513  0.00904114  0.75447446  1
  S  S42  1  0.49014411  0.33241102  0.58305873  1
  S  S43  1  0.99070947  0.34516722  0.57856633  1
  S  S44  1  0.18240080  0.01946306  0.57734397  1
  S  S45  1  0.67618733  0.01980234  0.58418782  1
  S  S46  1  0.33372528  0.64816580  0.58349915  1
  S  S47  1  0.82756106  0.63591300  0.57844835  1
  S  S48  1  0.48318827  0.61881499  0.08292108  1
  S  S49  1  0.98917977  0.64696482  0.08351501  1
  S  S50  1  0.32658972  0.03413126  0.08240171  1
  S  S51  1  0.83339697  0.01952478  0.08347550  1
  S  S52  1  0.18416110  0.33548110  0.08807160  1
  S  S53  1  0.68202165  0.34378657  0.07739222  1
  S  S54  1  0.30857422  0.67118771  0.92196207  1
  S  S55  1  0.81413323  0.67525263  0.91460291  1
  S  S56  1  0.02604250  0.37370201  0.91592956  1
  S  S57  1  0.52429110  0.38087584  0.92084657  1
  S  S58  1  0.16005630  0.95001505  0.91540730  1
  S  S59  1  0.66669986  0.95009623  0.92103964  1
  S  S60  1  0.31607442  0.95536222  0.41370501  1
  S  S61  1  0.80866659  0.94645615  0.42087314  1
  S  S62  1  0.16761375  0.38279505  0.42030019  1
  S  S63  1  0.66048110  0.36807918  0.41458542  1
  S  S64  1  0.02462296  0.66690558  0.42038740  1
  S  S65  1  0.52375874  0.67730712  0.41475356  1
  O  O66  1  0.12202200  0.05689991  0.29641529  1
  O  O67  1  0.58931007  0.02235975  0.30592223  1
  O  O68  1  0.41432666  0.77932510  0.30216130  1
  O  O69  1  0.90966923  0.79355599  0.29924589  1
  O  O70  1  0.47401472  0.16770659  0.30129698  1
  O  O71  1  0.98733784  0.18339925  0.29936384  1
  O  O72  1  0.09183353  0.16331564  0.80634328  1
  O  O73  1  0.60523469  0.18521788  0.79961531  1
  O  O74  1  0.48672858  0.78901079  0.79988726  1
  O  O75  1  0.98952770  0.81486144  0.80617360  1
  O  O76  1  0.40733248  0.02543116  0.80003324  1
  O  O77  1  0.91736320  0.02039592  0.80604083  1
  O  O78  1  0.41211671  0.00266755  0.69616253  1
  O  O79  1  0.89896567  0.99515562  0.70198198  1
  O  O80  1  0.09887533  0.20112973  0.70219459  1
  O  O81  1  0.58851705  0.17546809  0.69603656  1
  O  O82  1  0.00220985  0.80227187  0.70205532  1
  O  O83  1  0.49859256  0.82211185  0.69619356  1
  O  O84  1  0.39625116  0.79790637  0.19924956  1
  O  O85  1  0.91350097  0.82449293  0.19569029  1
  O  O86  1  0.99883920  0.17500433  0.19582834  1
  O  O87  1  0.50308727  0.20921680  0.19860716  1
  O  O88  1  0.09147163  0.99870793  0.19492551  1
  O  O89  1  0.59888808  0.99669835  0.20271143  1
  O  O90  1  0.45653341  0.37994586  0.63221294  1
  O  O91  1  0.95739930  0.37790338  0.63132918  1
  O  O92  1  0.23103688  0.08456803  0.63037660  1
  O  O93  1  0.73433576  0.08744864  0.63300364  1
  O  O94  1  0.30967158  0.53451306  0.63291531  1
  O  O95  1  0.81119964  0.53549392  0.63062553  1
  O  O96  1  0.43465805  0.50330733  0.13468170  1
  O  O97  1  0.95599460  0.53286265  0.13250901  1
  O  O98  1  0.31662205  0.12731553  0.13341710  1
  O  O99  1  0.81057126  0.08579358  0.13320963  1
  O  O100  1  0.24745298  0.36644394  0.13592873  1
  O  O101  1  0.73054539  0.37726205  0.13046369  1
  O  O102  1  0.21254526  0.28703398  0.03680446  1
  O  O103  1  0.72485459  0.31535446  0.02896982  1
  O  O104  1  0.42979951  0.54370200  0.03273936  1
  O  O105  1  0.93416419  0.58137773  0.03325676  1
  O  O106  1  0.34295665  0.13780676  0.03154009  1
  O  O107  1  0.85685115  0.13231961  0.03408151  1
  O  O108  1  0.22489362  0.13318851  0.52896795  1
  O  O109  1  0.70965643  0.12631712  0.53361743  1
  O  O110  1  0.35668829  0.58078240  0.53401911  1
  O  O111  1  0.84031817  0.55372950  0.52880597  1
  O  O112  1  0.43508356  0.28803528  0.53289504  1
  O  O113  1  0.93497509  0.31912426  0.52999120  1
  O  O114  1  0.25529879  0.67721661  0.97248191  1
  O  O115  1  0.76978943  0.69509611  0.96736160  1
  O  O116  1  0.07918803  0.46651074  0.96969703  1
  O  O117  1  0.58118575  0.48868757  0.97044598  1
  O  O118  1  0.15119479  0.83718400  0.96764853  1
  O  O119  1  0.66441884  0.84280521  0.97246377  1
  O  O120  1  0.27674944  0.85073383  0.46574605  1
  O  O121  1  0.75483574  0.83578138  0.47146352  1
  O  O122  1  0.16601661  0.48615124  0.47141497  1
  O  O123  1  0.64686237  0.44841926  0.46587529  1
  O  O124  1  0.08104348  0.67407578  0.46976182  1
  O  O125  1  0.57468561  0.70167690  0.46767578  1
  O  O126  1  0.06285505  0.65597470  0.36664803  1
  O  O127  1  0.56338236  0.65316912  0.36469463  1
  O  O128  1  0.26332541  0.87858272  0.36327425  1
  O  O129  1  0.76378875  0.86734218  0.36826513  1
  O  O130  1  0.17200171  0.47276717  0.36791859  1
  O  O131  1  0.67467740  0.46934320  0.36348726  1
  O  O132  1  0.06580738  0.48064087  0.86652966  1
  O  O133  1  0.56252472  0.46807009  0.86746696  1
  O  O134  1  0.17563942  0.87565958  0.86527605  1
  O  O135  1  0.67141899  0.86898057  0.86861995  1
  O  O136  1  0.26492127  0.66000705  0.86887901  1
  O  O137  1  0.76064852  0.64616878  0.86491561  1
  O  O138  1  0.02063708  0.82698763  0.42382031  1
  O  O139  1  0.51728770  0.84084493  0.40676859  1
  O  O140  1  0.40276050  0.96376529  0.40373614  1
  O  O141  1  0.89318675  0.95656327  0.42458066  1
  O  O142  1  0.08729214  0.21430207  0.42418387  1
  O  O143  1  0.57793912  0.19288314  0.40512321  1
  O  O144  1  0.02194827  0.20413543  0.91062236  1
  O  O145  1  0.52064714  0.21362432  0.92495886  1
  O  O146  1  0.07911692  0.95629322  0.91066544  1
  O  O147  1  0.58648235  0.95775374  0.92519711  1
  O  O148  1  0.39298854  0.83025629  0.92625042  1
  O  O149  1  0.89935183  0.83861314  0.90829040  1
  O  O150  1  0.50581151  0.18845805  0.59723059  1
  O  O151  1  0.00550344  0.19931655  0.58308110  1
  O  O152  1  0.09355108  0.98622551  0.58202620  1
  O  O153  1  0.58878918  0.99048732  0.59788223  1
  O  O154  1  0.40773711  0.82344461  0.59818419  1
  O  O155  1  0.89976783  0.81279900  0.58331382  1
  O  O156  1  0.49552948  0.79067935  0.09212299  1
  O  O157  1  0.00561024  0.82312841  0.09728813  1
  O  O158  1  0.39845431  0.00413890  0.09148242  1
  O  O159  1  0.90863374  0.99402884  0.09751324  1
  O  O160  1  0.09719960  0.18729341  0.10423932  1
  O  O161  1  0.59306702  0.19824446  0.08161461  1
  O  O162  1  0.35044850  0.15945262  0.74082856  1
  O  O163  1  0.85676046  0.16988083  0.75686902  1
  O  O164  1  0.22835791  0.28712895  0.75733461  1
  O  O165  1  0.72916856  0.29947808  0.73996957  1
  O  O166  1  0.41999044  0.54081787  0.74050047  1
  O  O167  1  0.91505706  0.54324320  0.75686820  1
  O  O168  1  0.35260560  0.52059032  0.24175596  1
  O  O169  1  0.85135777  0.54418189  0.24027605  1
  O  O170  1  0.40714637  0.29323684  0.24153426  1
  O  O171  1  0.91995952  0.29844313  0.24058057  1
  O  O172  1  0.23843544  0.17506809  0.22958103  1
  O  O173  1  0.72769068  0.17068984  0.25850512  1
  O  O174  1  0.31715506  0.51812913  0.92700861  1
  O  O175  1  0.82860834  0.53023874  0.92327983  1
  O  O176  1  0.43836414  0.36143971  0.92643499  1
  O  O177  1  0.93880280  0.34637353  0.92385372  1
  O  O178  1  0.23386224  0.12207120  0.92471450  1
  O  O179  1  0.74331404  0.12225944  0.92610779  1
  O  O180  1  0.33375918  0.13277391  0.42110860  1
  O  O181  1  0.81768433  0.11743813  0.42596489  1
  O  O182  1  0.24379501  0.36261136  0.42505640  1
  O  O183  1  0.73195572  0.33453349  0.42170636  1
  O  O184  1  0.43487325  0.53397071  0.42103665  1
  O  O185  1  0.93810193  0.51493745  0.42548441  1
  O  O186  1  0.17655246  0.48991897  0.07941743  1
  O  O187  1  0.67630353  0.50412773  0.06450149  1
  O  O188  1  0.07623952  0.66405381  0.06710155  1
  O  O189  1  0.56776823  0.62828566  0.07688930  1
  O  O190  1  0.24512293  0.86403686  0.07408020  1
  O  O191  1  0.75807881  0.84496274  0.06921586  1
  O  O192  1  0.17663116  0.84830321  0.56468137  1
  O  O193  1  0.66417576  0.84150191  0.57003277  1
  O  O194  1  0.25833376  0.67139238  0.56871459  1
  O  O195  1  0.74685807  0.65011456  0.56663311  1
  O  O196  1  0.07871974  0.50425417  0.56777512  1
  O  O197  1  0.57695539  0.48782900  0.56705382  1
  O  O198  1  0.15983493  0.86725303  0.24523211  1
  O  O199  1  0.65060677  0.85951251  0.26431917  1
  O  O200  1  0.27236513  0.66602092  0.25996942  1
  O  O201  1  0.77904356  0.71088016  0.24503283  1
  O  O202  1  0.07662735  0.44404219  0.24508645  1
  O  O203  1  0.56028297  0.45357790  0.26025108  1
  O  O204  1  0.15094139  0.44402410  0.76297139  1
  O  O205  1  0.64547817  0.44382050  0.74519040  1
  O  O206  1  0.07135228  0.69696161  0.76271227  1
  O  O207  1  0.57655703  0.71014778  0.74509315  1
  O  O208  1  0.27793710  0.84729214  0.74487940  1
  O  O209  1  0.77647700  0.85769382  0.76289218  1
