# generated using pymatgen
data_Dy(AlCl4)3
_symmetry_space_group_name_H-M   'P 1'
_cell_length_a   10.61681515
_cell_length_b   10.61572956
_cell_length_c   15.72361050
_cell_angle_alpha   89.99814481
_cell_angle_beta   90.00206278
_cell_angle_gamma   119.99777262
_symmetry_Int_Tables_number   1
_chemical_formula_structural   Dy(AlCl4)3
_chemical_formula_sum   'Dy3 Al9 Cl36'
_cell_volume   1534.74687442
_cell_formula_units_Z   3
loop_
 _symmetry_equiv_pos_site_id
 _symmetry_equiv_pos_as_xyz
  1  'x, y, z'
loop_
 _atom_site_type_symbol
 _atom_site_label
 _atom_site_symmetry_multiplicity
 _atom_site_fract_x
 _atom_site_fract_y
 _atom_site_fract_z
 _atom_site_occupancy
  Dy  Dy0  1  0.98986596  0.49492306  -0.00000073  1
  Dy  Dy1  1  0.50519891  0.01032906  0.66675727  1
  Dy  Dy2  1  0.50522444  0.49488600  0.33324667  1
  Al  Al3  1  0.72933601  0.27066024  0.83360495  1
  Al  Al4  1  0.12639042  0.76305458  0.60224553  1
  Al  Al5  1  0.23697242  0.36329579  0.93541958  1
  Al  Al6  1  0.63654878  0.87372622  0.26892825  1
  Al  Al7  1  0.72933494  0.45868054  0.16640310  1
  Al  Al8  1  0.54100219  0.27049362  0.50000226  1
  Al  Al9  1  0.12639634  0.36334600  0.39775561  1
  Al  Al10  1  0.63653135  0.76282522  0.73105757  1
  Al  Al11  1  0.23697163  0.87367746  0.06457904  1
  Cl  Cl12  1  0.00362458  0.84168372  0.54287918  1
  Cl  Cl13  1  0.83784365  0.99693005  0.20954409  1
  Cl  Cl14  1  0.15895122  0.16202375  0.87604108  1
  Cl  Cl15  1  0.79197093  0.58949932  0.27964329  1
  Cl  Cl16  1  0.41015604  0.20222031  0.61318653  1
  Cl  Cl17  1  0.79767615  0.20784384  0.94663967  1
  Cl  Cl18  1  0.41017333  0.20795866  0.38680383  1
  Cl  Cl19  1  0.79766028  0.58981270  0.05336126  1
  Cl  Cl20  1  0.79194400  0.20244746  0.72036705  1
  Cl  Cl21  1  0.22265705  0.34299538  0.27761425  1
  Cl  Cl22  1  0.65729584  0.87997233  0.61110449  1
  Cl  Cl23  1  0.12026523  0.77738921  0.94446618  1
  Cl  Cl24  1  0.65730521  0.77732816  0.38888908  1
  Cl  Cl25  1  0.12026085  0.34288384  0.05552417  1
  Cl  Cl26  1  0.22261332  0.87963956  0.72239122  1
  Cl  Cl27  1  0.50571078  0.66283279  0.20247797  1
  Cl  Cl28  1  0.33732269  0.84303765  0.53590259  1
  Cl  Cl29  1  0.15694663  0.49414745  0.86904224  1
  Cl  Cl30  1  0.33735284  0.49430867  0.46409731  1
  Cl  Cl31  1  0.15692004  0.66277866  0.13096148  1
  Cl  Cl32  1  0.50568191  0.84284993  0.79751175  1
  Cl  Cl33  1  0.66662466  0.50084369  0.48330214  1
  Cl  Cl34  1  0.49903818  0.16559993  0.81676444  1
  Cl  Cl35  1  0.83433048  0.33330698  0.14991289  1
  Cl  Cl36  1  0.49903827  0.33345217  0.18323987  1
  Cl  Cl37  1  0.83435399  0.50103266  0.85008326  1
  Cl  Cl38  1  0.66661683  0.16577676  0.51670868  1
  Cl  Cl39  1  0.02852564  0.48994526  0.37690475  1
  Cl  Cl40  1  0.50990316  0.53839652  0.71006780  1
  Cl  Cl41  1  0.46135112  0.97129022  0.04351562  1
  Cl  Cl42  1  0.50992328  0.97150414  0.28993400  1
  Cl  Cl43  1  0.46134863  0.49005303  0.95649714  1
  Cl  Cl44  1  0.02846645  0.53856630  0.62308601  1
  Cl  Cl45  1  0.00361422  0.16191865  0.45712106  1
  Cl  Cl46  1  0.83779678  0.84090927  0.79045771  1
  Cl  Cl47  1  0.15895834  0.99692620  0.12395783  1
