# generated using pymatgen
data_Rb2CrF5
_symmetry_space_group_name_H-M   'P 1'
_cell_length_a   5.73897356
_cell_length_b   7.46915393
_cell_length_c   11.97387611
_cell_angle_alpha   90.00000000
_cell_angle_beta   90.00000000
_cell_angle_gamma   90.00000000
_symmetry_Int_Tables_number   1
_chemical_formula_structural   Rb2CrF5
_chemical_formula_sum   'Rb8 Cr4 F20'
_cell_volume   513.26351526
_cell_formula_units_Z   4
loop_
 _symmetry_equiv_pos_site_id
 _symmetry_equiv_pos_as_xyz
  1  'x, y, z'
loop_
 _atom_site_type_symbol
 _atom_site_label
 _atom_site_symmetry_multiplicity
 _atom_site_fract_x
 _atom_site_fract_y
 _atom_site_fract_z
 _atom_site_occupancy
  Rb  Rb0  1  0.25000000  0.48944807  0.27478344  1
  Rb  Rb1  1  0.75000000  0.51055193  0.72521656  1
  Rb  Rb2  1  0.25000000  0.98944807  0.22521656  1
  Rb  Rb3  1  0.75000000  0.01055193  0.77478344  1
  Rb  Rb4  1  0.25000000  0.14869600  0.58453616  1
  Rb  Rb5  1  0.75000000  0.85130400  0.41546384  1
  Rb  Rb6  1  0.25000000  0.64869600  0.91546384  1
  Rb  Rb7  1  0.75000000  0.35130400  0.08453616  1
  Cr  Cr8  1  0.25000000  0.65777643  0.56186996  1
  Cr  Cr9  1  0.75000000  0.34222357  0.43813004  1
  Cr  Cr10  1  0.25000000  0.15777643  0.93813004  1
  Cr  Cr11  1  0.75000000  0.84222357  0.06186996  1
  F  F12  1  0.51340693  0.19454645  0.38163375  1
  F  F13  1  0.01340693  0.80545355  0.61836625  1
  F  F14  1  0.98659307  0.69454645  0.11836625  1
  F  F15  1  0.48659307  0.30545355  0.88163375  1
  F  F16  1  0.48659307  0.80545355  0.61836625  1
  F  F17  1  0.98659307  0.19454645  0.38163375  1
  F  F18  1  0.01340693  0.30545355  0.88163375  1
  F  F19  1  0.51340693  0.69454645  0.11836625  1
  F  F20  1  0.25000000  0.78730360  0.42298130  1
  F  F21  1  0.75000000  0.21269640  0.57701870  1
  F  F22  1  0.25000000  0.28730360  0.07701870  1
  F  F23  1  0.75000000  0.71269640  0.92298130  1
  F  F24  1  0.50000000  0.50000000  0.50000000  1
  F  F25  1  -0.00000000  0.50000000  0.50000000  1
  F  F26  1  -0.00000000  -0.00000000  0.00000000  1
  F  F27  1  0.50000000  -0.00000000  0.00000000  1
  F  F28  1  0.75000000  0.98619303  0.19132474  1
  F  F29  1  0.25000000  0.01380697  0.80867526  1
  F  F30  1  0.75000000  0.48619303  0.30867526  1
  F  F31  1  0.25000000  0.51380697  0.69132474  1
