# generated using pymatgen
data_Na8Ga2O7
_symmetry_space_group_name_H-M   'P 1'
_cell_length_a   10.90120074
_cell_length_b   8.58955290
_cell_length_c   9.95517110
_cell_angle_alpha   72.37233158
_cell_angle_beta   90.00000000
_cell_angle_gamma   90.00000000
_symmetry_Int_Tables_number   1
_chemical_formula_structural   Na8Ga2O7
_chemical_formula_sum   'Na32 Ga8 O28'
_cell_volume   888.39646611
_cell_formula_units_Z   4
loop_
 _symmetry_equiv_pos_site_id
 _symmetry_equiv_pos_as_xyz
  1  'x, y, z'
loop_
 _atom_site_type_symbol
 _atom_site_label
 _atom_site_symmetry_multiplicity
 _atom_site_fract_x
 _atom_site_fract_y
 _atom_site_fract_z
 _atom_site_occupancy
  Na  Na0  1  0.73097452  0.49835910  0.62765263  1
  Na  Na1  1  0.99608405  0.65967311  0.01763310  1
  Na  Na2  1  0.49608405  0.34032689  0.48236690  1
  Na  Na3  1  0.00391595  0.34032689  0.98236690  1
  Na  Na4  1  0.50391595  0.65967311  0.51763310  1
  Na  Na5  1  0.52569760  0.11838233  0.07750501  1
  Na  Na6  1  0.02569760  0.88161767  0.42249499  1
  Na  Na7  1  0.47430240  0.88161767  0.92249499  1
  Na  Na8  1  0.75996843  0.89283085  0.03273398  1
  Na  Na9  1  0.25996843  0.10716915  0.46726602  1
  Na  Na10  1  0.24003157  0.10716915  0.96726602  1
  Na  Na11  1  0.74003157  0.89283085  0.53273398  1
  Na  Na12  1  0.55364463  0.74306627  0.20979616  1
  Na  Na13  1  0.05364463  0.25693373  0.29020384  1
  Na  Na14  1  0.44635537  0.25693373  0.79020384  1
  Na  Na15  1  0.94635537  0.74306627  0.70979616  1
  Na  Na16  1  0.03982386  0.91578252  0.14357064  1
  Na  Na17  1  0.53982386  0.08421748  0.35642936  1
  Na  Na18  1  0.96017614  0.08421748  0.85642936  1
  Na  Na19  1  0.46017614  0.91578252  0.64357064  1
  Na  Na20  1  0.52829321  0.43193050  0.14389825  1
  Na  Na21  1  0.02829321  0.56806950  0.35610175  1
  Na  Na22  1  0.47170679  0.56806950  0.85610175  1
  Na  Na23  1  0.97170679  0.43193050  0.64389825  1
  Na  Na24  1  0.25010271  0.71438995  0.07007515  1
  Na  Na25  1  0.75010271  0.28561005  0.42992485  1
  Na  Na26  1  0.74989729  0.28561005  0.92992485  1
  Na  Na27  1  0.24989729  0.71438995  0.57007515  1
  Na  Na28  1  0.76902548  0.49835910  0.12765263  1
  Na  Na29  1  0.26902548  0.50164090  0.37234737  1
  Na  Na30  1  0.23097452  0.50164090  0.87234737  1
  Na  Na31  1  0.97430240  0.11838233  0.57750501  1
  Ga  Ga32  1  0.71599012  0.69126278  0.84675981  1
  Ga  Ga33  1  0.21599012  0.30873722  0.65324019  1
  Ga  Ga34  1  0.28400988  0.30873722  0.15324019  1
  Ga  Ga35  1  0.78400988  0.69126278  0.34675981  1
  Ga  Ga36  1  0.70270298  0.09259475  0.72594188  1
  Ga  Ga37  1  0.20270298  0.90740525  0.77405812  1
  Ga  Ga38  1  0.29729702  0.90740525  0.27405812  1
  Ga  Ga39  1  0.79729702  0.09259475  0.22594188  1
  O  O40  1  0.38184659  0.32236570  0.30123662  1
  O  O41  1  0.11121519  0.89825506  0.62044212  1
  O  O42  1  0.61121519  0.10174494  0.87955788  1
  O  O43  1  0.88878481  0.10174494  0.37955788  1
  O  O44  1  0.38878481  0.89825506  0.12044212  1
  O  O45  1  0.11604843  0.32761357  0.49614645  1
  O  O46  1  0.61604843  0.67238643  0.00385355  1
  O  O47  1  0.61035592  0.10511587  0.56684614  1
  O  O48  1  0.20091040  0.10362817  0.21655831  1
  O  O49  1  0.70091040  0.89637183  0.28344169  1
  O  O50  1  0.79908960  0.89637183  0.78344169  1
  O  O51  1  0.29908960  0.10362817  0.71655831  1
  O  O52  1  0.15158893  0.45718142  0.10641399  1
  O  O53  1  0.65158893  0.54281858  0.39358601  1
  O  O54  1  0.84841107  0.54281858  0.89358601  1
  O  O55  1  0.34841107  0.45718142  0.60641399  1
  O  O56  1  0.88184659  0.67763430  0.19876338  1
  O  O57  1  0.38395157  0.32761357  0.99614645  1
  O  O58  1  0.11815341  0.32236570  0.80123662  1
  O  O59  1  0.61815341  0.67763430  0.69876338  1
  O  O60  1  0.67518880  0.24978917  0.18286593  1
  O  O61  1  0.17518880  0.75021083  0.31713407  1
  O  O62  1  0.32481120  0.75021083  0.81713407  1
  O  O63  1  0.82481120  0.24978917  0.68286593  1
  O  O64  1  0.88964408  0.10511587  0.06684614  1
  O  O65  1  0.38964408  0.89488413  0.43315386  1
  O  O66  1  0.11035592  0.89488413  0.93315386  1
  O  O67  1  0.88395157  0.67238643  0.50385355  1
