# generated using pymatgen
data_Sr7(H6Br)2
_symmetry_space_group_name_H-M   'P 1'
_cell_length_a   10.04706419
_cell_length_b   10.04706172
_cell_length_c   4.01576910
_cell_angle_alpha   89.99998845
_cell_angle_beta   89.99998442
_cell_angle_gamma   120.00000297
_symmetry_Int_Tables_number   1
_chemical_formula_structural   Sr7(H6Br)2
_chemical_formula_sum   'Sr7 H12 Br2'
_cell_volume   351.05696926
_cell_formula_units_Z   1
loop_
 _symmetry_equiv_pos_site_id
 _symmetry_equiv_pos_as_xyz
  1  'x, y, z'
loop_
 _atom_site_type_symbol
 _atom_site_label
 _atom_site_symmetry_multiplicity
 _atom_site_fract_x
 _atom_site_fract_y
 _atom_site_fract_z
 _atom_site_occupancy
  Sr  Sr0  1  0.27426738  0.22343090  0.49999994  1
  Sr  Sr1  1  0.56661342  0.64136036  0.00000017  1
  Sr  Sr2  1  0.35863862  0.92525265  0.00000006  1
  Sr  Sr3  1  0.07474745  0.43338613  0.00000002  1
  Sr  Sr4  1  0.66666687  0.33333328  0.00000007  1
  Sr  Sr5  1  0.94916366  0.72573357  0.50000027  1
  Sr  Sr6  1  0.77656962  0.05083666  0.49999983  1
  H  H7  1  0.56126023  0.12050367  0.49999999  1
  H  H8  1  0.87949630  0.44075740  0.50000007  1
  H  H9  1  0.55924247  0.43873975  0.49999995  1
  H  H10  1  0.71712305  0.77359428  0.49999992  1
  H  H11  1  0.22640571  0.94352895  0.50000007  1
  H  H12  1  0.05647089  0.28287673  0.50000012  1
  H  H13  1  0.82044556  0.21218266  0.00000002  1
  H  H14  1  0.78781718  0.60826288  0.00000001  1
  H  H15  1  0.39173711  0.17955436  -0.00000019  1
  H  H16  1  0.30541786  0.39504150  0.00000001  1
  H  H17  1  0.08962350  0.69458222  -0.00000004  1
  H  H18  1  0.60495863  0.91037661  0.00000002  1
  Br  Br19  1  0.00000008  0.00000028  0.00000035  1
  Br  Br20  1  0.33333341  0.66666717  0.49999934  1
