# generated using pymatgen
data_Na3YHf3Si3(SO8)3
_symmetry_space_group_name_H-M   'P 1'
_cell_length_a   9.04090554
_cell_length_b   9.10727729
_cell_length_c   23.43044317
_cell_angle_alpha   89.76363865
_cell_angle_beta   90.39258801
_cell_angle_gamma   120.33280589
_symmetry_Int_Tables_number   1
_chemical_formula_structural   Na3YHf3Si3(SO8)3
_chemical_formula_sum   'Na9 Y3 Hf9 Si9 S9 O72'
_cell_volume   1665.07988128
_cell_formula_units_Z   3
loop_
 _symmetry_equiv_pos_site_id
 _symmetry_equiv_pos_as_xyz
  1  'x, y, z'
loop_
 _atom_site_type_symbol
 _atom_site_label
 _atom_site_symmetry_multiplicity
 _atom_site_fract_x
 _atom_site_fract_y
 _atom_site_fract_z
 _atom_site_occupancy
  Na  Na0  1  0.35264993  0.35735987  0.24291165  1
  Na  Na1  1  0.63487558  0.62230601  0.75550220  1
  Na  Na2  1  0.96871535  0.28775784  0.41681562  1
  Na  Na3  1  0.99403675  0.00975175  0.49887193  1
  Na  Na4  1  0.99614329  0.98642952  0.00276421  1
  Na  Na5  1  0.66203002  0.34212937  0.83194727  1
  Na  Na6  1  0.67095160  0.32077357  0.33115189  1
  Na  Na7  1  0.30763167  0.65219192  0.16278532  1
  Na  Na8  1  0.29514936  0.64494366  0.66685078  1
  Y  Y9  1  0.99492174  0.00381171  0.35535888  1
  Y  Y10  1  0.68025987  0.33816836  0.68679289  1
  Y  Y11  1  0.68729222  0.34441801  0.17968023  1
  Hf  Hf12  1  0.00467217  0.99048686  0.85369807  1
  Hf  Hf13  1  0.01447327  0.01676760  0.64815801  1
  Hf  Hf14  1  0.01172273  0.01345519  0.14369790  1
  Hf  Hf15  1  0.66336310  0.35608909  0.98243272  1
  Hf  Hf16  1  0.66094235  0.31791942  0.48005195  1
  Hf  Hf17  1  0.33795090  0.65995410  0.02013814  1
  Hf  Hf18  1  0.33587826  0.65609432  0.51829181  1
  Hf  Hf19  1  0.33849045  0.66295960  0.31599419  1
  Hf  Hf20  1  0.32354577  0.65347156  0.81312960  1
  Si  Si21  1  -0.00002257  0.29900212  0.25176548  1
  Si  Si22  1  0.28932177  0.29075120  0.75321373  1
  Si  Si23  1  0.00851494  0.71876687  0.74938184  1
  Si  Si24  1  0.96587706  0.33193799  0.58153675  1
  Si  Si25  1  0.97054559  0.64000175  0.08144641  1
  Si  Si26  1  0.37236895  0.33493283  0.08527494  1
  Si  Si27  1  0.62643579  0.67239587  0.91521703  1
  Si  Si28  1  0.61744850  0.95484299  0.41857554  1
  Si  Si29  1  0.34415611  0.37856303  0.41714410  1
  S  S30  1  0.28885030  0.99296144  0.24934442  1
  S  S31  1  0.70342263  0.70817566  0.24942105  1
  S  S32  1  0.71306579  0.99417386  0.75225799  1
  S  S33  1  0.36883889  0.03473750  0.58210335  1
  S  S34  1  0.66917365  0.63013753  0.58242665  1
  S  S35  1  0.66690993  0.03822253  0.08021138  1
  S  S36  1  0.03979483  0.37372681  0.91726121  1
  S  S37  1  0.33815353  0.95707222  0.91661971  1
  S  S38  1  0.04570127  0.66099409  0.41885448  1
  O  O39  1  0.20841466  0.01271083  0.30072595  1
  O  O40  1  0.80365771  0.78142264  0.30157895  1
  O  O41  1  0.98876443  0.19938389  0.31065233  1
  O  O42  1  0.18535137  0.17812363  0.80800328  1
  O  O43  1  0.97759798  0.80947204  0.80508935  1
  O  O44  1  0.81697442  0.01576224  0.80324868  1
  O  O45  1  0.79083236  0.96922479  0.70007309  1
  O  O46  1  0.17313159  0.20423568  0.69528982  1
  O  O47  1  0.02321022  0.83184714  0.69284697  1
  O  O48  1  0.78781457  0.80940090  0.19866626  1
  O  O49  1  0.02827594  0.19540698  0.19773601  1
  O  O50  1  0.18139937  0.97072018  0.19781678  1
  O  O51  1  0.88148099  0.35922084  0.63770378  1
  O  O52  1  0.46972292  0.10998228  0.63404480  1
  O  O53  1  0.63676339  0.53133344  0.63562452  1
  O  O54  1  0.90483915  0.52515119  0.13793610  1
  O  O55  1  0.63431645  0.10463486  0.13270998  1
  O  O56  1  0.46748456  0.36182611  0.14579001  1
  O  O57  1  0.47033747  0.30740339  0.03070779  1
  O  O58  1  0.84249442  0.53643104  0.02680177  1
  O  O59  1  0.69332489  0.14671498  0.03025281  1
  O  O60  1  0.45461869  0.14674505  0.53159135  1
  O  O61  1  0.68668756  0.53955983  0.53308400  1
  O  O62  1  0.84713366  0.31271705  0.52438772  1
  O  O63  1  0.52555285  0.69107376  0.96902435  1
  O  O64  1  0.14754177  0.45957347  0.96744050  1
  O  O65  1  0.30966964  0.85202960  0.96749849  1
  O  O66  1  0.51584354  0.84583749  0.47392030  1
  O  O67  1  0.30999855  0.47493396  0.46967686  1
  O  O68  1  0.14878633  0.68223802  0.46969348  1
  O  O69  1  0.12436308  0.63444278  0.36668701  1
  O  O70  1  0.50175935  0.86542269  0.36104451  1
  O  O71  1  0.36278058  0.49120331  0.35879412  1
  O  O72  1  0.12127198  0.48229327  0.86534193  1
  O  O73  1  0.35362073  0.87175963  0.86488203  1
  O  O74  1  0.51141594  0.64882267  0.85718006  1
  O  O75  1  0.02448777  0.80870164  0.41331664  1
  O  O76  1  0.80897786  0.98157041  0.41839124  1
  O  O77  1  0.17291354  0.19256215  0.41601553  1
  O  O78  1  0.02732322  0.20689581  0.91063044  1
  O  O79  1  0.18443008  0.97841746  0.91043506  1
  O  O80  1  0.81758248  0.84271032  0.91031640  1
  O  O81  1  0.98021277  0.15783853  0.58735509  1
  O  O82  1  0.19673986  0.01957201  0.58638428  1
  O  O83  1  0.82358671  0.80120396  0.58746374  1
  O  O84  1  0.97630078  0.82141611  0.09094941  1
  O  O85  1  0.81997184  0.01864008  0.08811991  1
  O  O86  1  0.17897680  0.16472430  0.08732159  1
  O  O87  1  0.68893828  0.14109650  0.74762057  1
  O  O88  1  0.48088742  0.32046948  0.74902385  1
  O  O89  1  0.83457296  0.53296955  0.74852761  1
  O  O90  1  0.66674282  0.53018698  0.24554608  1
  O  O91  1  0.83311297  0.32025792  0.24915927  1
  O  O92  1  0.45793410  0.14907190  0.24384157  1
  O  O93  1  0.64254784  0.49905131  0.92189168  1
  O  O94  1  0.86772573  0.35295251  0.92292884  1
  O  O95  1  0.49344475  0.12712902  0.92213111  1
  O  O96  1  0.64567160  0.15070316  0.42341559  1
  O  O97  1  0.51864500  0.37187213  0.42654071  1
  O  O98  1  0.87493871  0.50162361  0.42403425  1
  O  O99  1  0.34918413  0.49971956  0.07266518  1
  O  O100  1  0.16077952  0.67045373  0.06733107  1
  O  O101  1  0.51544534  0.86494379  0.07190777  1
  O  O102  1  0.34677785  0.86482263  0.57354855  1
  O  O103  1  0.51727736  0.65255778  0.57466474  1
  O  O104  1  0.15619804  0.50259512  0.57453604  1
  O  O105  1  0.30653673  0.83920942  0.25414664  1
  O  O106  1  0.53025654  0.69657970  0.25451193  1
  O  O107  1  0.18345564  0.48787061  0.25487903  1
  O  O108  1  0.31193092  0.48429591  0.75800531  1
  O  O109  1  0.18016251  0.70433712  0.75883908  1
  O  O110  1  0.54187610  0.83464752  0.75764410  1
