# generated using pymatgen
data_MgFe6(O2F)4
_symmetry_space_group_name_H-M   'P 1'
_cell_length_a   4.70401790
_cell_length_b   4.70412580
_cell_length_c   10.78934109
_cell_angle_alpha   96.37365101
_cell_angle_beta   96.35167783
_cell_angle_gamma   88.26048169
_symmetry_Int_Tables_number   1
_chemical_formula_structural   MgFe6(O2F)4
_chemical_formula_sum   'Mg1 Fe6 O8 F4'
_cell_volume   235.77802200
_cell_formula_units_Z   1
loop_
 _symmetry_equiv_pos_site_id
 _symmetry_equiv_pos_as_xyz
  1  'x, y, z'
loop_
 _atom_site_type_symbol
 _atom_site_label
 _atom_site_symmetry_multiplicity
 _atom_site_fract_x
 _atom_site_fract_y
 _atom_site_fract_z
 _atom_site_occupancy
  Mg  Mg0  1  0.74955638  0.74714630  0.79956414  1
  Fe  Fe1  1  0.96635273  0.96547830  0.05133797  1
  Fe  Fe2  1  0.04487528  0.04428884  0.32200401  1
  Fe  Fe3  1  0.05362085  0.05325001  0.59306101  1
  Fe  Fe4  1  0.50013783  0.49937946  0.15675408  1
  Fe  Fe5  1  0.37952890  0.37846553  0.89143717  1
  Fe  Fe6  1  0.59540368  0.59491363  0.46942536  1
  O  O7  1  0.20342225  0.79671318  0.18106686  1
  O  O8  1  0.26152289  0.85206088  0.46564062  1
  O  O9  1  0.25554060  0.25511771  0.03289738  1
  O  O10  1  0.27239298  0.27298978  0.72203134  1
  O  O11  1  0.65913724  0.65763887  0.98567415  1
  O  O12  1  0.77782447  0.77711522  0.62541162  1
  O  O13  1  0.79718725  0.20246598  0.18104743  1
  O  O14  1  0.85231400  0.26083375  0.46561439  1
  F  F15  1  0.13942098  0.74818945  0.87597068  1
  F  F16  1  0.34635547  0.34601906  0.32413875  1
  F  F17  1  0.73043011  0.72974825  0.31703244  1
  F  F18  1  0.74830713  0.13763179  0.87560358  1
