# generated using pymatgen
data_Na3La2Ga2P3(SO8)3
_symmetry_space_group_name_H-M   'P 1'
_cell_length_a   8.97640328
_cell_length_b   8.97922483
_cell_length_c   23.51457089
_cell_angle_alpha   87.84945957
_cell_angle_beta   91.85289545
_cell_angle_gamma   119.66298625
_symmetry_Int_Tables_number   1
_chemical_formula_structural   Na3La2Ga2P3(SO8)3
_chemical_formula_sum   'Na9 La6 Ga6 P9 S9 O72'
_cell_volume   1645.55805127
_cell_formula_units_Z   3
loop_
 _symmetry_equiv_pos_site_id
 _symmetry_equiv_pos_as_xyz
  1  'x, y, z'
loop_
 _atom_site_type_symbol
 _atom_site_label
 _atom_site_symmetry_multiplicity
 _atom_site_fract_x
 _atom_site_fract_y
 _atom_site_fract_z
 _atom_site_occupancy
  Na  Na0  1  0.37281865  0.37101168  0.25202297  1
  Na  Na1  1  0.68247999  0.01435543  0.92302147  1
  Na  Na2  1  0.97422889  0.30396828  0.41383767  1
  Na  Na3  1  0.00675407  0.99193519  0.48999062  1
  Na  Na4  1  0.01001905  0.98551545  0.01030361  1
  Na  Na5  1  0.65558152  0.33908452  0.83983095  1
  Na  Na6  1  0.66575980  0.33341663  0.33292715  1
  Na  Na7  1  0.33688882  0.70183958  0.17670246  1
  Na  Na8  1  0.33200218  0.66949463  0.66725403  1
  La  La9  1  0.00462760  0.99010613  0.85454245  1
  La  La10  1  0.99019998  0.01536065  0.64169885  1
  La  La11  1  0.67197299  0.31964117  0.68326276  1
  La  La12  1  0.33482139  0.66602405  0.03066537  1
  La  La13  1  0.32384570  0.66588362  0.50399393  1
  La  La14  1  0.35221556  0.68058216  0.82592869  1
  Ga  Ga15  1  0.02161408  0.00837592  0.34039646  1
  Ga  Ga16  1  0.99887575  0.01314184  0.15835990  1
  Ga  Ga17  1  0.67072335  0.30320790  0.18734216  1
  Ga  Ga18  1  0.66496636  0.32638336  0.99426918  1
  Ga  Ga19  1  0.66769352  0.35532599  0.47405437  1
  Ga  Ga20  1  0.29208878  0.65267437  0.31637271  1
  P  P21  1  0.28828131  0.99622835  0.24833016  1
  P  P22  1  0.00032469  0.29119135  0.25140174  1
  P  P23  1  0.68307730  0.98975902  0.75534744  1
  P  P24  1  0.95047082  0.33141230  0.56775585  1
  P  P25  1  0.69680499  0.05853903  0.09086504  1
  P  P26  1  0.63959113  0.64614323  0.92738957  1
  P  P27  1  0.35619579  0.99778082  0.92664795  1
  P  P28  1  0.33051928  0.35979171  0.40647558  1
  P  P29  1  0.01602078  0.67121448  0.40764090  1
  S  S30  1  0.71115572  0.71447897  0.24795278  1
  S  S31  1  0.31079838  0.31829657  0.74960463  1
  S  S32  1  0.00584433  0.69103292  0.74903931  1
  S  S33  1  0.37228833  0.04603140  0.57143684  1
  S  S34  1  0.67351965  0.63017551  0.57310294  1
  S  S35  1  0.93020126  0.61540612  0.09320256  1
  S  S36  1  0.37769200  0.30506381  0.09376038  1
  S  S37  1  0.01163401  0.36157320  0.92287699  1
  S  S38  1  0.64206065  0.97326352  0.40758402  1
  O  O39  1  0.21858337  0.04725590  0.29922624  1
  O  O40  1  0.81964533  0.80155060  0.29812155  1
  O  O41  1  0.97117866  0.17959059  0.30628170  1
  O  O42  1  0.21865029  0.22365463  0.80148883  1
  O  O43  1  0.02407218  0.78826527  0.80077096  1
  O  O44  1  0.75688926  0.96966593  0.81370814  1
  O  O45  1  0.79950925  0.00846444  0.70506061  1
  O  O46  1  0.22297109  0.22084360  0.69761310  1
  O  O47  1  0.99835560  0.78521158  0.69695291  1
  O  O48  1  0.79036797  0.81809026  0.19464494  1
  O  O49  1  0.04558183  0.21399870  0.20114435  1
  O  O50  1  0.16760842  0.96261753  0.19570998  1
  O  O51  1  0.86240673  0.32130632  0.62388942  1
  O  O52  1  0.44573939  0.12159134  0.62757823  1
  O  O53  1  0.67535222  0.54822711  0.62851833  1
  O  O54  1  0.84273922  0.51385089  0.14526662  1
  O  O55  1  0.66801618  0.14311479  0.14153250  1
  O  O56  1  0.48328364  0.32664599  0.14645002  1
  O  O57  1  0.46059215  0.29467585  0.04152410  1
  O  O58  1  0.83614755  0.53091458  0.03983572  1
  O  O59  1  0.71409854  0.16106081  0.03384000  1
  O  O60  1  0.47782174  0.15288203  0.52312993  1
  O  O61  1  0.65923160  0.52387013  0.52417579  1
  O  O62  1  0.84900346  0.34067225  0.51362733  1
  O  O63  1  0.53273321  0.67670795  0.97041573  1
  O  O64  1  0.12511598  0.44862612  0.97096118  1
  O  O65  1  0.32582190  0.86935363  0.97546648  1
  O  O66  1  0.58351757  0.88386195  0.46347782  1
  O  O67  1  0.27786268  0.42347463  0.45789465  1
  O  O68  1  0.11735911  0.71762538  0.46367300  1
  O  O69  1  0.10970993  0.61892502  0.36316450  1
  O  O70  1  0.51889174  0.87729155  0.36107756  1
  O  O71  1  0.36161415  0.48475707  0.35346957  1
  O  O72  1  0.08598963  0.44994599  0.86764125  1
  O  O73  1  0.38163956  0.92610851  0.87050714  1
  O  O74  1  0.55010801  0.61559413  0.86792421  1
  O  O75  1  0.99433590  0.82528401  0.38976478  1
  O  O76  1  0.81724017  0.99693382  0.39979218  1
  O  O77  1  0.17333341  0.17815273  0.39676450  1
  O  O78  1  0.98060730  0.18156143  0.92245416  1
  O  O79  1  0.20773789  0.03606276  0.92439118  1
  O  O80  1  0.81705284  0.81326780  0.92634834  1
  O  O81  1  0.96505295  0.16718841  0.56279631  1
  O  O82  1  0.19798559  0.02636352  0.56654548  1
  O  O83  1  0.83427932  0.79723661  0.56761736  1
  O  O84  1  0.94570148  0.78779014  0.09354039  1
  O  O85  1  0.86729515  0.05082031  0.09861299  1
  O  O86  1  0.20632563  0.14661265  0.09696131  1
  O  O87  1  0.66401080  0.15087547  0.75946930  1
  O  O88  1  0.48687522  0.34305520  0.75371754  1
  O  O89  1  0.84554637  0.52393337  0.75516990  1
  O  O90  1  0.68919607  0.53751463  0.24580041  1
  O  O91  1  0.83914987  0.31169095  0.24264376  1
  O  O92  1  0.47233937  0.15686104  0.24024011  1
  O  O93  1  0.65919997  0.48900881  0.94187685  1
  O  O94  1  0.84354680  0.35283872  0.92812865  1
  O  O95  1  0.52972828  0.16396657  0.93583497  1
  O  O96  1  0.66135962  0.14989873  0.41042919  1
  O  O97  1  0.49663622  0.34796501  0.41831491  1
  O  O98  1  0.83856963  0.50302633  0.41416872  1
  O  O99  1  0.35380281  0.45674773  0.09146551  1
  O  O100  1  0.10448715  0.63248329  0.09318560  1
  O  O101  1  0.54058541  0.87668989  0.08897543  1
  O  O102  1  0.36070143  0.87522531  0.57295337  1
  O  O103  1  0.52407049  0.65766030  0.57350779  1
  O  O104  1  0.13032697  0.49025311  0.57158487  1
  O  O105  1  0.30268490  0.83061167  0.26070511  1
  O  O106  1  0.53513049  0.69261255  0.25164021  1
  O  O107  1  0.16508602  0.47375736  0.25868572  1
  O  O108  1  0.31675260  0.48489806  0.74568256  1
  O  O109  1  0.15411111  0.66392690  0.74552759  1
  O  O110  1  0.50625325  0.83085488  0.74508014  1
