# generated using pymatgen
data_Ho5Mg(MoO6)2
_symmetry_space_group_name_H-M   'P 1'
_cell_length_a   5.90372095
_cell_length_b   7.16483657
_cell_length_c   7.42513279
_cell_angle_alpha   105.53554942
_cell_angle_beta   89.35023271
_cell_angle_gamma   115.48526404
_symmetry_Int_Tables_number   1
_chemical_formula_structural   Ho5Mg(MoO6)2
_chemical_formula_sum   'Ho5 Mg1 Mo2 O12'
_cell_volume   271.20138760
_cell_formula_units_Z   1
loop_
 _symmetry_equiv_pos_site_id
 _symmetry_equiv_pos_as_xyz
  1  'x, y, z'
loop_
 _atom_site_type_symbol
 _atom_site_label
 _atom_site_symmetry_multiplicity
 _atom_site_fract_x
 _atom_site_fract_y
 _atom_site_fract_z
 _atom_site_occupancy
  Ho  Ho0  1  0.29555400  0.58851800  0.64773100  1
  Ho  Ho1  1  0.68379000  0.36723000  0.33971100  1
  Ho  Ho2  1  0.31121500  0.61307200  0.19207700  1
  Ho  Ho3  1  0.67840100  0.36360300  0.84696500  1
  Ho  Ho4  1  0.00761800  0.04478400  0.49512000  1
  Mg  Mg5  1  0.85890200  0.70852300  0.67692100  1
  Mo  Mo6  1  0.76454200  0.00241300  0.99880900  1
  Mo  Mo7  1  0.24089100  0.00031800  0.00145500  1
  O  O8  1  0.91563300  0.34783600  0.09201900  1
  O  O9  1  0.43554100  0.34945300  0.09787100  1
  O  O10  1  0.06106700  0.65831400  0.87479100  1
  O  O11  1  0.59351100  0.65979700  0.87926600  1
  O  O12  1  0.07824900  0.67316500  0.45068900  1
  O  O13  1  0.61074200  0.68468300  0.45448600  1
  O  O14  1  0.89024900  0.29957400  0.56978900  1
  O  O15  1  0.39957600  0.30116400  0.56742100  1
  O  O16  1  0.98623200  0.99071700  0.19819200  1
  O  O17  1  0.01106800  0.01982000  0.79495300  1
  O  O18  1  0.49219400  0.97541000  0.18757000  1
  O  O19  1  0.50794500  0.99975200  0.81009000  1
