# generated using pymatgen
data_Na5ZrGa3(PO4)6
_symmetry_space_group_name_H-M   'P 1'
_cell_length_a   8.77851292
_cell_length_b   8.77091365
_cell_length_c   22.20996409
_cell_angle_alpha   89.91549588
_cell_angle_beta   90.00071981
_cell_angle_gamma   119.99855347
_symmetry_Int_Tables_number   1
_chemical_formula_structural   Na5ZrGa3(PO4)6
_chemical_formula_sum   'Na15 Zr3 Ga9 P18 O72'
_cell_volume   1480.98268841
_cell_formula_units_Z   3
loop_
 _symmetry_equiv_pos_site_id
 _symmetry_equiv_pos_as_xyz
  1  'x, y, z'
loop_
 _atom_site_type_symbol
 _atom_site_label
 _atom_site_symmetry_multiplicity
 _atom_site_fract_x
 _atom_site_fract_y
 _atom_site_fract_z
 _atom_site_occupancy
  Na  Na0  1  0.63306133  0.99924670  0.25234809  1
  Na  Na1  1  0.36590122  0.36693963  0.25279569  1
  Na  Na2  1  0.00085290  0.63449832  0.25239474  1
  Na  Na3  1  0.63805142  0.63222420  0.74807206  1
  Na  Na4  1  0.99763133  0.36248254  0.74821021  1
  Na  Na5  1  0.03157210  0.69987395  0.58206495  1
  Na  Na6  1  0.66558934  0.96758254  0.58179838  1
  Na  Na7  1  0.66581720  0.69875585  0.08244508  1
  Na  Na8  1  0.03182502  0.33174107  0.08261682  1
  Na  Na9  1  0.00851076  0.00932880  0.49621895  1
  Na  Na10  1  0.00784161  0.99905728  0.99612917  1
  Na  Na11  1  0.65767301  0.32375500  0.83208361  1
  Na  Na12  1  0.66647399  0.33335873  0.33519423  1
  Na  Na13  1  0.33243304  0.67445608  0.16573946  1
  Na  Na14  1  0.33309927  0.66543248  0.66222771  1
  Zr  Zr15  1  0.66543513  0.33297175  0.97887658  1
  Zr  Zr16  1  0.66409642  0.33233839  0.47724701  1
  Zr  Zr17  1  0.33402208  0.67362968  0.81406418  1
  Ga  Ga18  1  0.00051358  -0.00004887  0.35469532  1
  Ga  Ga19  1  0.00250585  0.00119818  0.85288694  1
  Ga  Ga20  1  0.00735335  0.00635840  0.64891754  1
  Ga  Ga21  1  0.00531450  0.99916368  0.15082427  1
  Ga  Ga22  1  0.65870253  0.32675021  0.68274229  1
  Ga  Ga23  1  0.66541553  0.33148634  0.18237006  1
  Ga  Ga24  1  0.33267913  0.67309276  0.01502401  1
  Ga  Ga25  1  0.33254430  0.65969809  0.51398561  1
  Ga  Ga26  1  0.33319377  0.66672634  0.32027957  1
  P  P27  1  0.28948769  0.00049089  0.25056673  1
  P  P28  1  0.71096894  0.71033897  0.24977484  1
  P  P29  1  0.99927251  0.28916188  0.24979710  1
  P  P30  1  0.28975817  0.27964949  0.74956228  1
  P  P31  1  0.99470555  0.71253968  0.74813242  1
  P  P32  1  0.71819625  0.00729624  0.74813562  1
  P  P33  1  0.96405127  0.33374834  0.58569071  1
  P  P34  1  0.37037451  0.03949909  0.58510741  1
  P  P35  1  0.66372610  0.62727185  0.58590807  1
  P  P36  1  0.96534249  0.63188452  0.08593225  1
  P  P37  1  0.66402287  0.03566514  0.08626461  1
  P  P38  1  0.36907674  0.33034168  0.08599348  1
  P  P39  1  0.63224405  0.67751590  0.91762603  1
  P  P40  1  0.04504922  0.36808996  0.91792718  1
  P  P41  1  0.32247271  0.95593556  0.91832413  1
  P  P42  1  0.62597972  0.94951985  0.41533962  1
  P  P43  1  0.32359457  0.37432182  0.41446849  1
  P  P44  1  0.05030290  0.67585315  0.41553253  1
  O  O45  1  0.20848326  0.03999981  0.30507769  1
  O  O46  1  0.83288742  0.79388516  0.30380687  1
  O  O47  1  0.96117060  0.16705464  0.30380422  1
  O  O48  1  0.20721763  0.17272263  0.80642707  1
  O  O49  1  0.96184039  0.79457693  0.80382863  1
  O  O50  1  0.83251698  0.03902831  0.80408493  1
  O  O51  1  0.79361020  0.96773390  0.69109628  1
  O  O52  1  0.17093995  0.20597540  0.69389258  1
  O  O53  1  0.02668665  0.82073193  0.69031466  1
  O  O54  1  0.78702864  0.82379191  0.19170747  1
  O  O55  1  0.03637291  0.21324796  0.19173287  1
  O  O56  1  0.17220366  0.96045823  0.19402838  1
  O  O57  1  0.88236487  0.37088678  0.64250927  1
  O  O58  1  0.49352755  0.12120548  0.64000771  1
  O  O59  1  0.63491484  0.51562620  0.64346050  1
  O  O60  1  0.88255385  0.51172575  0.14243106  1
  O  O61  1  0.63427523  0.11859402  0.14338782  1
  O  O62  1  0.48874181  0.36954826  0.14233978  1
  O  O63  1  0.45614520  0.30184347  0.03079323  1
  O  O64  1  0.84281821  0.54563692  0.03139201  1
  O  O65  1  0.70229047  0.15798648  0.03171936  1
  O  O66  1  0.45535162  0.15390824  0.52913872  1
  O  O67  1  0.70131374  0.54244637  0.53141548  1
  O  O68  1  0.84130277  0.29793659  0.53110953  1
  O  O69  1  0.54411272  0.69900288  0.97490505  1
  O  O70  1  0.15551452  0.45604389  0.97506547  1
  O  O71  1  0.29785150  0.84247560  0.97408726  1
  O  O72  1  0.54200919  0.84311172  0.47357843  1
  O  O73  1  0.29887606  0.45985668  0.47101608  1
  O  O74  1  0.15746952  0.69934739  0.47360798  1
  O  O75  1  0.12725311  0.64028159  0.35768385  1
  O  O76  1  0.51326602  0.87234895  0.35759219  1
  O  O77  1  0.35992997  0.48549195  0.35607515  1
  O  O78  1  0.12516923  0.48201972  0.86046203  1
  O  O79  1  0.35819361  0.87548253  0.86171234  1
  O  O80  1  0.51836755  0.64370665  0.86028760  1
  O  O81  1  0.02998402  0.83890690  0.40970966  1
  O  O82  1  0.80914069  0.96966717  0.40954620  1
  O  O83  1  0.16090695  0.19075886  0.40915400  1
  O  O84  1  0.02667486  0.18647545  0.91119845  1
  O  O85  1  0.15915142  0.97302111  0.91083887  1
  O  O86  1  0.81358250  0.84100563  0.91065363  1
  O  O87  1  0.97450487  0.16380084  0.59164351  1
  O  O88  1  0.18439013  0.01521569  0.59119213  1
  O  O89  1  0.83208524  0.81262835  0.59094908  1
  O  O90  1  0.97487094  0.81180250  0.09214516  1
  O  O91  1  0.83272735  0.01954400  0.09175230  1
  O  O92  1  0.18286807  0.16829381  0.09188173  1
  O  O93  1  0.69866073  0.17269641  0.74227002  1
  O  O94  1  0.47918021  0.31113932  0.74314324  1
  O  O95  1  0.83019418  0.52341582  0.74352913  1
  O  O96  1  0.68994678  0.52270343  0.24295590  1
  O  O97  1  0.83283897  0.31034308  0.24316482  1
  O  O98  1  0.47671946  0.16699898  0.24307036  1
  O  O99  1  0.64699858  0.50927067  0.92220337  1
  O  O100  1  0.86236004  0.35367179  0.92266164  1
  O  O101  1  0.49081252  0.13833164  0.92261234  1
  O  O102  1  0.64316134  0.13480651  0.42048789  1
  O  O103  1  0.49202048  0.35810211  0.42029967  1
  O  O104  1  0.86536276  0.50777142  0.42102049  1
  O  O105  1  0.35343062  0.49911714  0.07877877  1
  O  O106  1  0.14452091  0.64101908  0.07783031  1
  O  O107  1  0.50224412  0.84983981  0.07823884  1
  O  O108  1  0.35324717  0.85428497  0.57816357  1
  O  O109  1  0.50210713  0.65180977  0.57794383  1
  O  O110  1  0.14420539  0.50346063  0.57746394  1
  O  O111  1  0.31200133  0.83499085  0.25645653  1
  O  O112  1  0.52381958  0.68892785  0.25575137  1
  O  O113  1  0.16477488  0.47671385  0.25576415  1
  O  O114  1  0.31148064  0.46999815  0.75448928  1
  O  O115  1  0.15605140  0.68334486  0.75301520  1
  O  O116  1  0.53363434  0.83781048  0.75343701  1
