# generated using pymatgen
data_Na5Ta3Si6GeO24
_symmetry_space_group_name_H-M   'P 1'
_cell_length_a   8.94698304
_cell_length_b   8.94086018
_cell_length_c   22.30301573
_cell_angle_alpha   90.29328035
_cell_angle_beta   89.85133976
_cell_angle_gamma   120.18282096
_symmetry_Int_Tables_number   1
_chemical_formula_structural   Na5Ta3Si6GeO24
_chemical_formula_sum   'Na15 Ta9 Si18 Ge3 O72'
_cell_volume   1542.20259797
_cell_formula_units_Z   3
loop_
 _symmetry_equiv_pos_site_id
 _symmetry_equiv_pos_as_xyz
  1  'x, y, z'
loop_
 _atom_site_type_symbol
 _atom_site_label
 _atom_site_symmetry_multiplicity
 _atom_site_fract_x
 _atom_site_fract_y
 _atom_site_fract_z
 _atom_site_occupancy
  Na  Na0  1  0.36800783  0.36660392  0.24633316  1
  Na  Na1  1  0.99339665  0.62859671  0.24575894  1
  Na  Na2  1  0.63775692  0.63136417  0.74657506  1
  Na  Na3  1  0.99911249  0.36743686  0.74716828  1
  Na  Na4  1  0.03285337  0.69971446  0.58485060  1
  Na  Na5  1  0.30261408  0.96866341  0.08531743  1
  Na  Na6  1  0.69834939  0.03195342  0.91879795  1
  Na  Na7  1  0.96954430  0.29734693  0.41215174  1
  Na  Na8  1  0.33215082  0.03435312  0.41307630  1
  Na  Na9  1  0.98753123  0.99655519  0.49616100  1
  Na  Na10  1  0.00025123  0.00011798  0.00068179  1
  Na  Na11  1  0.65423891  0.32991620  0.83139828  1
  Na  Na12  1  0.66646990  0.33245338  0.32782106  1
  Na  Na13  1  0.34733550  0.66995629  0.16511328  1
  Na  Na14  1  0.34561823  0.67972379  0.66482227  1
  Ta  Ta15  1  0.00485744  0.00099397  0.85435131  1
  Ta  Ta16  1  0.00033906  0.00372772  0.64253259  1
  Ta  Ta17  1  0.99335122  0.99925245  0.14441205  1
  Ta  Ta18  1  0.66819376  0.33860647  0.97823650  1
  Ta  Ta19  1  0.66553637  0.33462998  0.47818726  1
  Ta  Ta20  1  0.33254405  0.66200084  0.02453634  1
  Ta  Ta21  1  0.33814536  0.66775403  0.52214714  1
  Ta  Ta22  1  0.33582910  0.66940670  0.31014853  1
  Ta  Ta23  1  0.33303276  0.66882787  0.81109975  1
  Si  Si24  1  0.29111143  0.00714429  0.25066807  1
  Si  Si25  1  0.71712348  0.71255726  0.25176160  1
  Si  Si26  1  0.98715112  0.27890929  0.25236527  1
  Si  Si27  1  0.29805126  0.28635979  0.74840370  1
  Si  Si28  1  0.99751903  0.70763536  0.74683983  1
  Si  Si29  1  0.70981078  0.00670371  0.74888936  1
  Si  Si30  1  0.94862607  0.33247275  0.58503938  1
  Si  Si31  1  0.38700331  0.05171273  0.58570704  1
  Si  Si32  1  0.65993372  0.61323922  0.58736282  1
  Si  Si33  1  0.94957804  0.61401278  0.08792217  1
  Si  Si34  1  0.66896703  0.05459524  0.08497509  1
  Si  Si35  1  0.38796037  0.33810841  0.08800325  1
  Si  Si36  1  0.61976132  0.66396055  0.91571724  1
  Si  Si37  1  0.04538791  0.37868889  0.91610492  1
  Si  Si38  1  0.32830277  0.95294641  0.91916516  1
  Si  Si39  1  0.63108176  0.95190961  0.41564726  1
  Si  Si40  1  0.33034651  0.37430379  0.41434565  1
  Si  Si41  1  0.04276131  0.67375108  0.41557154  1
  Ge  Ge42  1  0.99801007  0.99772821  0.35228750  1
  Ge  Ge43  1  0.66284218  0.32944519  0.68751577  1
  Ge  Ge44  1  0.66577562  0.33020287  0.18858274  1
  O  O45  1  0.20542682  0.04447712  0.31046779  1
  O  O46  1  0.84722362  0.80293516  0.30845513  1
  O  O47  1  0.96554864  0.16866470  0.31326621  1
  O  O48  1  0.19763439  0.16728115  0.80701485  1
  O  O49  1  0.96453994  0.80508910  0.80389431  1
  O  O50  1  0.83048324  0.03711280  0.80877790  1
  O  O51  1  0.80509341  0.96791152  0.69279924  1
  O  O52  1  0.16602166  0.19522362  0.69181327  1
  O  O53  1  0.02746648  0.82516566  0.68743994  1
  O  O54  1  0.80506406  0.83170552  0.19225791  1
  O  O55  1  0.03188871  0.19235742  0.19525596  1
  O  O56  1  0.16777064  0.96773966  0.19148838  1
  O  O57  1  0.86761980  0.37426850  0.64416112  1
  O  O58  1  0.50795139  0.14167228  0.64318225  1
  O  O59  1  0.63604606  0.50452300  0.64813536  1
  O  O60  1  0.86480355  0.50282517  0.14842616  1
  O  O61  1  0.62629497  0.14157214  0.14173749  1
  O  O62  1  0.49898313  0.36755045  0.14892975  1
  O  O63  1  0.47656949  0.30274181  0.02903817  1
  O  O64  1  0.83296445  0.52252326  0.02803536  1
  O  O65  1  0.69386559  0.16035124  0.02233703  1
  O  O66  1  0.46966397  0.16010958  0.52347185  1
  O  O67  1  0.69326095  0.52111026  0.52882734  1
  O  O68  1  0.83557478  0.30664907  0.52407914  1
  O  O69  1  0.52601067  0.69839193  0.97283091  1
  O  O70  1  0.16633358  0.47650957  0.97403375  1
  O  O71  1  0.30569029  0.84163639  0.97948876  1
  O  O72  1  0.53119302  0.83292784  0.47432672  1
  O  O73  1  0.29790928  0.47150408  0.47153413  1
  O  O74  1  0.16562714  0.70351394  0.47489919  1
  O  O75  1  0.13318353  0.63587141  0.35745287  1
  O  O76  1  0.49800436  0.86076161  0.35916310  1
  O  O77  1  0.35850248  0.49274073  0.35515627  1
  O  O78  1  0.13546014  0.49089032  0.85534768  1
  O  O79  1  0.35895514  0.85527418  0.86137676  1
  O  O80  1  0.50654926  0.64016913  0.85486909  1
  O  O81  1  0.03508781  0.85022364  0.40889512  1
  O  O82  1  0.82181497  0.97687002  0.40954852  1
  O  O83  1  0.15655102  0.18373643  0.41014804  1
  O  O84  1  0.02042666  0.18475282  0.91143666  1
  O  O85  1  0.15818630  0.97119255  0.91036286  1
  O  O86  1  0.80707229  0.84135804  0.90936632  1
  O  O87  1  0.96836798  0.16088044  0.58942668  1
  O  O88  1  0.19021184  0.02425351  0.58918991  1
  O  O89  1  0.83776449  0.80424375  0.58900702  1
  O  O90  1  0.97807255  0.81136436  0.08947132  1
  O  O91  1  0.83981872  0.03314995  0.09002468  1
  O  O92  1  0.19678284  0.16068632  0.09124396  1
  O  O93  1  0.70084278  0.18244815  0.74271321  1
  O  O94  1  0.48980175  0.31220803  0.74459273  1
  O  O95  1  0.82439019  0.51578535  0.74444558  1
  O  O96  1  0.69357979  0.51855647  0.24629977  1
  O  O97  1  0.82303971  0.30900719  0.24499611  1
  O  O98  1  0.48135230  0.18043201  0.24500324  1
  O  O99  1  0.63911980  0.49436859  0.92197954  1
  O  O100  1  0.85207272  0.35367562  0.92084968  1
  O  O101  1  0.50518025  0.14102966  0.92168346  1
  O  O102  1  0.64562692  0.14331040  0.42158580  1
  O  O103  1  0.49841482  0.34887447  0.42133960  1
  O  O104  1  0.85523694  0.49503268  0.42156019  1
  O  O105  1  0.36526620  0.50736156  0.07921093  1
  O  O106  1  0.14621668  0.64233862  0.08101478  1
  O  O107  1  0.49456621  0.86089401  0.07916023  1
  O  O108  1  0.35590432  0.85418572  0.57857473  1
  O  O109  1  0.49111352  0.63533764  0.57820438  1
  O  O110  1  0.13897552  0.50843640  0.57684889  1
  O  O111  1  0.30123366  0.82761094  0.25637992  1
  O  O112  1  0.52085043  0.68649083  0.25571953  1
  O  O113  1  0.16511813  0.47521875  0.25597054  1
  O  O114  1  0.31280443  0.47817105  0.75400998  1
  O  O115  1  0.16591322  0.68189217  0.75411349  1
  O  O116  1  0.52121152  0.82849429  0.75396450  1
