# generated using pymatgen
data_YMgCu(WO4)2
_symmetry_space_group_name_H-M   'P 1'
_cell_length_a   5.38011310
_cell_length_b   6.08778128
_cell_length_c   5.97164794
_cell_angle_alpha   107.75985356
_cell_angle_beta   117.18311534
_cell_angle_gamma   89.82353075
_symmetry_Int_Tables_number   1
_chemical_formula_structural   YMgCu(WO4)2
_chemical_formula_sum   'Y1 Mg1 Cu1 W2 O8'
_cell_volume   163.53725980
_cell_formula_units_Z   1
loop_
 _symmetry_equiv_pos_site_id
 _symmetry_equiv_pos_as_xyz
  1  'x, y, z'
loop_
 _atom_site_type_symbol
 _atom_site_label
 _atom_site_symmetry_multiplicity
 _atom_site_fract_x
 _atom_site_fract_y
 _atom_site_fract_z
 _atom_site_occupancy
  Y  Y0  1  0.59537546  0.66719855  0.08129153  1
  Mg  Mg1  1  0.06735073  0.95875567  0.01001458  1
  Cu  Cu2  1  0.22088138  0.51820238  0.34024944  1
  W  W3  1  0.86151396  0.33056909  0.57877115  1
  W  W4  1  0.37922544  0.04170725  0.60467811  1
  O  O5  1  0.12992667  0.62875969  0.82201921  1
  O  O6  1  0.60308507  0.46408876  0.33932265  1
  O  O7  1  0.11892947  0.13103178  0.78003053  1
  O  O8  1  0.54156081  0.01327794  0.34847933  1
  O  O9  1  0.63202091  0.90640693  0.84500073  1
  O  O10  1  0.06721486  0.79386181  0.29434270  1
  O  O11  1  0.66013940  0.35249935  0.80078266  1
  O  O12  1  0.10627584  0.23672279  0.38236738  1
