# generated using pymatgen
data_MgMo2(PO5)2
_symmetry_space_group_name_H-M   'P 1'
_cell_length_a   5.32955600
_cell_length_b   6.50475500
_cell_length_c   6.50475500
_cell_angle_alpha   90.00000000
_cell_angle_beta   90.00000000
_cell_angle_gamma   90.00000000
_symmetry_Int_Tables_number   1
_chemical_formula_structural   MgMo2(PO5)2
_chemical_formula_sum   'Mg1 Mo2 P2 O10'
_cell_volume   225.50330801
_cell_formula_units_Z   1
loop_
 _symmetry_equiv_pos_site_id
 _symmetry_equiv_pos_as_xyz
  1  'x, y, z'
loop_
 _atom_site_type_symbol
 _atom_site_label
 _atom_site_symmetry_multiplicity
 _atom_site_fract_x
 _atom_site_fract_y
 _atom_site_fract_z
 _atom_site_occupancy
  Mg  Mg0  1  0.00000000  0.75000000  0.25000000  1
  Mo  Mo1  1  0.72365300  0.75000000  0.75000000  1
  Mo  Mo2  1  0.27634700  0.25000000  0.25000000  1
  P  P3  1  0.50000000  0.75000000  0.25000000  1
  P  P4  1  0.50000000  0.25000000  0.75000000  1
  O  O5  1  0.68985600  0.79740400  0.42430000  1
  O  O6  1  0.65867000  0.05663700  0.79854200  1
  O  O7  1  0.65867000  0.44336300  0.70145800  1
  O  O8  1  0.68985600  0.70259600  0.07570000  1
  O  O9  1  0.93998300  0.25000000  0.25000000  1
  O  O10  1  0.06001700  0.75000000  0.75000000  1
  O  O11  1  0.34133000  0.29854200  0.94336300  1
  O  O12  1  0.31014400  0.57570000  0.29740400  1
  O  O13  1  0.31014400  0.92430000  0.20259600  1
  O  O14  1  0.34133000  0.20145800  0.55663700  1
