# generated using pymatgen
data_Be(H2N)2
_symmetry_space_group_name_H-M   'P 1'
_cell_length_a   10.79920599
_cell_length_b   10.79920906
_cell_length_c   10.79907943
_cell_angle_alpha   123.57495352
_cell_angle_beta   123.57495893
_cell_angle_gamma   83.91025414
_symmetry_Int_Tables_number   1
_chemical_formula_structural   Be(H2N)2
_chemical_formula_sum   'Be16 H64 N32'
_cell_volume   837.26097635
_cell_formula_units_Z   16
loop_
 _symmetry_equiv_pos_site_id
 _symmetry_equiv_pos_as_xyz
  1  'x, y, z'
loop_
 _atom_site_type_symbol
 _atom_site_label
 _atom_site_symmetry_multiplicity
 _atom_site_fract_x
 _atom_site_fract_y
 _atom_site_fract_z
 _atom_site_occupancy
  Be  Be0  1  0.75450893  0.06191206  0.44443902  1
  Be  Be1  1  0.81187267  0.86747020  0.80737996  1
  Be  Be2  1  0.06008034  0.00450098  0.19260695  1
  Be  Be3  1  0.49549852  0.43991930  0.80739273  1
  Be  Be4  1  0.63252914  0.68812725  0.19261989  1
  Be  Be5  1  0.18988487  0.88250251  0.44437531  1
  Be  Be6  1  0.43808847  0.74549083  0.55556044  1
  Be  Be7  1  0.61749692  0.31011505  0.55562408  1
  Be  Be8  1  0.99549123  0.18808938  0.05556077  1
  Be  Be9  1  0.93812801  0.38253011  0.69262017  1
  Be  Be10  1  0.68991951  0.24549921  0.30739339  1
  Be  Be11  1  0.25450076  0.81008008  0.69260695  1
  Be  Be12  1  0.11747033  0.56187301  0.30738040  1
  Be  Be13  1  0.56011485  0.36749759  0.05562443  1
  Be  Be14  1  0.31191047  0.50450872  0.94443937  1
  Be  Be15  1  0.13250260  0.93988555  0.94437608  1
  H  H16  1  0.63278467  0.63436301  0.59622511  1
  H  H17  1  0.46342894  0.46186907  0.59622293  1
  H  H18  1  0.86563708  0.86721549  0.40377492  1
  H  H19  1  0.61721403  0.71343963  0.50157299  1
  H  H20  1  0.21186105  0.11563400  0.49842522  1
  H  H21  1  0.38436637  0.28813829  0.50157457  1
  H  H22  1  0.78656009  0.88278634  0.49842724  1
  H  H23  1  0.03813142  0.03657129  0.40377699  1
  H  H24  1  0.11721553  0.61563739  0.90377588  1
  H  H25  1  0.28657111  0.78813125  0.90377670  1
  H  H26  1  0.88436309  0.38278458  0.09622537  1
  H  H27  1  0.13278663  0.53656127  0.99842798  1
  H  H28  1  0.53813852  0.13436665  0.00157528  1
  H  H29  1  0.36563344  0.96186180  0.99842460  1
  H  H30  1  0.96343925  0.36721351  0.00157291  1
  H  H31  1  0.71186961  0.21342994  0.09622389  1
  H  H32  1  0.87309333  0.48036945  0.52613419  1
  H  H33  1  0.15304535  0.54576839  0.52614735  1
  H  H34  1  0.01963103  0.62690471  0.47386461  1
  H  H35  1  0.37690367  0.40304141  0.10728299  1
  H  H36  1  0.29578130  0.26963149  0.89273230  1
  H  H37  1  0.23036736  0.20421855  0.10726626  1
  H  H38  1  0.09695815  0.12309719  0.89271646  1
  H  H39  1  0.95423062  0.34695477  0.47385159  1
  H  H40  1  0.87690516  0.76962984  0.97386419  1
  H  H41  1  0.59695428  0.70423026  0.97385138  1
  H  H42  1  0.73037007  0.62309406  0.02613409  1
  H  H43  1  0.45598303  0.21522256  0.25024986  1
  H  H44  1  0.37309809  0.84695757  0.39271725  1
  H  H45  1  0.51963185  0.04577948  0.39273130  1
  H  H46  1  0.65304241  0.12690200  0.60728261  1
  H  H47  1  0.79576839  0.90304404  0.02614581  1
  H  H48  1  0.54004203  0.39545287  0.37293039  1
  H  H49  1  0.33289259  0.47748368  0.37293572  1
  H  H50  1  0.10454732  0.95995922  0.62707031  1
  H  H51  1  0.70996191  0.58289363  0.35541350  1
  H  H52  1  0.22748605  0.35455196  0.64460045  1
  H  H53  1  0.14544713  0.27251481  0.35539987  1
  H  H54  1  0.91710721  0.79003895  0.64458733  1
  H  H55  1  0.02251603  0.16710578  0.62706232  1
  H  H56  1  0.20995792  0.85454623  0.12706860  1
  H  H57  1  0.41710558  0.77251687  0.12706415  1
  H  H58  1  0.64545327  0.29004325  0.87293063  1
  H  H59  1  0.04003833  0.66710603  0.14458600  1
  H  H60  1  0.52251411  0.89544697  0.85539820  1
  H  H61  1  0.60455290  0.97748621  0.14460207  1
  H  H62  1  0.83289405  0.45996323  0.85541453  1
  H  H63  1  0.72748395  0.08289352  0.87293596  1
  H  H64  1  0.78501682  0.04425763  0.75023266  1
  H  H65  1  0.79426324  0.54402480  0.75924568  1
  H  H66  1  0.78478332  0.03501872  0.24076147  1
  H  H67  1  0.46498198  0.71521730  0.75923884  1
  H  H68  1  0.95597455  0.70573608  0.24075251  1
  H  H69  1  0.46522318  0.20598223  0.75024958  1
  H  H70  1  0.45574207  0.71498212  0.24976652  1
  H  H71  1  0.29401761  0.03477686  0.24974920  1
  H  H72  1  0.96498301  0.20574120  0.74976638  1
  H  H73  1  0.95573685  0.70597431  0.74075238  1
  H  H74  1  0.96521680  0.21498060  0.25923798  1
  H  H75  1  0.28501902  0.53478226  0.74076047  1
  H  H76  1  0.79402560  0.54426333  0.25924676  1
  H  H77  1  0.28477783  0.04401747  0.74975004  1
  H  H78  1  0.29425766  0.53501635  0.25023273  1
  H  H79  1  0.45422058  0.98036690  0.60726720  1
  N  N80  1  0.56089106  0.29682438  0.36209828  1
  N  N81  1  0.30119606  0.56526685  0.36208667  1
  N  N82  1  0.20317476  0.93910931  0.63790134  1
  N  N83  1  0.68911552  0.55120819  0.23593586  1
  N  N84  1  0.31527307  0.45318012  0.76407181  1
  N  N85  1  0.04682101  0.18472710  0.23592884  1
  N  N86  1  0.94879294  0.81088495  0.76406463  1
  N  N87  1  0.93473385  0.19880379  0.63791344  1
  N  N88  1  0.18910961  0.95317633  0.13790293  1
  N  N89  1  0.44880442  0.68473459  0.13791335  1
  N  N90  1  0.54682485  0.31089094  0.86209791  1
  N  N91  1  0.06088455  0.69879366  0.26406521  1
  N  N92  1  0.43472657  0.79682109  0.73592862  1
  N  N93  1  0.70317972  0.06527280  0.26407203  1
  N  N94  1  0.80120794  0.43911475  0.73593584  1
  N  N95  1  0.81526638  0.05119603  0.86208710  1
  N  N96  1  0.87589148  0.87589525  0.00000011  1
  N  N97  1  0.62589374  0.12590455  0.50001093  1
  N  N98  1  0.37409537  0.87410750  0.49999013  1
  N  N99  1  0.62410508  0.62410923  0.00000041  1
  N  N100  1  0.87410931  0.37410619  0.50000167  1
  N  N101  1  0.12410751  0.12409621  -0.00000877  1
  N  N102  1  0.37590427  0.37589360  0.00001042  1
  N  N103  1  0.12589384  0.62589237  0.49999942  1
  N  N104  1  0.62500693  0.23650713  0.11151230  1
  N  N105  1  0.98650498  0.37498401  0.11149867  1
  N  N106  1  0.26349361  0.87499377  0.88848840  1
  N  N107  1  0.12501612  0.51349502  0.88850223  1
  N  N108  1  0.12499339  0.01349436  0.38848891  1
  N  N109  1  0.76349527  0.87501690  0.38850225  1
  N  N110  1  0.48650595  0.37500715  0.61151236  1
  N  N111  1  0.62498376  0.73650535  0.61149850  1
