# generated using pymatgen
data_Na6La2Y2Si3(SO8)3
_symmetry_space_group_name_H-M   'P 1'
_cell_length_a   9.56007682
_cell_length_b   9.52391858
_cell_length_c   23.76839350
_cell_angle_alpha   90.03394689
_cell_angle_beta   90.07608441
_cell_angle_gamma   119.82908080
_symmetry_Int_Tables_number   1
_chemical_formula_structural   Na6La2Y2Si3(SO8)3
_chemical_formula_sum   'Na18 La6 Y6 Si9 S9 O72'
_cell_volume   1877.37958328
_cell_formula_units_Z   3
loop_
 _symmetry_equiv_pos_site_id
 _symmetry_equiv_pos_as_xyz
  1  'x, y, z'
loop_
 _atom_site_type_symbol
 _atom_site_label
 _atom_site_symmetry_multiplicity
 _atom_site_fract_x
 _atom_site_fract_y
 _atom_site_fract_z
 _atom_site_occupancy
  Na  Na0  1  0.63676680  0.01816888  0.26485564  1
  Na  Na1  1  0.33885210  0.34016487  0.25769773  1
  Na  Na2  1  0.65964529  0.65966995  0.72906732  1
  Na  Na3  1  0.97337030  0.35912951  0.73825732  1
  Na  Na4  1  0.00834519  0.67318866  0.59617621  1
  Na  Na5  1  0.68510054  0.97448996  0.58359100  1
  Na  Na6  1  0.32225561  0.97312643  0.10342991  1
  Na  Na7  1  0.01580364  0.31605437  0.08539108  1
  Na  Na8  1  0.96961700  0.64225860  0.89336008  1
  Na  Na9  1  0.71515925  0.04879977  0.90495318  1
  Na  Na10  1  0.94827026  0.28776660  0.42544713  1
  Na  Na11  1  0.35467718  0.02976735  0.40925288  1
  Na  Na12  1  0.95729422  0.99101240  0.50790267  1
  Na  Na13  1  0.97986303  0.02153278  0.99766578  1
  Na  Na14  1  0.67296022  0.32259233  0.81776161  1
  Na  Na15  1  0.67658292  0.32308866  0.33344409  1
  Na  Na16  1  0.31993420  0.67700480  0.17809555  1
  Na  Na17  1  0.33348988  0.66406860  0.66411973  1
  La  La18  1  0.00385441  0.01096467  0.84027689  1
  La  La19  1  0.99197563  0.99896590  0.15926096  1
  La  La20  1  0.67452672  0.33040958  0.98540936  1
  La  La21  1  0.33957259  0.65767483  0.01687314  1
  La  La22  1  0.35442507  0.65903237  0.51880103  1
  La  La23  1  0.32168736  0.67064959  0.81026148  1
  Y  Y24  1  0.98906547  0.99558382  0.34681613  1
  Y  Y25  1  0.99685429  0.99830465  0.64921253  1
  Y  Y26  1  0.67220012  0.33760272  0.67998131  1
  Y  Y27  1  0.67239870  0.32468655  0.18807043  1
  Y  Y28  1  0.67118740  0.33929205  0.48775321  1
  Y  Y29  1  0.32888306  0.68045553  0.31714552  1
  Si  Si30  1  0.30730294  0.00317432  0.24939687  1
  Si  Si31  1  0.00709448  0.31033866  0.24849914  1
  Si  Si32  1  0.99072269  0.68898212  0.74949209  1
  Si  Si33  1  0.69512036  0.00217399  0.74958868  1
  Si  Si34  1  0.96862251  0.33354193  0.58169237  1
  Si  Si35  1  0.67518945  0.63971120  0.58718393  1
  Si  Si36  1  0.66460111  0.02615661  0.08365790  1
  Si  Si37  1  0.02799733  0.35804294  0.92057647  1
  Si  Si38  1  0.64134232  0.98061816  0.41614271  1
  S  S39  1  0.68480126  0.68784357  0.25275888  1
  S  S40  1  0.31054588  0.30404666  0.74636830  1
  S  S41  1  0.36641960  0.03861365  0.58057655  1
  S  S42  1  0.97127363  0.63779873  0.08471854  1
  S  S43  1  0.36409619  0.33026708  0.08831650  1
  S  S44  1  0.64686047  0.67236943  0.91367932  1
  S  S45  1  0.32647491  0.96788162  0.92156092  1
  S  S46  1  0.33125616  0.35464282  0.41002934  1
  S  S47  1  0.03203943  0.66719410  0.41782596  1
  O  O48  1  0.20145641  0.01312951  0.30196629  1
  O  O49  1  0.79147345  0.77240497  0.30090329  1
  O  O50  1  0.97591190  0.17404964  0.29708984  1
  O  O51  1  0.24376569  0.22579888  0.80124181  1
  O  O52  1  0.99457494  0.77503127  0.81073828  1
  O  O53  1  0.78743809  0.02334619  0.81120030  1
  O  O54  1  0.81000588  0.99426708  0.69979042  1
  O  O55  1  0.20383529  0.20809865  0.69996012  1
  O  O56  1  0.00547848  0.80709594  0.69762982  1
  O  O57  1  0.75152102  0.78216099  0.20061333  1
  O  O58  1  0.03319354  0.24124853  0.18787477  1
  O  O59  1  0.21459133  0.98484858  0.18932187  1
  O  O60  1  0.87438158  0.35163969  0.63669260  1
  O  O61  1  0.47055871  0.12935233  0.62846332  1
  O  O62  1  0.65986185  0.54211894  0.64488367  1
  O  O63  1  0.86737261  0.53894210  0.13164495  1
  O  O64  1  0.65311264  0.13543106  0.13559347  1
  O  O65  1  0.45822502  0.33899484  0.13896257  1
  O  O66  1  0.45429487  0.33932918  0.03655372  1
  O  O67  1  0.89201733  0.56894822  0.03017895  1
  O  O68  1  0.67772830  0.12262490  0.02428859  1
  O  O69  1  0.44057747  0.12498999  0.52688354  1
  O  O70  1  0.67201726  0.53098686  0.53312462  1
  O  O71  1  0.86106421  0.31409012  0.52399234  1
  O  O72  1  0.55973466  0.67930215  0.96457291  1
  O  O73  1  0.11482358  0.44246843  0.98145310  1
  O  O74  1  0.32183005  0.88224668  0.97476375  1
  O  O75  1  0.55250768  0.88223373  0.47357332  1
  O  O76  1  0.30289497  0.43110606  0.45928827  1
  O  O77  1  0.12422976  0.68954257  0.47007042  1
  O  O78  1  0.11870023  0.64234228  0.36985325  1
  O  O79  1  0.52719961  0.88403277  0.36103929  1
  O  O80  1  0.34769695  0.44983974  0.35863010  1
  O  O81  1  0.13034159  0.47726813  0.86847318  1
  O  O82  1  0.34832351  0.88214454  0.87343312  1
  O  O83  1  0.55766587  0.66557518  0.86266990  1
  O  O84  1  0.01984381  0.81446995  0.40815411  1
  O  O85  1  0.82718107  0.00937923  0.41215693  1
  O  O86  1  0.18571971  0.18779307  0.40589759  1
  O  O87  1  0.99648204  0.17213192  0.91784884  1
  O  O88  1  0.17332393  0.96994788  0.91749122  1
  O  O89  1  0.80938872  0.82223414  0.91530800  1
  O  O90  1  0.97867365  0.16673790  0.58509724  1
  O  O91  1  0.20269883  0.01649170  0.58543191  1
  O  O92  1  0.84775184  0.81377195  0.58461042  1
  O  O93  1  0.00965502  0.80847517  0.08735900  1
  O  O94  1  0.83376392  0.01980832  0.08653142  1
  O  O95  1  0.20745455  0.17329890  0.08632459  1
  O  O96  1  0.67778930  0.16396356  0.74368074  1
  O  O97  1  0.47410437  0.32634695  0.74179459  1
  O  O98  1  0.81975456  0.51401848  0.74839062  1
  O  O99  1  0.66304241  0.52310388  0.24764803  1
  O  O100  1  0.84078875  0.32208508  0.24825378  1
  O  O101  1  0.48441321  0.17525265  0.24993333  1
  O  O102  1  0.67123851  0.52970508  0.91617908  1
  O  O103  1  0.84634898  0.34631232  0.91639129  1
  O  O104  1  0.46793663  0.13425704  0.92158892  1
  O  O105  1  0.65304233  0.16239856  0.41584514  1
  O  O106  1  0.47506009  0.33479605  0.41675568  1
  O  O107  1  0.86957724  0.51867420  0.42004235  1
  O  O108  1  0.32738208  0.46527462  0.08994846  1
  O  O109  1  0.12791407  0.63493146  0.08843809  1
  O  O110  1  0.49244381  0.85176398  0.08496264  1
  O  O111  1  0.35302886  0.87500957  0.58008374  1
  O  O112  1  0.53004154  0.68704474  0.58660548  1
  O  O113  1  0.14094244  0.50651549  0.57925170  1
  O  O114  1  0.34788371  0.85374565  0.25398531  1
  O  O115  1  0.52278668  0.67144134  0.26075415  1
  O  O116  1  0.17488814  0.48105508  0.25906967  1
  O  O117  1  0.32198692  0.46656640  0.74528560  1
  O  O118  1  0.13722988  0.64388717  0.74512860  1
  O  O119  1  0.52635283  0.82667546  0.74796335  1
