# generated using pymatgen
data_Na3Nb3InSi3(PO8)3
_symmetry_space_group_name_H-M   'P 1'
_cell_length_a   8.92921922
_cell_length_b   8.94314018
_cell_length_c   22.84658808
_cell_angle_alpha   89.95022272
_cell_angle_beta   89.98288470
_cell_angle_gamma   119.85333490
_symmetry_Int_Tables_number   1
_chemical_formula_structural   Na3Nb3InSi3(PO8)3
_chemical_formula_sum   'Na9 Nb9 In3 Si9 P9 O72'
_cell_volume   1582.32297902
_cell_formula_units_Z   3
loop_
 _symmetry_equiv_pos_site_id
 _symmetry_equiv_pos_as_xyz
  1  'x, y, z'
loop_
 _atom_site_type_symbol
 _atom_site_label
 _atom_site_symmetry_multiplicity
 _atom_site_fract_x
 _atom_site_fract_y
 _atom_site_fract_z
 _atom_site_occupancy
  Na  Na0  1  0.64036689  0.00342702  0.24824587  1
  Na  Na1  1  0.37175583  0.36062589  0.24591251  1
  Na  Na2  1  0.71056847  0.67685244  0.41362982  1
  Na  Na3  1  0.01075726  0.01105001  0.49295265  1
  Na  Na4  1  0.00130259  0.00122405  0.99951110  1
  Na  Na5  1  0.66770014  0.33368457  0.82910272  1
  Na  Na6  1  0.68002061  0.34086079  0.33138570  1
  Na  Na7  1  0.32376149  0.66275431  0.16333032  1
  Na  Na8  1  0.33677603  0.66522499  0.66484343  1
  Nb  Nb9  1  0.00138621  0.00194619  0.85663065  1
  Nb  Nb10  1  0.99789591  0.99741492  0.64322591  1
  Nb  Nb11  1  0.99724326  0.99636963  0.14461616  1
  Nb  Nb12  1  0.65967674  0.33133135  0.97708518  1
  Nb  Nb13  1  0.66820447  0.33495394  0.47914299  1
  Nb  Nb14  1  0.33473130  0.66372873  0.01820070  1
  Nb  Nb15  1  0.33520518  0.66556493  0.52038023  1
  Nb  Nb16  1  0.33302152  0.66799542  0.31487522  1
  Nb  Nb17  1  0.33304033  0.66595436  0.81210775  1
  In  In18  1  0.00319275  0.00066452  0.35604628  1
  In  In19  1  0.66419916  0.33382214  0.68728094  1
  In  In20  1  0.67234157  0.34542139  0.18045345  1
  Si  Si21  1  0.70770548  0.70360102  0.25283726  1
  Si  Si22  1  0.66340011  0.62099063  0.58528331  1
  Si  Si23  1  0.37128717  0.33320462  0.08481922  1
  Si  Si24  1  0.62125906  0.66720579  0.91536468  1
  Si  Si25  1  0.04466393  0.38089005  0.91576908  1
  Si  Si26  1  0.33429656  0.95219933  0.91600380  1
  Si  Si27  1  0.62023163  0.96061472  0.41755100  1
  Si  Si28  1  0.33107488  0.37459601  0.41755149  1
  Si  Si29  1  0.04453922  0.66434791  0.41880393  1
  P  P30  1  0.28932745  0.99613162  0.24882372  1
  P  P31  1  -0.00011912  0.29006828  0.24903415  1
  P  P32  1  0.28504914  0.28637423  0.75036625  1
  P  P33  1  0.00229461  0.71543548  0.75062531  1
  P  P34  1  0.71326424  0.99895079  0.75023345  1
  P  P35  1  0.95742216  0.33448008  0.58475476  1
  P  P36  1  0.37781872  0.04266928  0.58459297  1
  P  P37  1  0.96073003  0.62563560  0.08186058  1
  P  P38  1  0.66488257  0.04117531  0.08386301  1
  O  O39  1  0.21749291  0.03856579  0.30271137  1
  O  O40  1  0.80780623  0.78585905  0.31260848  1
  O  O41  1  0.96890004  0.18173637  0.30383136  1
  O  O42  1  0.18537205  0.17697731  0.80490691  1
  O  O43  1  0.98968029  0.81378117  0.80474260  1
  O  O44  1  0.82320549  0.01187222  0.80469073  1
  O  O45  1  0.80640676  0.97952500  0.69507628  1
  O  O46  1  0.17438290  0.19598158  0.69537466  1
  O  O47  1  0.02149012  0.82734827  0.69532549  1
  O  O48  1  0.81084146  0.83512492  0.19565231  1
  O  O49  1  0.02979481  0.19893202  0.19432163  1
  O  O50  1  0.17434614  0.97769304  0.19397593  1
  O  O51  1  0.88517734  0.36602206  0.64068991  1
  O  O52  1  0.48344804  0.10953451  0.64030693  1
  O  O53  1  0.62537361  0.51022234  0.64321886  1
  O  O54  1  0.89953778  0.52391787  0.13839898  1
  O  O55  1  0.63638796  0.10800453  0.14169659  1
  O  O56  1  0.47021144  0.36914530  0.14617824  1
  O  O57  1  0.47691289  0.31005935  0.02911485  1
  O  O58  1  0.84227181  0.53426845  0.02897073  1
  O  O59  1  0.69227942  0.16175163  0.03127186  1
  O  O60  1  0.46761180  0.16118642  0.53078651  1
  O  O61  1  0.69554748  0.53278155  0.52618044  1
  O  O62  1  0.83891843  0.30371337  0.53071346  1
  O  O63  1  0.53165626  0.69786205  0.97269197  1
  O  O64  1  0.16834345  0.47153085  0.97235940  1
  O  O65  1  0.30392752  0.83406605  0.97320842  1
  O  O66  1  0.51578002  0.83469481  0.47235281  1
  O  O67  1  0.31890714  0.48067139  0.47354600  1
  O  O68  1  0.16050601  0.67946627  0.47498896  1
  O  O69  1  0.13908384  0.63812732  0.35969859  1
  O  O70  1  0.50195236  0.86812159  0.35683186  1
  O  O71  1  0.36706203  0.49943675  0.35782587  1
  O  O72  1  0.13871805  0.50253189  0.85814786  1
  O  O73  1  0.36282989  0.85949293  0.85831628  1
  O  O74  1  0.49835910  0.63658329  0.85817175  1
  O  O75  1  0.01234142  0.82414531  0.41742845  1
  O  O76  1  0.80107589  0.96616637  0.41633815  1
  O  O77  1  0.16473614  0.19045016  0.41585307  1
  O  O78  1  0.02539277  0.19033366  0.90709440  1
  O  O79  1  0.16612849  0.97694539  0.90678297  1
  O  O80  1  0.81179557  0.83665574  0.90705533  1
  O  O81  1  0.97698220  0.16941518  0.59093139  1
  O  O82  1  0.19584377  0.02993564  0.59121141  1
  O  O83  1  0.84061149  0.81640219  0.59249764  1
  O  O84  1  0.97307367  0.80673420  0.08859522  1
  O  O85  1  0.83087572  0.02246251  0.08863594  1
  O  O86  1  0.17860322  0.15743556  0.08897733  1
  O  O87  1  0.69639901  0.15998234  0.74816087  1
  O  O88  1  0.46171821  0.30042002  0.75084534  1
  O  O89  1  0.84302998  0.53731270  0.74965758  1
  O  O90  1  0.66834315  0.50739434  0.24822267  1
  O  O91  1  0.83912659  0.30585464  0.24089121  1
  O  O92  1  0.47539514  0.14557652  0.24152733  1
  O  O93  1  0.64112576  0.49673914  0.92516191  1
  O  O94  1  0.85520671  0.35968432  0.92630319  1
  O  O95  1  0.50599182  0.14262243  0.92502970  1
  O  O96  1  0.62843814  0.14509226  0.42499873  1
  O  O97  1  0.51541356  0.37573808  0.42466491  1
  O  O98  1  0.85540745  0.48550204  0.42493357  1
  O  O99  1  0.34515189  0.50034880  0.07341314  1
  O  O100  1  0.14623668  0.65831737  0.07218505  1
  O  O101  1  0.50784635  0.85910074  0.07392031  1
  O  O102  1  0.34317067  0.85784225  0.57416996  1
  O  O103  1  0.50305992  0.65788388  0.57550236  1
  O  O104  1  0.14019709  0.48881190  0.57516505  1
  O  O105  1  0.29777362  0.82624009  0.25281139  1
  O  O106  1  0.51545434  0.69759500  0.25323260  1
  O  O107  1  0.17038706  0.46783300  0.25296902  1
  O  O108  1  0.29677223  0.46658038  0.75560340  1
  O  O109  1  0.17229568  0.70613013  0.75493740  1
  O  O110  1  0.53443319  0.83025104  0.75497659  1
