# generated using pymatgen
data_Na6MgTi3Si2(PO6)4
_symmetry_space_group_name_H-M   'P 1'
_cell_length_a   8.89561250
_cell_length_b   8.90044484
_cell_length_c   21.88661203
_cell_angle_alpha   89.81689457
_cell_angle_beta   90.34525714
_cell_angle_gamma   119.99823944
_symmetry_Int_Tables_number   1
_chemical_formula_structural   Na6MgTi3Si2(PO6)4
_chemical_formula_sum   'Na18 Mg3 Ti9 Si6 P12 O72'
_cell_volume   1500.70921925
_cell_formula_units_Z   3
loop_
 _symmetry_equiv_pos_site_id
 _symmetry_equiv_pos_as_xyz
  1  'x, y, z'
loop_
 _atom_site_type_symbol
 _atom_site_label
 _atom_site_symmetry_multiplicity
 _atom_site_fract_x
 _atom_site_fract_y
 _atom_site_fract_z
 _atom_site_occupancy
  Na  Na0  1  0.00858326  0.00136484  0.50045797  1
  Na  Na1  1  0.99903671  0.00156259  0.00031746  1
  Na  Na2  1  0.64966374  0.30010089  0.83150983  1
  Na  Na3  1  0.65117964  0.33401355  0.32611328  1
  Na  Na4  1  0.32929047  0.66498137  0.16329581  1
  Na  Na5  1  0.32018211  0.66524636  0.66511940  1
  Na  Na6  1  0.64476620  0.01008756  0.24265851  1
  Na  Na7  1  0.98991896  0.62420589  0.24182903  1
  Na  Na8  1  0.62588019  0.61663254  0.74316149  1
  Na  Na9  1  0.99571050  0.37192399  0.74531478  1
  Na  Na10  1  0.66587680  0.97572254  0.58811239  1
  Na  Na11  1  0.66170006  0.68841736  0.08246712  1
  Na  Na12  1  0.02670728  0.33891777  0.08814140  1
  Na  Na13  1  0.96627691  0.66875202  0.91676185  1
  Na  Na14  1  0.33589144  0.30188605  0.91840147  1
  Na  Na15  1  0.96115592  0.28716411  0.41049170  1
  Na  Na16  1  0.33043298  0.03610230  0.41186976  1
  Na  Na17  1  0.71517679  0.67938397  0.41336230  1
  Mg  Mg18  1  0.00037726  0.00005121  0.35274731  1
  Mg  Mg19  1  0.65872383  0.32813208  0.68602611  1
  Mg  Mg20  1  0.66527711  0.33282053  0.18361835  1
  Ti  Ti21  1  0.99660015  0.00189160  0.85728349  1
  Ti  Ti22  1  0.00384437  0.99315813  0.64393900  1
  Ti  Ti23  1  0.00805129  0.00011555  0.14744845  1
  Ti  Ti24  1  0.67105904  0.33658957  0.97913434  1
  Ti  Ti25  1  0.66864977  0.33660355  0.48445685  1
  Ti  Ti26  1  0.32981771  0.67068207  0.01729866  1
  Ti  Ti27  1  0.33996298  0.66823245  0.52239285  1
  Ti  Ti28  1  0.33813075  0.66912150  0.31125598  1
  Ti  Ti29  1  0.33529395  0.67413210  0.81478471  1
  Si  Si30  1  0.66714545  0.62547932  0.58753490  1
  Si  Si31  1  0.96483882  0.62956694  0.08575845  1
  Si  Si32  1  0.62220766  0.66910689  0.91706962  1
  Si  Si33  1  0.04167842  0.37731169  0.91569660  1
  Si  Si34  1  0.34020667  0.96141051  0.91538578  1
  Si  Si35  1  0.62440579  0.96261717  0.41705661  1
  P  P36  1  0.29367491  0.00065239  0.25424918  1
  P  P37  1  0.70485842  0.70676848  0.25163690  1
  P  P38  1  0.00465187  0.29427144  0.25243718  1
  P  P39  1  0.28608060  0.28526028  0.75129067  1
  P  P40  1  0.00671924  0.71420006  0.75140501  1
  P  P41  1  0.71033476  0.99521700  0.74806074  1
  P  P42  1  0.96333910  0.33725717  0.58637670  1
  P  P43  1  0.37458721  0.04269259  0.58292553  1
  P  P44  1  0.66441330  0.04058790  0.08627875  1
  P  P45  1  0.37411848  0.33180979  0.08264718  1
  P  P46  1  0.33922851  0.38361569  0.41751073  1
  P  P47  1  0.04493774  0.66063580  0.41622144  1
  O  O48  1  0.21301309  0.01146150  0.31400443  1
  O  O49  1  0.80660525  0.79054278  0.31042027  1
  O  O50  1  0.98856195  0.19147818  0.31028612  1
  O  O51  1  0.19235259  0.18750727  0.81069739  1
  O  O52  1  0.99692183  0.80879448  0.80916557  1
  O  O53  1  0.82618050  0.00535832  0.80364030  1
  O  O54  1  0.79846510  0.97794929  0.68890881  1
  O  O55  1  0.16820288  0.18328167  0.69559881  1
  O  O56  1  0.01212261  0.82234981  0.69367085  1
  O  O57  1  0.79969229  0.82696293  0.19493969  1
  O  O58  1  0.01678120  0.19870110  0.19405708  1
  O  O59  1  0.16903338  0.98255299  0.19940006  1
  O  O60  1  0.88452976  0.35768644  0.64471251  1
  O  O61  1  0.49613896  0.11919850  0.63686589  1
  O  O62  1  0.63931515  0.51962363  0.64860410  1
  O  O63  1  0.88748275  0.51320839  0.14562798  1
  O  O64  1  0.64526627  0.11266468  0.14648246  1
  O  O65  1  0.49129132  0.35988707  0.13663079  1
  O  O66  1  0.45018048  0.30863154  0.02191921  1
  O  O67  1  0.83376542  0.53365226  0.02626877  1
  O  O68  1  0.68494812  0.16526196  0.03237919  1
  O  O69  1  0.46147372  0.15167488  0.52321072  1
  O  O70  1  0.68647032  0.52276854  0.52660897  1
  O  O71  1  0.83718671  0.30833282  0.52976104  1
  O  O72  1  0.53236513  0.69309875  0.97775700  1
  O  O73  1  0.16752398  0.46745355  0.97492738  1
  O  O74  1  0.29923570  0.82715773  0.97211442  1
  O  O75  1  0.51884189  0.83960635  0.47559465  1
  O  O76  1  0.31808073  0.47337482  0.47404490  1
  O  O77  1  0.15938033  0.67573642  0.47089590  1
  O  O78  1  0.12639732  0.63530851  0.35672329  1
  O  O79  1  0.49841614  0.86215006  0.35629252  1
  O  O80  1  0.35823297  0.49822484  0.36018235  1
  O  O81  1  0.13254019  0.50170789  0.85531999  1
  O  O82  1  0.36524889  0.86483956  0.85544765  1
  O  O83  1  0.49681613  0.63457604  0.85667226  1
  O  O84  1  0.02484019  0.82254294  0.41454743  1
  O  O85  1  0.81386436  0.98106178  0.41624152  1
  O  O86  1  0.18200036  0.20026985  0.41398100  1
  O  O87  1  0.02452921  0.18622522  0.91056413  1
  O  O88  1  0.16526251  0.97934676  0.91043833  1
  O  O89  1  0.81938157  0.83429299  0.91042160  1
  O  O90  1  0.97572900  0.16833776  0.58605079  1
  O  O91  1  0.19457499  0.02961736  0.58801766  1
  O  O92  1  0.84075873  0.82420837  0.58700936  1
  O  O93  1  0.97572443  0.82110437  0.09162605  1
  O  O94  1  0.83584979  0.02852395  0.08626609  1
  O  O95  1  0.18517424  0.17025627  0.08978321  1
  O  O96  1  0.69794598  0.15964563  0.74825135  1
  O  O97  1  0.46705409  0.30687618  0.75036131  1
  O  O98  1  0.84489222  0.53213515  0.75076136  1
  O  O99  1  0.68225195  0.52669226  0.24495039  1
  O  O100  1  0.84314543  0.31621975  0.24926207  1
  O  O101  1  0.47762293  0.14936564  0.24658266  1
  O  O102  1  0.64143161  0.49514786  0.92190759  1
  O  O103  1  0.85348941  0.36334601  0.92394608  1
  O  O104  1  0.50599614  0.15309206  0.92301293  1
  O  O105  1  0.63640626  0.15333349  0.42048994  1
  O  O106  1  0.50981679  0.37525465  0.41991107  1
  O  O107  1  0.86131876  0.49449718  0.42116703  1
  O  O108  1  0.34857603  0.49304727  0.07904349  1
  O  O109  1  0.15682442  0.65069445  0.07570937  1
  O  O110  1  0.51105940  0.85311255  0.07754226  1
  O  O111  1  0.34416259  0.85584223  0.57414492  1
  O  O112  1  0.50169149  0.66099248  0.57746104  1
  O  O113  1  0.14373184  0.49633375  0.57552534  1
  O  O114  1  0.29561896  0.82325597  0.25160929  1
  O  O115  1  0.52414063  0.70095062  0.25285283  1
  O  O116  1  0.17064534  0.47975479  0.25313323  1
  O  O117  1  0.29625253  0.46640885  0.75019637  1
  O  O118  1  0.17273680  0.69812342  0.74999267  1
  O  O119  1  0.53185889  0.82360144  0.75142532  1
