# generated using pymatgen
data_Na3TaGa3P5SO24
_symmetry_space_group_name_H-M   'P 1'
_cell_length_a   8.62638489
_cell_length_b   8.61045799
_cell_length_c   22.23917231
_cell_angle_alpha   89.60682594
_cell_angle_beta   90.18427040
_cell_angle_gamma   119.98266365
_symmetry_Int_Tables_number   1
_chemical_formula_structural   Na3TaGa3P5SO24
_chemical_formula_sum   'Na9 Ta3 Ga9 P15 S3 O72'
_cell_volume   1430.77037050
_cell_formula_units_Z   3
loop_
 _symmetry_equiv_pos_site_id
 _symmetry_equiv_pos_as_xyz
  1  'x, y, z'
loop_
 _atom_site_type_symbol
 _atom_site_label
 _atom_site_symmetry_multiplicity
 _atom_site_fract_x
 _atom_site_fract_y
 _atom_site_fract_z
 _atom_site_occupancy
  Na  Na0  1  0.63960851  0.63556026  0.74799214  1
  Na  Na1  1  0.30071077  0.96601886  0.08476661  1
  Na  Na2  1  0.32985003  0.02778129  0.41397939  1
  Na  Na3  1  0.99164122  0.99983034  0.50075397  1
  Na  Na4  1  0.99447740  0.00039149  0.99909521  1
  Na  Na5  1  0.66675645  0.32740692  0.83096601  1
  Na  Na6  1  0.66864844  0.33536391  0.32897794  1
  Na  Na7  1  0.33332668  0.66326813  0.16734435  1
  Na  Na8  1  0.32732074  0.66364785  0.66235508  1
  Ta  Ta9  1  0.66842790  0.33437385  0.97991413  1
  Ta  Ta10  1  0.67781717  0.34236467  0.47970783  1
  Ta  Ta11  1  0.32850025  0.66624319  0.81218951  1
  Ga  Ga12  1  0.00114272  0.00179699  0.35151285  1
  Ga  Ga13  1  0.00127069  0.00156206  0.85178479  1
  Ga  Ga14  1  0.99306442  0.00104822  0.64839056  1
  Ga  Ga15  1  0.00064584  0.99863537  0.14762474  1
  Ga  Ga16  1  0.67450807  0.33667008  0.68559926  1
  Ga  Ga17  1  0.65918271  0.32683607  0.18394424  1
  Ga  Ga18  1  0.33367859  0.66148398  0.01900784  1
  Ga  Ga19  1  0.33350848  0.65665116  0.51733069  1
  Ga  Ga20  1  0.33340619  0.67340238  0.31552286  1
  P  P21  1  0.29145165  -0.00004076  0.24999334  1
  P  P22  1  0.28625847  0.27859539  0.74888315  1
  P  P23  1  0.99771668  0.71563630  0.74876308  1
  P  P24  1  0.71812332  0.01012313  0.74969769  1
  P  P25  1  0.96348540  0.33458237  0.58602801  1
  P  P26  1  0.66658675  0.62923956  0.58602925  1
  P  P27  1  0.95702737  0.62259250  0.08625114  1
  P  P28  1  0.67025071  0.03935281  0.08565539  1
  P  P29  1  0.37479797  0.33828541  0.08536510  1
  P  P30  1  0.62691231  0.67468554  0.91771407  1
  P  P31  1  0.04646984  0.37228372  0.91835512  1
  P  P32  1  0.32648538  0.95353836  0.91829803  1
  P  P33  1  0.62482016  0.94799194  0.41643124  1
  P  P34  1  0.32728067  0.38025252  0.41507259  1
  P  P35  1  0.05174208  0.67105800  0.41573892  1
  S  S36  1  0.70965655  0.70966203  0.25010826  1
  S  S37  1  0.00029804  0.29069362  0.24977005  1
  S  S38  1  0.37390612  0.03995450  0.58458522  1
  O  O39  1  0.20911400  0.03243857  0.30746714  1
  O  O40  1  0.82026200  0.78898277  0.30457279  1
  O  O41  1  0.96617663  0.17867972  0.30451697  1
  O  O42  1  0.20817708  0.17316434  0.80678028  1
  O  O43  1  0.96133805  0.79112457  0.80575050  1
  O  O44  1  0.82508291  0.03440561  0.80687305  1
  O  O45  1  0.78556665  0.95590385  0.69423411  1
  O  O46  1  0.17189081  0.20760552  0.69252530  1
  O  O47  1  0.03763836  0.83025417  0.69227337  1
  O  O48  1  0.78790318  0.82198666  0.19547100  1
  O  O49  1  0.03090899  0.21061571  0.19550025  1
  O  O50  1  0.17571479  0.96722736  0.19264391  1
  O  O51  1  0.87356937  0.36602588  0.63966759  1
  O  O52  1  0.48776484  0.12302360  0.63742012  1
  O  O53  1  0.63179520  0.50905709  0.64168152  1
  O  O54  1  0.87049908  0.50301815  0.14086211  1
  O  O55  1  0.62754387  0.12290719  0.13913100  1
  O  O56  1  0.49335181  0.36916908  0.13993916  1
  O  O57  1  0.46333346  0.30015103  0.02858219  1
  O  O58  1  0.83775576  0.53453556  0.02838653  1
  O  O59  1  0.69895785  0.16121906  0.02808225  1
  O  O60  1  0.45758830  0.15315444  0.52828385  1
  O  O61  1  0.69390944  0.53236200  0.52927054  1
  O  O62  1  0.83911303  0.30374768  0.52851210  1
  O  O63  1  0.53936139  0.70036455  0.97266203  1
  O  O64  1  0.15943718  0.45963266  0.97332996  1
  O  O65  1  0.30086153  0.84310948  0.97510997  1
  O  O66  1  0.54095221  0.84091565  0.47392996  1
  O  O67  1  0.29736242  0.45545605  0.47272212  1
  O  O68  1  0.16449896  0.70682428  0.47270590  1
  O  O69  1  0.12302760  0.62804745  0.35980602  1
  O  O70  1  0.50339828  0.87921524  0.36080107  1
  O  O71  1  0.37008685  0.49653599  0.35886451  1
  O  O72  1  0.13001158  0.49497406  0.86121808  1
  O  O73  1  0.36408461  0.86821882  0.86189238  1
  O  O74  1  0.50748601  0.63531419  0.85977663  1
  O  O75  1  0.02498689  0.83455008  0.40945904  1
  O  O76  1  0.81358951  0.97781925  0.40839405  1
  O  O77  1  0.16849359  0.18605612  0.40941776  1
  O  O78  1  0.02277256  0.18763974  0.90948216  1
  O  O79  1  0.16474218  0.97627068  0.90937028  1
  O  O80  1  0.81248827  0.83516915  0.90910142  1
  O  O81  1  0.97555023  0.16312266  0.58936535  1
  O  O82  1  0.19819922  0.02787230  0.58853739  1
  O  O83  1  0.83940952  0.81068003  0.58930425  1
  O  O84  1  0.97674808  0.81110090  0.08955193  1
  O  O85  1  0.83932173  0.02592719  0.09107088  1
  O  O86  1  0.19176985  0.16290416  0.08949995  1
  O  O87  1  0.68674020  0.16841253  0.74230917  1
  O  O88  1  0.48062041  0.31549344  0.74285171  1
  O  O89  1  0.83239221  0.52556025  0.74369300  1
  O  O90  1  0.69391325  0.53054192  0.24408931  1
  O  O91  1  0.83856627  0.30944944  0.24377021  1
  O  O92  1  0.47977600  0.17036638  0.24364467  1
  O  O93  1  0.63996387  0.49945232  0.92363059  1
  O  O94  1  0.85937618  0.36000735  0.92338730  1
  O  O95  1  0.50061340  0.14098394  0.92348408  1
  O  O96  1  0.63939974  0.14014670  0.42540536  1
  O  O97  1  0.49657115  0.35275636  0.42478876  1
  O  O98  1  0.85896500  0.50130049  0.42393127  1
  O  O99  1  0.35760439  0.50384887  0.07617564  1
  O  O100  1  0.14451252  0.64652205  0.07671861  1
  O  O101  1  0.49775486  0.85840935  0.07593781  1
  O  O102  1  0.35893916  0.86373104  0.57687137  1
  O  O103  1  0.49847158  0.64400534  0.57658825  1
  O  O104  1  0.14431568  0.50478706  0.57603677  1
  O  O105  1  0.30903649  0.82920676  0.25654861  1
  O  O106  1  0.52941477  0.69094431  0.25614134  1
  O  O107  1  0.16336092  0.46949495  0.25600160  1
  O  O108  1  0.31254939  0.47603015  0.75745462  1
  O  O109  1  0.16604107  0.69209959  0.75711860  1
  O  O110  1  0.52614301  0.83384510  0.75812099  1
