# generated using pymatgen
data_Na6MgSi4Sn3(SO12)2
_symmetry_space_group_name_H-M   'P 1'
_cell_length_a   9.04966986
_cell_length_b   9.04347249
_cell_length_c   22.62982646
_cell_angle_alpha   90.55922627
_cell_angle_beta   89.87597914
_cell_angle_gamma   120.10812237
_symmetry_Int_Tables_number   1
_chemical_formula_structural   Na6MgSi4Sn3(SO12)2
_chemical_formula_sum   'Na18 Mg3 Si12 Sn9 S6 O72'
_cell_volume   1602.07469264
_cell_formula_units_Z   3
loop_
 _symmetry_equiv_pos_site_id
 _symmetry_equiv_pos_as_xyz
  1  'x, y, z'
loop_
 _atom_site_type_symbol
 _atom_site_label
 _atom_site_symmetry_multiplicity
 _atom_site_fract_x
 _atom_site_fract_y
 _atom_site_fract_z
 _atom_site_occupancy
  Na  Na0  1  0.99163710  0.35286517  0.75413970  1
  Na  Na1  1  0.38866818  0.01877871  0.75083060  1
  Na  Na2  1  0.31696848  0.33443543  0.58528481  1
  Na  Na3  1  0.02928134  0.70316552  0.57645987  1
  Na  Na4  1  0.65704145  0.96205390  0.58817247  1
  Na  Na5  1  0.31100619  0.97442478  0.08327833  1
  Na  Na6  1  0.66237608  0.68661103  0.08548398  1
  Na  Na7  1  0.02447735  0.33488215  0.08339909  1
  Na  Na8  1  0.33083489  0.29581067  0.92256927  1
  Na  Na9  1  0.96797122  0.29413566  0.41176781  1
  Na  Na10  1  0.32472266  0.03251982  0.41430397  1
  Na  Na11  1  0.70859250  0.67692086  0.41471006  1
  Na  Na12  1  0.00027087  0.99377142  0.49126503  1
  Na  Na13  1  -0.00072860  0.99821104  0.00017097  1
  Na  Na14  1  0.66454560  0.32126346  0.83315327  1
  Na  Na15  1  0.66676474  0.33371050  0.32850692  1
  Na  Na16  1  0.33321255  0.66713981  0.16444415  1
  Na  Na17  1  0.36144768  0.67236455  0.66924807  1
  Mg  Mg18  1  0.00092491  0.99805726  0.35426575  1
  Mg  Mg19  1  0.64578924  0.32593048  0.68688183  1
  Mg  Mg20  1  0.66379175  0.33228272  0.17801230  1
  Si  Si21  1  0.29853664  0.29871551  0.75060610  1
  Si  Si22  1  0.70554953  0.99950582  0.75009720  1
  Si  Si23  1  0.37265321  0.03677786  0.58524151  1
  Si  Si24  1  0.66687394  0.62515540  0.58503977  1
  Si  Si25  1  0.95205682  0.61836431  0.08587276  1
  Si  Si26  1  0.66477326  0.03892207  0.08656407  1
  Si  Si27  1  0.37956255  0.33798679  0.08378526  1
  Si  Si28  1  0.03570032  0.37739507  0.91588211  1
  Si  Si29  1  0.33207017  0.96137427  0.91595457  1
  Si  Si30  1  0.63055332  0.96426627  0.41629580  1
  Si  Si31  1  0.33097892  0.37478570  0.41614117  1
  Si  Si32  1  0.03890918  0.66335782  0.41736385  1
  Sn  Sn33  1  0.00534403  0.01289372  0.85386987  1
  Sn  Sn34  1  0.99657974  0.99868059  0.65044784  1
  Sn  Sn35  1  0.00276627  0.00085779  0.14796173  1
  Sn  Sn36  1  0.67188939  0.32076825  0.98416594  1
  Sn  Sn37  1  0.65667554  0.33679690  0.47998606  1
  Sn  Sn38  1  0.32375153  0.66800251  0.01920363  1
  Sn  Sn39  1  0.34420130  0.67500408  0.51471743  1
  Sn  Sn40  1  0.33324565  0.66836587  0.31767397  1
  Sn  Sn41  1  0.33836467  0.66934483  0.81581324  1
  S  S42  1  0.29458283  -0.00139007  0.25212317  1
  S  S43  1  0.70400475  0.70555183  0.25184165  1
  S  S44  1  0.00167634  0.29639832  0.25217179  1
  S  S45  1  0.99610478  0.70449703  0.75042932  1
  S  S46  1  0.95724434  0.33422126  0.58474411  1
  S  S47  1  0.63070398  0.66810981  0.91718582  1
  O  O48  1  0.20502667  0.01182097  0.30414932  1
  O  O49  1  0.80653282  0.79558329  0.30411723  1
  O  O50  1  0.98942304  0.19461174  0.30397083  1
  O  O51  1  0.20901075  0.17235312  0.80719097  1
  O  O52  1  0.97180551  0.78621853  0.80214326  1
  O  O53  1  0.82947244  0.02391525  0.80593412  1
  O  O54  1  0.78128430  0.96117791  0.68815689  1
  O  O55  1  0.17089308  0.21601084  0.69067876  1
  O  O56  1  0.03205789  0.81223905  0.69531677  1
  O  O57  1  0.78282952  0.81060514  0.19648495  1
  O  O58  1  0.02863054  0.21733838  0.19617440  1
  O  O59  1  0.18895449  0.97044800  0.19624886  1
  O  O60  1  0.87860219  0.35761497  0.63732068  1
  O  O61  1  0.49354419  0.11249986  0.64161085  1
  O  O62  1  0.63524480  0.50123656  0.63830919  1
  O  O63  1  0.87689939  0.49858641  0.14144397  1
  O  O64  1  0.61464703  0.11419978  0.14145047  1
  O  O65  1  0.50017729  0.38048420  0.13940550  1
  O  O66  1  0.45001927  0.29258026  0.02207274  1
  O  O67  1  0.82967049  0.54587930  0.02622103  1
  O  O68  1  0.72095762  0.15812701  0.02691401  1
  O  O69  1  0.44821466  0.15451840  0.52472617  1
  O  O70  1  0.71339533  0.55664171  0.52292743  1
  O  O71  1  0.85465843  0.30586641  0.52993010  1
  O  O72  1  0.55619500  0.69789397  0.97070358  1
  O  O73  1  0.16499052  0.45892960  0.97270876  1
  O  O74  1  0.30721626  0.85147137  0.97527266  1
  O  O75  1  0.55875623  0.84950346  0.47694009  1
  O  O76  1  0.29130164  0.45179617  0.47732546  1
  O  O77  1  0.15540212  0.70024101  0.47795997  1
  O  O78  1  0.12051650  0.61423910  0.36091672  1
  O  O79  1  0.49401965  0.88282029  0.36121310  1
  O  O80  1  0.38221272  0.50855545  0.36129597  1
  O  O81  1  0.12498435  0.48748435  0.85528909  1
  O  O82  1  0.36440270  0.87909040  0.85552786  1
  O  O83  1  0.52017143  0.63698684  0.86372427  1
  O  O84  1  0.01968708  0.83006478  0.41025178  1
  O  O85  1  0.81551857  0.98396487  0.40772141  1
  O  O86  1  0.16630825  0.18762018  0.40914844  1
  O  O87  1  0.02470601  0.18848632  0.91381060  1
  O  O88  1  0.15625847  0.97592322  0.91123015  1
  O  O89  1  0.80238201  0.82050929  0.91032930  1
  O  O90  1  0.97685757  0.17808119  0.58656551  1
  O  O91  1  0.17958166  0.02001739  0.59030193  1
  O  O92  1  0.83829945  0.82259179  0.58816857  1
  O  O93  1  0.97857935  0.81543432  0.09148924  1
  O  O94  1  0.83599454  0.01587265  0.09321837  1
  O  O95  1  0.18438608  0.16428047  0.09032321  1
  O  O96  1  0.69927244  0.17512466  0.74632522  1
  O  O97  1  0.48051377  0.31187768  0.74726429  1
  O  O98  1  0.85197043  0.53241146  0.74250353  1
  O  O99  1  0.68574329  0.53606529  0.24669581  1
  O  O100  1  0.85009302  0.31335192  0.24718012  1
  O  O101  1  0.46328629  0.15073486  0.24741390  1
  O  O102  1  0.64063000  0.51032202  0.92078875  1
  O  O103  1  0.85022357  0.36424102  0.92012724  1
  O  O104  1  0.49611065  0.15840507  0.91994831  1
  O  O105  1  0.64516299  0.15250145  0.42382281  1
  O  O106  1  0.50623044  0.36221314  0.41970008  1
  O  O107  1  0.85215847  0.48684123  0.42284658  1
  O  O108  1  0.35229151  0.50444398  0.07517554  1
  O  O109  1  0.14804069  0.64943827  0.07870826  1
  O  O110  1  0.50128176  0.84361117  0.07577302  1
  O  O111  1  0.34098422  0.83932642  0.57804874  1
  O  O112  1  0.49234973  0.64310852  0.57862193  1
  O  O113  1  0.13182703  0.48791784  0.57982285  1
  O  O114  1  0.30617597  0.83596675  0.25316734  1
  O  O115  1  0.52903936  0.69304851  0.25350582  1
  O  O116  1  0.16468601  0.47129294  0.25334425  1
  O  O117  1  0.29701846  0.48161772  0.75534570  1
  O  O118  1  0.15802260  0.69482803  0.75413764  1
  O  O119  1  0.50989222  0.83151587  0.75453570  1
