# generated using pymatgen
data_Na15Mg4Nb8Si9(PO8)9
_symmetry_space_group_name_H-M   'P 1'
_cell_length_a   9.00037643
_cell_length_b   8.99978988
_cell_length_c   22.55483544
_cell_angle_alpha   89.85403554
_cell_angle_beta   89.94323529
_cell_angle_gamma   120.05231702
_symmetry_Int_Tables_number   1
_chemical_formula_structural   Na15Mg4Nb8Si9(PO8)9
_chemical_formula_sum   'Na15 Mg4 Nb8 Si9 P9 O72'
_cell_volume   1581.36181202
_cell_formula_units_Z   1
loop_
 _symmetry_equiv_pos_site_id
 _symmetry_equiv_pos_as_xyz
  1  'x, y, z'
loop_
 _atom_site_type_symbol
 _atom_site_label
 _atom_site_symmetry_multiplicity
 _atom_site_fract_x
 _atom_site_fract_y
 _atom_site_fract_z
 _atom_site_occupancy
  Na  Na0  1  0.63870233  0.01399106  0.24286228  1
  Na  Na1  1  0.98829092  0.62788820  0.24260898  1
  Na  Na2  1  0.63788038  0.62620232  0.74340333  1
  Na  Na3  1  0.37155623  0.01464191  0.74330367  1
  Na  Na4  1  0.31237703  0.33743561  0.58711272  1
  Na  Na5  1  0.96438265  0.67840453  0.91353047  1
  Na  Na6  1  0.71050172  0.03171906  0.91311524  1
  Na  Na7  1  0.96358277  0.28979233  0.41363307  1
  Na  Na8  1  0.70892382  0.67685785  0.41251139  1
  Na  Na9  1  0.00838221  0.99376042  0.49354446  1
  Na  Na10  1  0.01091337  0.00711583  0.99464526  1
  Na  Na11  1  0.66725161  0.33301047  0.82797644  1
  Na  Na12  1  0.64502004  0.32514464  0.32830071  1
  Na  Na13  1  0.33309412  0.65931206  0.16306823  1
  Na  Na14  1  0.32156882  0.66654531  0.66401742  1
  Mg  Mg15  1  0.01072011  0.00234730  0.35330628  1
  Mg  Mg16  1  0.00439271  0.00275363  0.85355125  1
  Mg  Mg17  1  0.67212018  0.33383471  0.68358122  1
  Mg  Mg18  1  0.66196319  0.33252201  0.18345101  1
  Nb  Nb19  1  0.99722677  0.99826406  0.64359461  1
  Nb  Nb20  1  0.99934694  0.99744435  0.14342439  1
  Nb  Nb21  1  0.66145549  0.33369003  0.98280655  1
  Nb  Nb22  1  0.66545702  0.33401398  0.48223715  1
  Nb  Nb23  1  0.33748139  0.67528023  0.02228835  1
  Nb  Nb24  1  0.32723678  0.66635926  0.52178635  1
  Nb  Nb25  1  0.33031180  0.66004362  0.31278455  1
  Nb  Nb26  1  0.33408728  0.66423092  0.81332931  1
  Si  Si27  1  0.95166028  0.33370495  0.58575516  1
  Si  Si28  1  0.38014004  0.04176457  0.58808270  1
  Si  Si29  1  0.66688613  0.62283741  0.58631490  1
  Si  Si30  1  0.95599706  0.61937189  0.08717525  1
  Si  Si31  1  0.66833456  0.04630906  0.08720058  1
  Si  Si32  1  0.62417594  0.66370102  0.91681736  1
  Si  Si33  1  0.33320986  0.96232519  0.91605062  1
  Si  Si34  1  0.33173284  0.36941717  0.41781940  1
  Si  Si35  1  0.04024248  0.67000914  0.41623971  1
  P  P36  1  0.29201881  0.00521681  0.25167979  1
  P  P37  1  0.71066398  0.70920216  0.25228015  1
  P  P38  1  0.99962177  0.28665008  0.25227960  1
  P  P39  1  0.28786884  0.28840114  0.75140180  1
  P  P40  1  0.99708026  0.70785454  0.75263356  1
  P  P41  1  0.71291277  0.00482810  0.75333795  1
  P  P42  1  0.37710073  0.33505766  0.08587618  1
  P  P43  1  0.04556500  0.37715999  0.91821574  1
  P  P44  1  0.61874333  0.95656238  0.41563361  1
  O  O45  1  0.20447400  0.01915028  0.30638381  1
  O  O46  1  0.81389254  0.79195032  0.30808229  1
  O  O47  1  0.97590952  0.18298501  0.30829196  1
  O  O48  1  0.19887723  0.17540419  0.80413556  1
  O  O49  1  0.97594158  0.79005188  0.80859235  1
  O  O50  1  0.80909135  0.01632037  0.80978158  1
  O  O51  1  0.80250676  0.97404561  0.69813322  1
  O  O52  1  0.18157902  0.20738241  0.69297855  1
  O  O53  1  0.02935543  0.83119202  0.69763971  1
  O  O54  1  0.80379080  0.83129035  0.19694025  1
  O  O55  1  0.02605165  0.19849858  0.19678009  1
  O  O56  1  0.17400542  0.97225068  0.19552696  1
  O  O57  1  0.87538029  0.37192595  0.64174773  1
  O  O58  1  0.48044984  0.11628266  0.64784055  1
  O  O59  1  0.61798687  0.50600927  0.64388600  1
  O  O60  1  0.87977505  0.51563562  0.14651603  1
  O  O61  1  0.63340363  0.11756146  0.14614940  1
  O  O62  1  0.48668038  0.36675463  0.13969258  1
  O  O63  1  0.46467402  0.30554717  0.02888080  1
  O  O64  1  0.83409450  0.52989200  0.02673510  1
  O  O65  1  0.69318368  0.16395970  0.02638836  1
  O  O66  1  0.47287075  0.17156019  0.52952730  1
  O  O67  1  0.69876000  0.53262806  0.52598250  1
  O  O68  1  0.83845360  0.30212723  0.52353385  1
  O  O69  1  0.51784239  0.68353851  0.97167226  1
  O  O70  1  0.15580128  0.46815258  0.97225882  1
  O  O71  1  0.31132178  0.83363016  0.97194513  1
  O  O72  1  0.52768444  0.83971331  0.46926436  1
  O  O73  1  0.31626847  0.47397194  0.47466712  1
  O  O74  1  0.16401514  0.68608176  0.47192406  1
  O  O75  1  0.13795545  0.63874749  0.35764948  1
  O  O76  1  0.50731195  0.86972776  0.35857987  1
  O  O77  1  0.36624836  0.50513670  0.35998885  1
  O  O78  1  0.13475093  0.49730280  0.86218284  1
  O  O79  1  0.36516878  0.86362444  0.85757660  1
  O  O80  1  0.50052174  0.63442764  0.85699678  1
  O  O81  1  0.00574294  0.82608999  0.41321998  1
  O  O82  1  0.79609611  0.97459039  0.41052639  1
  O  O83  1  0.15708754  0.19220844  0.41317925  1
  O  O84  1  0.01618362  0.19738395  0.91152431  1
  O  O85  1  0.16192832  0.97102818  0.91250341  1
  O  O86  1  0.80838526  0.83434262  0.91284776  1
  O  O87  1  0.98093464  0.16431082  0.59163646  1
  O  O88  1  0.18820394  0.02900141  0.59112001  1
  O  O89  1  0.83907982  0.81458739  0.59202026  1
  O  O90  1  0.98028124  0.81648755  0.09171988  1
  O  O91  1  0.84296191  0.02681148  0.09140884  1
  O  O92  1  0.19640623  0.16987484  0.09012523  1
  O  O93  1  0.67637355  0.15155228  0.74716406  1
  O  O94  1  0.47151611  0.31804576  0.74690142  1
  O  O95  1  0.83894902  0.53160946  0.74483842  1
  O  O96  1  0.68749770  0.53103448  0.24431645  1
  O  O97  1  0.84619107  0.31635895  0.24644216  1
  O  O98  1  0.47512879  0.15450079  0.24513303  1
  O  O99  1  0.64417125  0.49217296  0.92236919  1
  O  O100  1  0.86770830  0.37082691  0.92206113  1
  O  O101  1  0.51634685  0.14329248  0.92247602  1
  O  O102  1  0.63537743  0.13593728  0.42116535  1
  O  O103  1  0.51329353  0.36747014  0.42149661  1
  O  O104  1  0.85622715  0.48560816  0.42110521  1
  O  O105  1  0.34982232  0.48878076  0.07387884  1
  O  O106  1  0.14753085  0.64509876  0.07380724  1
  O  O107  1  0.50466268  0.85023598  0.07429811  1
  O  O108  1  0.35102171  0.85100161  0.57417391  1
  O  O109  1  0.50162733  0.64788668  0.57207529  1
  O  O110  1  0.15210144  0.49278152  0.57464006  1
  O  O111  1  0.30449316  0.83122013  0.25471242  1
  O  O112  1  0.53122185  0.70438056  0.25441794  1
  O  O113  1  0.16838577  0.47417919  0.25561961  1
  O  O114  1  0.30558651  0.47420602  0.75546173  1
  O  O115  1  0.16952328  0.69917246  0.75555746  1
  O  O116  1  0.52708880  0.82789094  0.75463610  1
