# generated using pymatgen
data_Sr(InS2)2
_symmetry_space_group_name_H-M   'P 1'
_cell_length_a   14.99171758
_cell_length_b   12.49615961
_cell_length_c   12.43285983
_cell_angle_alpha   73.92558596
_cell_angle_beta   53.22670129
_cell_angle_gamma   52.83896066
_symmetry_Int_Tables_number   1
_chemical_formula_structural   Sr(InS2)2
_chemical_formula_sum   'Sr8 In16 S32'
_cell_volume   1473.68013751
_cell_formula_units_Z   8
loop_
 _symmetry_equiv_pos_site_id
 _symmetry_equiv_pos_as_xyz
  1  'x, y, z'
loop_
 _atom_site_type_symbol
 _atom_site_label
 _atom_site_symmetry_multiplicity
 _atom_site_fract_x
 _atom_site_fract_y
 _atom_site_fract_z
 _atom_site_occupancy
  Sr  Sr0  1  0.74996183  0.75002138  0.75002788  1
  Sr  Sr1  1  0.49999749  0.49999423  0.50000511  1
  Sr  Sr2  1  0.24997765  0.25001305  0.25002255  1
  Sr  Sr3  1  -0.00000270  -0.00001350  0.99999361  1
  Sr  Sr4  1  0.00325291  0.49674058  0.00326121  1
  Sr  Sr5  1  0.49673433  0.00326058  0.49674384  1
  Sr  Sr6  1  0.24674092  0.75325936  0.24677283  1
  Sr  Sr7  1  0.75323301  0.24674142  0.75325533  1
  In  In8  1  0.26966190  0.08782664  0.98073895  1
  In  In9  1  0.66182550  0.98072057  0.08782443  1
  In  In10  1  0.98066817  0.66186403  0.26969868  1
  In  In11  1  0.08776932  0.26967627  0.66182033  1
  In  In12  1  0.98030026  0.16222217  0.26929243  1
  In  In13  1  0.58818794  0.26930940  0.16216081  1
  In  In14  1  0.26927287  0.58817430  0.98031997  1
  In  In15  1  0.16225395  0.98031312  0.58814647  1
  In  In16  1  0.51050469  0.76387742  0.23766010  1
  In  In17  1  0.48791363  0.23765089  0.76392461  1
  In  In18  1  0.23764141  0.48793235  0.51048169  1
  In  In19  1  0.76394854  0.51045674  0.48792711  1
  In  In20  1  0.73953769  0.48604982  0.01232302  1
  In  In21  1  0.76209732  0.01233820  0.48607695  1
  In  In22  1  0.01231411  0.76207401  0.73955653  1
  In  In23  1  0.48604886  0.73953936  0.76207614  1
  S  S24  1  0.76939967  0.80834079  0.47810739  1
  S  S25  1  0.94414738  0.47809690  0.80829111  1
  S  S26  1  0.47799499  0.94420815  0.76944930  1
  S  S27  1  0.80834361  0.76941529  0.94421524  1
  S  S28  1  0.48054428  0.44166688  0.77194050  1
  S  S29  1  0.30582583  0.77191404  0.44167447  1
  S  S30  1  0.77187465  0.30584101  0.48057365  1
  S  S31  1  0.44166688  0.48055661  0.30585012  1
  S  S32  1  0.97551972  0.46223352  0.27811014  1
  S  S33  1  0.28418510  0.27808483  0.46221221  1
  S  S34  1  0.27809969  0.28419899  0.97553038  1
  S  S35  1  0.46221757  0.97548104  0.28417994  1
  S  S36  1  0.27448180  0.78776587  0.97187517  1
  S  S37  1  0.96586219  0.97188989  0.78774272  1
  S  S38  1  0.97191798  0.96581952  0.27447757  1
  S  S39  1  0.78780034  0.27448542  0.96581698  1
  S  S40  1  0.71190733  0.03705305  0.21485010  1
  S  S41  1  0.03625093  0.21489011  0.03700483  1
  S  S42  1  0.21488517  0.03623217  0.71187029  1
  S  S43  1  0.03702320  0.71186448  0.03622523  1
  S  S44  1  0.53821163  0.21295356  0.03503341  1
  S  S45  1  0.21378886  0.03510287  0.21296104  1
  S  S46  1  0.03506641  0.21377823  0.53816434  1
  S  S47  1  0.21294161  0.53814743  0.21378488  1
  S  S48  1  0.71464763  0.03591432  0.71076046  1
  S  S49  1  0.53872817  0.71067164  0.03590447  1
  S  S50  1  0.71075030  0.53871307  0.71466726  1
  S  S51  1  0.03593532  0.71469958  0.53868106  1
  S  S52  1  0.53534999  0.21408055  0.53925805  1
  S  S53  1  0.71136908  0.53923016  0.21406536  1
  S  S54  1  0.53931977  0.71129903  0.53531335  1
  S  S55  1  0.21410028  0.53532862  0.71129941  1
