# generated using pymatgen
data_ZrAlP(SO6)2
_symmetry_space_group_name_H-M   'P 1'
_cell_length_a   8.68248825
_cell_length_b   8.68182686
_cell_length_c   22.28974867
_cell_angle_alpha   90.38223417
_cell_angle_beta   90.00000000
_cell_angle_gamma   120.00252004
_symmetry_Int_Tables_number   1
_chemical_formula_structural   ZrAlP(SO6)2
_chemical_formula_sum   'Zr6 Al6 P6 S12 O72'
_cell_volume   1455.01413580
_cell_formula_units_Z   6
loop_
 _symmetry_equiv_pos_site_id
 _symmetry_equiv_pos_as_xyz
  1  'x, y, z'
loop_
 _atom_site_type_symbol
 _atom_site_label
 _atom_site_symmetry_multiplicity
 _atom_site_fract_x
 _atom_site_fract_y
 _atom_site_fract_z
 _atom_site_occupancy
  Zr  Zr0  1  0.00243787  0.00147991  0.63954696  1
  Zr  Zr1  1  0.99904204  0.00147991  0.13954696  1
  Zr  Zr2  1  0.66491421  0.33254031  0.97318588  1
  Zr  Zr3  1  0.66762711  0.33254031  0.47318588  1
  Zr  Zr4  1  0.33989627  0.65929542  0.30642736  1
  Zr  Zr5  1  0.31939816  0.65929542  0.80642736  1
  Al  Al6  1  0.99971920  0.99698095  0.35497129  1
  Al  Al7  1  0.99726174  0.99698095  0.85497129  1
  Al  Al8  1  0.68522364  0.34394916  0.68964215  1
  Al  Al9  1  0.65872652  0.34394916  0.18964215  1
  Al  Al10  1  0.32758277  0.64567430  0.02123166  1
  Al  Al11  1  0.31809053  0.64567430  0.52123166  1
  P  P12  1  0.73564452  0.71041554  0.25223753  1
  P  P13  1  0.97477102  0.71041554  0.75223753  1
  P  P14  1  0.96051080  0.35566488  0.58522735  1
  P  P15  1  0.39515508  0.35566488  0.08522735  1
  P  P16  1  0.05818274  0.36426853  0.91778623  1
  P  P17  1  0.30608479  0.36426853  0.41778623  1
  S  S18  1  0.29654720  0.01942584  0.25119124  1
  S  S19  1  0.97275048  0.27552888  0.25016769  1
  S  S20  1  0.30277841  0.27552888  0.75016769  1
  S  S21  1  0.72287864  0.01942584  0.75119124  1
  S  S22  1  0.39461197  0.03558961  0.58397152  1
  S  S23  1  0.64246638  0.60805035  0.58433334  1
  S  S24  1  0.96558498  0.60805035  0.08433334  1
  S  S25  1  0.64097864  0.03558961  0.08397152  1
  S  S26  1  0.62839525  0.68928805  0.91741465  1
  S  S27  1  0.31080808  0.93842206  0.91826504  1
  S  S28  1  0.62761298  0.93842206  0.41826504  1
  S  S29  1  0.06089180  0.68928805  0.41741465  1
  O  O30  1  0.21308995  0.04908306  0.30424919  1
  O  O31  1  0.85060944  0.80704490  0.30734912  1
  O  O32  1  0.95084921  0.16736225  0.30351324  1
  O  O33  1  0.21651304  0.16736225  0.80351324  1
  O  O34  1  0.95643546  0.80704490  0.80734912  1
  O  O35  1  0.83599310  0.04908306  0.80424919  1
  O  O36  1  0.79704223  0.98198337  0.69688627  1
  O  O37  1  0.18619088  0.20475012  0.69656074  1
  O  O38  1  0.01377278  0.82683003  0.69620253  1
  O  O39  1  0.81305725  0.82683003  0.19620253  1
  O  O40  1  0.01855924  0.20475012  0.19656074  1
  O  O41  1  0.18494114  0.98198337  0.19688627  1
  O  O42  1  0.86657254  0.37859882  0.64013496  1
  O  O43  1  0.50279453  0.12329004  0.63753108  1
  O  O44  1  0.61693596  0.49780565  0.63737499  1
  O  O45  1  0.88087069  0.49780565  0.13737499  1
  O  O46  1  0.62049651  0.12329004  0.13753108  1
  O  O47  1  0.51202729  0.37859882  0.14013496  1
  O  O48  1  0.47161729  0.31364681  0.02883566  1
  O  O49  1  0.85233514  0.53349266  0.03017733  1
  O  O50  1  0.68296329  0.14981764  0.03023892  1
  O  O51  1  0.46685534  0.14981764  0.53023892  1
  O  O52  1  0.68115852  0.53349266  0.53017733  1
  O  O53  1  0.84203052  0.31364681  0.52883566  1
  O  O54  1  0.54287936  0.71382910  0.97087518  1
  O  O55  1  0.17733704  0.45860906  0.97222989  1
  O  O56  1  0.28975955  0.83046366  0.97111869  1
  O  O57  1  0.54070311  0.83046366  0.47111869  1
  O  O58  1  0.28127102  0.45860906  0.47222989  1
  O  O59  1  0.17094875  0.71382910  0.47087518  1
  O  O60  1  0.13519889  0.65214928  0.36324428  1
  O  O61  1  0.51451167  0.86595626  0.36385672  1
  O  O62  1  0.35061319  0.48537770  0.36185238  1
  O  O63  1  0.13476351  0.48537770  0.86185238  1
  O  O64  1  0.35144360  0.86595626  0.86385672  1
  O  O65  1  0.51694939  0.65214928  0.86324428  1
  O  O66  1  0.04414860  0.84795022  0.40882917  1
  O  O67  1  0.80261607  0.95489885  0.40834186  1
  O  O68  1  0.14267652  0.18498608  0.40357464  1
  O  O69  1  0.04230955  0.18498608  0.90357464  1
  O  O70  1  0.15228278  0.95489885  0.90834186  1
  O  O71  1  0.80380162  0.84795022  0.90882917  1
  O  O72  1  0.98484975  0.19142771  0.59370570  1
  O  O73  1  0.21186245  0.01189925  0.59081369  1
  O  O74  1  0.80131394  0.78945000  0.59129830  1
  O  O75  1  0.98813606  0.78945000  0.09129830  1
  O  O76  1  0.80003680  0.01189925  0.09081369  1
  O  O77  1  0.20657797  0.19142771  0.09370570  1
  O  O78  1  0.70333613  0.17646711  0.74139820  1
  O  O79  1  0.47422802  0.28730175  0.73882045  1
  O  O80  1  0.81050432  0.52837929  0.74186408  1
  O  O81  1  0.71787596  0.52837929  0.24186408  1
  O  O82  1  0.81307473  0.28730175  0.23882045  1
  O  O83  1  0.47313198  0.17646711  0.24139820  1
  O  O84  1  0.65262417  0.53122117  0.92434744  1
  O  O85  1  0.87039203  0.34069801  0.92730936  1
  O  O86  1  0.46920505  0.12118541  0.92432307  1
  O  O87  1  0.65198136  0.12118541  0.42432307  1
  O  O88  1  0.47030698  0.34069801  0.42730936  1
  O  O89  1  0.87859800  0.53122117  0.42434744  1
  O  O90  1  0.38029561  0.52082155  0.07428039  1
  O  O91  1  0.14098541  0.62678922  0.07400938  1
  O  O92  1  0.48279701  0.86167359  0.07277236  1
  O  O93  1  0.37887558  0.86167359  0.57277236  1
  O  O94  1  0.48580281  0.62678922  0.57400938  1
  O  O95  1  0.14052493  0.52082155  0.57428039  1
  O  O96  1  0.31738995  0.86063020  0.25945697  1
  O  O97  1  0.54662193  0.68804274  0.25921253  1
  O  O98  1  0.12853672  0.45951364  0.25781133  1
  O  O99  1  0.33097592  0.45951364  0.75781133  1
  O  O100  1  0.14141981  0.68804274  0.75921253  1
  O  O101  1  0.54323925  0.86063020  0.75945697  1
