# generated using pymatgen
data_Ti2Ga2SiS5O24
_symmetry_space_group_name_H-M   'P 1'
_cell_length_a   8.55242769
_cell_length_b   8.57768454
_cell_length_c   22.12924637
_cell_angle_alpha   89.98646085
_cell_angle_beta   89.83161431
_cell_angle_gamma   119.94412514
_symmetry_Int_Tables_number   1
_chemical_formula_structural   Ti2Ga2SiS5O24
_chemical_formula_sum   'Ti6 Ga6 Si3 S15 O72'
_cell_volume   1406.68957366
_cell_formula_units_Z   3
loop_
 _symmetry_equiv_pos_site_id
 _symmetry_equiv_pos_as_xyz
  1  'x, y, z'
loop_
 _atom_site_type_symbol
 _atom_site_label
 _atom_site_symmetry_multiplicity
 _atom_site_fract_x
 _atom_site_fract_y
 _atom_site_fract_z
 _atom_site_occupancy
  Ti  Ti0  1  0.99813509  0.00609076  0.64306557  1
  Ti  Ti1  1  0.00809817  0.00873323  0.14270052  1
  Ti  Ti2  1  0.67551883  0.32221011  0.47733196  1
  Ti  Ti3  1  0.33435418  0.65903561  0.02322149  1
  Ti  Ti4  1  0.33782934  0.66700294  0.52210670  1
  Ti  Ti5  1  0.34344189  0.67801853  0.31363431  1
  Ga  Ga6  1  0.99464607  0.99966849  0.35473764  1
  Ga  Ga7  1  0.00107972  0.99861884  0.85284593  1
  Ga  Ga8  1  0.67386080  0.33698243  0.68607474  1
  Ga  Ga9  1  0.66183860  0.33633264  0.18570404  1
  Ga  Ga10  1  0.65831869  0.33004190  0.98038213  1
  Ga  Ga11  1  0.33236638  0.66814276  0.81338284  1
  Si  Si12  1  0.95658324  0.33833205  0.58512319  1
  Si  Si13  1  0.38718273  0.33402312  0.08330801  1
  Si  Si14  1  0.63012269  0.95621609  0.41717042  1
  S  S15  1  0.28981485  0.00267532  0.25065700  1
  S  S16  1  0.71324060  0.70893393  0.24992249  1
  S  S17  1  0.99700130  0.29021794  0.24984118  1
  S  S18  1  0.29231130  0.29163600  0.75049727  1
  S  S19  1  0.99995946  0.70923798  0.75062968  1
  S  S20  1  0.70821730  0.99980909  0.75116922  1
  S  S21  1  0.37914836  0.04526070  0.58407043  1
  S  S22  1  0.66689769  0.61994920  0.58378188  1
  S  S23  1  0.95363684  0.62053325  0.08324611  1
  S  S24  1  0.66628661  0.04615953  0.08324275  1
  S  S25  1  0.62510955  0.66693484  0.91549715  1
  S  S26  1  0.04072225  0.37496481  0.91612104  1
  S  S27  1  0.33339543  0.95731572  0.91606864  1
  S  S28  1  0.33270346  0.37560471  0.41632209  1
  S  S29  1  0.04522476  0.66990407  0.41633892  1
  O  O30  1  0.20695444  0.03267838  0.30488163  1
  O  O31  1  0.82451629  0.78995511  0.30405195  1
  O  O32  1  0.96554487  0.17677238  0.30353814  1
  O  O33  1  0.21081972  0.17661827  0.80461631  1
  O  O34  1  0.96669055  0.79099880  0.80513819  1
  O  O35  1  0.82450202  0.03358088  0.80487527  1
  O  O36  1  0.79337966  0.96727030  0.69671732  1
  O  O37  1  0.17517567  0.20669545  0.69628115  1
  O  O38  1  0.03243837  0.82509170  0.69658170  1
  O  O39  1  0.79229705  0.82453231  0.19598337  1
  O  O40  1  0.03044025  0.20535214  0.19550911  1
  O  O41  1  0.17351890  0.96787133  0.19638857  1
  O  O42  1  0.86755692  0.36965828  0.64298838  1
  O  O43  1  0.48901016  0.12271828  0.63845331  1
  O  O44  1  0.62950230  0.50928677  0.63858574  1
  O  O45  1  0.88070098  0.50910736  0.13795410  1
  O  O46  1  0.63266808  0.12185786  0.13804142  1
  O  O47  1  0.50107992  0.37182224  0.14344389  1
  O  O48  1  0.46279046  0.29461427  0.02324108  1
  O  O49  1  0.84414414  0.54448713  0.02868613  1
  O  O50  1  0.70535619  0.15784197  0.02869656  1
  O  O51  1  0.45610045  0.15929361  0.52969497  1
  O  O52  1  0.69892030  0.54192756  0.52948887  1
  O  O53  1  0.82973911  0.29911094  0.52517293  1
  O  O54  1  0.53988605  0.69931714  0.97003063  1
  O  O55  1  0.15792265  0.45987601  0.97040705  1
  O  O56  1  0.30107568  0.84171728  0.97014039  1
  O  O57  1  0.52458052  0.82811126  0.47445427  1
  O  O58  1  0.29834098  0.45735450  0.47048713  1
  O  O59  1  0.15748441  0.69824478  0.47031850  1
  O  O60  1  0.12557462  0.63223966  0.36187097  1
  O  O61  1  0.49320810  0.85955784  0.35847306  1
  O  O62  1  0.36326051  0.49251501  0.36197306  1
  O  O63  1  0.12252374  0.49010282  0.86211205  1
  O  O64  1  0.36657021  0.87550036  0.86157967  1
  O  O65  1  0.50873238  0.63305274  0.86187655  1
  O  O66  1  0.02955525  0.82981510  0.40774760  1
  O  O67  1  0.82059537  0.97648809  0.40646634  1
  O  O68  1  0.17379987  0.19860598  0.40777038  1
  O  O69  1  0.02581068  0.19711055  0.90845736  1
  O  O70  1  0.17013994  0.97404560  0.90823329  1
  O  O71  1  0.80327046  0.83104428  0.90842248  1
  O  O72  1  0.97736888  0.15819509  0.59507764  1
  O  O73  1  0.19699312  0.02394606  0.59244778  1
  O  O74  1  0.82802822  0.80123803  0.59266529  1
  O  O75  1  0.97380059  0.80109755  0.09244691  1
  O  O76  1  0.82529011  0.02220593  0.09230529  1
  O  O77  1  0.18125853  0.16054408  0.09512843  1
  O  O78  1  0.68872638  0.15866278  0.74273805  1
  O  O79  1  0.47092932  0.30838037  0.74083570  1
  O  O80  1  0.83765839  0.53210812  0.74342652  1
  O  O81  1  0.69371152  0.53043007  0.24289618  1
  O  O82  1  0.83625486  0.30807098  0.24017204  1
  O  O83  1  0.46976084  0.15802649  0.24267322  1
  O  O84  1  0.64466454  0.50811737  0.92398275  1
  O  O85  1  0.86228023  0.35826172  0.92600146  1
  O  O86  1  0.49593045  0.13443709  0.92326143  1
  O  O87  1  0.63585620  0.14792462  0.42582968  1
  O  O88  1  0.49522757  0.36321633  0.42502782  1
  O  O89  1  0.86526940  0.50965574  0.42426246  1
  O  O90  1  0.35357910  0.50645306  0.07132325  1
  O  O91  1  0.13651197  0.64443877  0.07415607  1
  O  O92  1  0.50594696  0.86552852  0.07433898  1
  O  O93  1  0.35733355  0.86548251  0.57535877  1
  O  O94  1  0.50747734  0.64213046  0.57586563  1
  O  O95  1  0.15350528  0.50719005  0.57070613  1
  O  O96  1  0.30308060  0.83648715  0.25771580  1
  O  O97  1  0.53006147  0.68954508  0.25834438  1
  O  O98  1  0.15955320  0.46796639  0.25787879  1
  O  O99  1  0.30740557  0.46945744  0.75829190  1
  O  O100  1  0.16317774  0.69269714  0.75848847  1
  O  O101  1  0.53013370  0.83567610  0.75832700  1
