# generated using pymatgen
data_K3NaSi3(GeO6)2
_symmetry_space_group_name_H-M   'P 1'
_cell_length_a   9.07355459
_cell_length_b   9.07355428
_cell_length_c   21.81079688
_cell_angle_alpha   90.00000000
_cell_angle_beta   90.00000000
_cell_angle_gamma   120.00000116
_symmetry_Int_Tables_number   1
_chemical_formula_structural   K3NaSi3(GeO6)2
_chemical_formula_sum   'K18 Na6 Si18 Ge12 O72'
_cell_volume   1555.09547658
_cell_formula_units_Z   6
loop_
 _symmetry_equiv_pos_site_id
 _symmetry_equiv_pos_as_xyz
  1  'x, y, z'
loop_
 _atom_site_type_symbol
 _atom_site_label
 _atom_site_symmetry_multiplicity
 _atom_site_fract_x
 _atom_site_fract_y
 _atom_site_fract_z
 _atom_site_occupancy
  K  K0  1  0.64693195  -0.00000000  0.25000000  1
  K  K1  1  0.35306805  0.35306805  0.25000000  1
  K  K2  1  1.00000000  0.64693195  0.25000000  1
  K  K3  1  0.64693195  0.64693195  0.75000000  1
  K  K4  1  0.00000000  0.35306805  0.75000000  1
  K  K5  1  0.35306805  -0.00000000  0.75000000  1
  K  K6  1  0.31359895  0.33333300  0.58333300  1
  K  K7  1  0.01973505  0.68640105  0.58333300  1
  K  K8  1  0.66666700  0.98026495  0.58333300  1
  K  K9  1  0.31359895  0.98026495  0.08333300  1
  K  K10  1  0.66666700  0.68640105  0.08333300  1
  K  K11  1  0.01973505  0.33333300  0.08333300  1
  K  K12  1  0.98026495  0.66666700  0.91666700  1
  K  K13  1  0.68640105  0.01973505  0.91666700  1
  K  K14  1  0.33333300  0.31359895  0.91666700  1
  K  K15  1  0.98026495  0.31359895  0.41666700  1
  K  K16  1  0.33333300  0.01973505  0.41666700  1
  K  K17  1  0.68640105  0.66666700  0.41666700  1
  Na  Na18  1  -0.00000000  -0.00000000  0.50000000  1
  Na  Na19  1  -0.00000000  -0.00000000  -0.00000000  1
  Na  Na20  1  0.66666700  0.33333300  0.83333300  1
  Na  Na21  1  0.66666700  0.33333300  0.33333300  1
  Na  Na22  1  0.33333300  0.66666700  0.16666700  1
  Na  Na23  1  0.33333300  0.66666700  0.66666700  1
  Si  Si24  1  0.29089758  -0.00000000  0.25000000  1
  Si  Si25  1  0.70910242  0.70910242  0.25000000  1
  Si  Si26  1  0.00000000  0.29089758  0.25000000  1
  Si  Si27  1  0.29089758  0.29089758  0.75000000  1
  Si  Si28  1  1.00000000  0.70910242  0.75000000  1
  Si  Si29  1  0.70910242  -0.00000000  0.75000000  1
  Si  Si30  1  0.95756458  0.33333300  0.58333300  1
  Si  Si31  1  0.37576942  0.04243542  0.58333300  1
  Si  Si32  1  0.66666700  0.62423058  0.58333300  1
  Si  Si33  1  0.95756458  0.62423058  0.08333300  1
  Si  Si34  1  0.66666700  0.04243542  0.08333300  1
  Si  Si35  1  0.37576942  0.33333300  0.08333300  1
  Si  Si36  1  0.62423058  0.66666700  0.91666700  1
  Si  Si37  1  0.04243542  0.37576942  0.91666700  1
  Si  Si38  1  0.33333300  0.95756458  0.91666700  1
  Si  Si39  1  0.62423058  0.95756458  0.41666700  1
  Si  Si40  1  0.33333300  0.37576942  0.41666700  1
  Si  Si41  1  0.04243542  0.66666700  0.41666700  1
  Ge  Ge42  1  -0.00000000  -0.00000000  0.35135084  1
  Ge  Ge43  1  -0.00000000  -0.00000000  0.85135084  1
  Ge  Ge44  1  -0.00000000  -0.00000000  0.64864916  1
  Ge  Ge45  1  -0.00000000  -0.00000000  0.14864916  1
  Ge  Ge46  1  0.66666700  0.33333300  0.68468384  1
  Ge  Ge47  1  0.66666700  0.33333300  0.18468384  1
  Ge  Ge48  1  0.66666700  0.33333300  0.98198216  1
  Ge  Ge49  1  0.66666700  0.33333300  0.48198216  1
  Ge  Ge50  1  0.33333300  0.66666700  0.01801784  1
  Ge  Ge51  1  0.33333300  0.66666700  0.51801784  1
  Ge  Ge52  1  0.33333300  0.66666700  0.31531616  1
  Ge  Ge53  1  0.33333300  0.66666700  0.81531616  1
  O  O54  1  0.19820544  0.03411534  0.30915456  1
  O  O55  1  0.83590990  0.80179456  0.30915456  1
  O  O56  1  0.96588466  0.16409010  0.30915456  1
  O  O57  1  0.19820544  0.16409010  0.80915456  1
  O  O58  1  0.96588466  0.80179456  0.80915456  1
  O  O59  1  0.83590990  0.03411534  0.80915456  1
  O  O60  1  0.80179456  0.96588466  0.69084544  1
  O  O61  1  0.16409010  0.19820544  0.69084544  1
  O  O62  1  0.03411534  0.83590990  0.69084544  1
  O  O63  1  0.80179456  0.83590990  0.19084544  1
  O  O64  1  0.03411534  0.19820544  0.19084544  1
  O  O65  1  0.16409010  0.96588466  0.19084544  1
  O  O66  1  0.86487244  0.36744834  0.64248756  1
  O  O67  1  0.50257690  0.13512756  0.64248756  1
  O  O68  1  0.63255166  0.49742310  0.64248756  1
  O  O69  1  0.86487244  0.49742310  0.14248756  1
  O  O70  1  0.63255166  0.13512756  0.14248756  1
  O  O71  1  0.50257690  0.36744834  0.14248756  1
  O  O72  1  0.46846156  0.29921766  0.02417844  1
  O  O73  1  0.83075710  0.53153844  0.02417844  1
  O  O74  1  0.70078234  0.16924290  0.02417844  1
  O  O75  1  0.46846156  0.16924290  0.52417844  1
  O  O76  1  0.70078234  0.53153844  0.52417844  1
  O  O77  1  0.83075710  0.29921766  0.52417844  1
  O  O78  1  0.53153844  0.70078234  0.97582156  1
  O  O79  1  0.16924290  0.46846156  0.97582156  1
  O  O80  1  0.29921766  0.83075710  0.97582156  1
  O  O81  1  0.53153844  0.83075710  0.47582156  1
  O  O82  1  0.29921766  0.46846156  0.47582156  1
  O  O83  1  0.16924290  0.70078234  0.47582156  1
  O  O84  1  0.13512756  0.63255166  0.35751244  1
  O  O85  1  0.49742310  0.86487244  0.35751244  1
  O  O86  1  0.36744834  0.50257690  0.35751244  1
  O  O87  1  0.13512756  0.50257690  0.85751244  1
  O  O88  1  0.36744834  0.86487244  0.85751244  1
  O  O89  1  0.49742310  0.63255166  0.85751244  1
  O  O90  1  0.01744362  0.83570616  0.40980640  1
  O  O91  1  0.81826254  0.98255638  0.40980640  1
  O  O92  1  0.16429384  0.18173746  0.40980640  1
  O  O93  1  0.01744362  0.18173746  0.90980640  1
  O  O94  1  0.16429384  0.98255638  0.90980640  1
  O  O95  1  0.81826254  0.83570616  0.90980640  1
  O  O96  1  0.98255638  0.16429384  0.59019360  1
  O  O97  1  0.18173746  0.01744362  0.59019360  1
  O  O98  1  0.83570616  0.81826254  0.59019360  1
  O  O99  1  0.98255638  0.81826254  0.09019360  1
  O  O100  1  0.83570616  0.01744362  0.09019360  1
  O  O101  1  0.18173746  0.16429384  0.09019360  1
  O  O102  1  0.68411062  0.16903916  0.74313940  1
  O  O103  1  0.48492954  0.31588938  0.74313940  1
  O  O104  1  0.83096084  0.51507046  0.74313940  1
  O  O105  1  0.68411062  0.51507046  0.24313940  1
  O  O106  1  0.83096084  0.31588938  0.24313940  1
  O  O107  1  0.48492954  0.16903916  0.24313940  1
  O  O108  1  0.64922338  0.49762684  0.92352660  1
  O  O109  1  0.84840446  0.35077662  0.92352660  1
  O  O110  1  0.50237316  0.15159554  0.92352660  1
  O  O111  1  0.64922338  0.15159554  0.42352660  1
  O  O112  1  0.50237316  0.35077662  0.42352660  1
  O  O113  1  0.84840446  0.49762684  0.42352660  1
  O  O114  1  0.35077662  0.50237316  0.07647340  1
  O  O115  1  0.15159554  0.64922338  0.07647340  1
  O  O116  1  0.49762684  0.84840446  0.07647340  1
  O  O117  1  0.35077662  0.84840446  0.57647340  1
  O  O118  1  0.49762684  0.64922338  0.57647340  1
  O  O119  1  0.15159554  0.50237316  0.57647340  1
  O  O120  1  0.31588938  0.83096084  0.25686060  1
  O  O121  1  0.51507046  0.68411062  0.25686060  1
  O  O122  1  0.16903916  0.48492954  0.25686060  1
  O  O123  1  0.31588938  0.48492954  0.75686060  1
  O  O124  1  0.16903916  0.68411062  0.75686060  1
  O  O125  1  0.51507046  0.83096084  0.75686060  1
