# generated using pymatgen
data_Na2Hf3Mg5(SO4)12
_symmetry_space_group_name_H-M   'P 1'
_cell_length_a   17.50096641
_cell_length_b   8.74982548
_cell_length_c   22.72531967
_cell_angle_alpha   90.03537183
_cell_angle_beta   89.96518582
_cell_angle_gamma   120.01627848
_symmetry_Int_Tables_number   1
_chemical_formula_structural   Na2Hf3Mg5(SO4)12
_chemical_formula_sum   'Na6 Hf9 Mg15 S36 O144'
_cell_volume   3013.21891027
_cell_formula_units_Z   3
loop_
 _symmetry_equiv_pos_site_id
 _symmetry_equiv_pos_as_xyz
  1  'x, y, z'
loop_
 _atom_site_type_symbol
 _atom_site_label
 _atom_site_symmetry_multiplicity
 _atom_site_fract_x
 _atom_site_fract_y
 _atom_site_fract_z
 _atom_site_occupancy
  Na  Na0  1  0.00029714  0.00031288  0.50120866  1
  Na  Na1  1  0.50272669  0.00400016  0.99763079  1
  Na  Na2  1  0.33480447  0.33553558  0.83030836  1
  Na  Na3  1  0.83176017  0.33095752  0.83073265  1
  Na  Na4  1  0.33155724  0.33273067  0.33926867  1
  Na  Na5  1  0.83504455  0.33346142  0.33340237  1
  Hf  Hf6  1  0.50223320  0.00011395  0.35630730  1
  Hf  Hf7  1  0.99934766  0.99956746  0.85129344  1
  Hf  Hf8  1  0.49985223  -0.00003799  0.64829909  1
  Hf  Hf9  1  0.99528073  0.99695884  0.14751203  1
  Hf  Hf10  1  0.33427187  0.33344336  0.18724122  1
  Hf  Hf11  1  0.16604694  0.66755398  0.01947045  1
  Hf  Hf12  1  0.66701725  0.66469500  0.02011904  1
  Hf  Hf13  1  0.16412722  0.66437554  0.52340479  1
  Hf  Hf14  1  0.66939249  0.66930534  0.52390760  1
  Mg  Mg15  1  0.99856613  0.00038892  0.35323793  1
  Mg  Mg16  1  0.50064405  0.00052704  0.84970908  1
  Mg  Mg17  1  0.00027351  0.00032789  0.64895114  1
  Mg  Mg18  1  0.50455375  0.00400744  0.14859986  1
  Mg  Mg19  1  0.33224974  0.33097913  0.68596849  1
  Mg  Mg20  1  0.83434627  0.33569839  0.68582695  1
  Mg  Mg21  1  0.83221087  0.33346991  0.18583670  1
  Mg  Mg22  1  0.33511841  0.33561326  0.97870316  1
  Mg  Mg23  1  0.83124392  0.33123297  0.98164530  1
  Mg  Mg24  1  0.33113527  0.33180238  0.48383255  1
  Mg  Mg25  1  0.83564881  0.33478760  0.48312673  1
  Mg  Mg26  1  0.16308203  0.65933027  0.31356174  1
  Mg  Mg27  1  0.67034013  0.67404914  0.31182074  1
  Mg  Mg28  1  0.16806950  0.66726270  0.80858878  1
  Mg  Mg29  1  0.66521116  0.66618644  0.80929458  1
  S  S30  1  0.14362491  0.99511424  0.25160634  1
  S  S31  1  0.64635439  0.99889770  0.24895921  1
  S  S32  1  0.35383489  0.71414482  0.24917400  1
  S  S33  1  0.85316558  0.70460228  0.25256883  1
  S  S34  1  0.99942390  0.29293702  0.25195028  1
  S  S35  1  0.50323221  0.29279137  0.24960959  1
  S  S36  1  0.14699488  0.29432260  0.74873794  1
  S  S37  1  0.64743674  0.29320414  0.75197040  1
  S  S38  1  0.00044397  0.70586845  0.74865323  1
  S  S39  1  0.49892825  0.70527798  0.75196841  1
  S  S40  1  0.35364418  0.00176449  0.75211277  1
  S  S41  1  0.85248790  0.99944259  0.74849258  1
  S  S42  1  0.47534874  0.33191005  0.58313203  1
  S  S43  1  0.97497306  0.32548962  0.58369786  1
  S  S44  1  0.18788800  0.04888035  0.58341018  1
  S  S45  1  0.69057251  0.05049485  0.58343831  1
  S  S46  1  0.33403445  0.61914273  0.58345159  1
  S  S47  1  0.83720965  0.62378162  0.58340222  1
  S  S48  1  0.47728114  0.62665658  0.08175834  1
  S  S49  1  0.97578637  0.61876052  0.08335722  1
  S  S50  1  0.33610670  0.04523045  0.08171373  1
  S  S51  1  0.83269524  0.04881283  0.08316844  1
  S  S52  1  0.18881136  0.33166701  0.08190540  1
  S  S53  1  0.68798794  0.32808282  0.08330199  1
  S  S54  1  0.31304863  0.66634363  0.91520413  1
  S  S55  1  0.81092606  0.66184850  0.91491020  1
  S  S56  1  0.02012095  0.37840312  0.91500333  1
  S  S57  1  0.51991003  0.37340053  0.91507564  1
  S  S58  1  0.16887418  0.96006132  0.91492409  1
  S  S59  1  0.66693865  0.95963499  0.91532060  1
  S  S60  1  0.30969333  0.95846987  0.41511148  1
  S  S61  1  0.81255137  0.96023159  0.41544170  1
  S  S62  1  0.16740172  0.37474158  0.41537318  1
  S  S63  1  0.67021460  0.38230307  0.41538264  1
  S  S64  1  0.01986311  0.66607929  0.41519060  1
  S  S65  1  0.52078522  0.65881816  0.41559984  1
  O  O66  1  0.10653106  0.03389294  0.30270855  1
  O  O67  1  0.60152436  0.02841376  0.30282281  1
  O  O68  1  0.41112667  0.79092084  0.30266348  1
  O  O69  1  0.91111524  0.79064929  0.30285871  1
  O  O70  1  0.48366098  0.17679096  0.30279545  1
  O  O71  1  0.98484558  0.17854208  0.30268664  1
  O  O72  1  0.10313252  0.17693924  0.80323960  1
  O  O73  1  0.60553249  0.17934090  0.80313387  1
  O  O74  1  0.48396195  0.78895026  0.80322944  1
  O  O75  1  0.98551680  0.79377696  0.80321175  1
  O  O76  1  0.41041153  0.03146819  0.80333894  1
  O  O77  1  0.91136542  0.02935301  0.80311778  1
  O  O78  1  0.39734319  0.97577633  0.69770253  1
  O  O79  1  0.89560949  0.97369029  0.69745408  1
  O  O80  1  0.09126867  0.20871905  0.69751628  1
  O  O81  1  0.59056324  0.20505745  0.69759857  1
  O  O82  1  0.01319365  0.81729773  0.69746890  1
  O  O83  1  0.51193373  0.81903231  0.69763455  1
  O  O84  1  0.39581458  0.81740213  0.19684212  1
  O  O85  1  0.89720598  0.81842060  0.19765273  1
  O  O86  1  0.01248598  0.20436753  0.19727581  1
  O  O87  1  0.51206341  0.20885161  0.19697418  1
  O  O88  1  0.09165387  0.97592869  0.19686281  1
  O  O89  1  0.59079921  0.97254296  0.19760233  1
  O  O90  1  0.43879106  0.36484092  0.63578068  1
  O  O91  1  0.93855655  0.36168055  0.63604952  1
  O  O92  1  0.24227037  0.12244932  0.63568886  1
  O  O93  1  0.74359964  0.12276122  0.63608328  1
  O  O94  1  0.31783120  0.51293074  0.63598218  1
  O  O95  1  0.81874441  0.51505736  0.63576765  1
  O  O96  1  0.43636851  0.51342365  0.13589679  1
  O  O97  1  0.93908019  0.51348190  0.13615358  1
  O  O98  1  0.31994785  0.12630691  0.13584519  1
  O  O99  1  0.81802544  0.12280283  0.13632220  1
  O  O100  1  0.24425441  0.36241630  0.13590485  1
  O  O101  1  0.74162522  0.36161027  0.13602425  1
  O  O102  1  0.22919199  0.30335236  0.03054046  1
  O  O103  1  0.72775300  0.30280250  0.03013768  1
  O  O104  1  0.42254794  0.54197636  0.03068982  1
  O  O105  1  0.92383228  0.54496738  0.03023263  1
  O  O106  1  0.34795745  0.15365560  0.03047415  1
  O  O107  1  0.84918896  0.15424107  0.03034538  1
  O  O108  1  0.22767180  0.15238457  0.52983773  1
  O  O109  1  0.72764010  0.15302416  0.53003030  1
  O  O110  1  0.34950184  0.54558393  0.53021424  1
  O  O111  1  0.84802187  0.54388973  0.52962462  1
  O  O112  1  0.42362707  0.30274382  0.52980623  1
  O  O113  1  0.92364315  0.30226097  0.53012194  1
  O  O114  1  0.26880642  0.69145855  0.97035043  1
  O  O115  1  0.77086442  0.69317078  0.96944512  1
  O  O116  1  0.07623592  0.45973675  0.96977141  1
  O  O117  1  0.57606219  0.46091030  0.97000871  1
  O  O118  1  0.15368825  0.84810781  0.96958426  1
  O  O119  1  0.65431290  0.84668444  0.97023049  1
  O  O120  1  0.27134963  0.84835089  0.46873053  1
  O  O121  1  0.76879791  0.84624653  0.46947157  1
  O  O122  1  0.15474697  0.46158878  0.46933102  1
  O  O123  1  0.65277238  0.45910726  0.46900897  1
  O  O124  1  0.07651777  0.69222678  0.46918028  1
  O  O125  1  0.57603898  0.69298796  0.46916775  1
  O  O126  1  0.06167261  0.63981015  0.36336985  1
  O  O127  1  0.56187709  0.63622090  0.36320342  1
  O  O128  1  0.25677486  0.87634591  0.36272525  1
  O  O129  1  0.75761890  0.87635421  0.36388459  1
  O  O130  1  0.18123277  0.48464233  0.36343135  1
  O  O131  1  0.68085551  0.48646981  0.36311622  1
  O  O132  1  0.06272046  0.48837290  0.86420043  1
  O  O133  1  0.56204373  0.48486732  0.86405410  1
  O  O134  1  0.18157869  0.87520296  0.86389987  1
  O  O135  1  0.68026963  0.87511528  0.86422904  1
  O  O136  1  0.25710979  0.63923947  0.86446774  1
  O  O137  1  0.75627769  0.63691942  0.86377512  1
  O  O138  1  0.01288991  0.82691015  0.41064652  1
  O  O139  1  0.51236982  0.82189676  0.40832258  1
  O  O140  1  0.39931527  0.97486610  0.40706981  1
  O  O141  1  0.89998639  0.97431854  0.41123820  1
  O  O142  1  0.08730436  0.19944318  0.41067603  1
  O  O143  1  0.58817392  0.20287452  0.40834838  1
  O  O144  1  0.01306820  0.20177294  0.90929037  1
  O  O145  1  0.51250516  0.19841807  0.91163894  1
  O  O146  1  0.08790613  0.97443160  0.90927931  1
  O  O147  1  0.58663098  0.97421130  0.91178901  1
  O  O148  1  0.40041868  0.82666481  0.91193291  1
  O  O149  1  0.89950887  0.82427129  0.90888662  1
  O  O150  1  0.48887292  0.17741086  0.59195224  1
  O  O151  1  0.98905301  0.17379661  0.58992011  1
  O  O152  1  0.09801464  0.02133493  0.58977814  1
  O  O153  1  0.59968857  0.02279618  0.59208002  1
  O  O154  1  0.41168135  0.80062303  0.59223165  1
  O  O155  1  0.91278018  0.80382557  0.58974088  1
  O  O156  1  0.48761856  0.80165803  0.09081534  1
  O  O157  1  0.98971026  0.80123963  0.09268548  1
  O  O158  1  0.41250732  0.02248507  0.09104983  1
  O  O159  1  0.91115072  0.02292995  0.09180722  1
  O  O160  1  0.10080726  0.17685473  0.09261499  1
  O  O161  1  0.59776755  0.17477777  0.08980008  1
  O  O162  1  0.34582623  0.16018073  0.74284426  1
  O  O163  1  0.84637418  0.16118817  0.74433193  1
  O  O164  1  0.23416198  0.30737201  0.74453343  1
  O  O165  1  0.73443144  0.30858088  0.74261173  1
  O  O166  1  0.41978130  0.53115140  0.74261260  1
  O  O167  1  0.91953528  0.53175165  0.74453989  1
  O  O168  1  0.34608423  0.53220472  0.24275098  1
  O  O169  1  0.84575325  0.53137247  0.24266582  1
  O  O170  1  0.41988018  0.30809599  0.24318484  1
  O  O171  1  0.92029514  0.30831283  0.24222901  1
  O  O172  1  0.23455213  0.15987963  0.24145042  1
  O  O173  1  0.73336612  0.16023451  0.24446680  1
  O  O174  1  0.32072376  0.50790966  0.92474680  1
  O  O175  1  0.82222228  0.50855785  0.92418017  1
  O  O176  1  0.43267573  0.35706559  0.92431024  1
  O  O177  1  0.93247129  0.35693380  0.92462267  1
  O  O178  1  0.24580840  0.13486184  0.92457232  1
  O  O179  1  0.74606620  0.13440708  0.92436627  1
  O  O180  1  0.32285082  0.13658676  0.42317283  1
  O  O181  1  0.82078362  0.13487364  0.42400075  1
  O  O182  1  0.24668231  0.35730256  0.42338374  1
  O  O183  1  0.74574342  0.35594039  0.42370987  1
  O  O184  1  0.43170738  0.50722790  0.42354991  1
  O  O185  1  0.93235508  0.50798485  0.42353168  1
  O  O186  1  0.17914011  0.48988552  0.07548195  1
  O  O187  1  0.67824408  0.48963457  0.07380366  1
  O  O188  1  0.06690116  0.64425148  0.07387088  1
  O  O189  1  0.56542356  0.64118632  0.07575249  1
  O  O190  1  0.25466319  0.86835113  0.07536512  1
  O  O191  1  0.75544273  0.86694778  0.07430728  1
  O  O192  1  0.17892079  0.86801794  0.57349725  1
  O  O193  1  0.67767825  0.86778100  0.57415644  1
  O  O194  1  0.25587307  0.64429191  0.57381998  1
  O  O195  1  0.75547573  0.64266189  0.57392791  1
  O  O196  1  0.06582965  0.48849114  0.57420452  1
  O  O197  1  0.56627778  0.48902458  0.57338123  1
  O  O198  1  0.15612453  0.84440606  0.25752575  1
  O  O199  1  0.65323692  0.84273996  0.25956447  1
  O  O200  1  0.26665272  0.68925358  0.25889420  1
  O  O201  1  0.76740759  0.69198624  0.25762142  1
  O  O202  1  0.07910979  0.46489303  0.25712930  1
  O  O203  1  0.57762232  0.46658048  0.25929257  1
  O  O204  1  0.15402321  0.46387543  0.75971307  1
  O  O205  1  0.65374575  0.46470055  0.75777920  1
  O  O206  1  0.07802915  0.69160451  0.75982997  1
  O  O207  1  0.57848092  0.69283604  0.75754517  1
  O  O208  1  0.26784821  0.84312447  0.75774668  1
  O  O209  1  0.76771344  0.84386094  0.75968568  1
