# generated using pymatgen
data_Na3MgSn3P5SO24
_symmetry_space_group_name_H-M   'P 1'
_cell_length_a   8.77108475
_cell_length_b   8.76156441
_cell_length_c   22.70787556
_cell_angle_alpha   89.69300511
_cell_angle_beta   90.35664322
_cell_angle_gamma   119.93229402
_symmetry_Int_Tables_number   1
_chemical_formula_structural   Na3MgSn3P5SO24
_chemical_formula_sum   'Na9 Mg3 Sn9 P15 S3 O72'
_cell_volume   1512.26574940
_cell_formula_units_Z   3
loop_
 _symmetry_equiv_pos_site_id
 _symmetry_equiv_pos_as_xyz
  1  'x, y, z'
loop_
 _atom_site_type_symbol
 _atom_site_label
 _atom_site_symmetry_multiplicity
 _atom_site_fract_x
 _atom_site_fract_y
 _atom_site_fract_z
 _atom_site_occupancy
  Na  Na0  1  0.99109692  0.36316111  0.74563514  1
  Na  Na1  1  0.30895485  0.97442782  0.08634913  1
  Na  Na2  1  0.32610983  0.03062816  0.41084066  1
  Na  Na3  1  0.98323468  0.99805172  0.49574498  1
  Na  Na4  1  0.99055909  0.00038587  0.99927847  1
  Na  Na5  1  0.65563637  0.33296311  0.82911361  1
  Na  Na6  1  0.66866816  0.33527527  0.32808654  1
  Na  Na7  1  0.33287757  0.66111110  0.16725079  1
  Na  Na8  1  0.34318769  0.66863987  0.66605117  1
  Mg  Mg9  1  0.99858875  0.00009251  0.35343916  1
  Mg  Mg10  1  0.66596908  0.34145358  0.68692782  1
  Mg  Mg11  1  0.66169546  0.32805195  0.18462508  1
  Sn  Sn12  1  0.00087509  0.99900449  0.85240507  1
  Sn  Sn13  1  0.99266113  0.99708047  0.64860209  1
  Sn  Sn14  1  0.99921083  0.99825032  0.14974724  1
  Sn  Sn15  1  0.66943593  0.33507287  0.98237955  1
  Sn  Sn16  1  0.67827458  0.34395261  0.48266828  1
  Sn  Sn17  1  0.33341995  0.66188564  0.01794587  1
  Sn  Sn18  1  0.33386823  0.65883852  0.51846666  1
  Sn  Sn19  1  0.33384289  0.67128140  0.31587581  1
  Sn  Sn20  1  0.33729530  0.67005323  0.81507309  1
  P  P21  1  0.29719516  0.00275947  0.25232141  1
  P  P22  1  0.29472473  0.29072428  0.75036384  1
  P  P23  1  0.99983411  0.70787882  0.75034587  1
  P  P24  1  0.70364468  0.99988903  0.75017506  1
  P  P25  1  0.96087604  0.33353020  0.58614807  1
  P  P26  1  0.66752693  0.62646313  0.58490524  1
  P  P27  1  0.95679283  0.62249808  0.08524512  1
  P  P28  1  0.66928112  0.04208662  0.08438843  1
  P  P29  1  0.37661212  0.33553921  0.08511832  1
  P  P30  1  0.62769779  0.66627552  0.91685691  1
  P  P31  1  0.03785192  0.37196098  0.91558401  1
  P  P32  1  0.33503389  0.96220571  0.91773730  1
  P  P33  1  0.62972520  0.96134461  0.41836240  1
  P  P34  1  0.33269060  0.37165121  0.41600478  1
  P  P35  1  0.04049286  0.66639655  0.41667940  1
  S  S36  1  0.70683899  0.70606170  0.25173985  1
  S  S37  1  -0.00049583  0.29296309  0.25140641  1
  S  S38  1  0.37431058  0.04105350  0.58394261  1
  O  O39  1  0.20497728  0.01766900  0.30642704  1
  O  O40  1  0.81247874  0.79462314  0.30306384  1
  O  O41  1  0.97851762  0.18532500  0.30272243  1
  O  O42  1  0.21091798  0.18053698  0.80676804  1
  O  O43  1  0.97072788  0.78986989  0.80612322  1
  O  O44  1  0.82343100  0.03704925  0.80545815  1
  O  O45  1  0.78130617  0.95963682  0.69516096  1
  O  O46  1  0.16906789  0.21247026  0.69583041  1
  O  O47  1  0.03999505  0.82614955  0.69502575  1
  O  O48  1  0.77688727  0.81520842  0.19600266  1
  O  O49  1  0.03173846  0.21869840  0.19572232  1
  O  O50  1  0.18437899  0.96651726  0.19319159  1
  O  O51  1  0.87977911  0.35659492  0.64136788  1
  O  O52  1  0.48330441  0.12525760  0.63465295  1
  O  O53  1  0.63801419  0.51352997  0.63788510  1
  O  O54  1  0.87526640  0.51238033  0.13867891  1
  O  O55  1  0.63125152  0.12111446  0.13693339  1
  O  O56  1  0.48631539  0.36261772  0.13875288  1
  O  O57  1  0.44746777  0.29208398  0.02793349  1
  O  O58  1  0.85132266  0.55184035  0.02674675  1
  O  O59  1  0.70286990  0.14871527  0.02609861  1
  O  O60  1  0.44600273  0.14124490  0.52701170  1
  O  O61  1  0.69654258  0.55208336  0.52613187  1
  O  O62  1  0.84869101  0.29824905  0.52878217  1
  O  O63  1  0.54836267  0.70069472  0.97220396  1
  O  O64  1  0.15380707  0.45409893  0.97060651  1
  O  O65  1  0.30339024  0.85278794  0.97501405  1
  O  O66  1  0.54432941  0.84807249  0.47403147  1
  O  O67  1  0.30128999  0.45116391  0.47191360  1
  O  O68  1  0.16049792  0.70412516  0.47203200  1
  O  O69  1  0.11937738  0.62661906  0.36187780  1
  O  O70  1  0.50498240  0.88592458  0.36344314  1
  O  O71  1  0.37330695  0.49191669  0.36106206  1
  O  O72  1  0.11584909  0.48127573  0.85851677  1
  O  O73  1  0.36605130  0.87863259  0.86296773  1
  O  O74  1  0.51431591  0.63235322  0.86103982  1
  O  O75  1  0.02656692  0.83148786  0.41063305  1
  O  O76  1  0.80827659  0.98109205  0.41042781  1
  O  O77  1  0.17453817  0.18842901  0.40974347  1
  O  O78  1  0.02152344  0.18837043  0.91146233  1
  O  O79  1  0.16731640  0.97732285  0.91255566  1
  O  O80  1  0.81098219  0.83295539  0.91166669  1
  O  O81  1  0.98646984  0.16888492  0.58770213  1
  O  O82  1  0.19518458  0.02176851  0.58761887  1
  O  O83  1  0.83644097  0.81330505  0.58741714  1
  O  O84  1  0.98631033  0.81574389  0.08880651  1
  O  O85  1  0.83299781  0.01809291  0.09010191  1
  O  O86  1  0.18889148  0.16490993  0.08912471  1
  O  O87  1  0.69054229  0.16528347  0.74344547  1
  O  O88  1  0.47321910  0.30962001  0.74395064  1
  O  O89  1  0.84229217  0.52375378  0.74521376  1
  O  O90  1  0.69115631  0.53286463  0.24484157  1
  O  O91  1  0.84572237  0.31525231  0.24431577  1
  O  O92  1  0.47882796  0.16399081  0.24554564  1
  O  O93  1  0.64375112  0.49921077  0.92236752  1
  O  O94  1  0.85564961  0.35679625  0.92127093  1
  O  O95  1  0.50112185  0.14566818  0.92253100  1
  O  O96  1  0.63243868  0.14147487  0.42477859  1
  O  O97  1  0.49978207  0.35076944  0.42277865  1
  O  O98  1  0.85850078  0.49725362  0.42146886  1
  O  O99  1  0.35325174  0.49894647  0.07775381  1
  O  O100  1  0.14911823  0.65354521  0.07784447  1
  O  O101  1  0.49841460  0.85688687  0.07682329  1
  O  O102  1  0.35534653  0.86194009  0.57848741  1
  O  O103  1  0.50257896  0.65097994  0.57906367  1
  O  O104  1  0.14493756  0.50379932  0.57883513  1
  O  O105  1  0.30972769  0.82715311  0.25368068  1
  O  O106  1  0.52537628  0.68728696  0.25494640  1
  O  O107  1  0.16565527  0.47125721  0.25482330  1
  O  O108  1  0.29856522  0.47209228  0.75567092  1
  O  O109  1  0.16827207  0.68862105  0.75544745  1
  O  O110  1  0.52204436  0.83041634  0.75584255  1
