# generated using pymatgen
data_MgZn2CoWO6
_symmetry_space_group_name_H-M   'P 1'
_cell_length_a   5.41619017
_cell_length_b   6.01653030
_cell_length_c   8.12467283
_cell_angle_alpha   99.16386947
_cell_angle_beta   131.83263367
_cell_angle_gamma   116.38321735
_symmetry_Int_Tables_number   1
_chemical_formula_structural   MgZn2CoWO6
_chemical_formula_sum   'Mg1 Zn2 Co1 W1 O6'
_cell_volume   129.14465996
_cell_formula_units_Z   1
loop_
 _symmetry_equiv_pos_site_id
 _symmetry_equiv_pos_as_xyz
  1  'x, y, z'
loop_
 _atom_site_type_symbol
 _atom_site_label
 _atom_site_symmetry_multiplicity
 _atom_site_fract_x
 _atom_site_fract_y
 _atom_site_fract_z
 _atom_site_occupancy
  Mg  Mg0  1  0.99702849  0.27220076  0.35959833  1
  Zn  Zn1  1  0.99776886  0.63908303  0.18248106  1
  Zn  Zn2  1  0.00326728  0.50157504  0.74721189  1
  Co  Co3  1  0.00177395  0.83079457  0.57045024  1
  W  W4  1  0.01605508  0.01431831  0.00065506  1
  O  O5  1  0.72459942  0.83757779  0.09331785  1
  O  O6  1  0.37970582  0.16144303  0.96493706  1
  O  O7  1  0.24875616  0.42396394  0.21719210  1
  O  O8  1  0.35753748  0.78368321  0.58352164  1
  O  O9  1  0.58858303  0.11076534  0.36861011  1
  O  O10  1  0.69518243  0.53516997  0.78436567  1
