# generated using pymatgen
data_MgTa4(CuO6)2
_symmetry_space_group_name_H-M   'P 1'
_cell_length_a   5.08708553
_cell_length_b   4.93126757
_cell_length_c   8.92051200
_cell_angle_alpha   90.00000000
_cell_angle_beta   90.00000000
_cell_angle_gamma   90.10293460
_symmetry_Int_Tables_number   1
_chemical_formula_structural   MgTa4(CuO6)2
_chemical_formula_sum   'Mg1 Ta4 Cu2 O12'
_cell_volume   223.77763954
_cell_formula_units_Z   1
loop_
 _symmetry_equiv_pos_site_id
 _symmetry_equiv_pos_as_xyz
  1  'x, y, z'
loop_
 _atom_site_type_symbol
 _atom_site_label
 _atom_site_symmetry_multiplicity
 _atom_site_fract_x
 _atom_site_fract_y
 _atom_site_fract_z
 _atom_site_occupancy
  Mg  Mg0  1  0.00000000  0.50000000  0.00605200  1
  Ta  Ta1  1  0.00000000  0.00000000  0.67450300  1
  Ta  Ta2  1  0.50000000  0.50000000  0.18881000  1
  Ta  Ta3  1  0.50000000  0.50000000  0.81938300  1
  Ta  Ta4  1  0.00000000  0.00000000  0.33286000  1
  Cu  Cu5  1  0.50000000  0.50000000  0.50474500  1
  Cu  Cu6  1  0.00000000  0.00000000  0.99939900  1
  O  O7  1  0.69321300  0.74382600  0.68838600  1
  O  O8  1  0.30678700  0.25617400  0.68838600  1
  O  O9  1  0.69371100  0.74410500  0.31924700  1
  O  O10  1  0.18122100  0.74918500  0.17899100  1
  O  O11  1  0.81877900  0.25081500  0.17899100  1
  O  O12  1  0.81930100  0.25223700  0.82826500  1
  O  O13  1  0.33697600  0.31075700  0.00421300  1
  O  O14  1  0.16262000  0.80443200  0.50373700  1
  O  O15  1  0.83738000  0.19556800  0.50373700  1
  O  O16  1  0.66302400  0.68924300  0.00421300  1
  O  O17  1  0.30628900  0.25589500  0.31924700  1
  O  O18  1  0.18069900  0.74776300  0.82826500  1
