# generated using pymatgen
data_Na10Hf2Mg6Si3(S3O16)3
_symmetry_space_group_name_H-M   'P 1'
_cell_length_a   17.88203011
_cell_length_b   8.96316249
_cell_length_c   22.51695641
_cell_angle_alpha   90.07428863
_cell_angle_beta   89.93672230
_cell_angle_gamma   119.92821278
_symmetry_Int_Tables_number   1
_chemical_formula_structural   Na10Hf2Mg6Si3(S3O16)3
_chemical_formula_sum   'Na30 Hf6 Mg18 Si9 S27 O144'
_cell_volume   3127.74752052
_cell_formula_units_Z   3
loop_
 _symmetry_equiv_pos_site_id
 _symmetry_equiv_pos_as_xyz
  1  'x, y, z'
loop_
 _atom_site_type_symbol
 _atom_site_label
 _atom_site_symmetry_multiplicity
 _atom_site_fract_x
 _atom_site_fract_y
 _atom_site_fract_z
 _atom_site_occupancy
  Na  Na0  1  0.31689477  0.00139912  0.24564032  1
  Na  Na1  1  0.18901139  0.35847635  0.24912568  1
  Na  Na2  1  0.49730852  0.63534467  0.25430011  1
  Na  Na3  1  0.30930480  0.61837290  0.74061783  1
  Na  Na4  1  0.81652455  0.63324545  0.74464106  1
  Na  Na5  1  0.00149195  0.35410719  0.75346911  1
  Na  Na6  1  0.18289315  0.01582608  0.75536452  1
  Na  Na7  1  0.68975033  0.02086813  0.74905959  1
  Na  Na8  1  0.16308195  0.35075401  0.58799915  1
  Na  Na9  1  0.82909634  0.70048675  0.08086799  1
  Na  Na10  1  0.48255547  0.65381570  0.91842434  1
  Na  Na11  1  0.35215494  0.04078762  0.91708932  1
  Na  Na12  1  0.85417053  0.03985448  0.92147417  1
  Na  Na13  1  0.65987361  0.30290484  0.91681547  1
  Na  Na14  1  0.98083659  0.30812318  0.41708264  1
  Na  Na15  1  0.15882664  0.01583688  0.41551911  1
  Na  Na16  1  0.35417109  0.66760482  0.42234449  1
  Na  Na17  1  0.85128492  0.66279651  0.41600046  1
  Na  Na18  1  0.99451819  0.97362607  0.49751414  1
  Na  Na19  1  0.50286483  0.99924988  0.49905988  1
  Na  Na20  1  0.00777682  0.01962338  0.99829036  1
  Na  Na21  1  0.50072077  0.01577154  0.99755558  1
  Na  Na22  1  0.32805507  0.32893838  0.83460531  1
  Na  Na23  1  0.83467661  0.33246708  0.82912255  1
  Na  Na24  1  0.33424513  0.33455890  0.32914015  1
  Na  Na25  1  0.82972418  0.33296418  0.33362285  1
  Na  Na26  1  0.16372183  0.67207795  0.16183050  1
  Na  Na27  1  0.67727633  0.69439700  0.16201977  1
  Na  Na28  1  0.17465170  0.66627540  0.66138990  1
  Na  Na29  1  0.66477847  0.65536977  0.66121834  1
  Hf  Hf30  1  0.99675281  0.00447510  0.65036925  1
  Hf  Hf31  1  0.50121709  0.00794128  0.64339402  1
  Hf  Hf32  1  0.00021398  0.00018913  0.14629996  1
  Hf  Hf33  1  0.49733123  0.99469099  0.14818566  1
  Hf  Hf34  1  0.16041922  0.66980084  0.31287083  1
  Hf  Hf35  1  0.66125382  0.65134177  0.81367051  1
  Mg  Mg36  1  0.00081064  0.98529324  0.34868393  1
  Mg  Mg37  1  0.50394270  0.00037446  0.35089964  1
  Mg  Mg38  1  0.00561633  0.01483518  0.84958655  1
  Mg  Mg39  1  0.50368463  0.01823052  0.85008421  1
  Mg  Mg40  1  0.33172146  0.34219060  0.68022823  1
  Mg  Mg41  1  0.82954822  0.32482890  0.68386143  1
  Mg  Mg42  1  0.32992759  0.33435767  0.18423407  1
  Mg  Mg43  1  0.83143981  0.31918242  0.18057300  1
  Mg  Mg44  1  0.33054677  0.32974797  0.98197976  1
  Mg  Mg45  1  0.84035755  0.32882411  0.98870651  1
  Mg  Mg46  1  0.34258991  0.34894272  0.48777900  1
  Mg  Mg47  1  0.82981462  0.33157354  0.48150452  1
  Mg  Mg48  1  0.16412999  0.66289084  0.01627989  1
  Mg  Mg49  1  0.66309741  0.66357165  0.02087498  1
  Mg  Mg50  1  0.16845499  0.67904934  0.52007610  1
  Mg  Mg51  1  0.66415013  0.66345557  0.51660483  1
  Mg  Mg52  1  0.67075070  0.66813691  0.31745205  1
  Mg  Mg53  1  0.16499389  0.65450432  0.81792896  1
  Si  Si54  1  0.14872449  0.00688034  0.25191182  1
  Si  Si55  1  0.35436923  0.70335568  0.25475018  1
  Si  Si56  1  0.15172920  0.29840392  0.75147514  1
  Si  Si57  1  0.64865935  0.29078903  0.75206455  1
  Si  Si58  1  0.85261060  0.00424567  0.75544568  1
  Si  Si59  1  0.33112377  0.63168289  0.58085790  1
  Si  Si60  1  0.82860542  0.03220604  0.08077505  1
  Si  Si61  1  0.51628368  0.36853967  0.92142067  1
  Si  Si62  1  0.01611106  0.66433362  0.42139129  1
  S  S63  1  0.64854597  0.00371062  0.25159601  1
  S  S64  1  0.84999474  0.69923436  0.25012463  1
  S  S65  1  0.99518468  0.28707299  0.25287620  1
  S  S66  1  0.50471240  0.29657999  0.25055508  1
  S  S67  1  0.00160934  0.71075712  0.75097196  1
  S  S68  1  0.49821886  0.70966135  0.75186843  1
  S  S69  1  0.35365031  0.00249518  0.75112145  1
  S  S70  1  0.48115470  0.34106135  0.58349010  1
  S  S71  1  0.97767055  0.33191958  0.58255923  1
  S  S72  1  0.18689568  0.03832026  0.58337219  1
  S  S73  1  0.68860614  0.03692748  0.58272248  1
  S  S74  1  0.83201796  0.62602934  0.58268998  1
  S  S75  1  0.47849406  0.62332800  0.08386139  1
  S  S76  1  0.98106570  0.62256164  0.08405200  1
  S  S77  1  0.33207705  0.03796386  0.08303861  1
  S  S78  1  0.18840408  0.33993807  0.08307280  1
  S  S79  1  0.68739486  0.33158745  0.08276490  1
  S  S80  1  0.31227465  0.66529800  0.91650060  1
  S  S81  1  0.81629476  0.66554338  0.91809855  1
  S  S82  1  0.01923050  0.37482771  0.91665965  1
  S  S83  1  0.16378392  0.95423043  0.91674184  1
  S  S84  1  0.66600078  0.96054689  0.91724954  1
  S  S85  1  0.31569381  0.96510398  0.41730021  1
  S  S86  1  0.81074600  0.95727020  0.41677120  1
  S  S87  1  0.16596591  0.37061760  0.41751251  1
  S  S88  1  0.66380008  0.37224410  0.41702798  1
  S  S89  1  0.52107177  0.66597130  0.41512434  1
  O  O90  1  0.11064212  0.04597072  0.31113281  1
  O  O91  1  0.60655211  0.02480331  0.30430516  1
  O  O92  1  0.41195556  0.79291053  0.31256294  1
  O  O93  1  0.90176105  0.78290748  0.30388916  1
  O  O94  1  0.49059947  0.18677865  0.30246810  1
  O  O95  1  0.98525963  0.18818141  0.30734374  1
  O  O96  1  0.10476617  0.16323419  0.80397991  1
  O  O97  1  0.61140441  0.17622339  0.81134486  1
  O  O98  1  0.48430273  0.78505143  0.80623050  1
  O  O99  1  0.98302206  0.78493908  0.80286606  1
  O  O100  1  0.40261525  0.02010565  0.80583564  1
  O  O101  1  0.90763870  0.02770078  0.81443096  1
  O  O102  1  0.39577301  0.96971757  0.69909755  1
  O  O103  1  0.89760995  0.95854850  0.69793893  1
  O  O104  1  0.08907202  0.20628046  0.68998096  1
  O  O105  1  0.58630837  0.19267551  0.69523923  1
  O  O106  1  0.01671618  0.82155351  0.69684029  1
  O  O107  1  0.51102642  0.82056104  0.69934104  1
  O  O108  1  0.40155026  0.83904098  0.19742084  1
  O  O109  1  0.89380882  0.80988160  0.19607244  1
  O  O110  1  0.00865986  0.20190082  0.20009037  1
  O  O111  1  0.51759529  0.21405213  0.19611911  1
  O  O112  1  0.08718341  0.98106880  0.19467286  1
  O  O113  1  0.59123324  0.97835800  0.19772722  1
  O  O114  1  0.43891400  0.35548352  0.63718680  1
  O  O115  1  0.93647332  0.34782799  0.63684495  1
  O  O116  1  0.23630603  0.12133257  0.63769717  1
  O  O117  1  0.73659411  0.11293074  0.63840752  1
  O  O118  1  0.31682225  0.51647799  0.64035463  1
  O  O119  1  0.82469677  0.52794824  0.63732993  1
  O  O120  1  0.43633489  0.52278374  0.13761611  1
  O  O121  1  0.94051569  0.52454659  0.13796905  1
  O  O122  1  0.32451651  0.12092965  0.13751573  1
  O  O123  1  0.82018369  0.12729070  0.13833221  1
  O  O124  1  0.23678665  0.36061560  0.13859072  1
  O  O125  1  0.74201819  0.35675335  0.13483328  1
  O  O126  1  0.22944245  0.31141649  0.03133874  1
  O  O127  1  0.72493665  0.30766900  0.02728072  1
  O  O128  1  0.42602069  0.55029926  0.02984975  1
  O  O129  1  0.92609758  0.54891166  0.03101736  1
  O  O130  1  0.34407067  0.14080404  0.02931228  1
  O  O131  1  0.84702135  0.13538714  0.01817293  1
  O  O132  1  0.22713328  0.14443773  0.52963509  1
  O  O133  1  0.72979405  0.14693415  0.53110531  1
  O  O134  1  0.34581235  0.55085617  0.52002548  1
  O  O135  1  0.84264268  0.54415585  0.52898155  1
  O  O136  1  0.42937124  0.30964407  0.52963020  1
  O  O137  1  0.92614541  0.30645440  0.52884931  1
  O  O138  1  0.27083005  0.69643362  0.96798003  1
  O  O139  1  0.77558432  0.69333325  0.97049272  1
  O  O140  1  0.07245914  0.46496108  0.96847428  1
  O  O141  1  0.58391260  0.46528140  0.97382739  1
  O  O142  1  0.15638525  0.84828522  0.96890985  1
  O  O143  1  0.65750423  0.85371780  0.96837854  1
  O  O144  1  0.27460116  0.85157061  0.46816564  1
  O  O145  1  0.77144669  0.84584057  0.46919244  1
  O  O146  1  0.15747905  0.45762949  0.47009163  1
  O  O147  1  0.65302987  0.45468538  0.47055913  1
  O  O148  1  0.08394491  0.70396312  0.47382249  1
  O  O149  1  0.57346053  0.68116028  0.46724192  1
  O  O150  1  0.06337414  0.63183838  0.36153576  1
  O  O151  1  0.56134997  0.65061120  0.35917574  1
  O  O152  1  0.26124087  0.88117640  0.36167495  1
  O  O153  1  0.76006754  0.87724327  0.36272073  1
  O  O154  1  0.18093905  0.47966461  0.36292356  1
  O  O155  1  0.67930343  0.48276145  0.36387424  1
  O  O156  1  0.05876905  0.47010662  0.86075186  1
  O  O157  1  0.56260800  0.49529881  0.86154733  1
  O  O158  1  0.17850253  0.87758866  0.86142211  1
  O  O159  1  0.68058101  0.88381223  0.86161183  1
  O  O160  1  0.26395674  0.64662393  0.86104678  1
  O  O161  1  0.76038797  0.64195493  0.86338466  1
  O  O162  1  0.00415611  0.83376183  0.41299395  1
  O  O163  1  0.51031654  0.82203229  0.41368129  1
  O  O164  1  0.40255643  0.98562198  0.40975335  1
  O  O165  1  0.90040221  0.98145639  0.41083664  1
  O  O166  1  0.08437199  0.20210657  0.41202444  1
  O  O167  1  0.58679851  0.19883786  0.40997884  1
  O  O168  1  0.00896240  0.19829496  0.91511596  1
  O  O169  1  0.50465827  0.17533043  0.91355065  1
  O  O170  1  0.08566057  0.96990708  0.91246546  1
  O  O171  1  0.58408500  0.96617554  0.91231861  1
  O  O172  1  0.40182278  0.81969706  0.91161495  1
  O  O173  1  0.90241770  0.81870519  0.91045248  1
  O  O174  1  0.49183851  0.18272494  0.58874686  1
  O  O175  1  0.98761728  0.17046889  0.58677488  1
  O  O176  1  0.09837954  0.02703155  0.58750582  1
  O  O177  1  0.59947416  0.01882126  0.58804920  1
  O  O178  1  0.41867436  0.82612396  0.58990890  1
  O  O179  1  0.91317752  0.80242153  0.58700480  1
  O  O180  1  0.48852224  0.80402528  0.09059826  1
  O  O181  1  0.98886331  0.80061023  0.08933639  1
  O  O182  1  0.41420886  0.02398960  0.08810670  1
  O  O183  1  0.91725913  0.00496209  0.08946697  1
  O  O184  1  0.09920175  0.18147168  0.08864513  1
  O  O185  1  0.59908308  0.17211301  0.08991583  1
  O  O186  1  0.34516462  0.15632269  0.74257437  1
  O  O187  1  0.84732939  0.17711413  0.74365372  1
  O  O188  1  0.24759170  0.31804036  0.74508275  1
  O  O189  1  0.74718324  0.32900585  0.74302445  1
  O  O190  1  0.42524874  0.53492125  0.74416348  1
  O  O191  1  0.92665416  0.53623334  0.74080008  1
  O  O192  1  0.34758097  0.51814286  0.24387205  1
  O  O193  1  0.84242570  0.52856702  0.24248205  1
  O  O194  1  0.42537912  0.31006515  0.24225876  1
  O  O195  1  0.92362643  0.31932791  0.24567023  1
  O  O196  1  0.24707050  0.16602189  0.24322056  1
  O  O197  1  0.73387337  0.15572471  0.24438224  1
  O  O198  1  0.32174839  0.51056843  0.92358599  1
  O  O199  1  0.81930611  0.50310436  0.92187784  1
  O  O200  1  0.42050158  0.35225640  0.92358806  1
  O  O201  1  0.93101061  0.35623283  0.91990516  1
  O  O202  1  0.24342654  0.12852975  0.92260216  1
  O  O203  1  0.74098845  0.13895650  0.92038330  1
  O  O204  1  0.31857480  0.13309966  0.42238562  1
  O  O205  1  0.82093874  0.13181719  0.42374196  1
  O  O206  1  0.24138318  0.34229657  0.42026817  1
  O  O207  1  0.74346744  0.35670394  0.42270581  1
  O  O208  1  0.43242189  0.50908626  0.41825077  1
  O  O209  1  0.92075614  0.48907690  0.42316189  1
  O  O210  1  0.17697675  0.49207559  0.07619819  1
  O  O211  1  0.67663299  0.48456273  0.07908790  1
  O  O212  1  0.06859840  0.64706929  0.07689192  1
  O  O213  1  0.56541296  0.64726988  0.07912368  1
  O  O214  1  0.25697464  0.86200753  0.07816157  1
  O  O215  1  0.74895536  0.83169338  0.07726331  1
  O  O216  1  0.17451946  0.86460426  0.57976878  1
  O  O217  1  0.67669183  0.86198082  0.57606536  1
  O  O218  1  0.24308418  0.64562921  0.57683575  1
  O  O219  1  0.75575773  0.64927219  0.57819328  1
  O  O220  1  0.06637329  0.47959192  0.57848873  1
  O  O221  1  0.56872677  0.49377539  0.57810164  1
  O  O222  1  0.15798818  0.83092961  0.25493892  1
  O  O223  1  0.65137081  0.83961231  0.25438688  1
  O  O224  1  0.25620199  0.67836718  0.25699314  1
  O  O225  1  0.76393107  0.68578413  0.25420702  1
  O  O226  1  0.08053438  0.45680384  0.25557762  1
  O  O227  1  0.57977256  0.47266643  0.25566589  1
  O  O228  1  0.15657433  0.48675651  0.75434620  1
  O  O229  1  0.65758606  0.48491988  0.75525943  1
  O  O230  1  0.08150564  0.69911726  0.75692537  1
  O  O231  1  0.58179985  0.70727235  0.75588759  1
  O  O232  1  0.26511060  0.84646624  0.75501416  1
  O  O233  1  0.75420444  0.83369600  0.75737000  1
