# generated using pymatgen
data_Na2YGaSi(SO6)2
_symmetry_space_group_name_H-M   'P 1'
_cell_length_a   8.98325983
_cell_length_b   9.04222107
_cell_length_c   23.03815558
_cell_angle_alpha   89.09313414
_cell_angle_beta   89.21934166
_cell_angle_gamma   119.96070665
_symmetry_Int_Tables_number   1
_chemical_formula_structural   Na2YGaSi(SO6)2
_chemical_formula_sum   'Na12 Y6 Ga6 Si6 S12 O72'
_cell_volume   1620.58075465
_cell_formula_units_Z   6
loop_
 _symmetry_equiv_pos_site_id
 _symmetry_equiv_pos_as_xyz
  1  'x, y, z'
loop_
 _atom_site_type_symbol
 _atom_site_label
 _atom_site_symmetry_multiplicity
 _atom_site_fract_x
 _atom_site_fract_y
 _atom_site_fract_z
 _atom_site_occupancy
  Na  Na0  1  0.99691663  0.62999281  0.25386538  1
  Na  Na1  1  0.37572323  0.00932930  0.74465004  1
  Na  Na2  1  0.65791415  0.96152255  0.59607256  1
  Na  Na3  1  0.03208022  0.34292904  0.10144413  1
  Na  Na4  1  0.99500853  0.67892486  0.93272835  1
  Na  Na5  1  0.32353096  0.02303069  0.41895140  1
  Na  Na6  1  0.00869776  0.98357506  0.50028318  1
  Na  Na7  1  0.02962808  0.98251080  0.00376189  1
  Na  Na8  1  0.66647391  0.29603469  0.82771440  1
  Na  Na9  1  0.68513585  0.33665375  0.33868566  1
  Na  Na10  1  0.33838079  0.65859126  0.17540758  1
  Na  Na11  1  0.33025026  0.66287388  0.66309375  1
  Y  Y12  1  0.99455069  0.00736949  0.84681093  1
  Y  Y13  1  0.99888869  0.98706079  0.15673635  1
  Y  Y14  1  0.65468927  0.32405978  0.98111053  1
  Y  Y15  1  0.33252570  0.68325009  0.02268408  1
  Y  Y16  1  0.31673553  0.67889939  0.51495674  1
  Y  Y17  1  0.35765864  0.68925680  0.80824105  1
  Ga  Ga18  1  0.96676235  0.98522725  0.34956621  1
  Ga  Ga19  1  0.01551630  0.00469773  0.64645110  1
  Ga  Ga20  1  0.66608873  0.32052439  0.67830734  1
  Ga  Ga21  1  0.68866941  0.32213857  0.19097788  1
  Ga  Ga22  1  0.66618530  0.35657917  0.48559215  1
  Ga  Ga23  1  0.28627822  0.62089371  0.32068739  1
  Si  Si24  1  0.99941016  0.29073711  0.25177907  1
  Si  Si25  1  0.71585334  0.01385969  0.73622277  1
  Si  Si26  1  0.37544532  0.06073094  0.58171896  1
  Si  Si27  1  0.95173678  0.62244843  0.08672876  1
  Si  Si28  1  0.33333980  0.97569125  0.90808730  1
  Si  Si29  1  0.01490548  0.66916264  0.41249959  1
  S  S30  1  0.31749068  0.00131025  0.25627926  1
  S  S31  1  0.68171398  0.68895068  0.25787954  1
  S  S32  1  0.30712519  0.30017990  0.74022531  1
  S  S33  1  0.98780003  0.69684754  0.74385205  1
  S  S34  1  0.94870733  0.32962088  0.58104916  1
  S  S35  1  0.67580869  0.62657242  0.58553640  1
  S  S36  1  0.66469645  0.03771699  0.09161627  1
  S  S37  1  0.37520247  0.33449153  0.09189578  1
  S  S38  1  0.63435601  0.66584214  0.91694959  1
  S  S39  1  0.04521539  0.37141231  0.91807975  1
  S  S40  1  0.62698758  0.96070792  0.41378084  1
  S  S41  1  0.32933009  0.36713888  0.41570563  1
  O  O42  1  0.24351726  0.02834948  0.30962574  1
  O  O43  1  0.80824625  0.77613743  0.30513456  1
  O  O44  1  0.98375508  0.15847818  0.30415299  1
  O  O45  1  0.23103291  0.19555757  0.79475809  1
  O  O46  1  0.96862316  0.76816614  0.79935399  1
  O  O47  1  0.80754113  0.02250747  0.79697557  1
  O  O48  1  0.82312483  0.99721211  0.67995730  1
  O  O49  1  0.20307632  0.21026040  0.68978807  1
  O  O50  1  0.03062994  0.82434988  0.69497871  1
  O  O51  1  0.75352314  0.78892659  0.20243438  1
  O  O52  1  0.02086776  0.22332501  0.18939215  1
  O  O53  1  0.19664454  0.96277693  0.20681115  1
  O  O54  1  0.87510557  0.35264372  0.63592558  1
  O  O55  1  0.49330498  0.14436606  0.63838348  1
  O  O56  1  0.66439486  0.52233811  0.63739645  1
  O  O57  1  0.84571923  0.50103143  0.14506203  1
  O  O58  1  0.64260740  0.11986096  0.14357317  1
  O  O59  1  0.46674187  0.32629319  0.14302421  1
  O  O60  1  0.45562276  0.32706434  0.03621947  1
  O  O61  1  0.86524901  0.53858680  0.02492899  1
  O  O62  1  0.66930182  0.12858337  0.03709372  1
  O  O63  1  0.46857958  0.17402753  0.52044266  1
  O  O64  1  0.69347027  0.55149193  0.53068152  1
  O  O65  1  0.84599815  0.32325260  0.53014281  1
  O  O66  1  0.53730931  0.65356315  0.97034664  1
  O  O67  1  0.13257837  0.44742192  0.97307030  1
  O  O68  1  0.31570612  0.84880246  0.96337023  1
  O  O69  1  0.56610574  0.87264608  0.47219194  1
  O  O70  1  0.31527533  0.45518248  0.46746304  1
  O  O71  1  0.15371563  0.73075152  0.46475355  1
  O  O72  1  0.09883120  0.62809980  0.35448983  1
  O  O73  1  0.50959003  0.85735025  0.36800403  1
  O  O74  1  0.35078669  0.47260219  0.36197201  1
  O  O75  1  0.14991729  0.47143804  0.86680836  1
  O  O76  1  0.34275737  0.89224189  0.84589248  1
  O  O77  1  0.53949332  0.65978986  0.86434101  1
  O  O78  1  0.00578478  0.84720018  0.40055205  1
  O  O79  1  0.80400908  0.98677950  0.40701925  1
  O  O80  1  0.17589160  0.19469067  0.41302940  1
  O  O81  1  0.01043980  0.19388148  0.91702400  1
  O  O82  1  0.15066298  0.97462751  0.91269592  1
  O  O83  1  0.80177102  0.82745984  0.91742027  1
  O  O84  1  0.95585325  0.16964946  0.58097563  1
  O  O85  1  0.17813988  0.03356491  0.58891179  1
  O  O86  1  0.82829171  0.80146458  0.58692141  1
  O  O87  1  0.97841207  0.81368111  0.08962203  1
  O  O88  1  0.82884707  0.03696325  0.09259835  1
  O  O89  1  0.19509815  0.18708360  0.09090060  1
  O  O90  1  0.68919949  0.18362157  0.73532459  1
  O  O91  1  0.48301571  0.32266743  0.73600461  1
  O  O92  1  0.83089549  0.53263583  0.73523491  1
  O  O93  1  0.66778863  0.51912427  0.25377850  1
  O  O94  1  0.82915417  0.32081474  0.25176571  1
  O  O95  1  0.48530834  0.15972199  0.24334753  1
  O  O96  1  0.67156072  0.52327960  0.91400405  1
  O  O97  1  0.88005566  0.37330969  0.91570110  1
  O  O98  1  0.50158312  0.16360571  0.91154088  1
  O  O99  1  0.63359479  0.12806673  0.41495851  1
  O  O100  1  0.48536623  0.34895129  0.41757485  1
  O  O101  1  0.82822938  0.49662899  0.42827243  1
  O  O102  1  0.36349607  0.49366187  0.09209775  1
  O  O103  1  0.13981605  0.62950286  0.08989139  1
  O  O104  1  0.51796717  0.86033188  0.09195674  1
  O  O105  1  0.36537721  0.87297408  0.57816827  1
  O  O106  1  0.51825035  0.64336605  0.58415177  1
  O  O107  1  0.12695832  0.47821136  0.57735027  1
  O  O108  1  0.34015308  0.84900222  0.26145971  1
  O  O109  1  0.51418093  0.67795594  0.26902030  1
  O  O110  1  0.16622832  0.48806485  0.25846796  1
  O  O111  1  0.31705738  0.46743518  0.74392046  1
  O  O112  1  0.14083937  0.67242744  0.74654683  1
  O  O113  1  0.51786451  0.84746813  0.73418388  1
