# generated using pymatgen
data_WO3
_symmetry_space_group_name_H-M   'P 1'
_cell_length_a   3.88256000
_cell_length_b   7.71855300
_cell_length_c   7.71855300
_cell_angle_alpha   89.99992577
_cell_angle_beta   90.00000000
_cell_angle_gamma   90.00000000
_symmetry_Int_Tables_number   1
_chemical_formula_structural   WO3
_chemical_formula_sum   'W4 O12'
_cell_volume   231.30762912
_cell_formula_units_Z   4
loop_
 _symmetry_equiv_pos_site_id
 _symmetry_equiv_pos_as_xyz
  1  'x, y, z'
loop_
 _atom_site_type_symbol
 _atom_site_label
 _atom_site_symmetry_multiplicity
 _atom_site_fract_x
 _atom_site_fract_y
 _atom_site_fract_z
 _atom_site_occupancy
  W  W0  1  0.03051600  0.23966800  0.26033200  1
  W  W1  1  0.03051600  0.76033200  0.73966800  1
  W  W2  1  0.96948800  0.26033200  0.76033200  1
  W  W3  1  0.96948800  0.73966800  0.23966800  1
  O  O4  1  0.50693300  0.24753200  0.25246800  1
  O  O5  1  0.49306400  0.74753200  0.24753200  1
  O  O6  1  0.50693300  0.75246800  0.74753200  1
  O  O7  1  0.49306400  0.25246800  0.75246800  1
  O  O8  1  0.00077500  0.75041700  0.49695900  1
  O  O9  1  0.99922400  0.74958200  0.99695900  1
  O  O10  1  0.99922400  0.49695900  0.24958200  1
  O  O11  1  0.00077500  0.24958300  0.50304100  1
  O  O12  1  0.99922400  0.50304100  0.75041800  1
  O  O13  1  0.00077500  0.99695900  0.25041700  1
  O  O14  1  0.00077500  0.00304100  0.74958300  1
  O  O15  1  0.99922400  0.25041800  0.00304100  1
