# generated using pymatgen
data_Na5Mg2In2P3(SO8)3
_symmetry_space_group_name_H-M   'P 1'
_cell_length_a   9.02554058
_cell_length_b   8.95038517
_cell_length_c   22.59671366
_cell_angle_alpha   90.58338132
_cell_angle_beta   90.23510539
_cell_angle_gamma   120.20833706
_symmetry_Int_Tables_number   1
_chemical_formula_structural   Na5Mg2In2P3(SO8)3
_chemical_formula_sum   'Na15 Mg6 In6 P9 S9 O72'
_cell_volume   1577.34985261
_cell_formula_units_Z   3
loop_
 _symmetry_equiv_pos_site_id
 _symmetry_equiv_pos_as_xyz
  1  'x, y, z'
loop_
 _atom_site_type_symbol
 _atom_site_label
 _atom_site_symmetry_multiplicity
 _atom_site_fract_x
 _atom_site_fract_y
 _atom_site_fract_z
 _atom_site_occupancy
  Na  Na0  1  0.63704942  0.01233736  0.25396167  1
  Na  Na1  1  0.00370785  0.63402121  0.24296098  1
  Na  Na2  1  0.63032256  0.63246727  0.74407892  1
  Na  Na3  1  0.99715838  0.35293082  0.74576301  1
  Na  Na4  1  0.30324242  0.34469143  0.58660018  1
  Na  Na5  1  0.67115226  0.96661567  0.57901953  1
  Na  Na6  1  0.29594817  0.95799743  0.08069903  1
  Na  Na7  1  0.69051994  0.02672004  0.91086379  1
  Na  Na8  1  0.96176126  0.29060889  0.41441846  1
  Na  Na9  1  0.98031112  0.97062616  0.49613395  1
  Na  Na10  1  0.00843279  0.98673673  0.99641764  1
  Na  Na11  1  0.63256056  0.30964104  0.82989824  1
  Na  Na12  1  0.63897169  0.31705087  0.33119021  1
  Na  Na13  1  0.31348750  0.63717941  0.16292062  1
  Na  Na14  1  0.32826878  0.67060914  0.66350711  1
  Mg  Mg15  1  0.00477095  0.00415226  0.34901018  1
  Mg  Mg16  1  0.02192470  0.01096628  0.85084687  1
  Mg  Mg17  1  0.66453889  0.32948755  0.68359018  1
  Mg  Mg18  1  0.66917297  0.33597636  0.18371711  1
  Mg  Mg19  1  0.31810393  0.66355785  0.01771290  1
  Mg  Mg20  1  0.33753102  0.67009459  0.51686646  1
  In  In21  1  0.99625621  0.00054471  0.65287674  1
  In  In22  1  0.00431916  0.00236601  0.15260950  1
  In  In23  1  0.66934460  0.34293652  0.98574480  1
  In  In24  1  0.66910996  0.33361055  0.48565101  1
  In  In25  1  0.33535767  0.67020980  0.31918022  1
  In  In26  1  0.33576249  0.67482748  0.81931287  1
  P  P27  1  0.30062609  0.00372924  0.25053193  1
  P  P28  1  0.99792806  0.29686583  0.25250146  1
  P  P29  1  0.30172861  0.29949000  0.75051455  1
  P  P30  1  0.70220207  0.00134906  0.75287722  1
  P  P31  1  0.97013802  0.33872488  0.58479224  1
  P  P32  1  0.66546699  0.62908315  0.58535975  1
  P  P33  1  0.96585238  0.63202802  0.08661245  1
  P  P34  1  0.33325352  0.96744009  0.92160719  1
  P  P35  1  0.63680100  0.96653314  0.41859043  1
  S  S36  1  0.70474776  0.70327867  0.25105547  1
  S  S37  1  0.99794597  0.70357357  0.75099677  1
  S  S38  1  0.36888102  0.03514041  0.58398487  1
  S  S39  1  0.66630779  0.03301117  0.08343138  1
  S  S40  1  0.37234948  0.33792270  0.08425418  1
  S  S41  1  0.63082494  0.66875066  0.91711687  1
  S  S42  1  0.03641448  0.36687249  0.91639009  1
  S  S43  1  0.33233821  0.36811703  0.41819857  1
  S  S44  1  0.03754901  0.66996816  0.41724302  1
  O  O45  1  0.20284413  0.01842410  0.30272789  1
  O  O46  1  0.81517695  0.78982116  0.30279585  1
  O  O47  1  0.97227515  0.18746190  0.30741392  1
  O  O48  1  0.20608466  0.18420411  0.80168534  1
  O  O49  1  0.97866193  0.79254816  0.80248246  1
  O  O50  1  0.81484374  0.02190190  0.80721957  1
  O  O51  1  0.77367281  0.96209229  0.69507204  1
  O  O52  1  0.19930259  0.22987265  0.69045115  1
  O  O53  1  0.02934786  0.80414696  0.69593055  1
  O  O54  1  0.77504821  0.80969669  0.19682573  1
  O  O55  1  0.02351320  0.21567741  0.19574918  1
  O  O56  1  0.19435631  0.96197035  0.19135951  1
  O  O57  1  0.87948250  0.35307867  0.64002751  1
  O  O58  1  0.48096377  0.12146583  0.63573884  1
  O  O59  1  0.64094375  0.51967533  0.64033218  1
  O  O60  1  0.87786742  0.53109928  0.14244406  1
  O  O61  1  0.64411544  0.12256849  0.13537321  1
  O  O62  1  0.47742395  0.35631528  0.13663128  1
  O  O63  1  0.44199532  0.29957916  0.02989967  1
  O  O64  1  0.85890041  0.55071037  0.02965206  1
  O  O65  1  0.69067668  0.13338779  0.02823137  1
  O  O66  1  0.43880366  0.14144060  0.52980542  1
  O  O67  1  0.68732979  0.54594149  0.52853002  1
  O  O68  1  0.85739802  0.29846287  0.52759840  1
  O  O69  1  0.53577076  0.68599792  0.96701900  1
  O  O70  1  0.14588465  0.46030470  0.96701685  1
  O  O71  1  0.31810935  0.86396689  0.97714586  1
  O  O72  1  0.54219404  0.86174033  0.47302539  1
  O  O73  1  0.31211368  0.45438286  0.47129545  1
  O  O74  1  0.14622664  0.68585417  0.46820581  1
  O  O75  1  0.10507272  0.63523898  0.36111061  1
  O  O76  1  0.53576472  0.88950790  0.35934120  1
  O  O77  1  0.35704049  0.47193684  0.36422147  1
  O  O78  1  0.10675807  0.46132664  0.85987335  1
  O  O79  1  0.37389595  0.89010758  0.86553910  1
  O  O80  1  0.53364749  0.63905240  0.85981665  1
  O  O81  1  0.02164938  0.82536682  0.41192514  1
  O  O82  1  0.81818189  0.98899074  0.41439237  1
  O  O83  1  0.17363962  0.19721774  0.41225512  1
  O  O84  1  0.01239479  0.19007386  0.91259788  1
  O  O85  1  0.17470679  0.98470729  0.91337223  1
  O  O86  1  0.79971673  0.83069609  0.91328305  1
  O  O87  1  0.99042389  0.17241124  0.58693879  1
  O  O88  1  0.19662718  0.01687050  0.59033356  1
  O  O89  1  0.82627051  0.81521129  0.58827572  1
  O  O90  1  0.99322246  0.82165853  0.08749039  1
  O  O91  1  0.81974274  0.01392883  0.08885600  1
  O  O92  1  0.19688905  0.17902387  0.08783669  1
  O  O93  1  0.69408349  0.16861212  0.74579402  1
  O  O94  1  0.48516711  0.33159610  0.74548058  1
  O  O95  1  0.83923252  0.53047782  0.74518232  1
  O  O96  1  0.68977162  0.53158342  0.24375218  1
  O  O97  1  0.83628594  0.31708128  0.24589631  1
  O  O98  1  0.48235529  0.16161769  0.24469099  1
  O  O99  1  0.65480579  0.51619151  0.92101006  1
  O  O100  1  0.85974394  0.34478804  0.92101851  1
  O  O101  1  0.50519051  0.15050759  0.92427376  1
  O  O102  1  0.66058225  0.15503130  0.42043182  1
  O  O103  1  0.48522566  0.34680732  0.42228887  1
  O  O104  1  0.86342532  0.51022423  0.42112369  1
  O  O105  1  0.35747067  0.49385198  0.07711293  1
  O  O106  1  0.14702166  0.65288785  0.08129282  1
  O  O107  1  0.50813251  0.86062307  0.07800088  1
  O  O108  1  0.35546913  0.86409339  0.57664927  1
  O  O109  1  0.50412193  0.65069647  0.57956627  1
  O  O110  1  0.15054731  0.49722323  0.57795576  1
  O  O111  1  0.32208735  0.83804532  0.25456649  1
  O  O112  1  0.53133747  0.68448901  0.25644064  1
  O  O113  1  0.15827363  0.48385206  0.25656309  1
  O  O114  1  0.31184914  0.48215442  0.75585711  1
  O  O115  1  0.14518083  0.67171204  0.75623490  1
  O  O116  1  0.52069143  0.83532716  0.75539420  1
