# generated using pymatgen
data_Na6La3NbSi2(PO6)4
_symmetry_space_group_name_H-M   'P 1'
_cell_length_a   9.54399991
_cell_length_b   9.57627399
_cell_length_c   23.18275494
_cell_angle_alpha   90.52726094
_cell_angle_beta   89.85944362
_cell_angle_gamma   120.49413908
_symmetry_Int_Tables_number   1
_chemical_formula_structural   Na6La3NbSi2(PO6)4
_chemical_formula_sum   'Na18 La9 Nb3 Si6 P12 O72'
_cell_volume   1825.65521362
_cell_formula_units_Z   3
loop_
 _symmetry_equiv_pos_site_id
 _symmetry_equiv_pos_as_xyz
  1  'x, y, z'
loop_
 _atom_site_type_symbol
 _atom_site_label
 _atom_site_symmetry_multiplicity
 _atom_site_fract_x
 _atom_site_fract_y
 _atom_site_fract_z
 _atom_site_occupancy
  Na  Na0  1  0.99006241  0.98622425  0.50693847  1
  Na  Na1  1  0.96339001  0.98215540  0.99639546  1
  Na  Na2  1  0.66047085  0.33630421  0.83017690  1
  Na  Na3  1  0.65618514  0.32961240  0.32825531  1
  Na  Na4  1  0.32507512  0.63968797  0.17016881  1
  Na  Na5  1  0.33658292  0.66517110  0.67173369  1
  Na  Na6  1  0.65917691  0.00908614  0.24564129  1
  Na  Na7  1  0.01538780  0.34831600  0.74778145  1
  Na  Na8  1  0.35293578  0.00176904  0.75586924  1
  Na  Na9  1  0.30451112  0.33214568  0.59215732  1
  Na  Na10  1  0.66437167  0.96836197  0.58565487  1
  Na  Na11  1  0.29468646  0.95527232  0.07437679  1
  Na  Na12  1  0.03831797  0.34437528  0.07355336  1
  Na  Na13  1  0.99823741  0.68216531  0.91669407  1
  Na  Na14  1  0.31232549  0.28915973  0.91289461  1
  Na  Na15  1  0.96255397  0.28521443  0.40816710  1
  Na  Na16  1  0.33788709  0.03679811  0.40462015  1
  Na  Na17  1  0.69830903  0.68269274  0.41483809  1
  La  La18  1  0.00460825  0.99928522  0.33869573  1
  La  La19  1  0.98666422  0.99340745  0.84878071  1
  La  La20  1  0.99386632  0.98884286  0.65919972  1
  La  La21  1  0.00176021  0.99159848  0.14971577  1
  La  La22  1  0.67513347  0.35441334  0.68364830  1
  La  La23  1  0.66230736  0.34668892  0.18572512  1
  La  La24  1  0.67249730  0.33838334  0.48263565  1
  La  La25  1  0.35189581  0.67293200  0.01384866  1
  La  La26  1  0.32179820  0.66793876  0.51651794  1
  Nb  Nb27  1  0.66586514  0.33186783  0.97436158  1
  Nb  Nb28  1  0.33115292  0.67360957  0.31467316  1
  Nb  Nb29  1  0.34394868  0.66507202  0.82535171  1
  Si  Si30  1  0.31563219  0.99226908  0.25388388  1
  Si  Si31  1  0.30986125  0.32065018  0.75477201  1
  Si  Si32  1  0.63582033  0.64912983  0.91986431  1
  Si  Si33  1  0.02826310  0.37322887  0.92119894  1
  Si  Si34  1  0.34248256  0.96819547  0.92054255  1
  Si  Si35  1  0.63138228  0.96753470  0.41633831  1
  P  P36  1  0.67243004  0.69364511  0.26002865  1
  P  P37  1  0.01133077  0.32073451  0.25247982  1
  P  P38  1  0.02519554  0.68764479  0.76098609  1
  P  P39  1  0.67063774  0.98859444  0.74769783  1
  P  P40  1  0.97542194  0.31919248  0.58444113  1
  P  P41  1  0.35640503  0.03352302  0.58402666  1
  P  P42  1  0.66866011  0.65081658  0.57625865  1
  P  P43  1  0.95459228  0.63056334  0.07530159  1
  P  P44  1  0.68173042  0.06372430  0.08091116  1
  P  P45  1  0.36304189  0.31424569  0.07470829  1
  P  P46  1  0.33764970  0.37836408  0.41319056  1
  P  P47  1  0.03041194  0.65911737  0.40980144  1
  O  O48  1  0.24066141  0.01141627  0.31437239  1
  O  O49  1  0.74961089  0.76184728  0.31911680  1
  O  O50  1  0.98192502  0.21915058  0.30780714  1
  O  O51  1  0.21898431  0.20233181  0.80871403  1
  O  O52  1  0.00048268  0.75507217  0.81722168  1
  O  O53  1  0.80529131  0.03019848  0.79249607  1
  O  O54  1  0.72725926  0.96073688  0.68817373  1
  O  O55  1  0.19477580  0.24551778  0.69602345  1
  O  O56  1  0.04049112  0.79895473  0.70977167  1
  O  O57  1  0.77334275  0.81860430  0.21221022  1
  O  O58  1  0.02984261  0.23124739  0.19912588  1
  O  O59  1  0.19858315  0.97114298  0.19862600  1
  O  O60  1  0.87944068  0.31719095  0.63886240  1
  O  O61  1  0.45428485  0.13540088  0.63731753  1
  O  O62  1  0.67154410  0.54196376  0.62464376  1
  O  O63  1  0.86118142  0.54119219  0.12929012  1
  O  O64  1  0.69075827  0.14271227  0.13956777  1
  O  O65  1  0.45227804  0.31499018  0.12949449  1
  O  O66  1  0.47275406  0.32400777  0.02097233  1
  O  O67  1  0.84864194  0.52995733  0.02056237  1
  O  O68  1  0.67970887  0.17987255  0.03131972  1
  O  O69  1  0.44434627  0.12585164  0.52769602  1
  O  O70  1  0.67323625  0.57684157  0.51674221  1
  O  O71  1  0.88674514  0.32554478  0.52864390  1
  O  O72  1  0.56859048  0.67772180  0.97904532  1
  O  O73  1  0.11996182  0.44480055  0.98150342  1
  O  O74  1  0.29888793  0.86719938  0.97946185  1
  O  O75  1  0.55362136  0.87463967  0.47662673  1
  O  O76  1  0.32429677  0.44492525  0.47255964  1
  O  O77  1  0.11547280  0.67282412  0.46701190  1
  O  O78  1  0.14885993  0.66595748  0.36054221  1
  O  O79  1  0.50146172  0.84030366  0.36306754  1
  O  O80  1  0.32696635  0.49045152  0.36571692  1
  O  O81  1  0.14877087  0.51195867  0.87018357  1
  O  O82  1  0.36560430  0.85727211  0.86840636  1
  O  O83  1  0.50409996  0.64204896  0.86814291  1
  O  O84  1  0.00029493  0.80279696  0.40629136  1
  O  O85  1  0.81476280  0.99571114  0.41038464  1
  O  O86  1  0.19311547  0.20136858  0.40822778  1
  O  O87  1  0.00555591  0.19686522  0.91012918  1
  O  O88  1  0.20113749  0.00888039  0.90727902  1
  O  O89  1  0.82356779  0.78392551  0.91178547  1
  O  O90  1  0.97888881  0.15835435  0.58165542  1
  O  O91  1  0.18716088  0.02046145  0.58442369  1
  O  O92  1  0.81663546  0.82457680  0.58093938  1
  O  O93  1  0.98070737  0.80406554  0.07313482  1
  O  O94  1  0.83909391  0.05604365  0.07209232  1
  O  O95  1  0.19979134  0.14873225  0.06999235  1
  O  O96  1  0.63592042  0.13080140  0.74777629  1
  O  O97  1  0.49191901  0.34603692  0.75102156  1
  O  O98  1  0.88889075  0.50784826  0.75282172  1
  O  O99  1  0.64789277  0.52437227  0.25251829  1
  O  O100  1  0.86549969  0.34568447  0.24709323  1
  O  O101  1  0.50677580  0.13134162  0.25050323  1
  O  O102  1  0.61826827  0.46526013  0.91802794  1
  O  O103  1  0.85065136  0.37159993  0.92161014  1
  O  O104  1  0.51831682  0.14664322  0.92621836  1
  O  O105  1  0.63105574  0.13859868  0.40990303  1
  O  O106  1  0.50110404  0.38086990  0.40703905  1
  O  O107  1  0.86949708  0.49482698  0.40413913  1
  O  O108  1  0.32634039  0.45335806  0.07781268  1
  O  O109  1  0.12284347  0.64195055  0.07769849  1
  O  O110  1  0.52318762  0.89907422  0.07881958  1
  O  O111  1  0.34771587  0.86819781  0.58745640  1
  O  O112  1  0.51060106  0.65795334  0.58505355  1
  O  O113  1  0.15173725  0.46432243  0.58858674  1
  O  O114  1  0.32307898  0.81830091  0.25903674  1
  O  O115  1  0.50062021  0.68041963  0.25772295  1
  O  O116  1  0.17185871  0.48843614  0.25958639  1
  O  O117  1  0.31383324  0.49638803  0.76717573  1
  O  O118  1  0.19077609  0.68916004  0.76214676  1
  O  O119  1  0.50795754  0.83126483  0.76402057  1
