# generated using pymatgen
data_Nb2FeO6
_symmetry_space_group_name_H-M   'P 1'
_cell_length_a   5.06179381
_cell_length_b   5.76415393
_cell_length_c   14.25536177
_cell_angle_alpha   90.00000000
_cell_angle_beta   90.00000000
_cell_angle_gamma   90.00000000
_symmetry_Int_Tables_number   1
_chemical_formula_structural   Nb2FeO6
_chemical_formula_sum   'Nb8 Fe4 O24'
_cell_volume   415.92810137
_cell_formula_units_Z   4
loop_
 _symmetry_equiv_pos_site_id
 _symmetry_equiv_pos_as_xyz
  1  'x, y, z'
loop_
 _atom_site_type_symbol
 _atom_site_label
 _atom_site_symmetry_multiplicity
 _atom_site_fract_x
 _atom_site_fract_y
 _atom_site_fract_z
 _atom_site_occupancy
  Nb  Nb0  1  0.25852266  0.81663896  0.84042248  1
  Nb  Nb1  1  0.75852266  0.68336104  0.65957752  1
  Nb  Nb2  1  0.24147734  0.81663896  0.15957752  1
  Nb  Nb3  1  0.74147734  0.68336104  0.34042248  1
  Nb  Nb4  1  0.25852266  0.31663896  0.65957752  1
  Nb  Nb5  1  0.75852266  0.18336104  0.84042248  1
  Nb  Nb6  1  0.24147734  0.31663896  0.34042248  1
  Nb  Nb7  1  0.74147734  0.18336104  0.15957752  1
  Fe  Fe8  1  0.75000000  0.66201403  -0.00000000  1
  Fe  Fe9  1  0.25000000  0.83798597  0.50000000  1
  Fe  Fe10  1  0.25000000  0.33798597  -0.00000000  1
  Fe  Fe11  1  0.75000000  0.16201403  0.50000000  1
  O  O12  1  0.93123697  0.37796891  0.74449199  1
  O  O13  1  0.43123697  0.12203109  0.75550801  1
  O  O14  1  0.56876303  0.37796891  0.25550801  1
  O  O15  1  0.06876303  0.12203109  0.24449199  1
  O  O16  1  0.06876303  0.62203109  0.25550801  1
  O  O17  1  0.56876303  0.87796891  0.24449199  1
  O  O18  1  0.43123697  0.62203109  0.74449199  1
  O  O19  1  0.93123697  0.87796891  0.75550801  1
  O  O20  1  0.90697012  0.38419863  0.07843795  1
  O  O21  1  0.40697012  0.11580137  0.42156205  1
  O  O22  1  0.59302988  0.38419863  0.92156205  1
  O  O23  1  0.09302988  0.11580137  0.57843795  1
  O  O24  1  0.91297688  0.89287055  0.09435257  1
  O  O25  1  0.41297688  0.60712945  0.40564743  1
  O  O26  1  0.58702312  0.89287055  0.90564743  1
  O  O27  1  0.08702312  0.60712945  0.59435257  1
  O  O28  1  0.08702312  0.10712945  0.90564743  1
  O  O29  1  0.58702312  0.39287055  0.59435257  1
  O  O30  1  0.41297688  0.10712945  0.09435257  1
  O  O31  1  0.91297688  0.39287055  0.40564743  1
  O  O32  1  0.90697012  0.88419863  0.42156205  1
  O  O33  1  0.40697012  0.61580137  0.07843795  1
  O  O34  1  0.59302988  0.88419863  0.57843795  1
  O  O35  1  0.09302988  0.61580137  0.92156205  1
