# generated using pymatgen
data_CsIO4
_symmetry_space_group_name_H-M   'P 1'
_cell_length_a   5.80943646
_cell_length_b   6.03725748
_cell_length_c   14.35809249
_cell_angle_alpha   90.00000000
_cell_angle_beta   90.00000000
_cell_angle_gamma   90.00000000
_symmetry_Int_Tables_number   1
_chemical_formula_structural   CsIO4
_chemical_formula_sum   'Cs4 I4 O16'
_cell_volume   503.58229284
_cell_formula_units_Z   4
loop_
 _symmetry_equiv_pos_site_id
 _symmetry_equiv_pos_as_xyz
  1  'x, y, z'
loop_
 _atom_site_type_symbol
 _atom_site_label
 _atom_site_symmetry_multiplicity
 _atom_site_fract_x
 _atom_site_fract_y
 _atom_site_fract_z
 _atom_site_occupancy
  Cs  Cs0  1  0.47823000  0.25000000  0.62867107  1
  Cs  Cs1  1  0.97823000  0.25000000  0.87132893  1
  Cs  Cs2  1  0.52177000  0.75000000  0.37132893  1
  Cs  Cs3  1  0.02177000  0.75000000  0.12867107  1
  I  I4  1  0.46158309  0.75000000  0.88212887  1
  I  I5  1  0.96158309  0.75000000  0.61787113  1
  I  I6  1  0.53841691  0.25000000  0.11787113  1
  I  I7  1  0.03841691  0.25000000  0.38212887  1
  O  O8  1  0.52039480  0.50943290  0.81523754  1
  O  O9  1  0.02039480  0.99056710  0.68476246  1
  O  O10  1  0.47960520  0.00943290  0.18476246  1
  O  O11  1  0.97960520  0.49056710  0.31523754  1
  O  O12  1  0.47960520  0.49056710  0.18476246  1
  O  O13  1  0.97960520  0.00943290  0.31523754  1
  O  O14  1  0.52039480  0.99056710  0.81523754  1
  O  O15  1  0.02039480  0.50943290  0.68476246  1
  O  O16  1  0.83362642  0.25000000  0.08498074  1
  O  O17  1  0.33362642  0.25000000  0.41501926  1
  O  O18  1  0.16637358  0.75000000  0.91501926  1
  O  O19  1  0.66637358  0.75000000  0.58498074  1
  O  O20  1  0.86252182  0.25000000  0.48323808  1
  O  O21  1  0.36252182  0.25000000  0.01676192  1
  O  O22  1  0.13747818  0.75000000  0.51676192  1
  O  O23  1  0.63747818  0.75000000  0.98323808  1
