# generated using pymatgen
data_Sb2PbO6
_symmetry_space_group_name_H-M   'P 1'
_cell_length_a   5.31942542
_cell_length_b   5.31942577
_cell_length_c   5.38058013
_cell_angle_alpha   90.00000000
_cell_angle_beta   90.00000000
_cell_angle_gamma   120.00001028
_symmetry_Int_Tables_number   1
_chemical_formula_structural   Sb2PbO6
_chemical_formula_sum   'Sb2 Pb1 O6'
_cell_volume   131.85274241
_cell_formula_units_Z   1
loop_
 _symmetry_equiv_pos_site_id
 _symmetry_equiv_pos_as_xyz
  1  'x, y, z'
loop_
 _atom_site_type_symbol
 _atom_site_label
 _atom_site_symmetry_multiplicity
 _atom_site_fract_x
 _atom_site_fract_y
 _atom_site_fract_z
 _atom_site_occupancy
  Sb  Sb0  1  0.66666700  0.33333300  0.50000000  1
  Sb  Sb1  1  0.33333300  0.66666700  0.50000000  1
  Pb  Pb2  1  0.00000000  0.00000000  0.00000000  1
  O  O3  1  0.37927693  0.37927693  0.70524532  1
  O  O4  1  0.62072307  -0.00000000  0.70524532  1
  O  O5  1  -0.00000000  0.62072307  0.70524532  1
  O  O6  1  0.37927693  0.00000000  0.29475468  1
  O  O7  1  0.00000000  0.37927693  0.29475468  1
  O  O8  1  0.62072307  0.62072307  0.29475468  1
