# generated using pymatgen
data_Na15MgNb11(SiO4)18
_symmetry_space_group_name_H-M   'P 1'
_cell_length_a   9.05677027
_cell_length_b   9.05624359
_cell_length_c   22.55497571
_cell_angle_alpha   90.12426648
_cell_angle_beta   89.88017706
_cell_angle_gamma   120.12550187
_symmetry_Int_Tables_number   1
_chemical_formula_structural   Na15MgNb11(SiO4)18
_chemical_formula_sum   'Na15 Mg1 Nb11 Si18 O72'
_cell_volume   1600.08300665
_cell_formula_units_Z   1
loop_
 _symmetry_equiv_pos_site_id
 _symmetry_equiv_pos_as_xyz
  1  'x, y, z'
loop_
 _atom_site_type_symbol
 _atom_site_label
 _atom_site_symmetry_multiplicity
 _atom_site_fract_x
 _atom_site_fract_y
 _atom_site_fract_z
 _atom_site_occupancy
  Na  Na0  1  0.36695598  0.36588130  0.25164859  1
  Na  Na1  1  0.63070609  0.61300706  0.74161378  1
  Na  Na2  1  0.98116130  0.36995290  0.74192603  1
  Na  Na3  1  0.38956190  0.01848538  0.74148985  1
  Na  Na4  1  0.31261695  0.33655799  0.58366236  1
  Na  Na5  1  0.02324912  0.68629715  0.58373413  1
  Na  Na6  1  0.66269056  0.97615892  0.58361685  1
  Na  Na7  1  0.30032432  0.96714795  0.08525091  1
  Na  Na8  1  0.70156275  0.03568315  0.91825139  1
  Na  Na9  1  0.00075054  0.00039847  0.49294835  1
  Na  Na10  1  0.00071362  0.00092208  0.00222275  1
  Na  Na11  1  0.66537000  0.34121372  0.82858536  1
  Na  Na12  1  0.67737548  0.33171011  0.33519938  1
  Na  Na13  1  0.33423014  0.66726426  0.16881309  1
  Na  Na14  1  0.33354960  0.66707443  0.66464438  1
  Mg  Mg15  1  0.66689434  0.33356205  0.68594252  1
  Nb  Nb16  1  0.99903936  0.99973898  0.35536083  1
  Nb  Nb17  1  0.00480113  0.99982006  0.85692796  1
  Nb  Nb18  1  0.99970567  0.99994371  0.64553042  1
  Nb  Nb19  1  0.99405418  0.99885967  0.14503830  1
  Nb  Nb20  1  0.67120873  0.33414865  0.18933864  1
  Nb  Nb21  1  0.66750328  0.33849424  0.97795971  1
  Nb  Nb22  1  0.66576521  0.33328689  0.47787974  1
  Nb  Nb23  1  0.33232141  0.66157593  0.02320864  1
  Nb  Nb24  1  0.33300471  0.66650895  0.51658257  1
  Nb  Nb25  1  0.33319618  0.67188072  0.31159646  1
  Nb  Nb26  1  0.33282928  0.66549501  0.81333799  1
  Si  Si27  1  0.28601454  0.99689986  0.24864222  1
  Si  Si28  1  0.71180694  0.71148017  0.25075646  1
  Si  Si29  1  0.99794388  0.28712802  0.25080075  1
  Si  Si30  1  0.28947639  0.29110919  0.75059263  1
  Si  Si31  1  0.00116754  0.71072628  0.75073361  1
  Si  Si32  1  0.71013740  -0.00087246  0.75230094  1
  Si  Si33  1  0.95597885  0.33559698  0.58589646  1
  Si  Si34  1  0.37928970  0.04327781  0.58611204  1
  Si  Si35  1  0.66340829  0.62043374  0.58600393  1
  Si  Si36  1  0.95464477  0.62184934  0.08344286  1
  Si  Si37  1  0.66967038  0.04735616  0.08180345  1
  Si  Si38  1  0.37971506  0.33496604  0.08489858  1
  Si  Si39  1  0.62062190  0.66358973  0.91677541  1
  Si  Si40  1  0.04365784  0.37835946  0.91691750  1
  Si  Si41  1  0.33146740  0.95465010  0.91877000  1
  Si  Si42  1  0.62590366  0.95941559  0.41605717  1
  Si  Si43  1  0.33449508  0.37565879  0.41435474  1
  Si  Si44  1  0.04097563  0.66614071  0.41574304  1
  O  O45  1  0.19124191  0.02927152  0.30494959  1
  O  O46  1  0.83104802  0.80673851  0.30809686  1
  O  O47  1  0.97400257  0.16851851  0.30838163  1
  O  O48  1  0.18204701  0.16951891  0.80691413  1
  O  O49  1  0.98405312  0.81642173  0.80702876  1
  O  O50  1  0.82560275  0.01456700  0.81028540  1
  O  O51  1  0.80380268  0.97006713  0.69288445  1
  O  O52  1  0.16938530  0.19986747  0.69081588  1
  O  O53  1  0.03123727  0.83166477  0.69109290  1
  O  O54  1  0.80918783  0.83073596  0.19234412  1
  O  O55  1  0.02845799  0.19210625  0.19312998  1
  O  O56  1  0.17442806  0.97435680  0.18835803  1
  O  O57  1  0.88974827  0.38008692  0.64539103  1
  O  O58  1  0.49051373  0.11068482  0.64539062  1
  O  O59  1  0.61943901  0.50952061  0.64532724  1
  O  O60  1  0.85767338  0.50294964  0.14099861  1
  O  O61  1  0.63778686  0.14324375  0.13820847  1
  O  O62  1  0.49154410  0.35903809  0.14448048  1
  O  O63  1  0.47757462  0.30573374  0.02784740  1
  O  O64  1  0.83638842  0.52420465  0.02519724  1
  O  O65  1  0.69259334  0.15861965  0.02157318  1
  O  O66  1  0.47212095  0.17150999  0.52949678  1
  O  O67  1  0.69932396  0.52783711  0.52943425  1
  O  O68  1  0.82774463  0.30050777  0.52947993  1
  O  O69  1  0.52420699  0.69559922  0.97248901  1
  O  O70  1  0.16569577  0.47804148  0.97336665  1
  O  O71  1  0.30876381  0.84011976  0.97719115  1
  O  O72  1  0.53109552  0.84485177  0.47594926  1
  O  O73  1  0.31415511  0.47300484  0.47374664  1
  O  O74  1  0.15650627  0.68728407  0.47552314  1
  O  O75  1  0.14210261  0.64287011  0.35937809  1
  O  O76  1  0.50261373  0.85665503  0.35963128  1
  O  O77  1  0.35711454  0.49216378  0.35612102  1
  O  O78  1  0.13650300  0.49326789  0.85696096  1
  O  O79  1  0.35931644  0.85939294  0.85990279  1
  O  O80  1  0.50497044  0.64052482  0.85677781  1
  O  O81  1  0.02730430  0.83769163  0.41046253  1
  O  O82  1  0.81207990  0.97489909  0.41151850  1
  O  O83  1  0.16374706  0.18784002  0.41105731  1
  O  O84  1  0.01862400  0.18653960  0.91234851  1
  O  O85  1  0.16369569  0.97524203  0.91173171  1
  O  O86  1  0.80568829  0.83903568  0.91169307  1
  O  O87  1  0.97417974  0.16124991  0.58893924  1
  O  O88  1  0.18666910  0.02481619  0.58892155  1
  O  O89  1  0.83778475  0.81332586  0.58900849  1
  O  O90  1  0.98060342  0.81399205  0.08738370  1
  O  O91  1  0.83768106  0.02676130  0.08894877  1
  O  O92  1  0.19323824  0.15971917  0.08792428  1
  O  O93  1  0.69155653  0.16526283  0.74968910  1
  O  O94  1  0.47340903  0.30843236  0.74921818  1
  O  O95  1  0.83445710  0.52647407  0.74889839  1
  O  O96  1  0.68637895  0.51908654  0.24500844  1
  O  O97  1  0.82876843  0.30571273  0.24363147  1
  O  O98  1  0.47355019  0.17222811  0.24385953  1
  O  O99  1  0.63854235  0.49459700  0.92235356  1
  O  O100  1  0.85244194  0.35360809  0.92114297  1
  O  O101  1  0.50720578  0.14000467  0.92166329  1
  O  O102  1  0.63941978  0.14494916  0.42332557  1
  O  O103  1  0.50560852  0.36076156  0.42382962  1
  O  O104  1  0.85512522  0.49445898  0.42360862  1
  O  O105  1  0.36019318  0.50380866  0.07666429  1
  O  O106  1  0.14691390  0.64647290  0.07844908  1
  O  O107  1  0.49380922  0.86010095  0.07760379  1
  O  O108  1  0.34448306  0.84715773  0.57548628  1
  O  O109  1  0.50191525  0.65465956  0.57526467  1
  O  O110  1  0.15261536  0.49691946  0.57503575  1
  O  O111  1  0.30740276  0.82876082  0.25536003  1
  O  O112  1  0.51929304  0.68566094  0.25465620  1
  O  O113  1  0.17350330  0.47298431  0.25514641  1
  O  O114  1  0.29687428  0.47706897  0.75390407  1
  O  O115  1  0.18027208  0.70446995  0.75482346  1
  O  O116  1  0.52275907  0.82016391  0.75438107  1
