# generated using pymatgen
data_K2MgMn3V2(HO5)2
_symmetry_space_group_name_H-M   'P 1'
_cell_length_a   6.64992873
_cell_length_b   7.96693743
_cell_length_c   5.48898488
_cell_angle_alpha   71.62845897
_cell_angle_beta   87.49725949
_cell_angle_gamma   68.96556414
_symmetry_Int_Tables_number   1
_chemical_formula_structural   K2MgMn3V2(HO5)2
_chemical_formula_sum   'K2 Mg1 Mn3 V2 H2 O10'
_cell_volume   256.79923175
_cell_formula_units_Z   1
loop_
 _symmetry_equiv_pos_site_id
 _symmetry_equiv_pos_as_xyz
  1  'x, y, z'
loop_
 _atom_site_type_symbol
 _atom_site_label
 _atom_site_symmetry_multiplicity
 _atom_site_fract_x
 _atom_site_fract_y
 _atom_site_fract_z
 _atom_site_occupancy
  K  K0  1  0.87374186  0.47902438  0.76887347  1
  K  K1  1  0.12625814  0.52097562  0.23112553  1
  Mg  Mg2  1  0.50000000  0.50000000  0.50000000  1
  Mn  Mn3  1  0.26642627  0.98700515  0.49993054  1
  Mn  Mn4  1  0.73357373  0.01299485  0.50006946  1
  Mn  Mn5  1  -0.00000000  0.00000000  -0.00000000  1
  V  V6  1  0.60721093  0.77358865  0.09710729  1
  V  V7  1  0.39278907  0.22641135  0.90289271  1
  H  H8  1  0.13439181  0.71565384  0.73998064  1
  H  H9  1  0.86560819  0.28434616  0.26001936  1
  O  O10  1  0.05304271  0.84967727  0.73346296  1
  O  O11  1  0.57617977  0.82363801  0.75341388  1
  O  O12  1  0.79340369  0.85137519  0.21914993  1
  O  O13  1  0.35141190  0.78187587  0.27483535  1
  O  O14  1  0.27043669  0.48833117  0.74139946  1
  O  O15  1  0.72956331  0.51166883  0.25860054  1
  O  O16  1  0.20659631  0.14862481  0.78085007  1
  O  O17  1  0.64858810  0.21812413  0.72516465  1
  O  O18  1  0.42382023  0.17636199  0.24658612  1
  O  O19  1  0.94695729  0.15032273  0.26653704  1
