# generated using pymatgen
data_Na7Ti2Ga2Si3(PO8)3
_symmetry_space_group_name_H-M   'P 1'
_cell_length_a   8.88697513
_cell_length_b   8.86439744
_cell_length_c   21.96797980
_cell_angle_alpha   89.78211790
_cell_angle_beta   90.08203092
_cell_angle_gamma   119.98859709
_symmetry_Int_Tables_number   1
_chemical_formula_structural   Na7Ti2Ga2Si3(PO8)3
_chemical_formula_sum   'Na21 Ti6 Ga6 Si9 P9 O72'
_cell_volume   1498.89297094
_cell_formula_units_Z   3
loop_
 _symmetry_equiv_pos_site_id
 _symmetry_equiv_pos_as_xyz
  1  'x, y, z'
loop_
 _atom_site_type_symbol
 _atom_site_label
 _atom_site_symmetry_multiplicity
 _atom_site_fract_x
 _atom_site_fract_y
 _atom_site_fract_z
 _atom_site_occupancy
  Na  Na0  1  0.63212172  0.00117033  0.25098738  1
  Na  Na1  1  0.36783182  0.36908261  0.24920564  1
  Na  Na2  1  0.99997018  0.62855859  0.24990908  1
  Na  Na3  1  0.63192794  0.63316710  0.74983396  1
  Na  Na4  1  0.99530408  0.36486798  0.74956483  1
  Na  Na5  1  0.37112171  0.00105615  0.74850343  1
  Na  Na6  1  0.03226709  0.69784184  0.58376906  1
  Na  Na7  1  0.66270816  0.96690108  0.58325690  1
  Na  Na8  1  0.66708307  0.69560710  0.08318939  1
  Na  Na9  1  0.03105012  0.33487084  0.08445100  1
  Na  Na10  1  0.96238493  0.66514558  0.91824527  1
  Na  Na11  1  0.70149100  0.03333619  0.91634321  1
  Na  Na12  1  0.33792229  0.30200980  0.91757783  1
  Na  Na13  1  0.96815503  0.30368342  0.41617751  1
  Na  Na14  1  0.33540990  0.03266682  0.41687831  1
  Na  Na15  1  0.00086990  0.99927249  0.50003673  1
  Na  Na16  1  0.00555064  0.99671162  0.00033743  1
  Na  Na17  1  0.66671308  0.33331410  0.83333899  1
  Na  Na18  1  0.66965861  0.33992234  0.33434789  1
  Na  Na19  1  0.32957582  0.66954476  0.16660548  1
  Na  Na20  1  0.33349754  0.66175687  0.66539415  1
  Ti  Ti21  1  0.98636247  0.99402876  0.35457972  1
  Ti  Ti22  1  0.00161303  0.00852956  0.64596197  1
  Ti  Ti23  1  0.01395018  0.00660162  0.14560092  1
  Ti  Ti24  1  0.66832728  0.33018893  0.48093306  1
  Ti  Ti25  1  0.33595712  0.66823563  0.02120960  1
  Ti  Ti26  1  0.33074454  0.67040274  0.51908596  1
  Ga  Ga27  1  0.99163851  0.99635678  0.85009813  1
  Ga  Ga28  1  0.66892518  0.32633810  0.68168085  1
  Ga  Ga29  1  0.67330290  0.33622042  0.18161684  1
  Ga  Ga30  1  0.66367330  0.34208610  0.98479858  1
  Ga  Ga31  1  0.32699471  0.66172812  0.31845127  1
  Ga  Ga32  1  0.34153020  0.67082212  0.81664309  1
  Si  Si33  1  0.99992453  0.29462230  0.24972398  1
  Si  Si34  1  0.70635188  0.00100591  0.75066757  1
  Si  Si35  1  0.96095530  0.33599207  0.58430699  1
  Si  Si36  1  0.37450463  0.04620170  0.58400266  1
  Si  Si37  1  0.95981742  0.62668942  0.08332549  1
  Si  Si38  1  0.37972212  0.32997363  0.08366482  1
  Si  Si39  1  0.62691134  0.66566675  0.91585096  1
  Si  Si40  1  0.62009206  0.95120993  0.41535389  1
  Si  Si41  1  0.03903530  0.66669644  0.41538676  1
  P  P42  1  0.29193668  0.00152248  0.25078905  1
  P  P43  1  0.70837469  0.70985546  0.24938220  1
  P  P44  1  0.28973671  0.28970367  0.75145209  1
  P  P45  1  0.99971269  0.70837740  0.75060762  1
  P  P46  1  0.66301481  0.61778666  0.58486497  1
  P  P47  1  0.66426880  0.04440768  0.08307460  1
  P  P48  1  0.04382556  0.37678158  0.91575713  1
  P  P49  1  0.33381895  0.95780891  0.91583180  1
  P  P50  1  0.33705083  0.38005716  0.41589873  1
  O  O51  1  0.20632957  0.03209302  0.30704914  1
  O  O52  1  0.83100784  0.79979158  0.30531247  1
  O  O53  1  0.96839147  0.16538591  0.30870834  1
  O  O54  1  0.21129935  0.17309633  0.80861602  1
  O  O55  1  0.96777721  0.79027169  0.80816055  1
  O  O56  1  0.83202744  0.04248586  0.80988120  1
  O  O57  1  0.80184162  0.96551955  0.69179843  1
  O  O58  1  0.16792993  0.19764464  0.69565107  1
  O  O59  1  0.03442375  0.82695371  0.69390631  1
  O  O60  1  0.79360124  0.82598134  0.19288433  1
  O  O61  1  0.03123408  0.19720963  0.19128522  1
  O  O62  1  0.16947503  0.96877478  0.19486816  1
  O  O63  1  0.88237603  0.38010227  0.64382341  1
  O  O64  1  0.49603751  0.12230088  0.64386750  1
  O  O65  1  0.63495617  0.51113208  0.64364850  1
  O  O66  1  0.88287731  0.50317146  0.14361285  1
  O  O67  1  0.63173785  0.12089486  0.14115668  1
  O  O68  1  0.50007117  0.37501682  0.14427129  1
  O  O69  1  0.45390707  0.29293056  0.02185691  1
  O  O70  1  0.83892692  0.54633944  0.02298294  1
  O  O71  1  0.70333637  0.16056598  0.02566162  1
  O  O72  1  0.46584263  0.16539923  0.52336980  1
  O  O73  1  0.69936974  0.53271768  0.52943838  1
  O  O74  1  0.83217250  0.29648040  0.52501633  1
  O  O75  1  0.53193915  0.70098897  0.97482278  1
  O  O76  1  0.16102824  0.46393818  0.97261471  1
  O  O77  1  0.29921203  0.83457234  0.97117104  1
  O  O78  1  0.53301607  0.83356773  0.47642775  1
  O  O79  1  0.29965019  0.46537823  0.47079944  1
  O  O80  1  0.16738719  0.70240846  0.47484153  1
  O  O81  1  0.11833960  0.62183643  0.35605369  1
  O  O82  1  0.50015769  0.87311698  0.35515517  1
  O  O83  1  0.36790696  0.48687364  0.35700924  1
  O  O84  1  0.12280183  0.49383888  0.85864184  1
  O  O85  1  0.36621891  0.87794741  0.85785523  1
  O  O86  1  0.50128143  0.62442148  0.85664499  1
  O  O87  1  0.03273623  0.84736599  0.40923494  1
  O  O88  1  0.81893951  0.98213523  0.41062126  1
  O  O89  1  0.17120301  0.19567851  0.41061224  1
  O  O90  1  0.03282360  0.19649540  0.91191776  1
  O  O91  1  0.17011438  0.97711640  0.91080233  1
  O  O92  1  0.81985805  0.84247334  0.91218124  1
  O  O93  1  0.96945381  0.15520687  0.59016228  1
  O  O94  1  0.17646167  0.01274260  0.59059877  1
  O  O95  1  0.83049036  0.80227282  0.58934064  1
  O  O96  1  0.97072305  0.81593249  0.09193488  1
  O  O97  1  0.82704151  0.02241925  0.08930967  1
  O  O98  1  0.17924324  0.16468660  0.09019031  1
  O  O99  1  0.68888207  0.17638081  0.74520592  1
  O  O100  1  0.47243483  0.31254093  0.74436406  1
  O  O101  1  0.83317179  0.52813668  0.74527407  1
  O  O102  1  0.69225426  0.52814009  0.24678843  1
  O  O103  1  0.82158740  0.30587123  0.24534157  1
  O  O104  1  0.47185695  0.16619843  0.24419433  1
  O  O105  1  0.64526628  0.49075710  0.92091645  1
  O  O106  1  0.85980755  0.35290111  0.92224873  1
  O  O107  1  0.50045215  0.13747546  0.92198154  1
  O  O108  1  0.64284284  0.14754306  0.42242778  1
  O  O109  1  0.49552722  0.35376126  0.42283140  1
  O  O110  1  0.84926845  0.49296851  0.42498507  1
  O  O111  1  0.35529726  0.50437848  0.07607781  1
  O  O112  1  0.15136821  0.64303669  0.07447555  1
  O  O113  1  0.50384527  0.85825614  0.07688057  1
  O  O114  1  0.35679135  0.85133130  0.57675660  1
  O  O115  1  0.50583286  0.64572692  0.57769875  1
  O  O116  1  0.15146815  0.50747243  0.57530161  1
  O  O117  1  0.30800569  0.83586568  0.25339893  1
  O  O118  1  0.52853229  0.69460614  0.25559348  1
  O  O119  1  0.17767804  0.48453012  0.25446223  1
  O  O120  1  0.29966568  0.46913895  0.75458332  1
  O  O121  1  0.16346349  0.68871906  0.75611288  1
  O  O122  1  0.51366704  0.82417087  0.75443986  1
