# generated using pymatgen
data_YMgMo3O8
_symmetry_space_group_name_H-M   'P 1'
_cell_length_a   6.09389420
_cell_length_b   6.40865155
_cell_length_c   5.14041664
_cell_angle_alpha   90.01297621
_cell_angle_beta   88.15702764
_cell_angle_gamma   121.70683886
_symmetry_Int_Tables_number   1
_chemical_formula_structural   YMgMo3O8
_chemical_formula_sum   'Y1 Mg1 Mo3 O8'
_cell_volume   170.66826589
_cell_formula_units_Z   1
loop_
 _symmetry_equiv_pos_site_id
 _symmetry_equiv_pos_as_xyz
  1  'x, y, z'
loop_
 _atom_site_type_symbol
 _atom_site_label
 _atom_site_symmetry_multiplicity
 _atom_site_fract_x
 _atom_site_fract_y
 _atom_site_fract_z
 _atom_site_occupancy
  Y  Y0  1  0.33366300  0.66690800  0.75302100  1
  Mg  Mg1  1  0.33309700  0.16662500  0.75296000  1
  Mo  Mo2  1  0.83352400  0.66681000  0.25298400  1
  Mo  Mo3  1  0.83352500  0.16687700  0.25297700  1
  Mo  Mo4  1  0.33352800  0.16684300  0.25294800  1
  O  O5  1  0.50394200  0.02502600  0.50532800  1
  O  O6  1  0.67784500  0.33927100  0.02639400  1
  O  O7  1  0.66825300  0.83433600  0.06760200  1
  O  O8  1  0.16309600  0.85485200  0.00072800  1
  O  O9  1  0.99874600  0.49932600  0.43852600  1
  O  O10  1  0.98929400  0.99447400  0.47962600  1
  O  O11  1  0.16300700  0.30863400  0.00069800  1
  O  O12  1  0.50389300  0.47876600  0.50531800  1
