# generated using pymatgen
data_Na3Ca3La(SO4)6
_symmetry_space_group_name_H-M   'P 1'
_cell_length_a   9.30749824
_cell_length_b   9.31938876
_cell_length_c   24.55597967
_cell_angle_alpha   89.89289861
_cell_angle_beta   90.18185104
_cell_angle_gamma   120.11406793
_symmetry_Int_Tables_number   1
_chemical_formula_structural   Na3Ca3La(SO4)6
_chemical_formula_sum   'Na9 Ca9 La3 S18 O72'
_cell_volume   1842.49255331
_cell_formula_units_Z   3
loop_
 _symmetry_equiv_pos_site_id
 _symmetry_equiv_pos_as_xyz
  1  'x, y, z'
loop_
 _atom_site_type_symbol
 _atom_site_label
 _atom_site_symmetry_multiplicity
 _atom_site_fract_x
 _atom_site_fract_y
 _atom_site_fract_z
 _atom_site_occupancy
  Na  Na0  1  0.63596993  0.99876738  0.24804560  1
  Na  Na1  1  0.36328443  0.36340250  0.24771984  1
  Na  Na2  1  0.03062148  0.69820602  0.58830650  1
  Na  Na3  1  0.99931826  0.01315858  0.49884859  1
  Na  Na4  1  0.99987575  0.99905639  0.99651997  1
  Na  Na5  1  0.66565460  0.33220017  0.82698450  1
  Na  Na6  1  0.68283932  0.34907489  0.33496177  1
  Na  Na7  1  0.31890304  0.66610215  0.15477958  1
  Na  Na8  1  0.34972329  0.66599352  0.66786540  1
  Ca  Ca9  1  0.00007579  0.99382675  0.35140145  1
  Ca  Ca10  1  -0.00002041  0.99967134  0.84854791  1
  Ca  Ca11  1  0.99924681  0.00853419  0.65318257  1
  Ca  Ca12  1  0.99994992  0.99465510  0.14820597  1
  Ca  Ca13  1  0.66131206  0.32790211  0.68502208  1
  Ca  Ca14  1  0.67541650  0.34157238  0.17830094  1
  Ca  Ca15  1  0.33436671  0.66676410  0.01602566  1
  Ca  Ca16  1  0.34168538  0.66605999  0.51476394  1
  Ca  Ca17  1  0.32344197  0.66604879  0.31969909  1
  La  La18  1  0.66622207  0.33286460  0.98390251  1
  La  La19  1  0.65950073  0.32630151  0.48259606  1
  La  La20  1  0.33230736  0.66652350  0.81505761  1
  S  S21  1  0.30270145  0.00451433  0.25003832  1
  S  S22  1  0.69805724  0.70067052  0.25073506  1
  S  S23  1  0.99902900  0.29152096  0.25034297  1
  S  S24  1  0.30049582  0.29495266  0.74960028  1
  S  S25  1  0.99450842  0.70039385  0.74680892  1
  S  S26  1  0.70523813  0.00545838  0.74937393  1
  S  S27  1  0.96880138  0.33793966  0.58423132  1
  S  S28  1  0.35879117  0.02505964  0.58475786  1
  S  S29  1  0.67033403  0.63464429  0.58495627  1
  S  S30  1  0.97438738  0.63845296  0.08466196  1
  S  S31  1  0.66414033  0.02685002  0.08765970  1
  S  S32  1  0.36241740  0.33589592  0.08740951  1
  S  S33  1  0.63723255  0.67372331  0.91791225  1
  S  S34  1  0.03621790  0.36234147  0.91787367  1
  S  S35  1  0.32601357  0.96300684  0.91778253  1
  S  S36  1  0.63419594  0.96244941  0.41354401  1
  S  S37  1  0.32821227  0.36630017  0.41352665  1
  S  S38  1  0.03662967  0.67091234  0.41855139  1
  O  O39  1  0.22211753  0.02451143  0.29885884  1
  O  O40  1  0.79690086  0.77794238  0.30003625  1
  O  O41  1  0.97522126  0.18900908  0.29928881  1
  O  O42  1  0.21648751  0.20194627  0.79911831  1
  O  O43  1  0.98558788  0.78943921  0.79491044  1
  O  O44  1  0.79862050  0.01514583  0.79898584  1
  O  O45  1  0.78510987  0.98972676  0.69981267  1
  O  O46  1  0.20465651  0.21481455  0.69993674  1
  O  O47  1  0.01010177  0.79144927  0.69536440  1
  O  O48  1  0.77870682  0.80205375  0.20210171  1
  O  O49  1  0.02239532  0.21270218  0.20161695  1
  O  O50  1  0.20405148  0.98387297  0.20090445  1
  O  O51  1  0.88305584  0.35767930  0.63152903  1
  O  O52  1  0.46071775  0.10988468  0.63234809  1
  O  O53  1  0.65127480  0.53228932  0.63284185  1
  O  O54  1  0.89079320  0.53891259  0.13366199  1
  O  O55  1  0.64923182  0.10634403  0.13844701  1
  O  O56  1  0.45726653  0.35116066  0.13829535  1
  O  O57  1  0.45223413  0.32086543  0.03948077  1
  O  O58  1  0.87393049  0.55415265  0.03524516  1
  O  O59  1  0.67998805  0.13206999  0.03960717  1
  O  O60  1  0.43800456  0.12232740  0.53423043  1
  O  O61  1  0.68960701  0.55262154  0.53492578  1
  O  O62  1  0.86911995  0.31704873  0.53371390  1
  O  O63  1  0.55135805  0.68429206  0.96655201  1
  O  O64  1  0.13342211  0.44876324  0.96653692  1
  O  O65  1  0.31608804  0.86677545  0.96653268  1
  O  O66  1  0.54526842  0.86517731  0.46192689  1
  O  O67  1  0.31941052  0.45459128  0.46193764  1
  O  O68  1  0.12647387  0.68022663  0.46943521  1
  O  O69  1  0.12077618  0.65509761  0.37009260  1
  O  O70  1  0.54205318  0.88596616  0.36246712  1
  O  O71  1  0.34413814  0.45836775  0.36244816  1
  O  O72  1  0.11600875  0.46114946  0.86790057  1
  O  O73  1  0.34410674  0.88299874  0.86785091  1
  O  O74  1  0.53844407  0.65528155  0.86790172  1
  O  O75  1  0.01925139  0.82004108  0.41478749  1
  O  O76  1  0.80192741  0.98153659  0.41243591  1
  O  O77  1  0.17919737  0.19865665  0.41219251  1
  O  O78  1  0.01933072  0.19653296  0.91413151  1
  O  O79  1  0.17672718  0.97958088  0.91403782  1
  O  O80  1  0.80375073  0.82269292  0.91424483  1
  O  O81  1  0.99174462  0.19285457  0.58824943  1
  O  O82  1  0.18848297  0.00287103  0.58781695  1
  O  O83  1  0.82751805  0.79831031  0.58823479  1
  O  O84  1  0.98948210  0.80386119  0.08766696  1
  O  O85  1  0.81467849  0.01171990  0.08961110  1
  O  O86  1  0.19650528  0.18513599  0.08918613  1
  O  O87  1  0.68643197  0.15432216  0.74673964  1
  O  O88  1  0.46855252  0.31399768  0.74721638  1
  O  O89  1  0.84537219  0.53228403  0.74536781  1
  O  O90  1  0.66810607  0.52743568  0.24579330  1
  O  O91  1  0.84622699  0.30577855  0.24493344  1
  O  O92  1  0.47185811  0.16010627  0.24580698  1
  O  O93  1  0.65353353  0.52158892  0.92057582  1
  O  O94  1  0.86707785  0.34503812  0.92042107  1
  O  O95  1  0.47818945  0.13211965  0.92024868  1
  O  O96  1  0.65155057  0.13202289  0.41675063  1
  O  O97  1  0.48090541  0.34963012  0.41691478  1
  O  O98  1  0.86603581  0.51867846  0.41950384  1
  O  O99  1  0.34852904  0.48688855  0.08225033  1
  O  O100  1  0.14026204  0.65352793  0.08084085  1
  O  O101  1  0.51250990  0.86193001  0.08246077  1
  O  O102  1  0.33811783  0.85556022  0.57998084  1
  O  O103  1  0.52409531  0.65629932  0.57932203  1
  O  O104  1  0.13195622  0.49576818  0.57904733  1
  O  O105  1  0.33259569  0.86163950  0.25514097  1
  O  O106  1  0.52933763  0.68685859  0.25511465  1
  O  O107  1  0.15149355  0.45837292  0.25581416  1
  O  O108  1  0.31940684  0.46554275  0.75149679  1
  O  O109  1  0.14686573  0.68314065  0.75033980  1
  O  O110  1  0.53453229  0.85317791  0.75130819  1
