# generated using pymatgen
data_Fe2Pb3F12
_symmetry_space_group_name_H-M   'P 1'
_cell_length_a   7.34557914
_cell_length_b   7.55541375
_cell_length_c   9.81422352
_cell_angle_alpha   109.82247434
_cell_angle_beta   108.15327785
_cell_angle_gamma   95.45353545
_symmetry_Int_Tables_number   1
_chemical_formula_structural   Fe2Pb3F12
_chemical_formula_sum   'Fe4 Pb6 F24'
_cell_volume   474.47168707
_cell_formula_units_Z   2
loop_
 _symmetry_equiv_pos_site_id
 _symmetry_equiv_pos_as_xyz
  1  'x, y, z'
loop_
 _atom_site_type_symbol
 _atom_site_label
 _atom_site_symmetry_multiplicity
 _atom_site_fract_x
 _atom_site_fract_y
 _atom_site_fract_z
 _atom_site_occupancy
  Fe  Fe0  1  0.66733069  0.73262484  0.43180806  1
  Fe  Fe1  1  0.33266931  0.26737516  0.56819194  1
  Fe  Fe2  1  0.00511825  0.20583605  0.79270590  1
  Fe  Fe3  1  0.99488175  0.79416395  0.20729410  1
  Pb  Pb4  1  0.58941253  0.23760610  0.97005943  1
  Pb  Pb5  1  0.41058747  0.76239390  0.02994057  1
  Pb  Pb6  1  0.22522620  0.78024481  0.61493178  1
  Pb  Pb7  1  0.77477380  0.21975519  0.38506822  1
  Pb  Pb8  1  0.80727109  0.68370711  0.79898939  1
  Pb  Pb9  1  0.19272891  0.31629289  0.20101061  1
  F  F10  1  0.85954241  0.32642890  0.20520099  1
  F  F11  1  0.14045759  0.67357110  0.79479901  1
  F  F12  1  0.51620749  0.88750026  0.85826284  1
  F  F13  1  0.48379251  0.11249974  0.14173716  1
  F  F14  1  0.55718975  0.90217355  0.34336137  1
  F  F15  1  0.44281025  0.09782645  0.65663863  1
  F  F16  1  0.82714891  0.57964954  0.52784084  1
  F  F17  1  0.17285109  0.42035046  0.47215916  1
  F  F18  1  0.48703612  0.29763356  0.45150804  1
  F  F19  1  0.51296388  0.70236644  0.54849196  1
  F  F20  1  0.11481228  0.85879816  0.07573610  1
  F  F21  1  0.88518772  0.14120184  0.92426390  1
  F  F22  1  0.18225323  0.42100952  0.97266697  1
  F  F23  1  0.81774677  0.57899048  0.02733303  1
  F  F24  1  0.20330052  0.06445089  0.84237481  1
  F  F25  1  0.79669948  0.93554911  0.15762519  1
  F  F26  1  0.17921348  0.64975644  0.27289031  1
  F  F27  1  0.82078652  0.35024356  0.72710969  1
  F  F28  1  0.15748189  0.04362130  0.37407688  1
  F  F29  1  0.84251811  0.95637870  0.62592312  1
  F  F30  1  0.11109298  0.23569087  0.63962224  1
  F  F31  1  0.88890702  0.76430913  0.36037776  1
  F  F32  1  0.47470891  0.48818430  0.75333115  1
  F  F33  1  0.52529109  0.51181570  0.24666885  1
