# generated using pymatgen
data_NaLa2P(SO6)2
_symmetry_space_group_name_H-M   'P 1'
_cell_length_a   9.47998740
_cell_length_b   9.48064014
_cell_length_c   25.29876258
_cell_angle_alpha   89.99296636
_cell_angle_beta   89.99964237
_cell_angle_gamma   119.99791466
_symmetry_Int_Tables_number   1
_chemical_formula_structural   NaLa2P(SO6)2
_chemical_formula_sum   'Na6 La12 P6 S12 O72'
_cell_volume   1969.17563923
_cell_formula_units_Z   6
loop_
 _symmetry_equiv_pos_site_id
 _symmetry_equiv_pos_as_xyz
  1  'x, y, z'
loop_
 _atom_site_type_symbol
 _atom_site_label
 _atom_site_symmetry_multiplicity
 _atom_site_fract_x
 _atom_site_fract_y
 _atom_site_fract_z
 _atom_site_occupancy
  Na  Na0  1  0.97826940  0.98634909  0.49978693  1
  Na  Na1  1  0.00808263  0.98632809  0.99978718  1
  Na  Na2  1  0.65714452  0.30991917  0.83334773  1
  Na  Na3  1  0.65278558  0.30993582  0.33334529  1
  Na  Na4  1  0.31819333  0.67268806  0.16674216  1
  Na  Na5  1  0.35449187  0.67268971  0.66674265  1
  La  La6  1  0.00176859  0.00065860  0.35017381  1
  La  La7  1  0.99888728  0.00065983  0.85017332  1
  La  La8  1  0.98356484  0.99079191  0.64942726  1
  La  La9  1  0.00722753  0.99079364  0.14942837  1
  La  La10  1  0.66601257  0.33280930  0.68367184  1
  La  La11  1  0.66680246  0.33281587  0.18367421  1
  La  La12  1  0.66723209  0.33335519  0.98303365  1
  La  La13  1  0.66613353  0.33335074  0.48303455  1
  La  La14  1  0.32282967  0.67458389  0.01704858  1
  La  La15  1  0.35175036  0.67458220  0.51704461  1
  La  La16  1  0.34026126  0.68394084  0.31643375  1
  La  La17  1  0.34367842  0.68393967  0.81643388  1
  P  P18  1  0.30145338  0.00290251  0.25043554  1
  P  P19  1  0.70144821  0.00290134  0.75043476  1
  P  P20  1  0.66678509  0.62925809  0.58340428  1
  P  P21  1  0.96247283  0.62925661  0.08340464  1
  P  P22  1  0.33306912  0.97068989  0.91657902  1
  P  P23  1  0.63762113  0.97068854  0.41657975  1
  S  S24  1  0.70004386  0.70029194  0.25004017  1
  S  S25  1  0.00208715  0.29981251  0.24952145  1
  S  S26  1  0.29772460  0.29981462  0.74952068  1
  S  S27  1  0.00024787  0.70029546  0.75003940  1
  S  S28  1  0.96851259  0.33565196  0.58309765  1
  S  S29  1  0.36454232  0.03323610  0.58347965  1
  S  S30  1  0.66869042  0.03323710  0.08347919  1
  S  S31  1  0.36713406  0.33564978  0.08309690  1
  S  S32  1  0.63137331  0.66678090  0.91754210  1
  S  S33  1  0.03540942  0.36891827  0.91593994  1
  S  S34  1  0.33350696  0.36891685  0.41594107  1
  S  S35  1  0.03540929  0.66678310  0.41754330  1
  O  O36  1  0.21284323  0.01582982  0.30014345  1
  O  O37  1  0.79657178  0.78230120  0.29805728  1
  O  O38  1  0.98497637  0.20183492  0.29772466  1
  O  O39  1  0.21686026  0.20183334  0.79772410  1
  O  O40  1  0.98572914  0.78229896  0.79805852  1
  O  O41  1  0.80298722  0.01583019  0.80014399  1
  O  O42  1  0.78716518  0.98701094  0.70024289  1
  O  O43  1  0.20172558  0.21601677  0.70158753  1
  O  O44  1  0.01747322  0.79827120  0.70209272  1
  O  O45  1  0.78079952  0.79826948  0.20209234  1
  O  O46  1  0.01428917  0.21601463  0.20158650  1
  O  O47  1  0.19984218  0.98700944  0.20024236  1
  O  O48  1  0.88607758  0.34903032  0.63123751  1
  O  O49  1  0.46423962  0.11442176  0.63144000  1
  O  O50  1  0.65434993  0.52914156  0.63346403  1
  O  O51  1  0.87479133  0.52914255  0.13346364  1
  O  O52  1  0.65018130  0.11441928  0.13143935  1
  O  O53  1  0.46295793  0.34903232  0.13123878  1
  O  O54  1  0.44851728  0.31726335  0.03528662  1
  O  O55  1  0.86278780  0.54175116  0.03329622  1
  O  O56  1  0.68216228  0.12921431  0.03545854  1
  O  O57  1  0.44705559  0.12921774  0.53545719  1
  O  O58  1  0.67896138  0.54175287  0.53329647  1
  O  O59  1  0.86874202  0.31726253  0.53528580  1
  O  O60  1  0.54745505  0.67962406  0.96526080  1
  O  O61  1  0.13191391  0.44922148  0.96434438  1
  O  O62  1  0.31650390  0.86743196  0.96645609  1
  O  O63  1  0.55092462  0.86743116  0.46645606  1
  O  O64  1  0.31730626  0.44922018  0.46434364  1
  O  O65  1  0.13216857  0.67962364  0.46526183  1
  O  O66  1  0.11530245  0.65044870  0.36908578  1
  O  O67  1  0.53371949  0.88351442  0.36689936  1
  O  O68  1  0.34609960  0.46529839  0.36816514  1
  O  O69  1  0.11919697  0.46529801  0.86816474  1
  O  O70  1  0.34979555  0.88351985  0.86689961  1
  O  O71  1  0.53514513  0.65044982  0.86908488  1
  O  O72  1  0.01992085  0.81502512  0.41413802  1
  O  O73  1  0.80803258  0.98610760  0.41256561  1
  O  O74  1  0.18637774  0.20353044  0.41307312  1
  O  O75  1  0.01715463  0.20353138  0.91307309  1
  O  O76  1  0.17807682  0.98610795  0.91256449  1
  O  O77  1  0.79510077  0.81502316  0.91413922  1
  O  O78  1  0.98652159  0.18846176  0.58642254  1
  O  O79  1  0.20222798  0.01934300  0.58763934  1
  O  O80  1  0.82110471  0.80158603  0.58586802  1
  O  O81  1  0.98048088  0.80158203  0.08586819  1
  O  O82  1  0.81711749  0.01934332  0.08763835  1
  O  O83  1  0.20194142  0.18846365  0.08642188  1
  O  O84  1  0.68400851  0.15684900  0.74678673  1
  O  O85  1  0.46281995  0.31716118  0.74658855  1
  O  O86  1  0.85115859  0.53678609  0.74649496  1
  O  O87  1  0.68562665  0.53678467  0.24649484  1
  O  O88  1  0.85433975  0.31716160  0.24658775  1
  O  O89  1  0.47284011  0.15684877  0.24678620  1
  O  O90  1  0.64979457  0.51981857  0.92054504  1
  O  O91  1  0.87177172  0.35327800  0.91927887  1
  O  O92  1  0.48827708  0.14100727  0.92053093  1
  O  O93  1  0.65273091  0.14101048  0.42052933  1
  O  O94  1  0.48150227  0.35327922  0.41927827  1
  O  O95  1  0.87002237  0.51982005  0.42054333  1
  O  O96  1  0.35302386  0.48416631  0.07895045  1
  O  O97  1  0.13482474  0.64711770  0.08100935  1
  O  O98  1  0.52143041  0.86805690  0.08015200  1
  O  O99  1  0.34662660  0.86805713  0.58015217  1
  O  O100  1  0.51229406  0.64711951  0.58100910  1
  O  O101  1  0.13114454  0.48416672  0.57895071  1
  O  O102  1  0.31724937  0.84732180  0.25305981  1
  O  O103  1  0.53479540  0.68110359  0.25350481  1
  O  O104  1  0.15006324  0.46301074  0.25344896  1
  O  O105  1  0.31294898  0.46301432  0.75344934  1
  O  O106  1  0.14630932  0.68110065  0.75350465  1
  O  O107  1  0.53007358  0.84732482  0.75305987  1
