# generated using pymatgen
data_Ho2MgMo2(ClO4)2
_symmetry_space_group_name_H-M   'P 1'
_cell_length_a   6.32454336
_cell_length_b   6.32454304
_cell_length_c   6.66409714
_cell_angle_alpha   86.16522947
_cell_angle_beta   86.16523430
_cell_angle_gamma   66.82343777
_symmetry_Int_Tables_number   1
_chemical_formula_structural   Ho2MgMo2(ClO4)2
_chemical_formula_sum   'Ho2 Mg1 Mo2 Cl2 O8'
_cell_volume   244.26249372
_cell_formula_units_Z   1
loop_
 _symmetry_equiv_pos_site_id
 _symmetry_equiv_pos_as_xyz
  1  'x, y, z'
loop_
 _atom_site_type_symbol
 _atom_site_label
 _atom_site_symmetry_multiplicity
 _atom_site_fract_x
 _atom_site_fract_y
 _atom_site_fract_z
 _atom_site_occupancy
  Ho  Ho0  1  0.23302377  0.23302377  0.88307451  1
  Ho  Ho1  1  0.82035063  0.82035063  0.05721437  1
  Mg  Mg2  1  0.52770761  0.52770761  0.03494026  1
  Mo  Mo3  1  0.62764312  0.62764312  0.64152318  1
  Mo  Mo4  1  0.33126817  0.33126817  0.32323444  1
  Cl  Cl5  1  0.08310385  0.08310385  0.23053034  1
  Cl  Cl6  1  0.98410742  0.98410742  0.75127928  1
  O  O7  1  0.51163595  0.51163595  0.35352951  1
  O  O8  1  0.74602451  0.74602451  0.42642581  1
  O  O9  1  0.50583580  0.85437949  0.86634842  1
  O  O10  1  0.85437949  0.50583580  0.86634842  1
  O  O11  1  0.25117481  0.25117481  0.56513257  1
  O  O12  1  0.54439023  0.16518333  0.11556748  1
  O  O13  1  0.16518333  0.54439023  0.11556748  1
  O  O14  1  0.46000430  0.46000430  0.76002491  1
