# generated using pymatgen
data_Cd(AuF4)2
_symmetry_space_group_name_H-M   'P 1'
_cell_length_a   5.72717549
_cell_length_b   5.72717549
_cell_length_c   10.32115001
_cell_angle_alpha   90.00000000
_cell_angle_beta   90.00000000
_cell_angle_gamma   90.00000000
_symmetry_Int_Tables_number   1
_chemical_formula_structural   Cd(AuF4)2
_chemical_formula_sum   'Cd2 Au4 F16'
_cell_volume   338.53928439
_cell_formula_units_Z   2
loop_
 _symmetry_equiv_pos_site_id
 _symmetry_equiv_pos_as_xyz
  1  'x, y, z'
loop_
 _atom_site_type_symbol
 _atom_site_label
 _atom_site_symmetry_multiplicity
 _atom_site_fract_x
 _atom_site_fract_y
 _atom_site_fract_z
 _atom_site_occupancy
  Cd  Cd0  1  -0.00000000  0.00000000  0.25000000  1
  Cd  Cd1  1  -0.00000000  0.00000000  0.75000000  1
  Au  Au2  1  0.50000000  0.00000000  -0.00000000  1
  Au  Au3  1  -0.00000000  0.50000000  -0.00000000  1
  Au  Au4  1  -0.00000000  0.50000000  0.50000000  1
  Au  Au5  1  0.50000000  0.00000000  0.50000000  1
  F  F6  1  0.69212598  0.84826328  0.63044334  1
  F  F7  1  0.30787402  0.15173672  0.63044334  1
  F  F8  1  0.84826328  0.69212598  0.86955666  1
  F  F9  1  0.84826328  0.30787402  0.63044334  1
  F  F10  1  0.15173672  0.69212598  0.63044334  1
  F  F11  1  0.30787402  0.84826328  0.86955666  1
  F  F12  1  0.84826328  0.69212598  0.13044334  1
  F  F13  1  0.30787402  0.84826328  0.13044334  1
  F  F14  1  0.69212598  0.15173672  0.13044334  1
  F  F15  1  0.84826328  0.30787402  0.36955666  1
  F  F16  1  0.15173672  0.69212598  0.36955666  1
  F  F17  1  0.15173672  0.30787402  0.13044334  1
  F  F18  1  0.69212598  0.84826328  0.36955666  1
  F  F19  1  0.30787402  0.15173672  0.36955666  1
  F  F20  1  0.15173672  0.30787402  0.86955666  1
  F  F21  1  0.69212598  0.15173672  0.86955666  1
