# generated using pymatgen
data_Na2SbF5
_symmetry_space_group_name_H-M   'P 1'
_cell_length_a   5.40115960
_cell_length_b   7.99905011
_cell_length_c   11.08374660
_cell_angle_alpha   90.00000000
_cell_angle_beta   90.00000000
_cell_angle_gamma   90.00000000
_symmetry_Int_Tables_number   1
_chemical_formula_structural   Na2SbF5
_chemical_formula_sum   'Na8 Sb4 F20'
_cell_volume   478.86380958
_cell_formula_units_Z   4
loop_
 _symmetry_equiv_pos_site_id
 _symmetry_equiv_pos_as_xyz
  1  'x, y, z'
loop_
 _atom_site_type_symbol
 _atom_site_label
 _atom_site_symmetry_multiplicity
 _atom_site_fract_x
 _atom_site_fract_y
 _atom_site_fract_z
 _atom_site_occupancy
  Na  Na0  1  0.42673307  0.85318066  0.43693194  1
  Na  Na1  1  0.92673307  0.64681934  0.56306806  1
  Na  Na2  1  0.57326693  0.35318066  0.06306806  1
  Na  Na3  1  0.07326693  0.14681934  0.93693194  1
  Na  Na4  1  0.00747693  0.60203802  0.24072251  1
  Na  Na5  1  0.50747693  0.89796198  0.75927749  1
  Na  Na6  1  0.99252307  0.10203802  0.25927749  1
  Na  Na7  1  0.49252307  0.39796198  0.74072251  1
  Sb  Sb8  1  0.49326165  0.41876250  0.38312991  1
  Sb  Sb9  1  0.99326165  0.08123750  0.61687009  1
  Sb  Sb10  1  0.50673835  0.91876250  0.11687009  1
  Sb  Sb11  1  0.00673835  0.58123750  0.88312991  1
  F  F12  1  0.27618027  0.40021274  0.92682035  1
  F  F13  1  0.77618027  0.09978726  0.07317965  1
  F  F14  1  0.72381973  0.90021274  0.57317965  1
  F  F15  1  0.22381973  0.59978726  0.42682035  1
  F  F16  1  0.10679806  0.50425091  0.71209371  1
  F  F17  1  0.60679806  0.99574909  0.28790629  1
  F  F18  1  0.89320194  0.00425091  0.78790629  1
  F  F19  1  0.39320194  0.49574909  0.21209371  1
  F  F20  1  0.86065587  0.55138264  0.05633455  1
  F  F21  1  0.36065587  0.94861736  0.94366545  1
  F  F22  1  0.13934413  0.05138264  0.44366545  1
  F  F23  1  0.63934413  0.44861736  0.55633455  1
  F  F24  1  0.82737939  0.35360465  0.30085535  1
  F  F25  1  0.32737939  0.14639535  0.69914465  1
  F  F26  1  0.17262061  0.85360465  0.19914465  1
  F  F27  1  0.67262061  0.64639535  0.80085535  1
  F  F28  1  0.67981001  0.63524411  0.37397254  1
  F  F29  1  0.17981001  0.86475589  0.62602746  1
  F  F30  1  0.32018999  0.13524411  0.12602746  1
  F  F31  1  0.82018999  0.36475589  0.87397254  1
