# generated using pymatgen
data_Na5Zn3GeP3(SO8)3
_symmetry_space_group_name_H-M   'P 1'
_cell_length_a   8.84341206
_cell_length_b   8.81514723
_cell_length_c   22.07561272
_cell_angle_alpha   90.63435805
_cell_angle_beta   89.46938510
_cell_angle_gamma   119.98804201
_symmetry_Int_Tables_number   1
_chemical_formula_structural   Na5Zn3GeP3(SO8)3
_chemical_formula_sum   'Na15 Zn9 Ge3 P9 S9 O72'
_cell_volume   1490.44003553
_cell_formula_units_Z   3
loop_
 _symmetry_equiv_pos_site_id
 _symmetry_equiv_pos_as_xyz
  1  'x, y, z'
loop_
 _atom_site_type_symbol
 _atom_site_label
 _atom_site_symmetry_multiplicity
 _atom_site_fract_x
 _atom_site_fract_y
 _atom_site_fract_z
 _atom_site_occupancy
  Na  Na0  1  0.00112200  0.63503184  0.25479442  1
  Na  Na1  1  0.29769917  0.33903854  0.58742676  1
  Na  Na2  1  0.03323444  0.69795636  0.58251476  1
  Na  Na3  1  0.66891012  0.96004873  0.58083550  1
  Na  Na4  1  0.66715140  0.70170362  0.08175089  1
  Na  Na5  1  0.03669821  0.33742928  0.08489047  1
  Na  Na6  1  0.97710523  0.67898501  0.91239829  1
  Na  Na7  1  0.32590401  0.29590526  0.90954503  1
  Na  Na8  1  0.69750193  0.67613716  0.41712809  1
  Na  Na9  1  0.00059387  0.00528361  0.49564556  1
  Na  Na10  1  0.00019337  0.99572226  0.99573980  1
  Na  Na11  1  0.66037176  0.32273670  0.82511322  1
  Na  Na12  1  0.65541985  0.30653876  0.33407055  1
  Na  Na13  1  0.33700658  0.67817582  0.17077285  1
  Na  Na14  1  0.33156072  0.65595937  0.66872244  1
  Zn  Zn15  1  0.00033373  0.00456088  0.35306472  1
  Zn  Zn16  1  0.00022361  0.00805894  0.84636835  1
  Zn  Zn17  1  0.99866423  0.01159434  0.65574355  1
  Zn  Zn18  1  0.00529103  0.99185857  0.15443771  1
  Zn  Zn19  1  0.66523306  0.34310766  0.68584426  1
  Zn  Zn20  1  0.66584525  0.33077503  0.18555015  1
  Zn  Zn21  1  0.32763223  0.67186124  0.01215696  1
  Zn  Zn22  1  0.33135363  0.66742566  0.51005097  1
  Zn  Zn23  1  0.33622166  0.67804044  0.32542525  1
  Ge  Ge24  1  0.67154778  0.33521988  0.97741881  1
  Ge  Ge25  1  0.68904518  0.33748607  0.48145656  1
  Ge  Ge26  1  0.33587817  0.66209377  0.81781847  1
  P  P27  1  0.30066750  0.30495450  0.75278030  1
  P  P28  1  0.95728622  0.33416158  0.58462051  1
  P  P29  1  0.66540687  0.62121521  0.58197034  1
  P  P30  1  0.95746243  0.62360233  0.08306639  1
  P  P31  1  0.62546652  0.66671611  0.91987526  1
  P  P32  1  0.03797270  0.37298476  0.91872276  1
  P  P33  1  0.34156373  0.96114563  0.91723084  1
  P  P34  1  0.63101239  0.97227351  0.41963326  1
  P  P35  1  0.03282353  0.66385146  0.41778756  1
  S  S36  1  0.29799596  0.00214124  0.25019468  1
  S  S37  1  0.69722725  0.70236577  0.24940462  1
  S  S38  1  0.00251851  0.29508307  0.24862726  1
  S  S39  1  0.00897894  0.70388917  0.75265673  1
  S  S40  1  0.69345289  0.99195039  0.75206259  1
  S  S41  1  0.38007774  0.04656386  0.58269154  1
  S  S42  1  0.66334263  0.04421061  0.08196847  1
  S  S43  1  0.37612574  0.32948126  0.08201829  1
  S  S44  1  0.33767377  0.36691861  0.41845354  1
  O  O45  1  0.21206811  0.02385769  0.30408739  1
  O  O46  1  0.81086285  0.78778183  0.30254164  1
  O  O47  1  0.98212191  0.18626419  0.30089962  1
  O  O48  1  0.21541111  0.19875670  0.80978721  1
  O  O49  1  0.98638294  0.78733702  0.80781790  1
  O  O50  1  0.80051577  0.01346292  0.80504852  1
  O  O51  1  0.76315410  0.95884260  0.69468604  1
  O  O52  1  0.19286675  0.22988933  0.69425691  1
  O  O53  1  0.03426316  0.80667259  0.69682314  1
  O  O54  1  0.77613610  0.80332687  0.19220607  1
  O  O55  1  0.02025944  0.21641361  0.18992947  1
  O  O56  1  0.19168139  0.97055868  0.19413066  1
  O  O57  1  0.87151405  0.36511819  0.63918270  1
  O  O58  1  0.48550221  0.12259789  0.63701031  1
  O  O59  1  0.62733582  0.50341061  0.63584047  1
  O  O60  1  0.87277586  0.51038143  0.13880434  1
  O  O61  1  0.63969770  0.12435087  0.13652107  1
  O  O62  1  0.48579128  0.35513163  0.13450498  1
  O  O63  1  0.45611065  0.30313704  0.02370166  1
  O  O64  1  0.83272632  0.53222471  0.02433645  1
  O  O65  1  0.69500895  0.15890972  0.02621557  1
  O  O66  1  0.46263572  0.16040330  0.52762797  1
  O  O67  1  0.69809104  0.53389515  0.52250597  1
  O  O68  1  0.83732317  0.29486120  0.52642327  1
  O  O69  1  0.54998957  0.68942411  0.97906173  1
  O  O70  1  0.14291313  0.44449766  0.97688358  1
  O  O71  1  0.30374350  0.85279064  0.97363045  1
  O  O72  1  0.55560240  0.86078307  0.47696966  1
  O  O73  1  0.31257450  0.44252466  0.47536093  1
  O  O74  1  0.13560810  0.68692517  0.47551102  1
  O  O75  1  0.10643229  0.62908350  0.35952504  1
  O  O76  1  0.51950437  0.89263613  0.36337689  1
  O  O77  1  0.37233852  0.48256643  0.36578572  1
  O  O78  1  0.12657311  0.50505358  0.86483768  1
  O  O79  1  0.37459584  0.87324583  0.86033308  1
  O  O80  1  0.49657669  0.62341187  0.86536380  1
  O  O81  1  0.00053288  0.81956012  0.41247106  1
  O  O82  1  0.81453633  0.99394067  0.41267891  1
  O  O83  1  0.18581549  0.19091143  0.41139693  1
  O  O84  1  0.01423297  0.19173237  0.90937740  1
  O  O85  1  0.18469817  0.98909521  0.90913704  1
  O  O86  1  0.81085463  0.81619381  0.91007142  1
  O  O87  1  0.97410411  0.16698562  0.58662189  1
  O  O88  1  0.20254963  0.02813419  0.58642665  1
  O  O89  1  0.83552925  0.80245958  0.58564095  1
  O  O90  1  0.96497324  0.80289400  0.08495481  1
  O  O91  1  0.82653713  0.03199080  0.08364988  1
  O  O92  1  0.19755643  0.17553578  0.08478797  1
  O  O93  1  0.67092026  0.14510504  0.74681977  1
  O  O94  1  0.48399670  0.32947694  0.74768122  1
  O  O95  1  0.85743566  0.52590515  0.74869495  1
  O  O96  1  0.68761708  0.52752711  0.24490791  1
  O  O97  1  0.84487089  0.31789460  0.24665452  1
  O  O98  1  0.47363541  0.15909686  0.24463616  1
  O  O99  1  0.63630089  0.48781586  0.92230064  1
  O  O100  1  0.85393817  0.36590951  0.92286953  1
  O  O101  1  0.51108544  0.15202956  0.92290074  1
  O  O102  1  0.64274783  0.15764730  0.42675995  1
  O  O103  1  0.50370035  0.35583395  0.42315817  1
  O  O104  1  0.84038311  0.49307391  0.42276213  1
  O  O105  1  0.36183545  0.49106861  0.07809820  1
  O  O106  1  0.13628208  0.63671269  0.07632108  1
  O  O107  1  0.51245780  0.86580664  0.07627750  1
  O  O108  1  0.35744369  0.86799008  0.57601151  1
  O  O109  1  0.50546480  0.64581556  0.57485574  1
  O  O110  1  0.14016590  0.49679159  0.57691871  1
  O  O111  1  0.31123321  0.83964404  0.25426174  1
  O  O112  1  0.52200579  0.68127051  0.25539611  1
  O  O113  1  0.15910034  0.47390669  0.25248262  1
  O  O114  1  0.31302848  0.49425399  0.76028563  1
  O  O115  1  0.17606277  0.69292786  0.75810117  1
  O  O116  1  0.51351569  0.82565607  0.75831715  1
