# generated using pymatgen
data_Na14Zr4In4Si9(SO16)3
_symmetry_space_group_name_H-M   'P 1'
_cell_length_a   18.55456552
_cell_length_b   9.28747588
_cell_length_c   22.76713523
_cell_angle_alpha   90.07626785
_cell_angle_beta   90.13954622
_cell_angle_gamma   120.02098638
_symmetry_Int_Tables_number   1
_chemical_formula_structural   Na14Zr4In4Si9(SO16)3
_chemical_formula_sum   'Na42 Zr12 In12 Si27 S9 O144'
_cell_volume   3396.97582215
_cell_formula_units_Z   3
loop_
 _symmetry_equiv_pos_site_id
 _symmetry_equiv_pos_as_xyz
  1  'x, y, z'
loop_
 _atom_site_type_symbol
 _atom_site_label
 _atom_site_symmetry_multiplicity
 _atom_site_fract_x
 _atom_site_fract_y
 _atom_site_fract_z
 _atom_site_occupancy
  Na  Na0  1  0.82020355  0.00981823  0.25764246  1
  Na  Na1  1  0.17377667  0.35231645  0.25488209  1
  Na  Na2  1  0.69313952  0.37194730  0.25530924  1
  Na  Na3  1  0.99517052  0.62769877  0.24564417  1
  Na  Na4  1  0.50196437  0.64647964  0.25097040  1
  Na  Na5  1  0.31872080  0.62953660  0.75382393  1
  Na  Na6  1  0.99970795  0.35351553  0.74277064  1
  Na  Na7  1  0.49696358  0.36475390  0.74206580  1
  Na  Na8  1  0.19158763  0.01426405  0.75026284  1
  Na  Na9  1  0.67974891  0.00035912  0.74913158  1
  Na  Na10  1  0.14665293  0.32030396  0.58096282  1
  Na  Na11  1  0.65152549  0.32958013  0.58151674  1
  Na  Na12  1  0.33517269  0.98951459  0.58750266  1
  Na  Na13  1  0.83339317  0.97200288  0.58190130  1
  Na  Na14  1  0.14366338  0.96934442  0.07967010  1
  Na  Na15  1  0.65055325  0.97597705  0.07790683  1
  Na  Na16  1  0.33356188  0.68462075  0.08126118  1
  Na  Na17  1  0.83533264  0.68222584  0.08779572  1
  Na  Na18  1  0.48033734  0.67767424  0.91383881  1
  Na  Na19  1  0.98014460  0.67619209  0.92347984  1
  Na  Na20  1  0.34628817  0.02535726  0.90546173  1
  Na  Na21  1  0.84490202  0.02305843  0.90822148  1
  Na  Na22  1  0.17362617  0.29821229  0.90839853  1
  Na  Na23  1  0.66914593  0.29084733  0.90987090  1
  Na  Na24  1  0.48347375  0.28931437  0.42790113  1
  Na  Na25  1  0.97846774  0.28144333  0.41958091  1
  Na  Na26  1  0.16790153  0.04682393  0.41433024  1
  Na  Na27  1  0.67602313  0.05221620  0.41572121  1
  Na  Na28  1  0.34595203  0.66784127  0.41300834  1
  Na  Na29  1  0.84633679  0.66489252  0.41869071  1
  Na  Na30  1  0.99744830  0.99455960  0.50025072  1
  Na  Na31  1  0.50730743  0.01568193  0.50203807  1
  Na  Na32  1  0.00417656  0.99613933  0.00023120  1
  Na  Na33  1  0.50475180  0.99993358  0.99520970  1
  Na  Na34  1  0.32987973  0.33714071  0.82651941  1
  Na  Na35  1  0.82241049  0.33032988  0.83043620  1
  Na  Na36  1  0.32253228  0.31067627  0.33663554  1
  Na  Na37  1  0.82887244  0.32306897  0.33220994  1
  Na  Na38  1  0.15435428  0.64826756  0.16870247  1
  Na  Na39  1  0.66456724  0.65722181  0.16999092  1
  Na  Na40  1  0.16243693  0.66970229  0.66835935  1
  Na  Na41  1  0.66167305  0.66221039  0.66419140  1
  Zr  Zr42  1  0.99754477  0.00436990  0.64580242  1
  Zr  Zr43  1  0.50465319  0.00688686  0.65241995  1
  Zr  Zr44  1  0.00370460  0.00251455  0.15249034  1
  Zr  Zr45  1  0.50283517  0.99075765  0.14873206  1
  Zr  Zr46  1  0.82874848  0.32674857  0.68086511  1
  Zr  Zr47  1  0.33041562  0.34276557  0.18500195  1
  Zr  Zr48  1  0.16507746  0.66664700  0.01866570  1
  Zr  Zr49  1  0.66640863  0.66572323  0.01898318  1
  Zr  Zr50  1  0.16537956  0.66643999  0.51910357  1
  Zr  Zr51  1  0.67019849  0.66185656  0.52138888  1
  Zr  Zr52  1  0.17506745  0.67251173  0.31057629  1
  Zr  Zr53  1  0.67585321  0.67962710  0.80937755  1
  In  In54  1  0.99980623  0.01191101  0.34860862  1
  In  In55  1  0.50128360  0.00340804  0.35071646  1
  In  In56  1  0.00105344  0.99809918  0.84894164  1
  In  In57  1  0.49994522  0.98805767  0.84708709  1
  In  In58  1  0.33477997  0.32498521  0.68472952  1
  In  In59  1  0.83496380  0.34518880  0.18504584  1
  In  In60  1  0.32795762  0.33975346  0.98325821  1
  In  In61  1  0.82604933  0.34021967  0.98462934  1
  In  In62  1  0.32700992  0.31375724  0.48469485  1
  In  In63  1  0.82867440  0.32765539  0.48681945  1
  In  In64  1  0.67853435  0.68177220  0.31760703  1
  In  In65  1  0.17649505  0.67473064  0.81509862  1
  Si  Si66  1  0.14985398  0.00072085  0.25219499  1
  Si  Si67  1  0.64888734  0.99525980  0.25245679  1
  Si  Si68  1  0.35469147  0.70755082  0.25050965  1
  Si  Si69  1  0.85243915  0.70602038  0.25121386  1
  Si  Si70  1  0.99810767  0.29807116  0.25197728  1
  Si  Si71  1  0.14723378  0.29854954  0.75177891  1
  Si  Si72  1  0.65028684  0.29827898  0.75366017  1
  Si  Si73  1  0.49802691  0.69844618  0.75247901  1
  Si  Si74  1  0.35199249  0.99931174  0.75159925  1
  Si  Si75  1  0.85547585  0.01024692  0.75203699  1
  Si  Si76  1  0.48134136  0.33129974  0.58289048  1
  Si  Si77  1  0.98295960  0.34032012  0.58342150  1
  Si  Si78  1  0.18335888  0.03327247  0.58421104  1
  Si  Si79  1  0.68006390  0.02926630  0.58121197  1
  Si  Si80  1  0.83675055  0.62927951  0.57948799  1
  Si  Si81  1  0.48278582  0.62625914  0.08307848  1
  Si  Si82  1  0.98228827  0.63152087  0.08284322  1
  Si  Si83  1  0.18070868  0.33157178  0.08175177  1
  Si  Si84  1  0.68169451  0.33201983  0.08438478  1
  Si  Si85  1  0.31751318  0.66984417  0.91789521  1
  Si  Si86  1  0.81548153  0.66895090  0.91736956  1
  Si  Si87  1  0.16782174  0.96470322  0.91530871  1
  Si  Si88  1  0.66825580  0.96572967  0.91773248  1
  Si  Si89  1  0.31544030  0.96221340  0.41728559  1
  Si  Si90  1  0.81781418  0.97048324  0.41757765  1
  Si  Si91  1  0.16827907  0.37066575  0.41701148  1
  Si  Si92  1  0.66661123  0.36893173  0.41327386  1
  S  S93  1  0.49756746  0.29304714  0.24970789  1
  S  S94  1  0.99840167  0.70127363  0.75123439  1
  S  S95  1  0.33378919  0.63072695  0.58180978  1
  S  S96  1  0.33440475  0.04140608  0.08183391  1
  S  S97  1  0.83416349  0.03768148  0.08170727  1
  S  S98  1  0.01916780  0.37404525  0.91641506  1
  S  S99  1  0.52047719  0.37496815  0.91645630  1
  S  S100  1  0.02209663  0.66708332  0.41445729  1
  S  S101  1  0.51929994  0.66360871  0.41594677  1
  O  O102  1  0.11385006  0.04623978  0.31029819  1
  O  O103  1  0.60931428  0.03578718  0.30977838  1
  O  O104  1  0.41147905  0.78363987  0.30921513  1
  O  O105  1  0.90899021  0.78958836  0.30995153  1
  O  O106  1  0.48597555  0.20378612  0.30577650  1
  O  O107  1  0.98112062  0.19620107  0.31325888  1
  O  O108  1  0.11118452  0.18631129  0.81199603  1
  O  O109  1  0.61225234  0.18523091  0.81277609  1
  O  O110  1  0.47984856  0.76287059  0.81463105  1
  O  O111  1  0.98764933  0.76723551  0.80823730  1
  O  O112  1  0.40581575  0.02477702  0.81193989  1
  O  O113  1  0.90923595  0.03936842  0.81249397  1
  O  O114  1  0.39958724  0.97746852  0.69404009  1
  O  O115  1  0.90086175  0.98540527  0.69508936  1
  O  O116  1  0.08635477  0.19769812  0.69594079  1
  O  O117  1  0.59053721  0.20727129  0.69570498  1
  O  O118  1  0.00758657  0.81227423  0.70224460  1
  O  O119  1  0.51578593  0.83450437  0.70043295  1
  O  O120  1  0.39804168  0.81801890  0.19173695  1
  O  O121  1  0.89880448  0.82048353  0.19235631  1
  O  O122  1  0.01646113  0.19932593  0.19894672  1
  O  O123  1  0.50590704  0.19939567  0.19992374  1
  O  O124  1  0.09131297  0.97422611  0.19353132  1
  O  O125  1  0.58742149  0.97129728  0.19473679  1
  O  O126  1  0.44196228  0.35969550  0.64207163  1
  O  O127  1  0.93761604  0.35832135  0.64257461  1
  O  O128  1  0.24443601  0.11331425  0.64096887  1
  O  O129  1  0.74229922  0.12274459  0.63858911  1
  O  O130  1  0.32097102  0.52816041  0.63417573  1
  O  O131  1  0.82048694  0.49987019  0.63345832  1
  O  O132  1  0.43611355  0.51388542  0.14123682  1
  O  O133  1  0.94294098  0.52459266  0.14184214  1
  O  O134  1  0.32453723  0.12984849  0.13265744  1
  O  O135  1  0.82132974  0.11429456  0.13421377  1
  O  O136  1  0.24435194  0.36012227  0.13810133  1
  O  O137  1  0.74169584  0.36883263  0.14117388  1
  O  O138  1  0.21776194  0.28713258  0.02401621  1
  O  O139  1  0.71450998  0.27897972  0.02571925  1
  O  O140  1  0.42657945  0.54464175  0.02449122  1
  O  O141  1  0.92697032  0.54787099  0.02285792  1
  O  O142  1  0.34615142  0.13374639  0.02664624  1
  O  O143  1  0.84429928  0.13287995  0.02752698  1
  O  O144  1  0.21635569  0.14947808  0.52496983  1
  O  O145  1  0.71596415  0.14437244  0.52282667  1
  O  O146  1  0.34438730  0.55609847  0.52736053  1
  O  O147  1  0.85127261  0.56012299  0.51743479  1
  O  O148  1  0.42473915  0.29938716  0.52311576  1
  O  O149  1  0.92777440  0.30711604  0.52432532  1
  O  O150  1  0.26637322  0.68497922  0.97556575  1
  O  O151  1  0.76928579  0.68872558  0.97662721  1
  O  O152  1  0.07346288  0.46608758  0.96778861  1
  O  O153  1  0.57335652  0.46536113  0.96878405  1
  O  O154  1  0.15574231  0.84441238  0.97283286  1
  O  O155  1  0.65697877  0.84885361  0.97590441  1
  O  O156  1  0.26881041  0.84923012  0.47575223  1
  O  O157  1  0.76483727  0.84605498  0.47241899  1
  O  O158  1  0.15744882  0.46740369  0.47433451  1
  O  O159  1  0.65350685  0.46538854  0.46961178  1
  O  O160  1  0.07411418  0.68217653  0.46702771  1
  O  O161  1  0.57321196  0.67965994  0.46636836  1
  O  O162  1  0.06337689  0.65126292  0.36115079  1
  O  O163  1  0.55411622  0.64048935  0.36014418  1
  O  O164  1  0.25318276  0.86290420  0.36201624  1
  O  O165  1  0.76146548  0.90208849  0.35721779  1
  O  O166  1  0.17758446  0.48495266  0.35889630  1
  O  O167  1  0.67377867  0.47141940  0.35264626  1
  O  O168  1  0.05495608  0.47012409  0.86208200  1
  O  O169  1  0.55900780  0.47410299  0.86307354  1
  O  O170  1  0.17780905  0.87742841  0.85597256  1
  O  O171  1  0.67726071  0.86765065  0.86061196  1
  O  O172  1  0.25844302  0.62634889  0.85981028  1
  O  O173  1  0.75205930  0.64238430  0.86312862  1
  O  O174  1  0.01649329  0.82062200  0.41414994  1
  O  O175  1  0.51319744  0.81799704  0.41556391  1
  O  O176  1  0.40639143  0.97225692  0.41364364  1
  O  O177  1  0.90684307  0.97067100  0.41734248  1
  O  O178  1  0.08620377  0.18385288  0.41638082  1
  O  O179  1  0.58140517  0.18226418  0.41471105  1
  O  O180  1  0.01495718  0.20985867  0.91651999  1
  O  O181  1  0.51553161  0.21088434  0.91582272  1
  O  O182  1  0.08345127  0.98245063  0.91548230  1
  O  O183  1  0.58569077  0.98714276  0.91679782  1
  O  O184  1  0.40673020  0.84598541  0.91803157  1
  O  O185  1  0.90707455  0.83986637  0.91397485  1
  O  O186  1  0.48776729  0.15837658  0.58723145  1
  O  O187  1  0.99225080  0.17096150  0.58869292  1
  O  O188  1  0.09160538  0.01393231  0.59343106  1
  O  O189  1  0.58919464  0.01548490  0.58992383  1
  O  O190  1  0.40585075  0.80228105  0.58725403  1
  O  O191  1  0.91248551  0.81928102  0.58962076  1
  O  O192  1  0.48797601  0.81211975  0.08804785  1
  O  O193  1  0.98942362  0.81800186  0.08607708  1
  O  O194  1  0.40556928  0.01219049  0.08925997  1
  O  O195  1  0.90617255  0.00961660  0.08679898  1
  O  O196  1  0.08957283  0.16596500  0.08951980  1
  O  O197  1  0.58776712  0.16815161  0.09255484  1
  O  O198  1  0.34222250  0.16493714  0.75053642  1
  O  O199  1  0.84662566  0.17806937  0.74668318  1
  O  O200  1  0.24142654  0.32840527  0.74421669  1
  O  O201  1  0.74142736  0.31212869  0.74485862  1
  O  O202  1  0.41491694  0.51787497  0.74372736  1
  O  O203  1  0.92537364  0.53148066  0.74468065  1
  O  O204  1  0.34695307  0.52039049  0.24475681  1
  O  O205  1  0.84190485  0.52014635  0.24953703  1
  O  O206  1  0.42378539  0.31504225  0.24233004  1
  O  O207  1  0.91504176  0.31234025  0.24330250  1
  O  O208  1  0.24270227  0.16667274  0.24145181  1
  O  O209  1  0.74166274  0.15386075  0.24354545  1
  O  O210  1  0.33082454  0.50740574  0.91966134  1
  O  O211  1  0.82537137  0.50242400  0.91722835  1
  O  O212  1  0.43624122  0.35381042  0.92202367  1
  O  O213  1  0.93477611  0.35130230  0.92312559  1
  O  O214  1  0.25521921  0.14527079  0.92028211  1
  O  O215  1  0.75661612  0.14577478  0.92029370  1
  O  O216  1  0.32520105  0.14822246  0.41673736  1
  O  O217  1  0.83098862  0.15887098  0.42187097  1
  O  O218  1  0.25694200  0.36800980  0.41960665  1
  O  O219  1  0.75206357  0.35779279  0.41657255  1
  O  O220  1  0.43440268  0.51642604  0.42154954  1
  O  O221  1  0.93907449  0.51675843  0.41765531  1
  O  O222  1  0.18093423  0.50871698  0.07838255  1
  O  O223  1  0.67824920  0.50520076  0.07657784  1
  O  O224  1  0.07968906  0.66830603  0.07756616  1
  O  O225  1  0.57944620  0.66550915  0.08024052  1
  O  O226  1  0.25612351  0.87436892  0.07963179  1
  O  O227  1  0.75654678  0.86739280  0.07806471  1
  O  O228  1  0.17940287  0.85255085  0.57606700  1
  O  O229  1  0.67760200  0.85109568  0.57729610  1
  O  O230  1  0.25625607  0.64524829  0.57790937  1
  O  O231  1  0.75017434  0.64134294  0.57825194  1
  O  O232  1  0.07966527  0.49803296  0.58004912  1
  O  O233  1  0.57687185  0.48776028  0.57642713  1
  O  O234  1  0.15095982  0.82623310  0.25586622  1
  O  O235  1  0.64659915  0.81540554  0.25389699  1
  O  O236  1  0.25894829  0.67175091  0.25260971  1
  O  O237  1  0.75975489  0.69085059  0.24926168  1
  O  O238  1  0.08224428  0.48376707  0.25487934  1
  O  O239  1  0.57357433  0.46051327  0.25041031  1
  O  O240  1  0.14631349  0.47619771  0.75386795  1
  O  O241  1  0.65121590  0.47525671  0.75740668  1
  O  O242  1  0.07544651  0.68756120  0.75226082  1
  O  O243  1  0.58207844  0.68070479  0.75587058  1
  O  O244  1  0.25910198  0.82966975  0.74876814  1
  O  O245  1  0.75992552  0.84881457  0.75372488  1
