# generated using pymatgen
data_Na2Ta2Nb2Si5SO24
_symmetry_space_group_name_H-M   'P 1'
_cell_length_a   8.88990380
_cell_length_b   8.91644210
_cell_length_c   22.89857302
_cell_angle_alpha   90.00027554
_cell_angle_beta   90.07718300
_cell_angle_gamma   120.10839205
_symmetry_Int_Tables_number   1
_chemical_formula_structural   Na2Ta2Nb2Si5SO24
_chemical_formula_sum   'Na6 Ta6 Nb6 Si15 S3 O72'
_cell_volume   1570.18849556
_cell_formula_units_Z   3
loop_
 _symmetry_equiv_pos_site_id
 _symmetry_equiv_pos_as_xyz
  1  'x, y, z'
loop_
 _atom_site_type_symbol
 _atom_site_label
 _atom_site_symmetry_multiplicity
 _atom_site_fract_x
 _atom_site_fract_y
 _atom_site_fract_z
 _atom_site_occupancy
  Na  Na0  1  0.00136939  0.99637937  0.50198899  1
  Na  Na1  1  0.00542375  0.99579296  0.99644806  1
  Na  Na2  1  0.66147434  0.32451574  0.82902446  1
  Na  Na3  1  0.67153300  0.33441159  0.34151115  1
  Na  Na4  1  0.32966169  0.65530213  0.16858524  1
  Na  Na5  1  0.33734635  0.66529075  0.66240710  1
  Ta  Ta6  1  0.98531768  0.99703826  0.36013128  1
  Ta  Ta7  1  0.99571703  0.01058700  0.64122983  1
  Ta  Ta8  1  0.65767621  0.32332837  0.68568899  1
  Ta  Ta9  1  0.66749855  0.33555796  0.47868477  1
  Ta  Ta10  1  0.33299711  0.66527249  0.52302451  1
  Ta  Ta11  1  0.33987768  0.66678484  0.81100680  1
  Nb  Nb12  1  0.00656227  0.01505237  0.85659793  1
  Nb  Nb13  1  0.99870690  0.00382334  0.14454548  1
  Nb  Nb14  1  0.68027552  0.35677801  0.19051746  1
  Nb  Nb15  1  0.65948446  0.34336691  0.97363059  1
  Nb  Nb16  1  0.32560123  0.65633881  0.01970572  1
  Nb  Nb17  1  0.33233323  0.65483681  0.31546820  1
  Si  Si18  1  0.71099048  0.72162315  0.25102893  1
  Si  Si19  1  0.99975477  0.28690387  0.25068806  1
  Si  Si20  1  0.28975029  0.28925768  0.74895643  1
  Si  Si21  1  0.71328636  0.00291829  0.74945141  1
  Si  Si22  1  0.95224352  0.33952372  0.58331646  1
  Si  Si23  1  0.37661902  0.04317778  0.58175412  1
  Si  Si24  1  0.66692127  0.61849057  0.58398885  1
  Si  Si25  1  0.95795067  0.62478650  0.08196201  1
  Si  Si26  1  0.38109580  0.33470288  0.08392169  1
  Si  Si27  1  0.62230627  0.67546289  0.91633194  1
  Si  Si28  1  0.04358253  0.38289363  0.91466102  1
  Si  Si29  1  0.33168626  0.94802130  0.91625151  1
  Si  Si30  1  0.61106492  0.95347495  0.41758371  1
  Si  Si31  1  0.33412041  0.37576292  0.41913384  1
  Si  Si32  1  0.04769670  0.66687541  0.41717126  1
  S  S33  1  0.28745374  0.00073149  0.24937603  1
  S  S34  1  0.00005613  0.71356822  0.75009196  1
  S  S35  1  0.66541563  0.04752417  0.08383111  1
  O  O36  1  0.20925142  0.02770112  0.30178007  1
  O  O37  1  0.83476800  0.80739869  0.30722706  1
  O  O38  1  0.97826975  0.16575864  0.30644799  1
  O  O39  1  0.19681805  0.16895953  0.80732378  1
  O  O40  1  0.97790018  0.79413852  0.80341839  1
  O  O41  1  0.83311797  0.02070423  0.80711021  1
  O  O42  1  0.80525774  0.97194496  0.69279299  1
  O  O43  1  0.16683546  0.18718805  0.69323656  1
  O  O44  1  0.02471646  0.81773778  0.69720783  1
  O  O45  1  0.81362741  0.83374098  0.19278309  1
  O  O46  1  0.02543369  0.19244178  0.19235342  1
  O  O47  1  0.18098459  0.98012250  0.19562581  1
  O  O48  1  0.85983774  0.36057043  0.64188831  1
  O  O49  1  0.49734647  0.13540416  0.64064288  1
  O  O50  1  0.63964628  0.49778161  0.64161351  1
  O  O51  1  0.86505100  0.50453551  0.14110009  1
  O  O52  1  0.64687090  0.12960147  0.13724204  1
  O  O53  1  0.50118594  0.35113798  0.14083383  1
  O  O54  1  0.47101179  0.30492420  0.02634112  1
  O  O55  1  0.83346411  0.52319863  0.02651905  1
  O  O56  1  0.69180144  0.14934454  0.03090821  1
  O  O57  1  0.46812451  0.16683841  0.52535895  1
  O  O58  1  0.69642032  0.52876262  0.52629637  1
  O  O59  1  0.83257837  0.30555444  0.52574129  1
  O  O60  1  0.53105739  0.69737442  0.97507127  1
  O  O61  1  0.16416692  0.46884776  0.97394882  1
  O  O62  1  0.30526068  0.82946568  0.97468505  1
  O  O63  1  0.52567189  0.83171192  0.47408166  1
  O  O64  1  0.30025895  0.46668084  0.47456754  1
  O  O65  1  0.16836862  0.69648936  0.47399387  1
  O  O66  1  0.13995663  0.63871414  0.35846474  1
  O  O67  1  0.49911813  0.85927372  0.35796646  1
  O  O68  1  0.36253901  0.49580778  0.35948174  1
  O  O69  1  0.13527781  0.50161480  0.85814032  1
  O  O70  1  0.36022265  0.85747810  0.85906646  1
  O  O71  1  0.49956832  0.63951637  0.85899770  1
  O  O72  1  0.03126025  0.84069727  0.40663012  1
  O  O73  1  0.80564065  0.97123621  0.41026242  1
  O  O74  1  0.16332453  0.18574558  0.40708389  1
  O  O75  1  0.02905145  0.19247714  0.91065622  1
  O  O76  1  0.16115419  0.96932448  0.90887029  1
  O  O77  1  0.81599671  0.83846181  0.90916445  1
  O  O78  1  0.97057558  0.16422204  0.58988157  1
  O  O79  1  0.18553079  0.02260120  0.59264041  1
  O  O80  1  0.84061392  0.80928449  0.59308307  1
  O  O81  1  0.97378588  0.81431980  0.09089950  1
  O  O82  1  0.82546099  0.02844319  0.08907123  1
  O  O83  1  0.18666842  0.16395461  0.09148312  1
  O  O84  1  0.69913066  0.17826019  0.74467316  1
  O  O85  1  0.48497723  0.31568572  0.74435069  1
  O  O86  1  0.84419370  0.53766706  0.74543596  1
  O  O87  1  0.68939262  0.52495942  0.24376171  1
  O  O88  1  0.81990521  0.29566962  0.24134116  1
  O  O89  1  0.46341388  0.15654030  0.24195164  1
  O  O90  1  0.63542233  0.49738044  0.92197882  1
  O  O91  1  0.85115006  0.35617242  0.92523508  1
  O  O92  1  0.50441019  0.13984624  0.92594245  1
  O  O93  1  0.63796822  0.14599438  0.42237051  1
  O  O94  1  0.50682465  0.36010010  0.42273592  1
  O  O95  1  0.85572132  0.49648085  0.42278741  1
  O  O96  1  0.36601208  0.50920317  0.07853538  1
  O  O97  1  0.15158404  0.64771815  0.07825045  1
  O  O98  1  0.51180230  0.87081632  0.08013708  1
  O  O99  1  0.36088888  0.85440682  0.57658866  1
  O  O100  1  0.49593867  0.63904536  0.57687488  1
  O  O101  1  0.14490157  0.50714891  0.57776250  1
  O  O102  1  0.30220421  0.84351202  0.25234553  1
  O  O103  1  0.51923642  0.69989695  0.25372803  1
  O  O104  1  0.16620372  0.48244163  0.25469706  1
  O  O105  1  0.30109954  0.47793201  0.75655356  1
  O  O106  1  0.15832172  0.69548552  0.75554778  1
  O  O107  1  0.51759562  0.83224582  0.75673290  1
