# generated using pymatgen
data_Na3La4P3(SO8)3
_symmetry_space_group_name_H-M   'P 1'
_cell_length_a   9.55300105
_cell_length_b   9.55539121
_cell_length_c   25.19242290
_cell_angle_alpha   89.45350581
_cell_angle_beta   90.53266702
_cell_angle_gamma   120.17364382
_symmetry_Int_Tables_number   1
_chemical_formula_structural   Na3La4P3(SO8)3
_chemical_formula_sum   'Na9 La12 P9 S9 O72'
_cell_volume   1987.92800404
_cell_formula_units_Z   3
loop_
 _symmetry_equiv_pos_site_id
 _symmetry_equiv_pos_as_xyz
  1  'x, y, z'
loop_
 _atom_site_type_symbol
 _atom_site_label
 _atom_site_symmetry_multiplicity
 _atom_site_fract_x
 _atom_site_fract_y
 _atom_site_fract_z
 _atom_site_occupancy
  Na  Na0  1  0.35457197  0.35502479  0.25232005  1
  Na  Na1  1  0.68788917  0.02116398  0.91676596  1
  Na  Na2  1  0.97935456  0.31082735  0.41666097  1
  Na  Na3  1  0.00831266  0.99789430  0.49963166  1
  Na  Na4  1  0.00065932  0.99107795  0.00056943  1
  Na  Na5  1  0.65793317  0.33539554  0.83339182  1
  Na  Na6  1  0.66618122  0.33366369  0.33345038  1
  Na  Na7  1  0.33214610  0.68553112  0.16652942  1
  Na  Na8  1  0.33328642  0.66666765  0.66677569  1
  La  La9  1  0.00869161  0.99430864  0.34976192  1
  La  La10  1  0.00223975  0.99422070  0.84977664  1
  La  La11  1  0.99145139  0.00773737  0.64978991  1
  La  La12  1  0.99499738  0.00242004  0.14993655  1
  La  La13  1  0.67535255  0.32565078  0.68367630  1
  La  La14  1  0.67578194  0.31828295  0.18319631  1
  La  La15  1  0.66048629  0.33487301  0.98359868  1
  La  La16  1  0.66247078  0.33841940  0.48378256  1
  La  La17  1  0.34118760  0.67618210  0.01671916  1
  La  La18  1  0.32349229  0.65755180  0.51710055  1
  La  La19  1  0.32467636  0.67280658  0.31698971  1
  La  La20  1  0.34363027  0.67513188  0.81640664  1
  P  P21  1  0.29916020  0.00444988  0.24831546  1
  P  P22  1  0.00498057  0.29782770  0.25239075  1
  P  P23  1  0.70191571  -0.00000143  0.75193994  1
  P  P24  1  0.96445724  0.33307181  0.58129226  1
  P  P25  1  0.66813201  0.03293284  0.08077519  1
  P  P26  1  0.63231669  0.66970414  0.91680626  1
  P  P27  1  0.33642219  0.96575201  0.91651741  1
  P  P28  1  0.33086033  0.36927280  0.41455804  1
  P  P29  1  0.03173400  0.66227236  0.41757024  1
  S  S30  1  0.69583758  0.69536906  0.24991168  1
  S  S31  1  0.30027998  0.29955730  0.74957709  1
  S  S32  1  -0.00004803  0.70141469  0.74903934  1
  S  S33  1  0.36596405  0.03351709  0.58374967  1
  S  S34  1  0.66708802  0.63213560  0.58423899  1
  S  S35  1  0.96611020  0.63291106  0.08342357  1
  S  S36  1  0.36744893  0.33411754  0.08524462  1
  S  S37  1  0.03275235  0.36591145  0.91678165  1
  S  S38  1  0.63610788  0.96905016  0.41704869  1
  O  O39  1  0.21789852  0.02485337  0.29868182  1
  O  O40  1  0.79239022  0.77334519  0.29780875  1
  O  O41  1  0.98470773  0.19991461  0.30401129  1
  O  O42  1  0.22142574  0.20178704  0.79771782  1
  O  O43  1  0.98404547  0.77960557  0.79742308  1
  O  O44  1  0.79856442  0.01623908  0.80369700  1
  O  O45  1  0.79177590  0.98568916  0.70313318  1
  O  O46  1  0.20271276  0.21791748  0.70172369  1
  O  O47  1  0.01737642  0.80012586  0.70138230  1
  O  O48  1  0.77511013  0.79265066  0.20189286  1
  O  O49  1  0.02221545  0.20900224  0.20367017  1
  O  O50  1  0.19427900  0.98468925  0.19889725  1
  O  O51  1  0.87488104  0.34780358  0.63026044  1
  O  O52  1  0.46405049  0.11545206  0.63164230  1
  O  O53  1  0.64931537  0.53306511  0.63200835  1
  O  O54  1  0.88440151  0.53657357  0.13154157  1
  O  O55  1  0.65249404  0.12119379  0.12984355  1
  O  O56  1  0.46245109  0.35134226  0.13413681  1
  O  O57  1  0.45082218  0.31918279  0.03780403  1
  O  O58  1  0.86842861  0.55247207  0.03537254  1
  O  O59  1  0.68344076  0.13101237  0.02922961  1
  O  O60  1  0.44468685  0.13115825  0.53566683  1
  O  O61  1  0.68257604  0.55386577  0.53595939  1
  O  O62  1  0.86781839  0.31709210  0.52967195  1
  O  O63  1  0.54810911  0.69075726  0.96590449  1
  O  O64  1  0.12832997  0.44366453  0.96465358  1
  O  O65  1  0.31492143  0.86321511  0.96673555  1
  O  O66  1  0.55581123  0.87210431  0.46517113  1
  O  O67  1  0.31212927  0.45883994  0.46303321  1
  O  O68  1  0.13689158  0.68361356  0.46728207  1
  O  O69  1  0.11412048  0.64141658  0.36775681  1
  O  O70  1  0.54051611  0.89142233  0.36898935  1
  O  O71  1  0.35068260  0.46648008  0.36273102  1
  O  O72  1  0.11096968  0.46197609  0.86850618  1
  O  O73  1  0.35770614  0.88157070  0.86725622  1
  O  O74  1  0.52948819  0.64818021  0.86645974  1
  O  O75  1  0.00750348  0.80913594  0.41307743  1
  O  O76  1  0.80158666  0.99061281  0.41369940  1
  O  O77  1  0.16782423  0.20329563  0.41252055  1
  O  O78  1  0.01042507  0.19931312  0.91292177  1
  O  O79  1  0.18939588  0.99047106  0.91115480  1
  O  O80  1  0.79810578  0.83232168  0.91240971  1
  O  O81  1  0.98112826  0.17966677  0.58645286  1
  O  O82  1  0.20275502  0.01547464  0.58774614  1
  O  O83  1  0.81548909  0.79429479  0.58773751  1
  O  O84  1  0.98342378  0.79595977  0.08646268  1
  O  O85  1  0.82153917  0.01730441  0.08574189  1
  O  O86  1  0.20524961  0.18559539  0.08727249  1
  O  O87  1  0.68553346  0.15370542  0.74688687  1
  O  O88  1  0.46382309  0.31774030  0.74564657  1
  O  O89  1  0.85118665  0.53902615  0.74561045  1
  O  O90  1  0.67402415  0.52948240  0.24571565  1
  O  O91  1  0.85754620  0.32242116  0.24671121  1
  O  O92  1  0.46432865  0.16806009  0.24449015  1
  O  O93  1  0.65674178  0.52239222  0.92204040  1
  O  O94  1  0.86604949  0.34367017  0.92028637  1
  O  O95  1  0.49912030  0.13166591  0.92073068  1
  O  O96  1  0.65715154  0.13502144  0.42058215  1
  O  O97  1  0.47800711  0.34497493  0.42110027  1
  O  O98  1  0.86686842  0.49937569  0.42171070  1
  O  O99  1  0.34951079  0.47876236  0.08024927  1
  O  O100  1  0.12750319  0.64654059  0.08030821  1
  O  O101  1  0.51350156  0.86265862  0.07940947  1
  O  O102  1  0.35315161  0.87240991  0.58030827  1
  O  O103  1  0.52208363  0.65069794  0.58031099  1
  O  O104  1  0.13579344  0.48673359  0.57994703  1
  O  O105  1  0.32455295  0.85796486  0.25300869  1
  O  O106  1  0.53085807  0.67525309  0.25342928  1
  O  O107  1  0.16739675  0.46361647  0.25457659  1
  O  O108  1  0.31341523  0.46073453  0.75301495  1
  O  O109  1  0.14461431  0.68257212  0.75306886  1
  O  O110  1  0.53092099  0.84633646  0.75332658  1
