# generated using pymatgen
data_Na6HfMg3P4(SO12)2
_symmetry_space_group_name_H-M   'P 1'
_cell_length_a   8.96976961
_cell_length_b   8.94984135
_cell_length_c   22.29628306
_cell_angle_alpha   89.97595982
_cell_angle_beta   89.96380539
_cell_angle_gamma   120.07388073
_symmetry_Int_Tables_number   1
_chemical_formula_structural   Na6HfMg3P4(SO12)2
_chemical_formula_sum   'Na18 Hf3 Mg9 P12 S6 O72'
_cell_volume   1548.94387256
_cell_formula_units_Z   3
loop_
 _symmetry_equiv_pos_site_id
 _symmetry_equiv_pos_as_xyz
  1  'x, y, z'
loop_
 _atom_site_type_symbol
 _atom_site_label
 _atom_site_symmetry_multiplicity
 _atom_site_fract_x
 _atom_site_fract_y
 _atom_site_fract_z
 _atom_site_occupancy
  Na  Na0  1  0.36431265  0.36524252  0.25274793  1
  Na  Na1  1  0.63871987  0.63549528  0.74526230  1
  Na  Na2  1  0.99496293  0.34775024  0.74839704  1
  Na  Na3  1  0.29781677  0.34116396  0.58438961  1
  Na  Na4  1  0.02752171  0.69249145  0.57985770  1
  Na  Na5  1  0.67336812  0.96274131  0.58193759  1
  Na  Na6  1  0.29121474  0.96335895  0.08040197  1
  Na  Na7  1  0.66404160  0.69197882  0.08242099  1
  Na  Na8  1  0.04298774  0.34251649  0.08315227  1
  Na  Na9  1  0.32250579  0.29614863  0.91174053  1
  Na  Na10  1  0.97932051  0.30460163  0.41219466  1
  Na  Na11  1  0.69557584  0.67682759  0.41243456  1
  Na  Na12  1  0.00457398  0.99989218  0.49377254  1
  Na  Na13  1  0.99463007  0.98778333  0.99206374  1
  Na  Na14  1  0.65557095  0.30851254  0.82906997  1
  Na  Na15  1  0.66556449  0.31866890  0.32881340  1
  Na  Na16  1  0.32461151  0.67037090  0.17059214  1
  Na  Na17  1  0.33890483  0.66831651  0.66434518  1
  Hf  Hf18  1  0.67102949  0.34060442  0.97830325  1
  Hf  Hf19  1  0.66740886  0.33355085  0.47914692  1
  Hf  Hf20  1  0.33677699  0.67384402  0.81763796  1
  Mg  Mg21  1  0.00534049  0.99771474  0.35183109  1
  Mg  Mg22  1  0.99686195  0.00289883  0.85199055  1
  Mg  Mg23  1  0.99431556  0.00551926  0.65202309  1
  Mg  Mg24  1  0.00409443  0.99617263  0.15143577  1
  Mg  Mg25  1  0.66054095  0.32750268  0.68528851  1
  Mg  Mg26  1  0.67318742  0.34039249  0.18440624  1
  Mg  Mg27  1  0.32968338  0.66479787  0.01445767  1
  Mg  Mg28  1  0.33253285  0.66391386  0.51184536  1
  Mg  Mg29  1  0.33281784  0.67541969  0.32016298  1
  P  P30  1  0.29686480  0.29283957  0.75061922  1
  P  P31  1  0.70702561  0.00244376  0.74886902  1
  P  P32  1  0.96408399  0.33564667  0.58592295  1
  P  P33  1  0.66728330  0.62996374  0.58590576  1
  P  P34  1  0.96302402  0.62802611  0.08589428  1
  P  P35  1  0.37121825  0.33408716  0.08604898  1
  P  P36  1  0.63291604  0.67538780  0.91934279  1
  P  P37  1  0.03826540  0.36894736  0.91824666  1
  P  P38  1  0.32808280  0.96061744  0.92080906  1
  P  P39  1  0.62762071  0.95804070  0.41718353  1
  P  P40  1  0.32976170  0.37037976  0.41547979  1
  P  P41  1  0.04468062  0.67299745  0.41807785  1
  S  S42  1  0.29649364  0.99881941  0.24882772  1
  S  S43  1  0.70301619  0.70466871  0.24972092  1
  S  S44  1  0.99824306  0.29415170  0.24961496  1
  S  S45  1  0.00145380  0.70976567  0.74900622  1
  S  S46  1  0.37208424  0.03794996  0.58510677  1
  S  S47  1  0.66636357  0.04116557  0.08550443  1
  O  O48  1  0.20835142  0.02592593  0.30017278  1
  O  O49  1  0.80556685  0.78982175  0.30373005  1
  O  O50  1  0.98075310  0.19095626  0.30393178  1
  O  O51  1  0.21158090  0.19001939  0.80716005  1
  O  O52  1  0.97989087  0.79457862  0.80136614  1
  O  O53  1  0.82247669  0.02593182  0.80199921  1
  O  O54  1  0.77376350  0.96097721  0.69059584  1
  O  O55  1  0.18740300  0.21603517  0.69331587  1
  O  O56  1  0.02659870  0.80739415  0.69283197  1
  O  O57  1  0.78670223  0.80548115  0.19446627  1
  O  O58  1  0.02127644  0.20976378  0.19498073  1
  O  O59  1  0.19892686  0.97885549  0.19221881  1
  O  O60  1  0.87661258  0.35996023  0.64108693  1
  O  O61  1  0.48040303  0.12015657  0.63745999  1
  O  O62  1  0.63960681  0.51597702  0.64089132  1
  O  O63  1  0.87736145  0.50830545  0.13890886  1
  O  O64  1  0.63900923  0.12304680  0.13789030  1
  O  O65  1  0.48351185  0.35899616  0.14105363  1
  O  O66  1  0.46119832  0.30606827  0.02930603  1
  O  O67  1  0.84593136  0.53752032  0.02911810  1
  O  O68  1  0.69427341  0.15068093  0.03083552  1
  O  O69  1  0.45413057  0.14721657  0.53061967  1
  O  O70  1  0.68708901  0.53596168  0.52906919  1
  O  O71  1  0.84631348  0.30932388  0.52958870  1
  O  O72  1  0.54655198  0.69088689  0.97599134  1
  O  O73  1  0.14704922  0.45478367  0.97390786  1
  O  O74  1  0.31278115  0.86144591  0.97802846  1
  O  O75  1  0.55204074  0.85617800  0.47583711  1
  O  O76  1  0.30403825  0.45086370  0.47284530  1
  O  O77  1  0.13991623  0.69334162  0.47727640  1
  O  O78  1  0.12245456  0.62978751  0.36483422  1
  O  O79  1  0.51606659  0.87545111  0.36274150  1
  O  O80  1  0.36887128  0.48524651  0.35960884  1
  O  O81  1  0.12494924  0.48314142  0.86101495  1
  O  O82  1  0.35487517  0.86991266  0.86535383  1
  O  O83  1  0.51212622  0.64088248  0.86314262  1
  O  O84  1  0.00665885  0.82107896  0.41024387  1
  O  O85  1  0.81249301  0.98524713  0.41086202  1
  O  O86  1  0.16999095  0.19086146  0.40869055  1
  O  O87  1  0.02318815  0.19256337  0.91105106  1
  O  O88  1  0.17542184  0.98905745  0.91217759  1
  O  O89  1  0.81175003  0.82561027  0.90990052  1
  O  O90  1  0.98179333  0.17186971  0.58748653  1
  O  O91  1  0.19868694  0.02100337  0.58930516  1
  O  O92  1  0.83586137  0.80755616  0.58778600  1
  O  O93  1  0.97302550  0.80636575  0.08949700  1
  O  O94  1  0.82323047  0.02444713  0.09006630  1
  O  O95  1  0.18911620  0.17096889  0.08907566  1
  O  O96  1  0.68971533  0.16485361  0.74334998  1
  O  O97  1  0.48409565  0.33018128  0.74554753  1
  O  O98  1  0.84704797  0.53255588  0.74522680  1
  O  O99  1  0.68122318  0.52701253  0.24655225  1
  O  O100  1  0.84400079  0.31271348  0.24474462  1
  O  O101  1  0.47001203  0.16025122  0.24475316  1
  O  O102  1  0.63527572  0.49877029  0.92170933  1
  O  O103  1  0.85673930  0.35225823  0.92225681  1
  O  O104  1  0.49564034  0.14568573  0.92243760  1
  O  O105  1  0.65542033  0.14745640  0.42336628  1
  O  O106  1  0.49702243  0.35435192  0.42369110  1
  O  O107  1  0.85514978  0.50226366  0.42372044  1
  O  O108  1  0.35558134  0.49795911  0.07885033  1
  O  O109  1  0.14539869  0.65246280  0.07835202  1
  O  O110  1  0.51264951  0.86708356  0.07864327  1
  O  O111  1  0.35398595  0.86470788  0.57825088  1
  O  O112  1  0.50716380  0.65169673  0.57923560  1
  O  O113  1  0.14365932  0.49927641  0.57876005  1
  O  O114  1  0.31499588  0.84479966  0.25514491  1
  O  O115  1  0.52609834  0.68189125  0.25284367  1
  O  O116  1  0.15948641  0.46703794  0.25335444  1
  O  O117  1  0.31172007  0.48065567  0.75571415  1
  O  O118  1  0.15519042  0.68349898  0.75474162  1
  O  O119  1  0.52178343  0.83567793  0.75712533  1
