# generated using pymatgen
data_Na4Sc3TaSi3(SO8)3
_symmetry_space_group_name_H-M   'P 1'
_cell_length_a   9.01300464
_cell_length_b   9.01619071
_cell_length_c   23.02407858
_cell_angle_alpha   89.92793964
_cell_angle_beta   90.14559558
_cell_angle_gamma   119.91178642
_symmetry_Int_Tables_number   1
_chemical_formula_structural   Na4Sc3TaSi3(SO8)3
_chemical_formula_sum   'Na12 Sc9 Ta3 Si9 S9 O72'
_cell_volume   1621.77100096
_cell_formula_units_Z   3
loop_
 _symmetry_equiv_pos_site_id
 _symmetry_equiv_pos_as_xyz
  1  'x, y, z'
loop_
 _atom_site_type_symbol
 _atom_site_label
 _atom_site_symmetry_multiplicity
 _atom_site_fract_x
 _atom_site_fract_y
 _atom_site_fract_z
 _atom_site_occupancy
  Na  Na0  1  0.64131850  0.00098737  0.25179772  1
  Na  Na1  1  0.35956210  0.35830260  0.25152642  1
  Na  Na2  1  0.99907756  0.63942549  0.25201518  1
  Na  Na3  1  0.30374715  0.34001581  0.58676472  1
  Na  Na4  1  0.66498459  0.96571627  0.58661018  1
  Na  Na5  1  0.29270326  0.95962176  0.08276987  1
  Na  Na6  1  0.00079193  0.98960730  0.50242720  1
  Na  Na7  1  0.98851186  0.00064013  0.98962933  1
  Na  Na8  1  0.66642945  0.33329394  0.82748332  1
  Na  Na9  1  0.66725887  0.33334012  0.33025118  1
  Na  Na10  1  0.33360190  0.65515891  0.17156604  1
  Na  Na11  1  0.31969218  0.66755000  0.66255555  1
  Sc  Sc12  1  0.00053717  0.00006068  0.34639622  1
  Sc  Sc13  1  0.00106190  0.99973053  0.85733585  1
  Sc  Sc14  1  0.00156024  0.99296757  0.64225833  1
  Sc  Sc15  1  0.99400087  0.00110743  0.15348208  1
  Sc  Sc16  1  0.66868090  0.33507173  0.68145651  1
  Sc  Sc17  1  0.66870502  0.33582139  0.18931757  1
  Sc  Sc18  1  0.33421734  0.66171000  0.01344512  1
  Sc  Sc19  1  0.32708653  0.66679128  0.52220752  1
  Sc  Sc20  1  0.33317766  0.66745614  0.31258560  1
  Ta  Ta21  1  0.66899237  0.33484870  0.97183259  1
  Ta  Ta22  1  0.66865923  0.33498146  0.48549628  1
  Ta  Ta23  1  0.33348813  0.66705532  0.81991076  1
  Si  Si24  1  0.29023573  0.99926816  0.24763261  1
  Si  Si25  1  0.70859087  0.70976043  0.25058099  1
  Si  Si26  1  0.00117493  0.29106126  0.25041537  1
  Si  Si27  1  0.95960857  0.33540889  0.58559182  1
  Si  Si28  1  0.37668335  0.04246566  0.58454666  1
  Si  Si29  1  0.66756143  0.62472838  0.58407244  1
  Si  Si30  1  0.62572608  0.67147870  0.91821636  1
  Si  Si31  1  0.04599141  0.37460003  0.91786890  1
  Si  Si32  1  0.32928210  0.95400936  0.92056922  1
  S  S33  1  0.29358125  0.29885340  0.75064323  1
  S  S34  1  0.00474528  0.70739274  0.75143935  1
  S  S35  1  0.70119403  0.99487668  0.75069615  1
  S  S36  1  0.95561961  0.62268705  0.08196593  1
  S  S37  1  0.66808037  0.04608867  0.08205025  1
  S  S38  1  0.37902353  0.33405596  0.08199972  1
  S  S39  1  0.63031256  0.96689639  0.41800496  1
  S  S40  1  0.33692724  0.36990118  0.41785204  1
  S  S41  1  0.03317490  0.66292012  0.41698008  1
  O  O42  1  0.20642612  0.04386420  0.30249380  1
  O  O43  1  0.83423151  0.78855087  0.30632238  1
  O  O44  1  0.95373193  0.16528252  0.30614688  1
  O  O45  1  0.20333501  0.19186244  0.80103451  1
  O  O46  1  0.98809851  0.79378980  0.80281548  1
  O  O47  1  0.80806097  0.01059564  0.80108804  1
  O  O48  1  0.77466004  0.97142063  0.69607141  1
  O  O49  1  0.19650091  0.22457846  0.69594293  1
  O  O50  1  0.02781411  0.80884390  0.69799271  1
  O  O51  1  0.78737326  0.83447789  0.19400256  1
  O  O52  1  0.04719554  0.21271352  0.19373307  1
  O  O53  1  0.17510491  0.95738066  0.18788760  1
  O  O54  1  0.87295305  0.36771866  0.64105287  1
  O  O55  1  0.50093463  0.12591850  0.63967782  1
  O  O56  1  0.62174212  0.49765709  0.63858385  1
  O  O57  1  0.87467129  0.52711218  0.13590801  1
  O  O58  1  0.64830578  0.12732211  0.13535479  1
  O  O59  1  0.47488373  0.34906551  0.13614900  1
  O  O60  1  0.47666006  0.31859345  0.03136120  1
  O  O61  1  0.84776047  0.52553547  0.03070502  1
  O  O62  1  0.68031966  0.15500940  0.03062982  1
  O  O63  1  0.47578055  0.17095586  0.52639418  1
  O  O64  1  0.69446670  0.52660873  0.52574772  1
  O  O65  1  0.83186682  0.30568285  0.52713641  1
  O  O66  1  0.53978191  0.69672533  0.97489087  1
  O  O67  1  0.15631825  0.46153354  0.97468459  1
  O  O68  1  0.30659737  0.85233491  0.98016749  1
  O  O69  1  0.54205885  0.86405351  0.46985220  1
  O  O70  1  0.32237750  0.45772492  0.46980801  1
  O  O71  1  0.13986156  0.67711661  0.46779762  1
  O  O72  1  0.10889466  0.64001051  0.36295054  1
  O  O73  1  0.52819239  0.88790498  0.36453503  1
  O  O74  1  0.35848927  0.47158897  0.36451242  1
  O  O75  1  0.13778271  0.50284820  0.86033665  1
  O  O76  1  0.36440058  0.85814632  0.86368401  1
  O  O77  1  0.49662677  0.63374766  0.86060118  1
  O  O78  1  0.01340866  0.81557093  0.41479774  1
  O  O79  1  0.80275497  0.98683945  0.41495355  1
  O  O80  1  0.18513695  0.19693808  0.41459209  1
  O  O81  1  0.01078399  0.18551985  0.90677365  1
  O  O82  1  0.17487952  0.98786021  0.90772883  1
  O  O83  1  0.81426317  0.82549034  0.90684277  1
  O  O84  1  0.96680845  0.15791331  0.58926407  1
  O  O85  1  0.19621282  0.04116068  0.58789742  1
  O  O86  1  0.83379367  0.81447461  0.58835478  1
  O  O87  1  0.97199442  0.79523421  0.08180469  1
  O  O88  1  0.82349570  0.03085813  0.08319703  1
  O  O89  1  0.21081870  0.17234749  0.08223878  1
  O  O90  1  0.67870631  0.14715751  0.74825968  1
  O  O91  1  0.46824252  0.32094986  0.74821345  1
  O  O92  1  0.85308967  0.53336522  0.74770720  1
  O  O93  1  0.68350432  0.51833448  0.24167889  1
  O  O94  1  0.83524514  0.31705780  0.24131895  1
  O  O95  1  0.48282745  0.16547933  0.24072940  1
  O  O96  1  0.63607732  0.49131529  0.92706854  1
  O  O97  1  0.85550018  0.36454701  0.92639959  1
  O  O98  1  0.50986172  0.14540318  0.92749904  1
  O  O99  1  0.64508840  0.14254909  0.42270585  1
  O  O100  1  0.49784695  0.35506500  0.42242092  1
  O  O101  1  0.85833644  0.50272469  0.42275944  1
  O  O102  1  0.35922260  0.48660320  0.07798187  1
  O  O103  1  0.13039224  0.64340857  0.07923057  1
  O  O104  1  0.50872352  0.87596721  0.07855537  1
  O  O105  1  0.36345996  0.85940971  0.57327910  1
  O  O106  1  0.50050878  0.64520344  0.57201363  1
  O  O107  1  0.15166466  0.49210561  0.57472364  1
  O  O108  1  0.31265640  0.83141297  0.25839334  1
  O  O109  1  0.51717174  0.68538837  0.25945849  1
  O  O110  1  0.16828828  0.48203115  0.25951199  1
  O  O111  1  0.30933114  0.47512501  0.75699132  1
  O  O112  1  0.16566813  0.69143305  0.75705971  1
  O  O113  1  0.52401671  0.83516416  0.75729373  1
