# generated using pymatgen
data_Na7Mg2Ta2Si3(PO8)3
_symmetry_space_group_name_H-M   'P 1'
_cell_length_a   9.06071059
_cell_length_b   9.04331049
_cell_length_c   22.25531136
_cell_angle_alpha   90.22836858
_cell_angle_beta   89.90289756
_cell_angle_gamma   120.01527239
_symmetry_Int_Tables_number   1
_chemical_formula_structural   Na7Mg2Ta2Si3(PO8)3
_chemical_formula_sum   'Na21 Mg6 Ta6 Si9 P9 O72'
_cell_volume   1579.00561828
_cell_formula_units_Z   3
loop_
 _symmetry_equiv_pos_site_id
 _symmetry_equiv_pos_as_xyz
  1  'x, y, z'
loop_
 _atom_site_type_symbol
 _atom_site_label
 _atom_site_symmetry_multiplicity
 _atom_site_fract_x
 _atom_site_fract_y
 _atom_site_fract_z
 _atom_site_occupancy
  Na  Na0  1  0.61937286  0.98292138  0.26191154  1
  Na  Na1  1  0.35280913  0.37047162  0.25607973  1
  Na  Na2  1  0.02615605  0.64546126  0.25515475  1
  Na  Na3  1  0.64964714  0.62347890  0.74485932  1
  Na  Na4  1  0.98251020  0.35892920  0.73953848  1
  Na  Na5  1  0.37286299  0.01801391  0.74067504  1
  Na  Na6  1  0.00857294  0.67214882  0.58566785  1
  Na  Na7  1  0.66675130  0.99645630  0.58281678  1
  Na  Na8  1  0.27575750  0.94576954  0.08659086  1
  Na  Na9  1  0.66872328  0.71846946  0.07793495  1
  Na  Na10  1  0.05287366  0.33601965  0.08750698  1
  Na  Na11  1  0.97533682  0.68834611  0.90632367  1
  Na  Na12  1  0.32063162  0.29294845  0.90723185  1
  Na  Na13  1  0.95389912  0.30565594  0.42739837  1
  Na  Na14  1  0.35658741  0.04035901  0.42446939  1
  Na  Na15  1  0.99983511  0.00243793  0.50207952  1
  Na  Na16  1  0.98168806  0.99181818  0.99590174  1
  Na  Na17  1  0.66716780  0.32870325  0.82156559  1
  Na  Na18  1  0.66753532  0.34378937  0.34712762  1
  Na  Na19  1  0.32309002  0.66693799  0.17005179  1
  Na  Na20  1  0.32529430  0.65042752  0.66324329  1
  Mg  Mg21  1  0.99334652  0.99702131  0.85306211  1
  Mg  Mg22  1  0.00149768  0.99697523  0.14576692  1
  Mg  Mg23  1  0.66707711  0.33451350  0.68053364  1
  Mg  Mg24  1  0.66382815  0.33049539  0.48611228  1
  Mg  Mg25  1  0.33314943  0.66764977  0.02095646  1
  Mg  Mg26  1  0.33192570  0.66805056  0.31476553  1
  Ta  Ta27  1  0.99925358  0.00210684  0.35220869  1
  Ta  Ta28  1  0.00850132  0.00444723  0.64854803  1
  Ta  Ta29  1  0.67131099  0.33333974  0.19003435  1
  Ta  Ta30  1  0.67072004  0.33820622  0.97576652  1
  Ta  Ta31  1  0.33865613  0.66829444  0.51783435  1
  Ta  Ta32  1  0.33598591  0.66682104  0.81489971  1
  Si  Si33  1  0.29050935  0.99759485  0.24532387  1
  Si  Si34  1  0.00376823  0.29207016  0.24482436  1
  Si  Si35  1  0.29490057  0.29172935  0.75628551  1
  Si  Si36  1  0.99884559  0.70393714  0.75483333  1
  Si  Si37  1  0.96295896  0.33248752  0.58255835  1
  Si  Si38  1  0.37168628  0.04104273  0.58204911  1
  Si  Si39  1  0.96115759  0.62876393  0.08298708  1
  Si  Si40  1  0.62962271  0.67618803  0.92314874  1
  Si  Si41  1  0.62992872  0.96222029  0.41194378  1
  P  P42  1  0.71169275  0.71055364  0.24619680  1
  P  P43  1  0.70968605  0.99745259  0.75228119  1
  P  P44  1  0.66571349  0.62654289  0.58490183  1
  P  P45  1  0.66483856  0.04603134  0.08283080  1
  P  P46  1  0.38044399  0.33322100  0.08295414  1
  P  P47  1  0.04286998  0.37576202  0.92018601  1
  P  P48  1  0.33638036  0.95789407  0.92127720  1
  P  P49  1  0.33506768  0.37569921  0.41134804  1
  P  P50  1  0.03979228  0.66832329  0.41407608  1
  O  O51  1  0.19348063  0.02759269  0.30554399  1
  O  O52  1  0.83424050  0.80272587  0.30165215  1
  O  O53  1  0.96950478  0.16223601  0.30450953  1
  O  O54  1  0.20928461  0.18592671  0.81533903  1
  O  O55  1  0.97536945  0.79104703  0.81335963  1
  O  O56  1  0.82027047  0.02259647  0.80601828  1
  O  O57  1  0.78652193  0.96357133  0.69366884  1
  O  O58  1  0.16069955  0.19080869  0.69822861  1
  O  O59  1  0.02220726  0.82755006  0.69492030  1
  O  O60  1  0.78686564  0.81179888  0.18916316  1
  O  O61  1  0.02479319  0.20600263  0.18540587  1
  O  O62  1  0.17879376  0.96813026  0.18641092  1
  O  O63  1  0.89328110  0.38036598  0.64198930  1
  O  O64  1  0.48682915  0.11089538  0.64157548  1
  O  O65  1  0.63629871  0.53329198  0.64443167  1
  O  O66  1  0.85196355  0.50401544  0.14139499  1
  O  O67  1  0.65120540  0.14200184  0.14078325  1
  O  O68  1  0.49161511  0.34425601  0.13911076  1
  O  O69  1  0.47921868  0.32032714  0.02628634  1
  O  O70  1  0.83787418  0.51688252  0.02427506  1
  O  O71  1  0.67659903  0.16058957  0.02848960  1
  O  O72  1  0.44507589  0.14185541  0.52079702  1
  O  O73  1  0.70388420  0.54611482  0.53196602  1
  O  O74  1  0.84637585  0.29117113  0.52373417  1
  O  O75  1  0.53664313  0.68026872  0.98302942  1
  O  O76  1  0.14217298  0.45979624  0.97690640  1
  O  O77  1  0.31343921  0.85263878  0.97681343  1
  O  O78  1  0.52781307  0.84140532  0.47225284  1
  O  O79  1  0.30843685  0.47148495  0.46578491  1
  O  O80  1  0.16075663  0.69261286  0.46959310  1
  O  O81  1  0.11842541  0.64440374  0.35691749  1
  O  O82  1  0.51903622  0.86994658  0.35398302  1
  O  O83  1  0.34187287  0.46557035  0.35317681  1
  O  O84  1  0.13376555  0.49867682  0.86384828  1
  O  O85  1  0.35498613  0.86490129  0.86337057  1
  O  O86  1  0.49887146  0.64273247  0.86331186  1
  O  O87  1  0.03993138  0.84350346  0.41147301  1
  O  O88  1  0.82276326  0.97630407  0.41048375  1
  O  O89  1  0.16120137  0.19262734  0.41111709  1
  O  O90  1  0.02146571  0.19982064  0.91168443  1
  O  O91  1  0.18627206  0.98963003  0.91524788  1
  O  O92  1  0.82211954  0.82658286  0.91578350  1
  O  O93  1  0.97926855  0.15825346  0.59351006  1
  O  O94  1  0.16978589  0.99883476  0.59163951  1
  O  O95  1  0.82301069  0.81565976  0.59097288  1
  O  O96  1  0.96399285  0.80825449  0.08122023  1
  O  O97  1  0.82818493  0.03612315  0.08306006  1
  O  O98  1  0.20588707  0.17077303  0.08177382  1
  O  O99  1  0.67841235  0.14777960  0.74473898  1
  O  O100  1  0.48307009  0.32131941  0.74471921  1
  O  O101  1  0.84116295  0.51229746  0.74623926  1
  O  O102  1  0.70409338  0.53079300  0.24514955  1
  O  O103  1  0.82201596  0.30205697  0.24540544  1
  O  O104  1  0.47879298  0.18309011  0.24455953  1
  O  O105  1  0.63397962  0.48603409  0.92094737  1
  O  O106  1  0.86227542  0.36566457  0.92042032  1
  O  O107  1  0.50520260  0.13859351  0.92220997  1
  O  O108  1  0.65885633  0.15339787  0.41846648  1
  O  O109  1  0.48323825  0.34429751  0.41981889  1
  O  O110  1  0.86247855  0.51691110  0.42423340  1
  O  O111  1  0.36927713  0.49626706  0.08425421  1
  O  O112  1  0.14290664  0.63644780  0.08372379  1
  O  O113  1  0.50146282  0.87251791  0.08331407  1
  O  O114  1  0.33917357  0.83796661  0.57401096  1
  O  O115  1  0.50904319  0.65652918  0.57379565  1
  O  O116  1  0.15884026  0.49742878  0.57100152  1
  O  O117  1  0.32559047  0.84093430  0.25325630  1
  O  O118  1  0.53090439  0.67606206  0.25556131  1
  O  O119  1  0.16145488  0.48208899  0.25404382  1
  O  O120  1  0.30320542  0.48305776  0.75782785  1
  O  O121  1  0.18404485  0.70114052  0.75689477  1
  O  O122  1  0.52731111  0.82779869  0.75810816  1
