# generated using pymatgen
data_Na3CaHf3P5SO24
_symmetry_space_group_name_H-M   'P 1'
_cell_length_a   8.98924794
_cell_length_b   8.95546867
_cell_length_c   23.17523318
_cell_angle_alpha   89.98926358
_cell_angle_beta   90.08562345
_cell_angle_gamma   119.95595656
_symmetry_Int_Tables_number   1
_chemical_formula_structural   Na3CaHf3P5SO24
_chemical_formula_sum   'Na9 Ca3 Hf9 P15 S3 O72'
_cell_volume   1616.43565178
_cell_formula_units_Z   3
loop_
 _symmetry_equiv_pos_site_id
 _symmetry_equiv_pos_as_xyz
  1  'x, y, z'
loop_
 _atom_site_type_symbol
 _atom_site_label
 _atom_site_symmetry_multiplicity
 _atom_site_fract_x
 _atom_site_fract_y
 _atom_site_fract_z
 _atom_site_occupancy
  Na  Na0  1  0.99048504  0.36577427  0.74484389  1
  Na  Na1  1  0.31965535  0.97923216  0.08559153  1
  Na  Na2  1  0.32486314  0.03358471  0.40998838  1
  Na  Na3  1  0.98080183  0.99951332  0.49624593  1
  Na  Na4  1  0.98687332  0.00101145  0.99902703  1
  Na  Na5  1  0.65214376  0.33321889  0.82826125  1
  Na  Na6  1  0.66559731  0.33339067  0.32588270  1
  Na  Na7  1  0.33286704  0.65792414  0.16783703  1
  Na  Na8  1  0.34621146  0.66911049  0.66612912  1
  Ca  Ca9  1  0.99345790  0.00006399  0.35554195  1
  Ca  Ca10  1  0.66106804  0.33851722  0.68603083  1
  Ca  Ca11  1  0.66569161  0.33163437  0.18094360  1
  Hf  Hf12  1  0.00050565  0.99735568  0.85557262  1
  Hf  Hf13  1  0.99355717  0.99589718  0.64798869  1
  Hf  Hf14  1  0.00197606  0.99855379  0.14797629  1
  Hf  Hf15  1  0.67028524  0.33530865  0.98084009  1
  Hf  Hf16  1  0.68060202  0.34519230  0.48190179  1
  Hf  Hf17  1  0.33306477  0.66169319  0.01518762  1
  Hf  Hf18  1  0.33281377  0.65860000  0.51933803  1
  Hf  Hf19  1  0.33325635  0.67002029  0.31524052  1
  Hf  Hf20  1  0.33827105  0.67128543  0.81446953  1
  P  P21  1  0.29516605  0.99453501  0.25280080  1
  P  P22  1  0.28298582  0.28823177  0.75274091  1
  P  P23  1  0.00819011  0.71571112  0.75220178  1
  P  P24  1  0.70974559  0.99256309  0.75233794  1
  P  P25  1  0.96505030  0.33133470  0.58563617  1
  P  P26  1  0.66940998  0.63406589  0.58315851  1
  P  P27  1  0.96614409  0.63114731  0.08222206  1
  P  P28  1  0.66791559  0.03430460  0.08111036  1
  P  P29  1  0.36907980  0.33371371  0.08232457  1
  P  P30  1  0.62454715  0.66429469  0.91628998  1
  P  P31  1  0.03878806  0.37522800  0.91458406  1
  P  P32  1  0.33648573  0.96116515  0.91756313  1
  P  P33  1  0.61738911  0.95967026  0.41972118  1
  P  P34  1  0.34369643  0.38055118  0.41750082  1
  P  P35  1  0.04346132  0.65950487  0.41816482  1
  S  S36  1  0.70023691  0.70830565  0.25040293  1
  S  S37  1  0.00861752  0.30032715  0.25018270  1
  S  S38  1  0.36677898  0.03532536  0.58114802  1
  O  O39  1  0.21065741  0.00686205  0.30774308  1
  O  O40  1  0.79503542  0.78926371  0.30242696  1
  O  O41  1  0.98935813  0.20275027  0.30206515  1
  O  O42  1  0.18447710  0.18183863  0.80624527  1
  O  O43  1  0.99613799  0.81142926  0.80571258  1
  O  O44  1  0.82037589  0.00552123  0.80517763  1
  O  O45  1  0.79670128  0.97200691  0.69664966  1
  O  O46  1  0.17101720  0.20030171  0.69782740  1
  O  O47  1  0.02430821  0.82148543  0.69684881  1
  O  O48  1  0.79024878  0.81755137  0.19789405  1
  O  O49  1  0.02231717  0.20711411  0.19758835  1
  O  O50  1  0.17937794  0.97875536  0.19741562  1
  O  O51  1  0.90088326  0.36293620  0.64217154  1
  O  O52  1  0.47010561  0.10628207  0.63270142  1
  O  O53  1  0.63011631  0.52983783  0.63739057  1
  O  O54  1  0.90365107  0.52999280  0.13682702  1
  O  O55  1  0.61541407  0.09538989  0.13404216  1
  O  O56  1  0.46968196  0.37148482  0.13712835  1
  O  O57  1  0.46014831  0.29844680  0.03065657  1
  O  O58  1  0.84728632  0.54038998  0.02936693  1
  O  O59  1  0.69684930  0.15566543  0.02866701  1
  O  O60  1  0.45160338  0.14352882  0.52880592  1
  O  O61  1  0.69132303  0.53748615  0.53010262  1
  O  O62  1  0.84256093  0.30914974  0.53371776  1
  O  O63  1  0.53758914  0.69096056  0.96922357  1
  O  O64  1  0.15500578  0.46665374  0.96676900  1
  O  O65  1  0.31141340  0.85271595  0.97211787  1
  O  O66  1  0.51775968  0.85025028  0.47193812  1
  O  O67  1  0.32922078  0.47541943  0.47078216  1
  O  O68  1  0.15388688  0.67305010  0.47069194  1
  O  O69  1  0.13089832  0.63861302  0.36281492  1
  O  O70  1  0.50549650  0.87218612  0.36417508  1
  O  O71  1  0.36111868  0.48831821  0.36255170  1
  O  O72  1  0.12358218  0.48384435  0.85962320  1
  O  O73  1  0.35939679  0.86803333  0.86479532  1
  O  O74  1  0.51212858  0.63966999  0.86245288  1
  O  O75  1  0.03175156  0.82265082  0.41706175  1
  O  O76  1  0.79442694  0.98193743  0.41838455  1
  O  O77  1  0.18935203  0.19908574  0.41722431  1
  O  O78  1  0.01910229  0.19384861  0.91046046  1
  O  O79  1  0.17515012  0.97962922  0.91105036  1
  O  O80  1  0.80470053  0.82551922  0.91079170  1
  O  O81  1  0.98238731  0.16647718  0.58796643  1
  O  O82  1  0.19444249  0.02068776  0.58627002  1
  O  O83  1  0.83719384  0.81292430  0.58737456  1
  O  O84  1  0.98698906  0.81698134  0.08838209  1
  O  O85  1  0.83029192  0.01720345  0.08962371  1
  O  O86  1  0.18908152  0.16238285  0.08872729  1
  O  O87  1  0.69989387  0.15710673  0.75008818  1
  O  O88  1  0.45948175  0.30838784  0.75156187  1
  O  O89  1  0.85485775  0.53345476  0.75147212  1
  O  O90  1  0.67666973  0.53524778  0.24482698  1
  O  O91  1  0.86438053  0.33151810  0.24452520  1
  O  O92  1  0.47564261  0.14717543  0.24711685  1
  O  O93  1  0.64142904  0.50189041  0.92410956  1
  O  O94  1  0.86052864  0.35893098  0.92324983  1
  O  O95  1  0.49841907  0.14103048  0.92387379  1
  O  O96  1  0.62116024  0.13625840  0.42511261  1
  O  O97  1  0.50913766  0.36522570  0.42365758  1
  O  O98  1  0.86442341  0.49375304  0.42346893  1
  O  O99  1  0.33409914  0.48239730  0.06904531  1
  O  O100  1  0.15322991  0.66937241  0.06987254  1
  O  O101  1  0.51042547  0.85277908  0.06809464  1
  O  O102  1  0.33860177  0.85775864  0.57301130  1
  O  O103  1  0.51847531  0.66844025  0.57202750  1
  O  O104  1  0.14649335  0.48779018  0.57360804  1
  O  O105  1  0.30111402  0.82013846  0.25398976  1
  O  O106  1  0.52716551  0.69779268  0.25238334  1
  O  O107  1  0.17505886  0.47020140  0.25227757  1
  O  O108  1  0.28813543  0.46659075  0.75717955  1
  O  O109  1  0.17576491  0.70261357  0.75678300  1
  O  O110  1  0.53037319  0.82807036  0.75730934  1
