# generated using pymatgen
data_Na3Sc2Al2P3(SO8)3
_symmetry_space_group_name_H-M   'P 1'
_cell_length_a   8.64262765
_cell_length_b   8.63220671
_cell_length_c   22.29420292
_cell_angle_alpha   89.24692500
_cell_angle_beta   90.73070341
_cell_angle_gamma   120.08446849
_symmetry_Int_Tables_number   1
_chemical_formula_structural   Na3Sc2Al2P3(SO8)3
_chemical_formula_sum   'Na9 Sc6 Al6 P9 S9 O72'
_cell_volume   1439.03512338
_cell_formula_units_Z   3
loop_
 _symmetry_equiv_pos_site_id
 _symmetry_equiv_pos_as_xyz
  1  'x, y, z'
loop_
 _atom_site_type_symbol
 _atom_site_label
 _atom_site_symmetry_multiplicity
 _atom_site_fract_x
 _atom_site_fract_y
 _atom_site_fract_z
 _atom_site_occupancy
  Na  Na0  1  0.36168432  0.36161293  0.25167568  1
  Na  Na1  1  0.68798162  0.01831593  0.91807248  1
  Na  Na2  1  0.97697326  0.30875951  0.41632834  1
  Na  Na3  1  0.00720841  0.99305062  0.49689470  1
  Na  Na4  1  0.00575378  0.99103233  0.00358721  1
  Na  Na5  1  0.65898320  0.33908435  0.83484477  1
  Na  Na6  1  0.66630009  0.33283666  0.33266185  1
  Na  Na7  1  0.33204582  0.68715363  0.16850696  1
  Na  Na8  1  0.33231760  0.66632131  0.66600766  1
  Sc  Sc9  1  0.99989935  0.99459838  0.85383501  1
  Sc  Sc10  1  0.99139454  0.00656296  0.64380906  1
  Sc  Sc11  1  0.67337667  0.32848537  0.68564550  1
  Sc  Sc12  1  0.34294840  0.67830609  0.02394654  1
  Sc  Sc13  1  0.32040228  0.65954885  0.51488395  1
  Sc  Sc14  1  0.34804245  0.67665891  0.81809399  1
  Al  Al15  1  0.01749174  0.00611558  0.34774220  1
  Al  Al16  1  0.00079673  0.00749373  0.15093790  1
  Al  Al17  1  0.66896657  0.31342302  0.18729720  1
  Al  Al18  1  0.66316218  0.32918989  0.98559594  1
  Al  Al19  1  0.66806336  0.34441907  0.47803219  1
  Al  Al20  1  0.31138107  0.66069634  0.31520018  1
  P  P21  1  0.28680621  0.99513759  0.24818813  1
  P  P22  1  0.99743579  0.28679616  0.25092943  1
  P  P23  1  0.70316400  0.99799001  0.75127144  1
  P  P24  1  0.95095243  0.33406399  0.57741007  1
  P  P25  1  0.68270886  0.05466420  0.08590554  1
  P  P26  1  0.62806736  0.65189938  0.92139401  1
  P  P27  1  0.34106894  0.97305333  0.92076814  1
  P  P28  1  0.33733589  0.37224400  0.41198365  1
  P  P29  1  0.03343384  0.67197038  0.41291742  1
  S  S30  1  0.71478062  0.71589586  0.24936670  1
  S  S31  1  0.29470417  0.29676015  0.74929951  1
  S  S32  1  0.00181079  0.70619437  0.74909859  1
  S  S33  1  0.38122648  0.04795755  0.57893538  1
  S  S34  1  0.66634253  0.61997470  0.57977007  1
  S  S35  1  0.94128008  0.61733009  0.08736369  1
  S  S36  1  0.37935145  0.32267223  0.08763305  1
  S  S37  1  0.03429499  0.37683987  0.91994430  1
  S  S38  1  0.62511861  0.95659544  0.41293003  1
  O  O39  1  0.20805495  0.04060293  0.30262390  1
  O  O40  1  0.82668975  0.79899222  0.30296636  1
  O  O41  1  0.96783661  0.17181147  0.30806788  1
  O  O42  1  0.21198750  0.18870679  0.80348662  1
  O  O43  1  0.98477092  0.79218031  0.80325892  1
  O  O44  1  0.80701990  0.01726938  0.80987898  1
  O  O45  1  0.79926917  0.98125961  0.69614308  1
  O  O46  1  0.19097836  0.20930820  0.69467220  1
  O  O47  1  0.02378442  0.81268023  0.69459989  1
  O  O48  1  0.79633118  0.82524417  0.19475530  1
  O  O49  1  0.03858759  0.20211031  0.19724120  1
  O  O50  1  0.16613353  0.96357169  0.19277216  1
  O  O51  1  0.86638999  0.35307388  0.63482797  1
  O  O52  1  0.47767133  0.12667075  0.63526315  1
  O  O53  1  0.64286842  0.51943233  0.63562259  1
  O  O54  1  0.85324204  0.50802945  0.14123975  1
  O  O55  1  0.65108720  0.14349466  0.13943430  1
  O  O56  1  0.48978270  0.35099139  0.14243704  1
  O  O57  1  0.46386110  0.30155925  0.03353908  1
  O  O58  1  0.83592087  0.53464218  0.03197997  1
  O  O59  1  0.70409807  0.16255275  0.02724025  1
  O  O60  1  0.47236183  0.16048968  0.52585644  1
  O  O61  1  0.68189950  0.52833558  0.52675567  1
  O  O62  1  0.83886447  0.31740634  0.52073705  1
  O  O63  1  0.53875404  0.69206714  0.97344750  1
  O  O64  1  0.14552869  0.45819884  0.97294399  1
  O  O65  1  0.30610839  0.84988318  0.97522293  1
  O  O66  1  0.55242888  0.85332650  0.46849394  1
  O  O67  1  0.29277199  0.45117690  0.46651852  1
  O  O68  1  0.14846153  0.71111862  0.46999472  1
  O  O69  1  0.12256617  0.62666819  0.36116003  1
  O  O70  1  0.50748708  0.86769449  0.36066821  1
  O  O71  1  0.36762858  0.49340248  0.35596519  1
  O  O72  1  0.11211806  0.48024340  0.86466076  1
  O  O73  1  0.37804386  0.89121695  0.86486787  1
  O  O74  1  0.51675044  0.62019844  0.86325489  1
  O  O75  1  0.01020804  0.83411901  0.40050492  1
  O  O76  1  0.80794827  0.98268153  0.40580520  1
  O  O77  1  0.16639271  0.18541136  0.40374179  1
  O  O78  1  0.00777427  0.19269633  0.91508690  1
  O  O79  1  0.18059467  0.00013158  0.91359803  1
  O  O80  1  0.81223420  0.82483995  0.91466413  1
  O  O81  1  0.96777824  0.16355018  0.58022383  1
  O  O82  1  0.20088146  0.02741517  0.58175725  1
  O  O83  1  0.83354033  0.79597906  0.58225450  1
  O  O84  1  0.96131713  0.79816981  0.09200663  1
  O  O85  1  0.85145172  0.03672084  0.09438892  1
  O  O86  1  0.20033039  0.15808194  0.09279533  1
  O  O87  1  0.68298426  0.16514021  0.74771655  1
  O  O88  1  0.47544978  0.32055625  0.74568037  1
  O  O89  1  0.83640364  0.53003621  0.74650045  1
  O  O90  1  0.68940662  0.53128727  0.24372211  1
  O  O91  1  0.83309410  0.31067170  0.24189143  1
  O  O92  1  0.47524092  0.16797952  0.23983383  1
  O  O93  1  0.65011371  0.48918485  0.93246833  1
  O  O94  1  0.85333637  0.35587051  0.92614481  1
  O  O95  1  0.51463120  0.15452863  0.92972001  1
  O  O96  1  0.64623616  0.13984248  0.41847023  1
  O  O97  1  0.50264708  0.35194813  0.42358403  1
  O  O98  1  0.84938701  0.49771625  0.42199253  1
  O  O99  1  0.35575665  0.48049474  0.08229190  1
  O  O100  1  0.11997468  0.63264358  0.08335431  1
  O  O101  1  0.51372029  0.86530886  0.08233291  1
  O  O102  1  0.36785160  0.87115223  0.57531206  1
  O  O103  1  0.51119209  0.64608662  0.57440711  1
  O  O104  1  0.13984310  0.49994518  0.57600231  1
  O  O105  1  0.30907704  0.83019186  0.25988452  1
  O  O106  1  0.53265539  0.69373637  0.25520812  1
  O  O107  1  0.16996385  0.47511987  0.25882308  1
  O  O108  1  0.30472947  0.47172015  0.75313636  1
  O  O109  1  0.15786794  0.68153618  0.75439887  1
  O  O110  1  0.51675600  0.82882420  0.75232361  1
