# generated using pymatgen
data_K3MoCl6
_symmetry_space_group_name_H-M   'P 1'
_cell_length_a   7.59431044
_cell_length_b   12.07741936
_cell_length_c   12.73983170
_cell_angle_alpha   71.70017059
_cell_angle_beta   90.00000000
_cell_angle_gamma   90.00000000
_symmetry_Int_Tables_number   1
_chemical_formula_structural   K3MoCl6
_chemical_formula_sum   'K12 Mo4 Cl24'
_cell_volume   1109.39829178
_cell_formula_units_Z   4
loop_
 _symmetry_equiv_pos_site_id
 _symmetry_equiv_pos_as_xyz
  1  'x, y, z'
loop_
 _atom_site_type_symbol
 _atom_site_label
 _atom_site_symmetry_multiplicity
 _atom_site_fract_x
 _atom_site_fract_y
 _atom_site_fract_z
 _atom_site_occupancy
  K  K0  1  0.93048743  0.26565343  0.18274526  1
  K  K1  1  0.43048743  0.23434657  0.81725474  1
  K  K2  1  0.06951257  0.73434657  0.81725474  1
  K  K3  1  0.56951257  0.76565343  0.18274526  1
  K  K4  1  0.42907257  0.11354903  0.18109153  1
  K  K5  1  0.92907257  0.38645097  0.81890847  1
  K  K6  1  0.57092743  0.88645097  0.81890847  1
  K  K7  1  0.07092743  0.61354903  0.18109153  1
  K  K8  1  0.44512309  0.35444976  0.40540497  1
  K  K9  1  0.94512309  0.14555024  0.59459503  1
  K  K10  1  0.55487691  0.64555024  0.59459503  1
  K  K11  1  0.05487691  0.85444976  0.40540497  1
  Mo  Mo12  1  0.50000000  -0.00000000  0.50000000  1
  Mo  Mo13  1  -0.00000000  0.50000000  0.50000000  1
  Mo  Mo14  1  0.50000000  0.50000000  0.00000000  1
  Mo  Mo15  1  -0.00000000  -0.00000000  0.00000000  1
  Cl  Cl16  1  0.00370991  0.37656363  0.38038052  1
  Cl  Cl17  1  0.50370991  0.12343637  0.61961948  1
  Cl  Cl18  1  -0.00370991  0.62343637  0.61961948  1
  Cl  Cl19  1  0.49629009  0.87656363  0.38038052  1
  Cl  Cl20  1  0.70248877  0.50591762  0.14868406  1
  Cl  Cl21  1  0.20248877  0.99408238  0.85131594  1
  Cl  Cl22  1  0.29751123  0.49408238  0.85131594  1
  Cl  Cl23  1  0.79751123  0.00591762  0.14868406  1
  Cl  Cl24  1  0.63224266  0.31330743  -0.00041425  1
  Cl  Cl25  1  0.13224266  0.18669257  0.00041425  1
  Cl  Cl26  1  0.36775734  0.68669257  0.00041425  1
  Cl  Cl27  1  0.86775734  0.81330743  -0.00041425  1
  Cl  Cl28  1  0.67974981  0.14866060  0.36869886  1
  Cl  Cl29  1  0.17974981  0.35133940  0.63130114  1
  Cl  Cl30  1  0.32025019  0.85133940  0.63130114  1
  Cl  Cl31  1  0.82025019  0.64866060  0.36869886  1
  Cl  Cl32  1  0.20641050  0.89458873  0.14727987  1
  Cl  Cl33  1  0.70641050  0.60541127  0.85272013  1
  Cl  Cl34  1  0.79358950  0.10541127  0.85272013  1
  Cl  Cl35  1  0.29358950  0.39458873  0.14727987  1
  Cl  Cl36  1  0.27083344  0.59867102  0.40683395  1
  Cl  Cl37  1  0.77083344  0.90132898  0.59316605  1
  Cl  Cl38  1  0.72916656  0.40132898  0.59316605  1
  Cl  Cl39  1  0.22916656  0.09867102  0.40683395  1
