# generated using pymatgen
data_Na3La2In2P3(SO8)3
_symmetry_space_group_name_H-M   'P 1'
_cell_length_a   9.21260601
_cell_length_b   9.19829195
_cell_length_c   24.21560835
_cell_angle_alpha   88.98179876
_cell_angle_beta   90.93370709
_cell_angle_gamma   119.87209176
_symmetry_Int_Tables_number   1
_chemical_formula_structural   Na3La2In2P3(SO8)3
_chemical_formula_sum   'Na9 La6 In6 P9 S9 O72'
_cell_volume   1779.05521375
_cell_formula_units_Z   3
loop_
 _symmetry_equiv_pos_site_id
 _symmetry_equiv_pos_as_xyz
  1  'x, y, z'
loop_
 _atom_site_type_symbol
 _atom_site_label
 _atom_site_symmetry_multiplicity
 _atom_site_fract_x
 _atom_site_fract_y
 _atom_site_fract_z
 _atom_site_occupancy
  Na  Na0  1  0.35872320  0.35868101  0.25324685  1
  Na  Na1  1  0.68599316  0.01947690  0.92012049  1
  Na  Na2  1  0.97851712  0.30964548  0.41441278  1
  Na  Na3  1  0.01023834  0.99462920  0.49568196  1
  Na  Na4  1  0.00373369  0.98845206  0.00488701  1
  Na  Na5  1  0.65550741  0.33663575  0.83774940  1
  Na  Na6  1  0.66745448  0.33447140  0.33430947  1
  Na  Na7  1  0.33338832  0.69490754  0.17223940  1
  Na  Na8  1  0.33378285  0.66776968  0.66847391  1
  La  La9  1  0.00342932  0.99328847  0.85228576  1
  La  La10  1  0.99079599  0.01037272  0.64552851  1
  La  La11  1  0.67358540  0.32379316  0.68368428  1
  La  La12  1  0.33898746  0.67284878  0.02419774  1
  La  La13  1  0.32328491  0.66172826  0.51147716  1
  La  La14  1  0.34715441  0.67655334  0.82152434  1
  In  In15  1  0.01073052  -0.00038987  0.34487136  1
  In  In16  1  0.99790496  0.00433774  0.15302115  1
  In  In17  1  0.67269747  0.31654168  0.18703329  1
  In  In18  1  0.66294814  0.33116682  0.98981721  1
  In  In19  1  0.66491139  0.34227049  0.47827351  1
  In  In20  1  0.31843934  0.66589304  0.31670933  1
  P  P21  1  0.29362260  0.99945069  0.24814770  1
  P  P22  1  0.00279957  0.29440526  0.25201370  1
  P  P23  1  0.69170404  0.99506234  0.75351976  1
  P  P24  1  0.95783451  0.33198678  0.57446933  1
  P  P25  1  0.68483376  0.04947609  0.08608966  1
  P  P26  1  0.63712554  0.65505446  0.92239557  1
  P  P27  1  0.34862462  0.98515345  0.92161131  1
  P  P28  1  0.33282815  0.36308456  0.41005021  1
  P  P29  1  0.02329315  0.66606563  0.41176577  1
  S  S30  1  0.70123684  0.70229954  0.24955819  1
  S  S31  1  0.30626879  0.30945400  0.74944574  1
  S  S32  1  0.00339541  0.69574145  0.74879197  1
  S  S33  1  0.37007479  0.04086573  0.57740224  1
  S  S34  1  0.66884822  0.62931017  0.57871814  1
  S  S35  1  0.94614673  0.62750334  0.08880243  1
  S  S36  1  0.37179592  0.31836837  0.08985204  1
  S  S37  1  0.01818739  0.36368409  0.92039534  1
  S  S38  1  0.63940251  0.97125854  0.41156425  1
  O  O39  1  0.21895436  0.03673696  0.29933774  1
  O  O40  1  0.80468118  0.78020395  0.29944368  1
  O  O41  1  0.97412858  0.18998707  0.30622371  1
  O  O42  1  0.22020981  0.21378179  0.80000009  1
  O  O43  1  0.00315716  0.78372005  0.79956670  1
  O  O44  1  0.77867332  -0.00448127  0.80894622  1
  O  O45  1  0.79484285  0.99649428  0.70333561  1
  O  O46  1  0.21327729  0.21825519  0.69915314  1
  O  O47  1  0.00888712  0.79265403  0.69866506  1
  O  O48  1  0.77784449  0.80337424  0.19882442  1
  O  O49  1  0.03508304  0.21086422  0.20214949  1
  O  O50  1  0.18194151  0.96780996  0.19604968  1
  O  O51  1  0.86901179  0.33532918  0.62751791  1
  O  O52  1  0.45558724  0.12103853  0.62993055  1
  O  O53  1  0.66011717  0.53923275  0.63099108  1
  O  O54  1  0.85981083  0.52655271  0.13837368  1
  O  O55  1  0.66184611  0.13750693  0.13551006  1
  O  O56  1  0.47367007  0.33892744  0.14053515  1
  O  O57  1  0.45305669  0.30598171  0.03882989  1
  O  O58  1  0.85219989  0.55014505  0.03664034  1
  O  O59  1  0.70139676  0.14480366  0.03000147  1
  O  O60  1  0.46246410  0.14286041  0.52844307  1
  O  O61  1  0.67045287  0.53643879  0.52953162  1
  O  O62  1  0.85916790  0.32677441  0.52085600  1
  O  O63  1  0.54079054  0.67838754  0.96966312  1
  O  O64  1  0.12326737  0.44771908  0.96878416  1
  O  O65  1  0.32496480  0.87088118  0.97165427  1
  O  O66  1  0.56961288  0.87643566  0.46343305  1
  O  O67  1  0.29955483  0.44380222  0.46021069  1
  O  O68  1  0.12580710  0.69959704  0.46552832  1
  O  O69  1  0.11137731  0.63042520  0.36350755  1
  O  O70  1  0.52989767  0.88574888  0.36320620  1
  O  O71  1  0.36194367  0.47373080  0.35675621  1
  O  O72  1  0.09520904  0.45551833  0.86833886  1
  O  O73  1  0.37039090  0.90443745  0.86863298  1
  O  O74  1  0.54076394  0.63077635  0.86707957  1
  O  O75  1  0.99618027  0.81752865  0.40214998  1
  O  O76  1  0.81198346  0.99533165  0.40519564  1
  O  O77  1  0.16793706  0.18915790  0.40479921  1
  O  O78  1  0.99143932  0.18874596  0.91840655  1
  O  O79  1  0.19867774  0.01504677  0.91824061  1
  O  O80  1  0.80861898  0.82242791  0.91970465  1
  O  O81  1  0.97469233  0.17186992  0.57414662  1
  O  O82  1  0.19963017  0.02100727  0.57653148  1
  O  O83  1  0.82515839  0.79569758  0.57765121  1
  O  O84  1  0.96413455  0.79850737  0.09145009  1
  O  O85  1  0.84706508  0.03503356  0.09125825  1
  O  O86  1  0.20426612  0.16218040  0.09240598  1
  O  O87  1  0.67427874  0.15413140  0.75357323  1
  O  O88  1  0.47696395  0.33064029  0.75009468  1
  O  O89  1  0.84736529  0.52993172  0.75029551  1
  O  O90  1  0.67661329  0.52750867  0.24476318  1
  O  O91  1  0.84915448  0.32067338  0.24532113  1
  O  O92  1  0.46805030  0.16649257  0.24208179  1
  O  O93  1  0.66148814  0.50157043  0.93031367  1
  O  O94  1  0.84876832  0.34714572  0.92442950  1
  O  O95  1  0.51811025  0.15392551  0.92653016  1
  O  O96  1  0.65976326  0.14444203  0.41544611  1
  O  O97  1  0.48911115  0.34163772  0.41866133  1
  O  O98  1  0.85160503  0.49695229  0.41694303  1
  O  O99  1  0.34833251  0.46675314  0.08648225  1
  O  O100  1  0.11516053  0.64314023  0.08693101  1
  O  O101  1  0.52785756  0.87123306  0.08475027  1
  O  O102  1  0.35886242  0.87417023  0.57703508  1
  O  O103  1  0.52090482  0.65320656  0.57739632  1
  O  O104  1  0.13411804  0.48922824  0.57653091  1
  O  O105  1  0.31941831  0.84471310  0.25628292  1
  O  O106  1  0.52863236  0.68124202  0.25493381  1
  O  O107  1  0.16975094  0.46926617  0.25676800  1
  O  O108  1  0.31540402  0.47504739  0.74861031  1
  O  O109  1  0.15169360  0.67291647  0.74884424  1
  O  O110  1  0.51650267  0.83638080  0.74858570  1
