# generated using pymatgen
data_Ni(NF7)2
_symmetry_space_group_name_H-M   'P 1'
_cell_length_a   6.57948523
_cell_length_b   6.57948411
_cell_length_c   6.57948487
_cell_angle_alpha   91.57363164
_cell_angle_beta   119.09566763
_cell_angle_gamma   119.09566180
_symmetry_Int_Tables_number   1
_chemical_formula_structural   Ni(NF7)2
_chemical_formula_sum   'Ni1 N2 F14'
_cell_volume   204.07019391
_cell_formula_units_Z   1
loop_
 _symmetry_equiv_pos_site_id
 _symmetry_equiv_pos_as_xyz
  1  'x, y, z'
loop_
 _atom_site_type_symbol
 _atom_site_label
 _atom_site_symmetry_multiplicity
 _atom_site_fract_x
 _atom_site_fract_y
 _atom_site_fract_z
 _atom_site_occupancy
  Ni  Ni0  1  0.00000000  -0.00000000  -0.00000000  1
  N  N1  1  0.50000000  0.75000000  0.25000000  1
  N  N2  1  0.50000000  0.25000000  0.75000000  1
  F  F3  1  0.72071814  0.41035375  0.97612836  1
  F  F4  1  0.36496083  0.23551885  0.12944198  1
  F  F5  1  0.89392313  0.12944198  0.76448115  1
  F  F6  1  0.10607687  0.87055802  0.23551885  1
  F  F7  1  0.63503917  0.76448115  0.87055802  1
  F  F8  1  -0.00000000  0.19435283  0.19435283  1
  F  F9  1  0.00000000  0.80564717  0.80564717  1
  F  F10  1  0.72071814  0.74459178  0.31036439  1
  F  F11  1  0.56577461  0.31036439  0.58964625  1
  F  F12  1  0.43422539  0.02387164  0.74459178  1
  F  F13  1  0.27928186  0.58964625  0.02387164  1
  F  F14  1  0.27928186  0.25540822  0.68963561  1
  F  F15  1  0.43422539  0.68963561  0.41035375  1
  F  F16  1  0.56577461  0.97612836  0.25540822  1
