# generated using pymatgen
data_Tl8Ge5O14
_symmetry_space_group_name_H-M   'P 1'
_cell_length_a   14.56087425
_cell_length_b   14.56087425
_cell_length_c   14.56087458
_cell_angle_alpha   38.39280401
_cell_angle_beta   38.39280401
_cell_angle_gamma   38.39279641
_symmetry_Int_Tables_number   1
_chemical_formula_structural   Tl8Ge5O14
_chemical_formula_sum   'Tl16 Ge10 O28'
_cell_volume   1069.63148709
_cell_formula_units_Z   2
loop_
 _symmetry_equiv_pos_site_id
 _symmetry_equiv_pos_as_xyz
  1  'x, y, z'
loop_
 _atom_site_type_symbol
 _atom_site_label
 _atom_site_symmetry_multiplicity
 _atom_site_fract_x
 _atom_site_fract_y
 _atom_site_fract_z
 _atom_site_occupancy
  Tl  Tl0  1  0.34215035  0.87687113  0.17852902  1
  Tl  Tl1  1  0.32147098  0.62312887  0.15784965  1
  Tl  Tl2  1  0.65784965  0.12312887  0.82147098  1
  Tl  Tl3  1  0.67852902  0.37687113  0.84215035  1
  Tl  Tl4  1  0.15784965  0.32147098  0.62312887  1
  Tl  Tl5  1  0.87687113  0.17852902  0.34215035  1
  Tl  Tl6  1  0.84215035  0.67852902  0.37687113  1
  Tl  Tl7  1  0.12312887  0.82147098  0.65784965  1
  Tl  Tl8  1  0.44653396  0.44653396  0.44653396  1
  Tl  Tl9  1  0.05346604  0.05346604  0.05346604  1
  Tl  Tl10  1  0.55346604  0.55346604  0.55346604  1
  Tl  Tl11  1  0.94653396  0.94653396  0.94653396  1
  Tl  Tl12  1  0.62312887  0.15784965  0.32147098  1
  Tl  Tl13  1  0.17852902  0.34215035  0.87687113  1
  Tl  Tl14  1  0.37687113  0.84215035  0.67852902  1
  Tl  Tl15  1  0.82147098  0.65784965  0.12312887  1
  Ge  Ge16  1  0.02186138  0.75000000  0.47813862  1
  Ge  Ge17  1  0.97813862  0.25000000  0.52186138  1
  Ge  Ge18  1  0.70286649  0.70286649  0.70286649  1
  Ge  Ge19  1  0.79713351  0.79713351  0.79713351  1
  Ge  Ge20  1  0.29713351  0.29713351  0.29713351  1
  Ge  Ge21  1  0.20286649  0.20286649  0.20286649  1
  Ge  Ge22  1  0.47813862  0.02186138  0.75000000  1
  Ge  Ge23  1  0.75000000  0.47813862  0.02186138  1
  Ge  Ge24  1  0.52186138  0.97813862  0.25000000  1
  Ge  Ge25  1  0.25000000  0.52186138  0.97813862  1
  O  O26  1  0.51908218  0.84402260  0.78912770  1
  O  O27  1  0.71087230  0.65597740  0.98091782  1
  O  O28  1  0.48091782  0.15597740  0.21087230  1
  O  O29  1  0.28912770  0.34402260  0.01908218  1
  O  O30  1  0.19075334  0.57426941  0.44535072  1
  O  O31  1  0.05464928  0.92573059  0.30924666  1
  O  O32  1  0.80924666  0.42573059  0.55464928  1
  O  O33  1  0.94535072  0.07426941  0.69075334  1
  O  O34  1  0.44535072  0.19075334  0.57426941  1
  O  O35  1  0.92573059  0.30924666  0.05464928  1
  O  O36  1  0.55464928  0.80924666  0.42573059  1
  O  O37  1  0.07426941  0.69075334  0.94535072  1
  O  O38  1  0.57426941  0.44535072  0.19075334  1
  O  O39  1  0.30924666  0.05464928  0.92573059  1
  O  O40  1  0.42573059  0.55464928  0.80924666  1
  O  O41  1  0.69075334  0.94535072  0.07426941  1
  O  O42  1  0.84402260  0.78912770  0.51908218  1
  O  O43  1  0.98091782  0.71087230  0.65597740  1
  O  O44  1  0.15597740  0.21087230  0.48091782  1
  O  O45  1  0.01908218  0.28912770  0.34402260  1
  O  O46  1  0.33981594  0.33981594  0.33981594  1
  O  O47  1  0.16018406  0.16018406  0.16018406  1
  O  O48  1  0.66018406  0.66018406  0.66018406  1
  O  O49  1  0.83981594  0.83981594  0.83981594  1
  O  O50  1  0.65597740  0.98091782  0.71087230  1
  O  O51  1  0.78912770  0.51908218  0.84402260  1
  O  O52  1  0.21087230  0.48091782  0.15597740  1
  O  O53  1  0.34402260  0.01908218  0.28912770  1
