# generated using pymatgen
data_SbI5F6
_symmetry_space_group_name_H-M   'P 1'
_cell_length_a   8.23962119
_cell_length_b   8.45582350
_cell_length_c   15.51086515
_cell_angle_alpha   99.62867228
_cell_angle_beta   94.55428782
_cell_angle_gamma   110.41209084
_symmetry_Int_Tables_number   1
_chemical_formula_structural   SbI5F6
_chemical_formula_sum   'Sb3 I15 F18'
_cell_volume   987.40200251
_cell_formula_units_Z   3
loop_
 _symmetry_equiv_pos_site_id
 _symmetry_equiv_pos_as_xyz
  1  'x, y, z'
loop_
 _atom_site_type_symbol
 _atom_site_label
 _atom_site_symmetry_multiplicity
 _atom_site_fract_x
 _atom_site_fract_y
 _atom_site_fract_z
 _atom_site_occupancy
  Sb  Sb0  1  0.48040475  0.14370011  0.34723768  1
  Sb  Sb1  1  0.51959525  0.85629989  0.65276232  1
  Sb  Sb2  1  0.00000000  0.00000000  -0.00000000  1
  I  I3  1  0.03957109  0.33144085  0.26041867  1
  I  I4  1  0.65848865  0.41905278  0.09109320  1
  I  I5  1  0.45135780  0.82330603  0.06635494  1
  I  I6  1  0.54864220  0.17669397  0.93364506  1
  I  I7  1  0.24435426  0.58355511  0.16304127  1
  I  I8  1  0.75564574  0.41644489  0.83695873  1
  I  I9  1  0.34151135  0.58094722  0.90890680  1
  I  I10  1  0.96042891  0.66855915  0.73958133  1
  I  I11  1  0.16914443  0.54146986  0.41928753  1
  I  I12  1  0.83085557  0.45853014  0.58071247  1
  I  I13  1  0.00000000  0.00000000  0.50000000  1
  I  I14  1  0.30159947  0.27255941  0.61031289  1
  I  I15  1  0.69840053  0.72744059  0.38968711  1
  I  I16  1  0.16198692  0.25152288  0.76237676  1
  I  I17  1  0.83801308  0.74847712  0.23762324  1
  F  F18  1  0.74886354  0.95799192  0.71594675  1
  F  F19  1  0.28714156  0.75027188  0.58846395  1
  F  F20  1  0.71285844  0.24972812  0.41153605  1
  F  F21  1  0.02705956  0.16527835  0.92720895  1
  F  F22  1  0.97294044  0.83472165  0.07279105  1
  F  F23  1  0.09343497  0.87408109  0.91719910  1
  F  F24  1  0.90656503  0.12591891  0.08280090  1
  F  F25  1  0.22752185  0.12884556  0.06183576  1
  F  F26  1  0.77247815  0.87115444  0.93816424  1
  F  F27  1  0.40365046  0.26276551  0.44211212  1
  F  F28  1  0.25113646  0.04200808  0.28405325  1
  F  F29  1  0.57006338  0.03384785  0.25598749  1
  F  F30  1  0.42993662  0.96615215  0.74401251  1
  F  F31  1  0.43799707  0.95618807  0.40409682  1
  F  F32  1  0.56200293  0.04381193  0.59590318  1
  F  F33  1  0.52199727  0.33605652  0.29291804  1
  F  F34  1  0.47800273  0.66394348  0.70708196  1
  F  F35  1  0.59634954  0.73723449  0.55788788  1
