# generated using pymatgen
data_Na6ZrZn7(SO4)12
_symmetry_space_group_name_H-M   'P 1'
_cell_length_a   17.61950721
_cell_length_b   8.80595367
_cell_length_c   22.53682347
_cell_angle_alpha   89.97675028
_cell_angle_beta   90.03345783
_cell_angle_gamma   120.07928727
_symmetry_Int_Tables_number   1
_chemical_formula_structural   Na6ZrZn7(SO4)12
_chemical_formula_sum   'Na18 Zr3 Zn21 S36 O144'
_cell_volume   3025.83941653
_cell_formula_units_Z   3
loop_
 _symmetry_equiv_pos_site_id
 _symmetry_equiv_pos_as_xyz
  1  'x, y, z'
loop_
 _atom_site_type_symbol
 _atom_site_label
 _atom_site_symmetry_multiplicity
 _atom_site_fract_x
 _atom_site_fract_y
 _atom_site_fract_z
 _atom_site_occupancy
  Na  Na0  1  0.32031117  0.63988909  0.74938205  1
  Na  Na1  1  0.64976810  0.33000954  0.58438631  1
  Na  Na2  1  0.98548141  0.66646007  0.91682618  1
  Na  Na3  1  0.66690745  0.30480411  0.91417570  1
  Na  Na4  1  0.16749085  0.02932256  0.41677982  1
  Na  Na5  1  0.66601840  0.02993587  0.41698448  1
  Na  Na6  1  0.99182922  0.00213320  0.49198399  1
  Na  Na7  1  0.48022988  0.97621556  0.50116067  1
  Na  Na8  1  0.00363331  0.02361077  0.99376514  1
  Na  Na9  1  0.48764798  0.97898542  0.99150838  1
  Na  Na10  1  0.33819870  0.32095717  0.83653556  1
  Na  Na11  1  0.83052543  0.31226726  0.82835116  1
  Na  Na12  1  0.34234218  0.34991919  0.33275697  1
  Na  Na13  1  0.84302224  0.35125499  0.33237883  1
  Na  Na14  1  0.16782515  0.66724001  0.16674394  1
  Na  Na15  1  0.66582341  0.66625302  0.16691151  1
  Na  Na16  1  0.16438233  0.67401408  0.66313907  1
  Na  Na17  1  0.66119055  0.67788011  0.66997635  1
  Zr  Zr18  1  0.00107352  0.00170729  0.64812842  1
  Zr  Zr19  1  0.00088957  0.00005787  0.14823858  1
  Zr  Zr20  1  0.49958320  0.99984686  0.14769374  1
  Zn  Zn21  1  0.99629599  0.99921028  0.34876058  1
  Zn  Zn22  1  0.49535083  0.99975579  0.34960854  1
  Zn  Zn23  1  0.00106949  0.00781974  0.84883279  1
  Zn  Zn24  1  0.49694155  0.99725949  0.84687866  1
  Zn  Zn25  1  0.49791917  0.99419562  0.65183737  1
  Zn  Zn26  1  0.33842484  0.33256042  0.67977378  1
  Zn  Zn27  1  0.83015547  0.32732756  0.68366215  1
  Zn  Zn28  1  0.33319293  0.33280161  0.18257029  1
  Zn  Zn29  1  0.83313831  0.33255961  0.18299779  1
  Zn  Zn30  1  0.33349452  0.33666203  0.98340830  1
  Zn  Zn31  1  0.83278735  0.32279277  0.98559984  1
  Zn  Zn32  1  0.33837900  0.34419844  0.48543926  1
  Zn  Zn33  1  0.83861635  0.33867116  0.48366841  1
  Zn  Zn34  1  0.17005657  0.66791113  0.01484089  1
  Zn  Zn35  1  0.66538746  0.66988475  0.01459075  1
  Zn  Zn36  1  0.16922776  0.66114671  0.51520894  1
  Zn  Zn37  1  0.66495048  0.66897222  0.51370383  1
  Zn  Zn38  1  0.16658903  0.66198090  0.31811838  1
  Zn  Zn39  1  0.66632093  0.66124832  0.31732986  1
  Zn  Zn40  1  0.16812584  0.67387515  0.81970974  1
  Zn  Zn41  1  0.66456954  0.66462916  0.81719887  1
  S  S42  1  0.15109080  0.00080911  0.25361563  1
  S  S43  1  0.65054371  0.00135453  0.25336722  1
  S  S44  1  0.34990601  0.69845231  0.25195570  1
  S  S45  1  0.85009319  0.69906381  0.25196752  1
  S  S46  1  0.99962831  0.30026935  0.25192859  1
  S  S47  1  0.49974177  0.30018433  0.25196218  1
  S  S48  1  0.15053599  0.29985176  0.75213123  1
  S  S49  1  0.64981603  0.29963956  0.74992870  1
  S  S50  1  0.99951873  0.69864416  0.75356385  1
  S  S51  1  0.50094098  0.70243437  0.74953759  1
  S  S52  1  0.35025913  0.00192697  0.75007972  1
  S  S53  1  0.85038419  0.00011878  0.75223643  1
  S  S54  1  0.48323359  0.33376237  0.58259070  1
  S  S55  1  0.98143654  0.34128368  0.58398294  1
  S  S56  1  0.18800096  0.03565274  0.58167185  1
  S  S57  1  0.68521652  0.03437234  0.58178202  1
  S  S58  1  0.33241761  0.63132062  0.58577233  1
  S  S59  1  0.83154772  0.62392658  0.58275480  1
  S  S60  1  0.48176252  0.62225957  0.08332634  1
  S  S61  1  0.98227103  0.62333771  0.08162004  1
  S  S62  1  0.32942879  0.03781071  0.08292027  1
  S  S63  1  0.82957805  0.03392804  0.08395258  1
  S  S64  1  0.18915171  0.34136454  0.08310827  1
  S  S65  1  0.68813203  0.34100026  0.08183853  1
  S  S66  1  0.31644697  0.66516325  0.91454909  1
  S  S67  1  0.81499711  0.67015409  0.91736404  1
  S  S68  1  0.01896045  0.37058845  0.91704920  1
  S  S69  1  0.51763322  0.36980232  0.91673891  1
  S  S70  1  0.16699003  0.96611182  0.91707478  1
  S  S71  1  0.66679604  0.96350507  0.91620828  1
  S  S72  1  0.31517029  0.96366363  0.41700375  1
  S  S73  1  0.81474701  0.96115177  0.41668767  1
  S  S74  1  0.16667942  0.36825546  0.41643417  1
  S  S75  1  0.66688548  0.36865421  0.41808771  1
  S  S76  1  0.01900100  0.66496441  0.41649933  1
  S  S77  1  0.51707041  0.66576898  0.41495006  1
  O  O78  1  0.11012695  0.02004990  0.30822509  1
  O  O79  1  0.60990392  0.02025485  0.30811568  1
  O  O80  1  0.40291917  0.78194989  0.30502818  1
  O  O81  1  0.90298327  0.78226712  0.30516887  1
  O  O82  1  0.48997946  0.19594145  0.30518536  1
  O  O83  1  0.98917705  0.19518140  0.30511259  1
  O  O84  1  0.10845459  0.19459756  0.80512310  1
  O  O85  1  0.60744331  0.19597116  0.80450125  1
  O  O86  1  0.48591961  0.78438265  0.80245205  1
  O  O87  1  0.99011635  0.78012310  0.80857519  1
  O  O88  1  0.40219752  0.02622169  0.80451693  1
  O  O89  1  0.90272726  0.02016224  0.80564297  1
  O  O90  1  0.39123308  0.97099104  0.69737170  1
  O  O91  1  0.89846207  0.98525273  0.69840542  1
  O  O92  1  0.09581925  0.20696392  0.69789336  1
  O  O93  1  0.59851861  0.21440351  0.69523749  1
  O  O94  1  0.00710788  0.81524983  0.70122036  1
  O  O95  1  0.51181598  0.80612560  0.69528500  1
  O  O96  1  0.39747614  0.81085566  0.19793675  1
  O  O97  1  0.89743191  0.81085255  0.19802868  1
  O  O98  1  0.00698898  0.20420998  0.19788275  1
  O  O99  1  0.50723697  0.20471667  0.19784001  1
  O  O100  1  0.09299456  0.98591841  0.20105098  1
  O  O101  1  0.59289356  0.98708757  0.20079869  1
  O  O102  1  0.44490353  0.35782588  0.63733542  1
  O  O103  1  0.93917508  0.35945170  0.63741763  1
  O  O104  1  0.24048627  0.12567655  0.63415632  1
  O  O105  1  0.73978437  0.12190143  0.63438618  1
  O  O106  1  0.32300336  0.53226383  0.64179835  1
  O  O107  1  0.82029849  0.51851642  0.63616114  1
  O  O108  1  0.44058098  0.52193280  0.13752173  1
  O  O109  1  0.93752130  0.51701675  0.13393952  1
  O  O110  1  0.32043861  0.11869485  0.13751148  1
  O  O111  1  0.82075518  0.11870700  0.13746526  1
  O  O112  1  0.23886847  0.35913625  0.13750502  1
  O  O113  1  0.74151255  0.35773945  0.13403613  1
  O  O114  1  0.22587763  0.30949346  0.02951627  1
  O  O115  1  0.72339294  0.31183347  0.02593313  1
  O  O116  1  0.42925381  0.54902868  0.02954593  1
  O  O117  1  0.93166925  0.55301884  0.02587744  1
  O  O118  1  0.34489748  0.14407641  0.02960123  1
  O  O119  1  0.84697661  0.13915194  0.02958833  1
  O  O120  1  0.22304961  0.13473603  0.52598000  1
  O  O121  1  0.72492275  0.14179648  0.52680566  1
  O  O122  1  0.34193903  0.54214335  0.53315429  1
  O  O123  1  0.84731982  0.55047301  0.52885063  1
  O  O124  1  0.43084832  0.31120265  0.52894125  1
  O  O125  1  0.92928714  0.30688745  0.52955923  1
  O  O126  1  0.27240753  0.68738807  0.96686834  1
  O  O127  1  0.77479057  0.69054632  0.97180001  1
  O  O128  1  0.06997100  0.45203493  0.97139834  1
  O  O129  1  0.57391360  0.45101123  0.96991719  1
  O  O130  1  0.15107609  0.85090635  0.96928529  1
  O  O131  1  0.65752513  0.86519821  0.97128835  1
  O  O132  1  0.27411961  0.85941291  0.47118687  1
  O  O133  1  0.77433870  0.85737662  0.47113709  1
  O  O134  1  0.15506864  0.44789201  0.47060500  1
  O  O135  1  0.65819887  0.44692689  0.47434704  1
  O  O136  1  0.07449743  0.69266346  0.46943960  1
  O  O137  1  0.57261285  0.69729087  0.46848920  1
  O  O138  1  0.05960990  0.64428735  0.36187795  1
  O  O139  1  0.55876186  0.64396459  0.36124358  1
  O  O140  1  0.25937948  0.88169508  0.36371129  1
  O  O141  1  0.75911358  0.87848763  0.36368584  1
  O  O142  1  0.17685795  0.46968623  0.36198946  1
  O  O143  1  0.67669556  0.47611073  0.36558525  1
  O  O144  1  0.06025442  0.48099668  0.86376095  1
  O  O145  1  0.55890754  0.47417566  0.86274205  1
  O  O146  1  0.17705725  0.88584077  0.86209070  1
  O  O147  1  0.67800495  0.88137983  0.86262635  1
  O  O148  1  0.26673121  0.64470217  0.85832443  1
  O  O149  1  0.76090658  0.64337217  0.86403362  1
  O  O150  1  0.01203502  0.82857853  0.41223675  1
  O  O151  1  0.50966105  0.82822746  0.41003651  1
  O  O152  1  0.40377447  0.98476700  0.41161538  1
  O  O153  1  0.90358782  0.98359634  0.41123935  1
  O  O154  1  0.08799293  0.18590740  0.41217060  1
  O  O155  1  0.58807246  0.18838506  0.41363568  1
  O  O156  1  0.00688026  0.19208688  0.91150602  1
  O  O157  1  0.51111152  0.19291143  0.91166423  1
  O  O158  1  0.08488339  0.97972419  0.91277916  1
  O  O159  1  0.58875754  0.98797423  0.91159811  1
  O  O160  1  0.40528819  0.82461706  0.91082917  1
  O  O161  1  0.90581058  0.82295909  0.91231026  1
  O  O162  1  0.49492268  0.17636717  0.58708782  1
  O  O163  1  0.99153762  0.17842207  0.59090358  1
  O  O164  1  0.09676221  0.01670529  0.58905089  1
  O  O165  1  0.59770463  0.02274842  0.58728856  1
  O  O166  1  0.41193711  0.80946285  0.58867031  1
  O  O167  1  0.91049076  0.80663970  0.58965817  1
  O  O168  1  0.49195697  0.80558022  0.08973206  1
  O  O169  1  0.99177083  0.80506711  0.08875838  1
  O  O170  1  0.41082020  0.01705534  0.08906228  1
  O  O171  1  0.91043477  0.01312555  0.09060998  1
  O  O172  1  0.09736168  0.17761841  0.08944832  1
  O  O173  1  0.59772569  0.17753155  0.08897782  1
  O  O174  1  0.33800846  0.15535473  0.74359341  1
  O  O175  1  0.84310929  0.15914432  0.74574097  1
  O  O176  1  0.23881143  0.32142746  0.74538838  1
  O  O177  1  0.73867339  0.31659456  0.74667711  1
  O  O178  1  0.41922520  0.52494338  0.74483064  1
  O  O179  1  0.92050985  0.52547606  0.74607813  1
  O  O180  1  0.34139350  0.52414307  0.24473597  1
  O  O181  1  0.84176147  0.52467453  0.24479878  1
  O  O182  1  0.42113406  0.31739256  0.24543077  1
  O  O183  1  0.92093421  0.31779536  0.24521694  1
  O  O184  1  0.23768324  0.15914498  0.24614583  1
  O  O185  1  0.73751307  0.16021716  0.24606717  1
  O  O186  1  0.32569265  0.50693349  0.91987767  1
  O  O187  1  0.82371901  0.50753351  0.92139782  1
  O  O188  1  0.42910086  0.34724403  0.92282084  1
  O  O189  1  0.93021448  0.35727689  0.92108012  1
  O  O190  1  0.24444532  0.14261849  0.92330126  1
  O  O191  1  0.74590413  0.14687214  0.91986937  1
  O  O192  1  0.32247941  0.14073281  0.42188383  1
  O  O193  1  0.82176791  0.13815370  0.42142672  1
  O  O194  1  0.24511676  0.34462429  0.42103807  1
  O  O195  1  0.74557576  0.34469903  0.42062774  1
  O  O196  1  0.42840767  0.50985211  0.42085002  1
  O  O197  1  0.92976417  0.50952315  0.42163113  1
  O  O198  1  0.17555738  0.49321744  0.07851982  1
  O  O199  1  0.67501243  0.49314832  0.07856318  1
  O  O200  1  0.07136250  0.64931439  0.07815994  1
  O  O201  1  0.57127451  0.64910164  0.07894069  1
  O  O202  1  0.25305295  0.85864239  0.07820850  1
  O  O203  1  0.75290784  0.85625908  0.07932968  1
  O  O204  1  0.17372714  0.85625162  0.57889339  1
  O  O205  1  0.67439903  0.85693415  0.57715894  1
  O  O206  1  0.25270635  0.64888134  0.58104741  1
  O  O207  1  0.75254813  0.64205613  0.57801374  1
  O  O208  1  0.07046806  0.49384196  0.57934967  1
  O  O209  1  0.57416670  0.49061944  0.57747927  1
  O  O210  1  0.15598481  0.83863336  0.25307168  1
  O  O211  1  0.65617520  0.83972292  0.25280901  1
  O  O212  1  0.26362094  0.68795386  0.25303242  1
  O  O213  1  0.76370791  0.68799976  0.25317160  1
  O  O214  1  0.08064105  0.47288478  0.25258517  1
  O  O215  1  0.58122947  0.47302341  0.25251507  1
  O  O216  1  0.15776990  0.47504914  0.75312929  1
  O  O217  1  0.65972790  0.47731145  0.75357965  1
  O  O218  1  0.08046885  0.68843362  0.75317081  1
  O  O219  1  0.57883457  0.68155551  0.75535207  1
  O  O220  1  0.26190558  0.83667578  0.75512433  1
  O  O221  1  0.76390509  0.83949887  0.75300989  1
