# generated using pymatgen
data_MgNb4VO12
_symmetry_space_group_name_H-M   'P 1'
_cell_length_a   5.65412960
_cell_length_b   11.30992766
_cell_length_c   9.95085755
_cell_angle_alpha   27.83836933
_cell_angle_beta   51.12877334
_cell_angle_gamma   56.53448631
_symmetry_Int_Tables_number   1
_chemical_formula_structural   MgNb4VO12
_chemical_formula_sum   'Mg1 Nb4 V1 O12'
_cell_volume   231.34193077
_cell_formula_units_Z   1
loop_
 _symmetry_equiv_pos_site_id
 _symmetry_equiv_pos_as_xyz
  1  'x, y, z'
loop_
 _atom_site_type_symbol
 _atom_site_label
 _atom_site_symmetry_multiplicity
 _atom_site_fract_x
 _atom_site_fract_y
 _atom_site_fract_z
 _atom_site_occupancy
  Mg  Mg0  1  0.16497500  0.49963300  0.20511400  1
  Nb  Nb1  1  0.02215400  0.00308400  0.97673500  1
  Nb  Nb2  1  0.94617400  0.50112400  0.00389800  1
  Nb  Nb3  1  0.50719300  0.00809100  0.47478200  1
  Nb  Nb4  1  0.47325500  0.50466500  0.50486600  1
  V  V5  1  0.30468900  0.00080900  0.29165900  1
  O  O6  1  0.32049500  0.28701300  0.15264200  1
  O  O7  1  0.24198100  0.13072400  0.59337300  1
  O  O8  1  0.16147000  0.30154400  0.71336100  1
  O  O9  1  0.87502800  0.17492100  0.24223600  1
  O  O10  1  0.32534700  0.79328700  0.13919200  1
  O  O11  1  0.76447000  0.40976800  0.32298200  1
  O  O12  1  0.22236800  0.63817100  0.60100000  1
  O  O13  1  0.59697400  0.19812500  0.85833900  1
  O  O14  1  0.15222600  0.78440100  0.73733200  1
  O  O15  1  0.85023000  0.69308100  0.22467700  1
  O  O16  1  0.72581800  0.91314600  0.31854000  1
  O  O17  1  0.58302100  0.67031500  0.88607200  1
