# generated using pymatgen
data_Ba(SbS2)2
_symmetry_space_group_name_H-M   'P 1'
_cell_length_a   8.29773019
_cell_length_b   9.06812654
_cell_length_c   20.81592932
_cell_angle_alpha   79.39555741
_cell_angle_beta   90.00000000
_cell_angle_gamma   90.00000000
_symmetry_Int_Tables_number   1
_chemical_formula_structural   Ba(SbS2)2
_chemical_formula_sum   'Ba8 Sb16 S32'
_cell_volume   1539.54127140
_cell_formula_units_Z   8
loop_
 _symmetry_equiv_pos_site_id
 _symmetry_equiv_pos_as_xyz
  1  'x, y, z'
loop_
 _atom_site_type_symbol
 _atom_site_label
 _atom_site_symmetry_multiplicity
 _atom_site_fract_x
 _atom_site_fract_y
 _atom_site_fract_z
 _atom_site_occupancy
  Ba  Ba0  1  0.94643039  0.51685907  0.20207556  1
  Ba  Ba1  1  0.44643039  0.48314093  0.29792444  1
  Ba  Ba2  1  0.05356961  0.48314093  0.79792444  1
  Ba  Ba3  1  0.55356961  0.51685907  0.70207556  1
  Ba  Ba4  1  0.54140782  0.02123940  0.69268235  1
  Ba  Ba5  1  0.04140782  0.97876060  0.80731765  1
  Ba  Ba6  1  0.45859218  0.97876060  0.30731765  1
  Ba  Ba7  1  0.95859218  0.02123940  0.19268235  1
  Sb  Sb8  1  0.99330283  0.84555106  0.61432423  1
  Sb  Sb9  1  0.49330283  0.15444894  0.88567577  1
  Sb  Sb10  1  0.00669717  0.15444894  0.38567577  1
  Sb  Sb11  1  0.50669717  0.84555106  0.11432423  1
  Sb  Sb12  1  0.70056276  0.42820427  0.46779591  1
  Sb  Sb13  1  0.20056276  0.57179573  0.03220409  1
  Sb  Sb14  1  0.29943724  0.57179573  0.53220409  1
  Sb  Sb15  1  0.79943724  0.42820427  0.96779591  1
  Sb  Sb16  1  0.65349966  0.85223487  0.49870910  1
  Sb  Sb17  1  0.15349966  0.14776513  0.00129090  1
  Sb  Sb18  1  0.34650034  0.14776513  0.50129090  1
  Sb  Sb19  1  0.84650034  0.85223487  0.99870910  1
  Sb  Sb20  1  0.97989429  0.29825148  0.62448297  1
  Sb  Sb21  1  0.47989429  0.70174852  0.87551703  1
  Sb  Sb22  1  0.02010571  0.70174852  0.37551703  1
  Sb  Sb23  1  0.52010571  0.29825148  0.12448297  1
  S  S24  1  0.84512199  0.65721395  0.53766671  1
  S  S25  1  0.34512199  0.34278605  0.96233329  1
  S  S26  1  0.15487801  0.34278605  0.46233329  1
  S  S27  1  0.65487801  0.65721395  0.03766671  1
  S  S28  1  0.16545177  0.49301193  0.65139885  1
  S  S29  1  0.66545177  0.50698807  0.84860115  1
  S  S30  1  0.83454823  0.50698807  0.34860115  1
  S  S31  1  0.33454823  0.49301193  0.15139885  1
  S  S32  1  0.32786548  0.74247132  0.77243856  1
  S  S33  1  0.82786548  0.25752868  0.72756144  1
  S  S34  1  0.67213452  0.25752868  0.22756144  1
  S  S35  1  0.17213452  0.74247132  0.27243856  1
  S  S36  1  0.65243847  0.92538208  0.84644755  1
  S  S37  1  0.15243847  0.07461792  0.65355245  1
  S  S38  1  0.34756153  0.07461792  0.15355245  1
  S  S39  1  0.84756153  0.92538208  0.34644755  1
  S  S40  1  0.34528363  0.23229588  0.78433735  1
  S  S41  1  0.84528363  0.76770412  0.71566265  1
  S  S42  1  0.65471637  0.76770412  0.21566265  1
  S  S43  1  0.15471637  0.23229588  0.28433735  1
  S  S44  1  0.50370105  0.63028790  0.42740181  1
  S  S45  1  0.00370105  0.36971210  0.07259819  1
  S  S46  1  0.49629895  0.36971210  0.57259819  1
  S  S47  1  0.99629895  0.63028790  0.92740181  1
  S  S48  1  0.71111411  0.03315248  0.06323581  1
  S  S49  1  0.21111411  0.96684752  0.43676419  1
  S  S50  1  0.28888589  0.96684752  0.93676419  1
  S  S51  1  0.78888589  0.03315248  0.56323581  1
  S  S52  1  0.94286690  0.22582356  0.91490810  1
  S  S53  1  0.44286690  0.77417644  0.58509190  1
  S  S54  1  0.05713310  0.77417644  0.08509190  1
  S  S55  1  0.55713310  0.22582356  0.41490810  1
