# generated using pymatgen
data_MgTi(CoO3)2
_symmetry_space_group_name_H-M   'P 1'
_cell_length_a   6.46033923
_cell_length_b   2.97986871
_cell_length_c   6.01767528
_cell_angle_alpha   91.69648976
_cell_angle_beta   101.10467135
_cell_angle_gamma   76.95590099
_symmetry_Int_Tables_number   1
_chemical_formula_structural   MgTi(CoO3)2
_chemical_formula_sum   'Mg1 Ti1 Co2 O6'
_cell_volume   110.73215341
_cell_formula_units_Z   1
loop_
 _symmetry_equiv_pos_site_id
 _symmetry_equiv_pos_as_xyz
  1  'x, y, z'
loop_
 _atom_site_type_symbol
 _atom_site_label
 _atom_site_symmetry_multiplicity
 _atom_site_fract_x
 _atom_site_fract_y
 _atom_site_fract_z
 _atom_site_occupancy
  Mg  Mg0  1  0.33199000  0.31529000  0.83258400  1
  Ti  Ti1  1  0.33313900  0.40908900  0.33181100  1
  Co  Co2  1  0.95621100  0.02644900  0.02921300  1
  Co  Co3  1  0.70925800  0.61907000  0.64172700  1
  O  O4  1  0.02474200  0.44894000  0.24966000  1
  O  O5  1  0.33347200  0.82647400  0.57179500  1
  O  O6  1  0.66063300  0.13661200  0.86014600  1
  O  O7  1  0.33168600  0.82415100  0.09869800  1
  O  O8  1  0.64000900  0.18226800  0.42145200  1
  O  O9  1  0.00435400  0.51261800  0.80983200  1
