# generated using pymatgen
data_P4S7
_symmetry_space_group_name_H-M   'P 1'
_cell_length_a   6.99360935
_cell_length_b   9.14383127
_cell_length_c   17.82798899
_cell_angle_alpha   90.00000000
_cell_angle_beta   90.00000000
_cell_angle_gamma   93.52360809
_symmetry_Int_Tables_number   1
_chemical_formula_structural   P4S7
_chemical_formula_sum   'P16 S28'
_cell_volume   1137.91584593
_cell_formula_units_Z   4
loop_
 _symmetry_equiv_pos_site_id
 _symmetry_equiv_pos_as_xyz
  1  'x, y, z'
loop_
 _atom_site_type_symbol
 _atom_site_label
 _atom_site_symmetry_multiplicity
 _atom_site_fract_x
 _atom_site_fract_y
 _atom_site_fract_z
 _atom_site_occupancy
  P  P0  1  0.29742122  0.71673899  0.37898040  1
  P  P1  1  0.20257878  0.78326101  0.87898040  1
  P  P2  1  0.70257878  0.28326101  0.62101960  1
  P  P3  1  0.79742122  0.21673899  0.12101960  1
  P  P4  1  0.53187667  0.64754033  0.29332767  1
  P  P5  1  0.96812333  0.85245967  0.79332767  1
  P  P6  1  0.46812333  0.35245967  0.70667233  1
  P  P7  1  0.03187667  0.14754033  0.20667233  1
  P  P8  1  0.72302583  0.72966550  0.45780368  1
  P  P9  1  0.77697417  0.77033450  0.95780368  1
  P  P10  1  0.27697417  0.27033450  0.54219632  1
  P  P11  1  0.22302583  0.22966550  0.04219632  1
  P  P12  1  0.58741474  0.99749353  0.33232423  1
  P  P13  1  0.91258526  0.50250647  0.83232423  1
  P  P14  1  0.41258526  0.00250647  0.66767577  1
  P  P15  1  0.08741474  0.49749353  0.16767577  1
  S  S16  1  0.77163097  0.95002732  0.42190721  1
  S  S17  1  0.72836903  0.54997268  0.92190721  1
  S  S18  1  0.22836903  0.04997268  0.57809279  1
  S  S19  1  0.27163097  0.45002732  0.07809279  1
  S  S20  1  0.89463614  0.69738902  0.53904285  1
  S  S21  1  0.60536386  0.80261098  0.03904285  1
  S  S22  1  0.10536386  0.30261098  0.46095715  1
  S  S23  1  0.39463614  0.19738902  0.96095715  1
  S  S24  1  0.63488804  0.20049043  0.30621000  1
  S  S25  1  0.86511196  0.29950957  0.80621000  1
  S  S26  1  0.36511196  0.79950957  0.69379000  1
  S  S27  1  0.13488804  0.70049043  0.19379000  1
  S  S28  1  0.43241317  0.69317548  0.48375214  1
  S  S29  1  0.06758683  0.80682452  0.98375214  1
  S  S30  1  0.56758683  0.30682452  0.51624786  1
  S  S31  1  0.93241317  0.19317548  0.01624786  1
  S  S32  1  0.75377667  0.59065929  0.36588455  1
  S  S33  1  0.74622333  0.90934071  0.86588455  1
  S  S34  1  0.24622333  0.40934071  0.63411545  1
  S  S35  1  0.25377667  0.09065929  0.13411545  1
  S  S36  1  0.62768194  0.85012247  0.24494326  1
  S  S37  1  0.87231806  0.64987753  0.74494326  1
  S  S38  1  0.37231806  0.14987753  0.75505674  1
  S  S39  1  0.12768194  0.35012247  0.25505674  1
  S  S40  1  0.30221018  0.94553893  0.36219113  1
  S  S41  1  0.19778982  0.55446107  0.86219113  1
  S  S42  1  0.69778982  0.05446107  0.63780887  1
  S  S43  1  0.80221018  0.44553893  0.13780887  1
