# generated using pymatgen
data_Na2Hf4Ta4Si7S5O48
_symmetry_space_group_name_H-M   'P 1'
_cell_length_a   17.84665461
_cell_length_b   8.92687508
_cell_length_c   23.14512734
_cell_angle_alpha   90.04356328
_cell_angle_beta   89.20281190
_cell_angle_gamma   120.02979034
_symmetry_Int_Tables_number   1
_chemical_formula_structural   Na2Hf4Ta4Si7S5O48
_chemical_formula_sum   'Na6 Hf12 Ta12 Si21 S15 O144'
_cell_volume   3191.99974838
_cell_formula_units_Z   3
loop_
 _symmetry_equiv_pos_site_id
 _symmetry_equiv_pos_as_xyz
  1  'x, y, z'
loop_
 _atom_site_type_symbol
 _atom_site_label
 _atom_site_symmetry_multiplicity
 _atom_site_fract_x
 _atom_site_fract_y
 _atom_site_fract_z
 _atom_site_occupancy
  Na  Na0  1  0.99258545  0.00455090  0.49808621  1
  Na  Na1  1  0.49217045  0.97872680  0.00378562  1
  Na  Na2  1  0.32454222  0.33106931  0.83961722  1
  Na  Na3  1  0.82309357  0.32838416  0.83850983  1
  Na  Na4  1  0.32746869  0.32037382  0.33508481  1
  Na  Na5  1  0.82217114  0.31491737  0.33788034  1
  Hf  Hf6  1  0.00429234  0.01240185  0.35789713  1
  Hf  Hf7  1  0.50583147  0.99780504  0.85898766  1
  Hf  Hf8  1  0.00081816  0.01451166  0.64373259  1
  Hf  Hf9  1  0.50117317  0.99693932  0.14712275  1
  Hf  Hf10  1  0.33360928  0.33692850  0.98027940  1
  Hf  Hf11  1  0.83479997  0.33550686  0.97919095  1
  Hf  Hf12  1  0.33707102  0.33717631  0.47709920  1
  Hf  Hf13  1  0.83460105  0.33165572  0.47785866  1
  Hf  Hf14  1  0.17312848  0.68154033  0.31122282  1
  Hf  Hf15  1  0.66962899  0.67305591  0.30916052  1
  Hf  Hf16  1  0.17452135  0.66690916  0.81186377  1
  Hf  Hf17  1  0.67196850  0.66390435  0.81198942  1
  Ta  Ta18  1  0.50497681  0.02277009  0.35785978  1
  Ta  Ta19  1  0.00648204  0.00179690  0.86080415  1
  Ta  Ta20  1  0.50249082  0.01690732  0.64186068  1
  Ta  Ta21  1  0.00271380  0.98850261  0.14174010  1
  Ta  Ta22  1  0.33199424  0.34315049  0.68521724  1
  Ta  Ta23  1  0.83469830  0.34800069  0.68504552  1
  Ta  Ta24  1  0.34010619  0.32209513  0.18891628  1
  Ta  Ta25  1  0.83157907  0.32154726  0.18597667  1
  Ta  Ta26  1  0.17313845  0.69133346  0.02471636  1
  Ta  Ta27  1  0.67223556  0.69016062  0.02435291  1
  Ta  Ta28  1  0.17271578  0.65445046  0.52297937  1
  Ta  Ta29  1  0.67100030  0.65243103  0.52181224  1
  Si  Si30  1  0.14392604  0.00270910  0.24959927  1
  Si  Si31  1  0.64344347  0.00254353  0.25047548  1
  Si  Si32  1  0.50293442  0.28944033  0.24973746  1
  Si  Si33  1  0.14412197  0.28547720  0.75026338  1
  Si  Si34  1  0.64422983  0.28650046  0.74981574  1
  Si  Si35  1  0.47678681  0.34284966  0.58227928  1
  Si  Si36  1  0.97827111  0.34030576  0.58164968  1
  Si  Si37  1  0.33748097  0.62718178  0.58253063  1
  Si  Si38  1  0.83668297  0.62730330  0.58096481  1
  Si  Si39  1  0.47747181  0.62171580  0.08229078  1
  Si  Si40  1  0.97642543  0.61123451  0.08252311  1
  Si  Si41  1  0.33927841  0.05110982  0.08200359  1
  Si  Si42  1  0.83780653  0.04915369  0.08298091  1
  Si  Si43  1  0.31077661  0.66523046  0.91767708  1
  Si  Si44  1  0.80986812  0.66384257  0.91662464  1
  Si  Si45  1  0.17132880  0.95541289  0.91517384  1
  Si  Si46  1  0.66967850  0.95662399  0.91533864  1
  Si  Si47  1  0.31117135  0.95429671  0.41667713  1
  Si  Si48  1  0.80958537  0.95247320  0.41611741  1
  Si  Si49  1  0.16890660  0.38038610  0.41468959  1
  Si  Si50  1  0.67086902  0.38392175  0.41430401  1
  S  S51  1  0.35691036  0.70741058  0.25076011  1
  S  S52  1  0.85919578  0.71219100  0.24868520  1
  S  S53  1  0.99864128  0.28686842  0.24878833  1
  S  S54  1  0.99886635  0.71228442  0.75068632  1
  S  S55  1  0.49859010  0.71068687  0.74880914  1
  S  S56  1  0.35851987  0.00604462  0.74890195  1
  S  S57  1  0.85751305  0.00609902  0.75079189  1
  S  S58  1  0.19058371  0.04532356  0.58357069  1
  S  S59  1  0.68963208  0.04449190  0.58503938  1
  S  S60  1  0.18871398  0.33647257  0.08479282  1
  S  S61  1  0.69030768  0.33623328  0.08335287  1
  S  S62  1  0.02415535  0.37910124  0.91590327  1
  S  S63  1  0.52388618  0.38059594  0.91697075  1
  S  S64  1  0.02479576  0.66840632  0.41704169  1
  S  S65  1  0.52542897  0.67258425  0.41662981  1
  O  O66  1  0.09705098  0.03185603  0.30562213  1
  O  O67  1  0.59394619  0.02772349  0.30732046  1
  O  O68  1  0.40979303  0.78563348  0.30211013  1
  O  O69  1  0.91158573  0.78911752  0.30009429  1
  O  O70  1  0.48264593  0.16176568  0.30745693  1
  O  O71  1  0.97975235  0.17699339  0.30132852  1
  O  O72  1  0.09327939  0.15902949  0.80683291  1
  O  O73  1  0.59833586  0.16278776  0.80553577  1
  O  O74  1  0.47984209  0.78300939  0.80129697  1
  O  O75  1  0.98175717  0.79025982  0.80297072  1
  O  O76  1  0.41021460  0.03196157  0.80032025  1
  O  O77  1  0.91102642  0.03133204  0.80183186  1
  O  O78  1  0.40078484  0.98003937  0.69646457  1
  O  O79  1  0.89696676  0.97777722  0.69806830  1
  O  O80  1  0.08752059  0.18895683  0.69457783  1
  O  O81  1  0.58439055  0.18027343  0.69375747  1
  O  O82  1  0.00933170  0.81333034  0.69851210  1
  O  O83  1  0.50926402  0.81650732  0.69720904  1
  O  O84  1  0.39561086  0.81253236  0.19789818  1
  O  O85  1  0.90246020  0.82257229  0.19619910  1
  O  O86  1  0.00922173  0.20197957  0.19713661  1
  O  O87  1  0.50976617  0.19430690  0.19293832  1
  O  O88  1  0.08294129  0.98596348  0.19358570  1
  O  O89  1  0.58898878  0.98083429  0.19327328  1
  O  O90  1  0.42615481  0.35600054  0.64111923  1
  O  O91  1  0.92719635  0.35554180  0.64066938  1
  O  O92  1  0.24457753  0.13088697  0.63615752  1
  O  O93  1  0.74459095  0.13026490  0.63680466  1
  O  O94  1  0.31800581  0.49838977  0.64057772  1
  O  O95  1  0.81942542  0.50052845  0.63978098  1
  O  O96  1  0.42637986  0.49935295  0.13978667  1
  O  O97  1  0.92646991  0.49680364  0.14072841  1
  O  O98  1  0.32025878  0.13835194  0.13990352  1
  O  O99  1  0.81816905  0.13942173  0.14030425  1
  O  O100  1  0.24218618  0.36471129  0.13580965  1
  O  O101  1  0.74456926  0.36013588  0.13544777  1
  O  O102  1  0.22374587  0.29696065  0.03253089  1
  O  O103  1  0.73032803  0.30638773  0.03136624  1
  O  O104  1  0.41695902  0.53271233  0.02677462  1
  O  O105  1  0.91640802  0.53532522  0.02722403  1
  O  O106  1  0.34618467  0.16203536  0.02571874  1
  O  O107  1  0.85208308  0.16696554  0.02751501  1
  O  O108  1  0.22843079  0.15529168  0.53215724  1
  O  O109  1  0.72481920  0.15410783  0.53343323  1
  O  O110  1  0.35190068  0.53610092  0.52809604  1
  O  O111  1  0.84816315  0.53142876  0.52648917  1
  O  O112  1  0.41497752  0.29517812  0.52822479  1
  O  O113  1  0.91582428  0.30002122  0.52781641  1
  O  O114  1  0.25755500  0.68099116  0.97437271  1
  O  O115  1  0.76062878  0.68654428  0.97349300  1
  O  O116  1  0.07507380  0.44992315  0.96774086  1
  O  O117  1  0.57614317  0.45798550  0.96852559  1
  O  O118  1  0.15268070  0.83220662  0.97318765  1
  O  O119  1  0.65544473  0.83509588  0.97387761  1
  O  O120  1  0.25872053  0.83323986  0.47390419  1
  O  O121  1  0.75757961  0.83372315  0.47465619  1
  O  O122  1  0.15457068  0.47333675  0.47416037  1
  O  O123  1  0.65296629  0.46984794  0.47386749  1
  O  O124  1  0.07623434  0.69328079  0.46902866  1
  O  O125  1  0.57613757  0.69600062  0.46911563  1
  O  O126  1  0.06401742  0.64307184  0.36409591  1
  O  O127  1  0.56398374  0.64094918  0.36469782  1
  O  O128  1  0.25105578  0.86767321  0.36027080  1
  O  O129  1  0.75240212  0.86587241  0.36006126  1
  O  O130  1  0.17580455  0.49371474  0.35859155  1
  O  O131  1  0.68309705  0.50023139  0.35904836  1
  O  O132  1  0.06362360  0.48450699  0.86328990  1
  O  O133  1  0.56368029  0.48457565  0.86378298  1
  O  O134  1  0.17747396  0.85956062  0.85791616  1
  O  O135  1  0.67672191  0.85906680  0.85835002  1
  O  O136  1  0.25271712  0.63854175  0.86038938  1
  O  O137  1  0.75133748  0.63408636  0.85959710  1
  O  O138  1  0.01384023  0.82257476  0.41054212  1
  O  O139  1  0.51387520  0.82402682  0.40820715  1
  O  O140  1  0.40254620  0.95641719  0.40556726  1
  O  O141  1  0.90365330  0.96205427  0.41114784  1
  O  O142  1  0.08082282  0.18864369  0.41316368  1
  O  O143  1  0.58169919  0.19244385  0.40841661  1
  O  O144  1  0.01274951  0.20071789  0.90622884  1
  O  O145  1  0.51324335  0.20461955  0.90959134  1
  O  O146  1  0.08122917  0.96941834  0.90648284  1
  O  O147  1  0.58175788  0.97290497  0.91305788  1
  O  O148  1  0.40340323  0.84400219  0.90997359  1
  O  O149  1  0.90359840  0.84206436  0.90152669  1
  O  O150  1  0.49100205  0.17516013  0.59715687  1
  O  O151  1  0.99312019  0.17522791  0.59045940  1
  O  O152  1  0.10313774  0.02316186  0.59269423  1
  O  O153  1  0.60132921  0.02333507  0.59618306  1
  O  O154  1  0.41923923  0.81248641  0.60186632  1
  O  O155  1  0.91993314  0.81323983  0.59365278  1
  O  O156  1  0.49377618  0.81568835  0.08932098  1
  O  O157  1  0.99108994  0.80752451  0.09614531  1
  O  O158  1  0.42015342  0.02194041  0.08910690  1
  O  O159  1  0.91929244  0.02673062  0.10131101  1
  O  O160  1  0.09966412  0.18021339  0.09486287  1
  O  O161  1  0.60422671  0.18191131  0.08999268  1
  O  O162  1  0.34775892  0.15960932  0.74005584  1
  O  O163  1  0.84797816  0.16207305  0.74303448  1
  O  O164  1  0.24113507  0.30009839  0.74256355  1
  O  O165  1  0.74078467  0.30244563  0.73892005  1
  O  O166  1  0.41829453  0.53185842  0.74132545  1
  O  O167  1  0.91768962  0.53346228  0.74432362  1
  O  O168  1  0.34527820  0.53110641  0.24292840  1
  O  O169  1  0.84943033  0.53743974  0.23972523  1
  O  O170  1  0.41282027  0.30525144  0.24374977  1
  O  O171  1  0.91828725  0.30470552  0.24136710  1
  O  O172  1  0.23790924  0.17972799  0.23800886  1
  O  O173  1  0.74105121  0.18629019  0.24187626  1
  O  O174  1  0.32278367  0.49777006  0.92226985  1
  O  O175  1  0.82682351  0.50266656  0.92250951  1
  O  O176  1  0.43646777  0.36086374  0.92185016  1
  O  O177  1  0.93603652  0.35498889  0.92117562  1
  O  O178  1  0.25176967  0.14707139  0.92224425  1
  O  O179  1  0.75387143  0.14649381  0.92286125  1
  O  O180  1  0.32543201  0.14747549  0.42372094  1
  O  O181  1  0.82386415  0.14655162  0.42353787  1
  O  O182  1  0.25322712  0.36038200  0.42348317  1
  O  O183  1  0.75215393  0.35533148  0.42379079  1
  O  O184  1  0.43737619  0.51546265  0.42292276  1
  O  O185  1  0.93709736  0.51255409  0.42207650  1
  O  O186  1  0.17574776  0.48463270  0.07484159  1
  O  O187  1  0.68273645  0.49152185  0.07582783  1
  O  O188  1  0.07038437  0.62740592  0.07199163  1
  O  O189  1  0.57060062  0.62612319  0.07081991  1
  O  O190  1  0.24918768  0.85919126  0.07489875  1
  O  O191  1  0.75154209  0.85757563  0.07516585  1
  O  O192  1  0.18241237  0.87447529  0.57696744  1
  O  O193  1  0.67869838  0.87261344  0.57804772  1
  O  O194  1  0.25153207  0.64684469  0.57522688  1
  O  O195  1  0.74887108  0.64192694  0.57435675  1
  O  O196  1  0.07102614  0.51791240  0.57218674  1
  O  O197  1  0.57049138  0.51428872  0.57286057  1
  O  O198  1  0.15207358  0.83165690  0.25629401  1
  O  O199  1  0.66069794  0.84559429  0.25988266  1
  O  O200  1  0.26979989  0.68881840  0.25723586  1
  O  O201  1  0.77339173  0.69492664  0.25296663  1
  O  O202  1  0.07330105  0.45837369  0.25616828  1
  O  O203  1  0.58223618  0.47755392  0.26120764  1
  O  O204  1  0.15481177  0.47326724  0.75964323  1
  O  O205  1  0.65353669  0.47454561  0.75596187  1
  O  O206  1  0.07278723  0.68716009  0.75908444  1
  O  O207  1  0.57332791  0.68816925  0.75612429  1
  O  O208  1  0.27161368  0.85063569  0.75368569  1
  O  O209  1  0.77049340  0.85244549  0.75701651  1
