# generated using pymatgen
data_ErB3H18C2S
_symmetry_space_group_name_H-M   'P 1'
_cell_length_a   5.46555620
_cell_length_b   22.56874100
_cell_length_c   8.10943164
_cell_angle_alpha   90.00000000
_cell_angle_beta   100.05313274
_cell_angle_gamma   90.00000000
_symmetry_Int_Tables_number   1
_chemical_formula_structural   ErB3H18C2S
_chemical_formula_sum   'Er4 B12 H72 C8 S4'
_cell_volume   984.94587712
_cell_formula_units_Z   4
loop_
 _symmetry_equiv_pos_site_id
 _symmetry_equiv_pos_as_xyz
  1  'x, y, z'
loop_
 _atom_site_type_symbol
 _atom_site_label
 _atom_site_symmetry_multiplicity
 _atom_site_fract_x
 _atom_site_fract_y
 _atom_site_fract_z
 _atom_site_occupancy
  Er  Er0  1  0.68104000  0.33325500  0.11767600  1
  Er  Er1  1  0.31896000  0.83325500  0.38232400  1
  Er  Er2  1  0.31896000  0.66674500  0.88232400  1
  Er  Er3  1  0.68104000  0.16674500  0.61767600  1
  B  B4  1  0.16520300  0.16917000  0.56547200  1
  B  B5  1  0.83479700  0.66917000  0.93452800  1
  B  B6  1  0.83479700  0.83083000  0.43452800  1
  B  B7  1  0.16520300  0.33083000  0.06547200  1
  B  B8  1  0.80040900  0.08491500  0.81183000  1
  B  B9  1  0.19959100  0.58491500  0.68817000  1
  B  B10  1  0.19959100  0.91508500  0.18817000  1
  B  B11  1  0.80040900  0.41508500  0.31183000  1
  B  B12  1  0.32255800  0.75477400  0.12315400  1
  B  B13  1  0.67744200  0.25477400  0.37684600  1
  B  B14  1  0.67744200  0.24522600  0.87684600  1
  B  B15  1  0.32255800  0.74522600  0.62315400  1
  H  H16  1  0.28013900  0.19698300  0.47332400  1
  H  H17  1  0.71986100  0.69698300  0.02667600  1
  H  H18  1  0.71986100  0.80301700  0.52667600  1
  H  H19  1  0.28013900  0.30301700  0.97332400  1
  H  H20  1  0.29667400  0.13592700  0.66268600  1
  H  H21  1  0.70332600  0.63592700  0.83731400  1
  H  H22  1  0.70332600  0.86407300  0.33731400  1
  H  H23  1  0.29667400  0.36407300  0.16268600  1
  H  H24  1  0.07231500  0.20596300  0.64788300  1
  H  H25  1  0.92768500  0.70596300  0.85211700  1
  H  H26  1  0.92768500  0.79403700  0.35211700  1
  H  H27  1  0.07231500  0.29403700  0.14788300  1
  H  H28  1  0.00670800  0.13839000  0.47791400  1
  H  H29  1  0.99329200  0.63839000  0.02208600  1
  H  H30  1  0.99329200  0.86161000  0.52208600  1
  H  H31  1  0.00670800  0.36161000  0.97791400  1
  H  H32  1  0.86160500  0.04344800  0.90280500  1
  H  H33  1  0.13839500  0.54344800  0.59719500  1
  H  H34  1  0.13839500  0.95655200  0.09719500  1
  H  H35  1  0.86160500  0.45655200  0.40280500  1
  H  H36  1  0.96129200  0.12393800  0.82276300  1
  H  H37  1  0.03870800  0.62393800  0.67723700  1
  H  H38  1  0.03870800  0.87606200  0.17723700  1
  H  H39  1  0.96129200  0.37606200  0.32276300  1
  H  H40  1  0.75858700  0.06979000  0.66204800  1
  H  H41  1  0.24141300  0.56979000  0.83795200  1
  H  H42  1  0.24141300  0.93021000  0.33795200  1
  H  H43  1  0.75858700  0.43021000  0.16204800  1
  H  H44  1  0.60878100  0.10949000  0.83854200  1
  H  H45  1  0.39121900  0.60949000  0.66145800  1
  H  H46  1  0.39121900  0.89051000  0.16145800  1
  H  H47  1  0.60878100  0.39051000  0.33854200  1
  H  H48  1  0.12940200  0.77251300  0.16397400  1
  H  H49  1  0.87059800  0.27251300  0.33602600  1
  H  H50  1  0.87059800  0.22748700  0.83602600  1
  H  H51  1  0.12940200  0.72748700  0.66397400  1
  H  H52  1  0.33828900  0.70133600  0.15211400  1
  H  H53  1  0.66171100  0.20133600  0.34788600  1
  H  H54  1  0.66171100  0.29866400  0.84788600  1
  H  H55  1  0.33828900  0.79866400  0.65211400  1
  H  H56  1  0.31440700  0.76647500  0.97400300  1
  H  H57  1  0.68559300  0.26647500  0.52599700  1
  H  H58  1  0.68559300  0.23352500  0.02599700  1
  H  H59  1  0.31440700  0.73352500  0.47400300  1
  H  H60  1  0.51025300  0.77820300  0.20227200  1
  H  H61  1  0.48974700  0.27820300  0.29772800  1
  H  H62  1  0.48974700  0.22179700  0.79772800  1
  H  H63  1  0.51025300  0.72179700  0.70227200  1
  H  H64  1  0.80623300  0.01039600  0.41402700  1
  H  H65  1  0.19376700  0.51039600  0.08597300  1
  H  H66  1  0.19376700  0.98960400  0.58597300  1
  H  H67  1  0.80623300  0.48960400  0.91402700  1
  H  H68  1  0.85889700  0.06070100  0.25227600  1
  H  H69  1  0.14110300  0.56070100  0.24772400  1
  H  H70  1  0.14110300  0.93929900  0.74772400  1
  H  H71  1  0.85889700  0.43929900  0.75227600  1
  H  H72  1  0.63263600  0.00236200  0.20752400  1
  H  H73  1  0.36736400  0.50236200  0.29247600  1
  H  H74  1  0.36736400  0.99763800  0.79247600  1
  H  H75  1  0.63263600  0.49763800  0.70752400  1
  H  H76  1  0.21220100  0.14624800  0.18582500  1
  H  H77  1  0.78779900  0.64624800  0.31417500  1
  H  H78  1  0.78779900  0.85375200  0.81417500  1
  H  H79  1  0.21220100  0.35375200  0.68582500  1
  H  H80  1  0.27037100  0.08055400  0.07551400  1
  H  H81  1  0.72962900  0.58055400  0.42448600  1
  H  H82  1  0.72962900  0.91944600  0.92448600  1
  H  H83  1  0.27037100  0.41944600  0.57551400  1
  H  H84  1  0.50020200  0.13839600  0.11173500  1
  H  H85  1  0.49979800  0.63839600  0.38826500  1
  H  H86  1  0.49979800  0.86160400  0.88826500  1
  H  H87  1  0.50020200  0.36160400  0.61173500  1
  C  C88  1  0.71939600  0.03439100  0.30148900  1
  C  C89  1  0.28060400  0.53439100  0.19851100  1
  C  C90  1  0.28060400  0.96560900  0.69851100  1
  C  C91  1  0.71939600  0.46560900  0.80148900  1
  C  C92  1  0.35533400  0.11477100  0.16312000  1
  C  C93  1  0.64466600  0.61477100  0.33688000  1
  C  C94  1  0.64466600  0.88522900  0.83688000  1
  C  C95  1  0.35533400  0.38522900  0.66312000  1
  S  S96  1  0.47983200  0.08062100  0.36137700  1
  S  S97  1  0.52016800  0.58062100  0.13862300  1
  S  S98  1  0.52016800  0.91937900  0.63862300  1
  S  S99  1  0.47983200  0.41937900  0.86137700  1
