# generated using pymatgen
data_Ba(InTe2)2
_symmetry_space_group_name_H-M   'P 1'
_cell_length_a   7.12528488
_cell_length_b   7.12528540
_cell_length_c   12.37571875
_cell_angle_alpha   90.00000000
_cell_angle_beta   90.00000000
_cell_angle_gamma   118.98016796
_symmetry_Int_Tables_number   1
_chemical_formula_structural   Ba(InTe2)2
_chemical_formula_sum   'Ba2 In4 Te8'
_cell_volume   549.63892224
_cell_formula_units_Z   2
loop_
 _symmetry_equiv_pos_site_id
 _symmetry_equiv_pos_as_xyz
  1  'x, y, z'
loop_
 _atom_site_type_symbol
 _atom_site_label
 _atom_site_symmetry_multiplicity
 _atom_site_fract_x
 _atom_site_fract_y
 _atom_site_fract_z
 _atom_site_occupancy
  Ba  Ba0  1  0.50000000  0.50000000  0.25000000  1
  Ba  Ba1  1  0.50000000  0.50000000  0.75000000  1
  In  In2  1  0.23988752  0.76330233  0.50000000  1
  In  In3  1  0.76011248  0.23669767  0.50000000  1
  In  In4  1  0.23669767  0.76011248  0.00000000  1
  In  In5  1  0.76330233  0.23988752  0.00000000  1
  Te  Te6  1  0.50000000  -0.00000000  0.32443217  1
  Te  Te7  1  -0.00000000  0.50000000  0.17556783  1
  Te  Te8  1  0.65805956  0.80701327  0.00000000  1
  Te  Te9  1  0.34194044  0.19298673  0.00000000  1
  Te  Te10  1  0.80701327  0.65805956  0.50000000  1
  Te  Te11  1  0.19298673  0.34194044  0.50000000  1
  Te  Te12  1  0.50000000  -0.00000000  0.67556783  1
  Te  Te13  1  -0.00000000  0.50000000  0.82443217  1
