# generated using pymatgen
data_Na4Y3Ta(PO4)6
_symmetry_space_group_name_H-M   'P 1'
_cell_length_a   9.16519677
_cell_length_b   9.15709840
_cell_length_c   23.38158603
_cell_angle_alpha   89.94302140
_cell_angle_beta   90.11069813
_cell_angle_gamma   120.02010535
_symmetry_Int_Tables_number   1
_chemical_formula_structural   Na4Y3Ta(PO4)6
_chemical_formula_sum   'Na12 Y9 Ta3 P18 O72'
_cell_volume   1699.08631213
_cell_formula_units_Z   3
loop_
 _symmetry_equiv_pos_site_id
 _symmetry_equiv_pos_as_xyz
  1  'x, y, z'
loop_
 _atom_site_type_symbol
 _atom_site_label
 _atom_site_symmetry_multiplicity
 _atom_site_fract_x
 _atom_site_fract_y
 _atom_site_fract_z
 _atom_site_occupancy
  Na  Na0  1  0.63910512  0.99826345  0.25213194  1
  Na  Na1  1  0.36090823  0.36114503  0.25172677  1
  Na  Na2  1  0.99918555  0.64025337  0.25091458  1
  Na  Na3  1  0.29849455  0.33548216  0.58554972  1
  Na  Na4  1  0.03814329  0.69842454  0.58572002  1
  Na  Na5  1  0.66259296  0.70431450  0.07829421  1
  Na  Na6  1  0.98683415  0.99963420  0.49736630  1
  Na  Na7  1  0.01409146  0.01405285  0.99541128  1
  Na  Na8  1  0.66678342  0.33405721  0.82778108  1
  Na  Na9  1  0.66646898  0.33324811  0.33771875  1
  Na  Na10  1  0.31856906  0.66713892  0.16168519  1
  Na  Na11  1  0.35136415  0.68445679  0.67141518  1
  Y  Y12  1  0.00107587  0.99913789  0.35490186  1
  Y  Y13  1  0.99946256  0.99825497  0.85163961  1
  Y  Y14  1  0.98925082  0.99941355  0.65462406  1
  Y  Y15  1  0.00967015  0.00916790  0.14230550  1
  Y  Y16  1  0.66684287  0.32890948  0.69007633  1
  Y  Y17  1  0.66631485  0.32842346  0.18036670  1
  Y  Y18  1  0.32452080  0.66597370  0.01579985  1
  Y  Y19  1  0.34156365  0.67454968  0.51488072  1
  Y  Y20  1  0.33445509  0.66730601  0.32626354  1
  Ta  Ta21  1  0.66693302  0.33053483  0.97740271  1
  Ta  Ta22  1  0.66657194  0.33010685  0.48222740  1
  Ta  Ta23  1  0.33109616  0.66500420  0.81835688  1
  P  P24  1  0.29652791  0.99623906  0.25031081  1
  P  P25  1  0.70041003  0.70365571  0.24745045  1
  P  P26  1  0.00417824  0.30028839  0.25056967  1
  P  P27  1  0.29755041  0.31034682  0.75180204  1
  P  P28  1  0.01274026  0.70213849  0.75144374  1
  P  P29  1  0.68821902  0.98642552  0.75491186  1
  P  P30  1  0.95598093  0.33063006  0.58130165  1
  P  P31  1  0.37298602  0.04489331  0.58220471  1
  P  P32  1  0.66991928  0.62042189  0.58203999  1
  P  P33  1  0.95317223  0.62320653  0.08036066  1
  P  P34  1  0.66931635  0.04114661  0.07933973  1
  P  P35  1  0.37893062  0.33277374  0.07881632  1
  P  P36  1  0.62073172  0.65496877  0.91940477  1
  P  P37  1  0.03252451  0.37682655  0.91701395  1
  P  P38  1  0.34512517  0.96713041  0.91676066  1
  P  P39  1  0.64009243  0.98247212  0.41691277  1
  P  P40  1  0.34264342  0.36147209  0.42030266  1
  P  P41  1  0.01868385  0.65648871  0.42011587  1
  O  O42  1  0.21407683  0.02440429  0.30256755  1
  O  O43  1  0.81593910  0.79317343  0.29842555  1
  O  O44  1  0.97759437  0.18977771  0.30277996  1
  O  O45  1  0.20232134  0.19271230  0.80050805  1
  O  O46  1  0.98936521  0.79628390  0.80029168  1
  O  O47  1  0.80154724  0.01122757  0.80508501  1
  O  O48  1  0.75815353  0.95347751  0.69897000  1
  O  O49  1  0.19904717  0.24467450  0.69426105  1
  O  O50  1  0.04290307  0.80006548  0.69390376  1
  O  O51  1  0.77855041  0.80473130  0.19166876  1
  O  O52  1  0.02896762  0.21778268  0.19663838  1
  O  O53  1  0.18955375  0.97245722  0.19633390  1
  O  O54  1  0.87550090  0.35615055  0.63405726  1
  O  O55  1  0.47389005  0.12683943  0.63564183  1
  O  O56  1  0.64697755  0.51578579  0.63506661  1
  O  O57  1  0.87847774  0.53612823  0.13786169  1
  O  O58  1  0.65574702  0.11483705  0.13680455  1
  O  O59  1  0.46861000  0.34793374  0.13618784  1
  O  O60  1  0.48950376  0.32480114  0.02811272  1
  O  O61  1  0.83616562  0.50978462  0.02941052  1
  O  O62  1  0.67370475  0.15724921  0.02829797  1
  O  O63  1  0.47865638  0.15627088  0.52875244  1
  O  O64  1  0.68146175  0.51751714  0.52874961  1
  O  O65  1  0.84323464  0.31881603  0.52769548  1
  O  O66  1  0.54955099  0.67834368  0.97500369  1
  O  O67  1  0.13295023  0.45203304  0.97094475  1
  O  O68  1  0.32141717  0.86771210  0.97080351  1
  O  O69  1  0.54381952  0.86544572  0.46612027  1
  O  O70  1  0.32315283  0.45193081  0.47198683  1
  O  O71  1  0.12863945  0.67608627  0.47183908  1
  O  O72  1  0.09342500  0.62852536  0.36450801  1
  O  O73  1  0.54200821  0.91518877  0.36004170  1
  O  O74  1  0.37284083  0.46512189  0.36463288  1
  O  O75  1  0.12970793  0.49928596  0.86548304  1
  O  O76  1  0.36704519  0.86843696  0.86528850  1
  O  O77  1  0.49564739  0.63204963  0.86884558  1
  O  O78  1  0.98942655  0.80595396  0.41629303  1
  O  O79  1  0.81834351  0.01145027  0.41507594  1
  O  O80  1  0.19259525  0.18341102  0.41631188  1
  O  O81  1  0.00096959  0.19953562  0.90842278  1
  O  O82  1  0.20031770  0.00053542  0.90862753  1
  O  O83  1  0.79798737  0.80020835  0.90980022  1
  O  O84  1  0.97511398  0.17308270  0.58273476  1
  O  O85  1  0.20234328  0.04287415  0.58190327  1
  O  O86  1  0.83680596  0.79049497  0.58284626  1
  O  O87  1  0.94894695  0.78975870  0.07725928  1
  O  O88  1  0.83116067  0.02924632  0.07666458  1
  O  O89  1  0.20660509  0.17248158  0.07623479  1
  O  O90  1  0.65573945  0.13427958  0.74976925  1
  O  O91  1  0.47813476  0.34285695  0.74822485  1
  O  O92  1  0.86493305  0.52108905  0.74815496  1
  O  O93  1  0.67711565  0.52295470  0.24512268  1
  O  O94  1  0.84656154  0.32214801  0.24606124  1
  O  O95  1  0.47637126  0.15341675  0.24593375  1
  O  O96  1  0.63029561  0.48578294  0.92484665  1
  O  O97  1  0.85559665  0.36896231  0.92402823  1
  O  O98  1  0.51455261  0.14441797  0.92355010  1
  O  O99  1  0.65217908  0.15831524  0.42756160  1
  O  O100  1  0.50609448  0.34703480  0.42888553  1
  O  O101  1  0.84093825  0.49255899  0.42832827  1
  O  O102  1  0.37204572  0.49632338  0.07470333  1
  O  O103  1  0.12973465  0.64801866  0.07691983  1
  O  O104  1  0.51627460  0.86220743  0.07607627  1
  O  O105  1  0.33849734  0.86296782  0.57668732  1
  O  O106  1  0.51156962  0.63620030  0.57536778  1
  O  O107  1  0.13282673  0.48973553  0.57483577  1
  O  O108  1  0.31395467  0.83635754  0.25615095  1
  O  O109  1  0.52324793  0.68572242  0.25509593  1
  O  O110  1  0.16301410  0.47873829  0.25640955  1
  O  O111  1  0.31141381  0.48799565  0.76525415  1
  O  O112  1  0.17721601  0.68984096  0.76457510  1
  O  O113  1  0.51089191  0.82182035  0.76608912  1
