# generated using pymatgen
data_Na2YTaSi2SO12
_symmetry_space_group_name_H-M   'P 1'
_cell_length_a   9.15952857
_cell_length_b   9.15952824
_cell_length_c   23.18233034
_cell_angle_alpha   90.60594458
_cell_angle_beta   89.39405543
_cell_angle_gamma   119.29692384
_symmetry_Int_Tables_number   1
_chemical_formula_structural   Na2YTaSi2SO12
_chemical_formula_sum   'Na12 Y6 Ta6 Si12 S6 O72'
_cell_volume   1696.03484190
_cell_formula_units_Z   6
loop_
 _symmetry_equiv_pos_site_id
 _symmetry_equiv_pos_as_xyz
  1  'x, y, z'
loop_
 _atom_site_type_symbol
 _atom_site_label
 _atom_site_symmetry_multiplicity
 _atom_site_fract_x
 _atom_site_fract_y
 _atom_site_fract_z
 _atom_site_occupancy
  Na  Na0  1  0.98038262  0.62305311  0.24974972  1
  Na  Na1  1  0.37694689  0.01961738  0.74974972  1
  Na  Na2  1  0.64704962  0.95638611  0.58308272  1
  Na  Na3  1  0.04361389  0.35295038  0.08308272  1
  Na  Na4  1  0.31371562  0.28972011  0.91641672  1
  Na  Na5  1  0.71027989  0.68628438  0.41641672  1
  Na  Na6  1  0.00703109  0.98386185  0.49691366  1
  Na  Na7  1  0.01613815  0.99296891  0.99691366  1
  Na  Na8  1  0.67369809  0.31719485  0.83024666  1
  Na  Na9  1  0.68280515  0.32630191  0.33024666  1
  Na  Na10  1  0.34036409  0.65052885  0.16358066  1
  Na  Na11  1  0.34947115  0.65963591  0.66358066  1
  Y  Y12  1  0.99232068  0.00306812  0.35257981  1
  Y  Y13  1  0.99693188  0.00767932  0.85257981  1
  Y  Y14  1  0.65898768  0.33640112  0.68591281  1
  Y  Y15  1  0.66359888  0.34101232  0.18591281  1
  Y  Y16  1  0.32565368  0.66973512  0.01924681  1
  Y  Y17  1  0.33026488  0.67434632  0.51924681  1
  Ta  Ta18  1  0.99925662  0.00336862  0.64672048  1
  Ta  Ta19  1  0.99663138  0.00074338  0.14672048  1
  Ta  Ta20  1  0.66592362  0.33670162  0.98005348  1
  Ta  Ta21  1  0.66329838  0.33407638  0.48005348  1
  Ta  Ta22  1  0.33258962  0.67003562  0.31338748  1
  Ta  Ta23  1  0.32996438  0.66741038  0.81338748  1
  Si  Si24  1  0.70250950  0.71375575  0.25172771  1
  Si  Si25  1  0.00917056  0.30108480  0.25009462  1
  Si  Si26  1  0.28624425  0.29749050  0.75172771  1
  Si  Si27  1  0.69891520  0.99082944  0.75009462  1
  Si  Si28  1  0.36917650  0.04708875  0.58506071  1
  Si  Si29  1  0.67583756  0.63441780  0.58342762  1
  Si  Si30  1  0.95291125  0.63082350  0.08506071  1
  Si  Si31  1  0.36558220  0.32416244  0.08342762  1
  Si  Si32  1  0.03584250  0.38042275  0.91839471  1
  Si  Si33  1  0.34250356  0.96775180  0.91676162  1
  Si  Si34  1  0.61957725  0.96415750  0.41839471  1
  Si  Si35  1  0.03224820  0.65749644  0.41676162  1
  S  S36  1  0.28710078  0.99076869  0.24898891  1
  S  S37  1  0.00923131  0.71289922  0.74898891  1
  S  S38  1  0.95376778  0.32410169  0.58232191  1
  S  S39  1  0.67589831  0.04623222  0.08232191  1
  S  S40  1  0.62043378  0.65743569  0.91565591  1
  S  S41  1  0.34256431  0.37956622  0.41565591  1
  O  O42  1  0.21587026  0.01618948  0.30221325  1
  O  O43  1  0.81539809  0.78599711  0.30822106  1
  O  O44  1  0.99584950  0.19671628  0.30543495  1
  O  O45  1  0.21400289  0.18460191  0.80822106  1
  O  O46  1  0.98381052  0.78412974  0.80221325  1
  O  O47  1  0.80328372  0.00415050  0.80543495  1
  O  O48  1  0.80218498  0.97269118  0.69066805  1
  O  O49  1  0.15775703  0.18575940  0.69566061  1
  O  O50  1  0.03316572  0.82388044  0.69780132  1
  O  O51  1  0.81424060  0.84224297  0.19566061  1
  O  O52  1  0.02730882  0.19781502  0.19066805  1
  O  O53  1  0.17611956  0.96683428  0.19780132  1
  O  O54  1  0.88253726  0.34952248  0.63554625  1
  O  O55  1  0.48206509  0.11933011  0.64155406  1
  O  O56  1  0.66251650  0.53004928  0.63876795  1
  O  O57  1  0.88066989  0.51793491  0.14155406  1
  O  O58  1  0.65047752  0.11746274  0.13554625  1
  O  O59  1  0.46995072  0.33748350  0.13876795  1
  O  O60  1  0.46885198  0.30602418  0.02400105  1
  O  O61  1  0.82442403  0.51909240  0.02899361  1
  O  O62  1  0.69983272  0.15721344  0.03113432  1
  O  O63  1  0.48090760  0.17557597  0.52899361  1
  O  O64  1  0.69397582  0.53114802  0.52400105  1
  O  O65  1  0.84278656  0.30016728  0.53113432  1
  O  O66  1  0.54920326  0.68285648  0.96888025  1
  O  O67  1  0.14873109  0.45266411  0.97488806  1
  O  O68  1  0.32918250  0.86338328  0.97210195  1
  O  O69  1  0.54733589  0.85126891  0.47488806  1
  O  O70  1  0.31714352  0.45079674  0.46888025  1
  O  O71  1  0.13661672  0.67081750  0.47210195  1
  O  O72  1  0.13551798  0.63935818  0.35733505  1
  O  O73  1  0.49109003  0.85242640  0.36232761  1
  O  O74  1  0.36649872  0.49054744  0.36446832  1
  O  O75  1  0.14757360  0.50890997  0.86232761  1
  O  O76  1  0.36064182  0.86448202  0.85733505  1
  O  O77  1  0.50945256  0.63350128  0.86446832  1
  O  O78  1  -0.00016686  0.81541757  0.41283073  1
  O  O79  1  0.80542662  0.98764768  0.41229703  1
  O  O80  1  0.20819624  0.20936220  0.40818945  1
  O  O81  1  0.01235232  0.19457338  0.91229703  1
  O  O82  1  0.18458243  0.00016686  0.91283073  1
  O  O83  1  0.79063780  0.79180376  0.90818945  1
  O  O84  1  0.95494672  0.15779335  0.58628852  1
  O  O85  1  0.18248819  0.03621106  0.59276099  1
  O  O86  1  0.84931431  0.82627596  0.59085915  1
  O  O87  1  0.96378894  0.81751181  0.09276099  1
  O  O88  1  0.84220665  0.04505328  0.08628852  1
  O  O89  1  0.17372404  0.15068569  0.09085915  1
  O  O90  1  0.66650014  0.14875057  0.74616373  1
  O  O91  1  0.47209362  0.32098068  0.74563003  1
  O  O92  1  0.87486324  0.54269520  0.74152245  1
  O  O93  1  0.67901932  0.52790638  0.24563003  1
  O  O94  1  0.85124943  0.33349986  0.24616373  1
  O  O95  1  0.45730480  0.12513676  0.24152245  1
  O  O96  1  0.62161372  0.49112635  0.91962152  1
  O  O97  1  0.84915519  0.36954406  0.92609399  1
  O  O98  1  0.51598131  0.15960896  0.92419215  1
  O  O99  1  0.63045594  0.15084481  0.42609399  1
  O  O100  1  0.50887365  0.37838628  0.41962152  1
  O  O101  1  0.84039104  0.48401869  0.42419215  1
  O  O102  1  0.33316614  0.48208457  0.07949773  1
  O  O103  1  0.13875962  0.65431468  0.07896403  1
  O  O104  1  0.54152924  0.87602920  0.07485645  1
  O  O105  1  0.34568532  0.86124038  0.57896403  1
  O  O106  1  0.51791543  0.66683386  0.57949773  1
  O  O107  1  0.12397080  0.45847076  0.57485645  1
  O  O108  1  0.28827972  0.82446035  0.25295552  1
  O  O109  1  0.51582119  0.70287806  0.25942799  1
  O  O110  1  0.18264731  0.49294296  0.25752615  1
  O  O111  1  0.29712194  0.48417881  0.75942799  1
  O  O112  1  0.17553965  0.71172028  0.75295552  1
  O  O113  1  0.50705704  0.81735269  0.75752615  1
