# generated using pymatgen
data_Na3Hf2Ti2SiP5O24
_symmetry_space_group_name_H-M   'P 1'
_cell_length_a   8.81833978
_cell_length_b   8.79298895
_cell_length_c   22.50281706
_cell_angle_alpha   90.02365107
_cell_angle_beta   90.10325999
_cell_angle_gamma   119.98747777
_symmetry_Int_Tables_number   1
_chemical_formula_structural   Na3Hf2Ti2SiP5O24
_chemical_formula_sum   'Na9 Hf6 Ti6 Si3 P15 O72'
_cell_volume   1511.27834314
_cell_formula_units_Z   3
loop_
 _symmetry_equiv_pos_site_id
 _symmetry_equiv_pos_as_xyz
  1  'x, y, z'
loop_
 _atom_site_type_symbol
 _atom_site_label
 _atom_site_symmetry_multiplicity
 _atom_site_fract_x
 _atom_site_fract_y
 _atom_site_fract_z
 _atom_site_occupancy
  Na  Na0  1  0.36095332  0.99823985  0.75178094  1
  Na  Na1  1  0.66158026  0.97077339  0.58391786  1
  Na  Na2  1  0.66886718  0.69520310  0.08175723  1
  Na  Na3  1  0.02020516  0.00109797  0.49632290  1
  Na  Na4  1  0.01634414  0.01373435  0.00318024  1
  Na  Na5  1  0.68322809  0.34416995  0.83371695  1
  Na  Na6  1  0.66671071  0.33333747  0.33249255  1
  Na  Na7  1  0.31740174  0.66497423  0.16861644  1
  Na  Na8  1  0.32155217  0.64158156  0.66615253  1
  Hf  Hf9  1  0.99536763  0.00073615  0.85723299  1
  Hf  Hf10  1  -0.00028226  0.99774649  0.64679456  1
  Hf  Hf11  1  0.66819954  0.33257421  0.68527798  1
  Hf  Hf12  1  0.67184690  0.33414038  0.18926400  1
  Hf  Hf13  1  0.66830124  0.33551165  0.97966439  1
  Hf  Hf14  1  0.66163211  0.33192472  0.47497386  1
  Ti  Ti15  1  0.99935952  -0.00001203  0.35409070  1
  Ti  Ti16  1  0.00652208  0.00104808  0.14825385  1
  Ti  Ti17  1  0.32433787  0.66755041  0.02153062  1
  Ti  Ti18  1  0.32831885  0.66785010  0.51751532  1
  Ti  Ti19  1  0.33416510  0.66663343  0.31171109  1
  Ti  Ti20  1  0.34061969  0.66746839  0.81386877  1
  Si  Si21  1  0.70364746  0.99676689  0.75008383  1
  Si  Si22  1  0.36841204  0.03572479  0.58100249  1
  Si  Si23  1  0.96318503  0.62903575  0.08471035  1
  P  P24  1  0.28107267  0.99472412  0.25249569  1
  P  P25  1  0.71218123  0.71875827  0.25095919  1
  P  P26  1  0.00570624  0.28571757  0.25211969  1
  P  P27  1  0.28905368  0.29591518  0.75192380  1
  P  P28  1  0.00221128  0.70616100  0.75342123  1
  P  P29  1  0.96368109  0.34096454  0.58034925  1
  P  P30  1  0.65987421  0.62213036  0.58003814  1
  P  P31  1  0.66868374  0.04042674  0.08419833  1
  P  P32  1  0.37149569  0.33109483  0.08372159  1
  P  P33  1  0.61505891  0.66477252  0.91961147  1
  P  P34  1  0.05301259  0.38736971  0.91707313  1
  P  P35  1  0.33450679  0.95038987  0.91621003  1
  P  P36  1  0.62236415  0.94785892  0.41464130  1
  P  P37  1  0.32648126  0.38057578  0.41385553  1
  P  P38  1  0.05316575  0.67312937  0.41336765  1
  O  O39  1  0.19092920  0.01803627  0.30759934  1
  O  O40  1  0.82907179  0.81152798  0.30568656  1
  O  O41  1  0.98376568  0.17374633  0.30799505  1
  O  O42  1  0.20884361  0.17402170  0.80584220  1
  O  O43  1  0.98154220  0.79614458  0.80845524  1
  O  O44  1  0.82959382  0.02372161  0.80604769  1
  O  O45  1  0.78302002  0.97053438  0.68826387  1
  O  O46  1  0.17773819  0.20739572  0.69615326  1
  O  O47  1  0.03529417  0.82583061  0.69836940  1
  O  O48  1  0.79629356  0.82309434  0.19324038  1
  O  O49  1  0.02489008  0.19550621  0.19614929  1
  O  O50  1  0.16991621  0.97418757  0.19595791  1
  O  O51  1  0.87974950  0.36769763  0.63668134  1
  O  O52  1  0.48831543  0.11726511  0.64124763  1
  O  O53  1  0.63922797  0.51445665  0.63627331  1
  O  O54  1  0.87294731  0.50529417  0.14214960  1
  O  O55  1  0.63448383  0.12313297  0.13912133  1
  O  O56  1  0.49493673  0.36650665  0.13737813  1
  O  O57  1  0.45274860  0.29679695  0.02835096  1
  O  O58  1  0.83020564  0.54423969  0.02823545  1
  O  O59  1  0.69580294  0.15509869  0.02917050  1
  O  O60  1  0.47226588  0.15982686  0.52511288  1
  O  O61  1  0.69066185  0.53777437  0.52548864  1
  O  O62  1  0.84465741  0.31034799  0.52650701  1
  O  O63  1  0.53135165  0.68006311  0.97715525  1
  O  O64  1  0.16002806  0.47953743  0.97365699  1
  O  O65  1  0.32255165  0.83927699  0.97139817  1
  O  O66  1  0.53879029  0.84450774  0.47269616  1
  O  O67  1  0.30750982  0.47043926  0.46995183  1
  O  O68  1  0.16429475  0.69458128  0.47009401  1
  O  O69  1  0.14434520  0.65077103  0.35843734  1
  O  O70  1  0.50485513  0.85375288  0.36029230  1
  O  O71  1  0.34795996  0.49264116  0.35808650  1
  O  O72  1  0.14110618  0.49306735  0.86083693  1
  O  O73  1  0.34918972  0.86470813  0.85787289  1
  O  O74  1  0.50593778  0.65326542  0.86347049  1
  O  O75  1  0.03528365  0.83902147  0.40906258  1
  O  O76  1  0.80544002  0.96506162  0.40878079  1
  O  O77  1  0.16288533  0.19514888  0.40911740  1
  O  O78  1  0.03737431  0.20433585  0.91531113  1
  O  O79  1  0.16994430  0.96845779  0.91559673  1
  O  O80  1  0.80013600  0.82755152  0.91498284  1
  O  O81  1  0.97276654  0.17070579  0.58758178  1
  O  O82  1  0.17556335  0.01099168  0.58623862  1
  O  O83  1  0.81963956  0.81001009  0.58627449  1
  O  O84  1  0.97928537  0.82232086  0.09468052  1
  O  O85  1  0.83235918  0.01980382  0.09187982  1
  O  O86  1  0.18779199  0.17144831  0.09329244  1
  O  O87  1  0.67325860  0.16559057  0.74739944  1
  O  O88  1  0.47197688  0.31559493  0.74344457  1
  O  O89  1  0.83805953  0.52662262  0.74570427  1
  O  O90  1  0.69152326  0.53312785  0.24737283  1
  O  O91  1  0.83803102  0.30074517  0.24823310  1
  O  O92  1  0.46361797  0.15952543  0.24691555  1
  O  O93  1  0.62874619  0.49603041  0.91915785  1
  O  O94  1  0.86852613  0.36617201  0.92170580  1
  O  O95  1  0.50076421  0.13229866  0.92061680  1
  O  O96  1  0.64311681  0.13336816  0.41736620  1
  O  O97  1  0.49329771  0.36403971  0.41712015  1
  O  O98  1  0.87062799  0.50872101  0.41814396  1
  O  O99  1  0.36024618  0.50052780  0.07623710  1
  O  O100  1  0.15797532  0.65444470  0.07490221  1
  O  O101  1  0.50936213  0.85235899  0.07637169  1
  O  O102  1  0.35759949  0.84421337  0.57169096  1
  O  O103  1  0.49579342  0.64192479  0.57371318  1
  O  O104  1  0.14735732  0.50038553  0.57313856  1
  O  O105  1  0.29930588  0.82891053  0.25678740  1
  O  O106  1  0.52860022  0.70076930  0.25715351  1
  O  O107  1  0.16930651  0.47129480  0.25685642  1
  O  O108  1  0.30597857  0.47691901  0.75911551  1
  O  O109  1  0.16706662  0.68761876  0.75830085  1
  O  O110  1  0.50617977  0.82400736  0.75909465  1
