# generated using pymatgen
data_Na8Zn3Sn(PO4)6
_symmetry_space_group_name_H-M   'P 1'
_cell_length_a   9.09623425
_cell_length_b   9.09623394
_cell_length_c   21.83517728
_cell_angle_alpha   90.00000000
_cell_angle_beta   90.00000000
_cell_angle_gamma   120.00000116
_symmetry_Int_Tables_number   1
_chemical_formula_structural   Na8Zn3Sn(PO4)6
_chemical_formula_sum   'Na24 Zn9 Sn3 P18 O72'
_cell_volume   1564.62622806
_cell_formula_units_Z   3
loop_
 _symmetry_equiv_pos_site_id
 _symmetry_equiv_pos_as_xyz
  1  'x, y, z'
loop_
 _atom_site_type_symbol
 _atom_site_label
 _atom_site_symmetry_multiplicity
 _atom_site_fract_x
 _atom_site_fract_y
 _atom_site_fract_z
 _atom_site_occupancy
  Na  Na0  1  0.63221459  0.99908377  0.25216135  1
  Na  Na1  1  0.36686918  0.36778541  0.25216135  1
  Na  Na2  1  0.00091623  0.63313082  0.25216135  1
  Na  Na3  1  0.64520094  0.63221192  0.74099800  1
  Na  Na4  1  0.98701099  0.35479906  0.74099800  1
  Na  Na5  1  0.36778808  0.01298901  0.74099800  1
  Na  Na6  1  0.29300070  0.33377707  0.58087066  1
  Na  Na7  1  0.04077737  0.70699930  0.58087066  1
  Na  Na8  1  0.66622293  0.95922263  0.58087066  1
  Na  Na9  1  0.29319255  0.96210576  0.09312705  1
  Na  Na10  1  0.66891421  0.70680745  0.09312705  1
  Na  Na11  1  0.03789424  0.33108579  0.09312705  1
  Na  Na12  1  0.97309835  0.68181775  0.91577884  1
  Na  Na13  1  0.70871840  0.02690165  0.91577884  1
  Na  Na14  1  0.31818225  0.29128160  0.91577884  1
  Na  Na15  1  0.97893237  0.29764057  0.40681402  1
  Na  Na16  1  0.31870720  0.02106763  0.40681402  1
  Na  Na17  1  0.70235943  0.68129280  0.40681402  1
  Na  Na18  1  -0.00000000  0.00000000  0.49630791  1
  Na  Na19  1  -0.00000000  0.00000000  0.00662574  1
  Na  Na20  1  0.66666700  0.33333300  0.82596753  1
  Na  Na21  1  0.66666700  0.33333300  0.32546138  1
  Na  Na22  1  0.33333300  0.66666700  0.17237931  1
  Na  Na23  1  0.33333300  0.66666700  0.65704644  1
  Zn  Zn24  1  -0.00000000  0.00000000  0.34198116  1
  Zn  Zn25  1  -0.00000000  0.00000000  0.84367020  1
  Zn  Zn26  1  -0.00000000  0.00000000  0.65255872  1
  Zn  Zn27  1  -0.00000000  0.00000000  0.15939731  1
  Zn  Zn28  1  0.66666700  0.33333300  0.67838182  1
  Zn  Zn29  1  0.66666700  0.33333300  0.18215658  1
  Zn  Zn30  1  0.33333300  0.66666700  0.01867257  1
  Zn  Zn31  1  0.33333300  0.66666700  0.50978708  1
  Zn  Zn32  1  0.33333300  0.66666700  0.31972689  1
  Sn  Sn33  1  0.66666700  0.33333300  0.98510886  1
  Sn  Sn34  1  0.66666700  0.33333300  0.48402813  1
  Sn  Sn35  1  0.33333300  0.66666700  0.81794608  1
  P  P36  1  0.29983432  0.99909150  0.24992692  1
  P  P37  1  0.69925718  0.70016568  0.24992692  1
  P  P38  1  0.00090850  0.30074282  0.24992692  1
  P  P39  1  0.29724478  0.30082345  0.75212475  1
  P  P40  1  0.00357868  0.70275522  0.75212475  1
  P  P41  1  0.69917655  0.99642132  0.75212475  1
  P  P42  1  0.96479807  0.33263400  0.58564339  1
  P  P43  1  0.36783693  0.03520193  0.58564339  1
  P  P44  1  0.66736600  0.63216307  0.58564339  1
  P  P45  1  0.96527084  0.63146202  0.08310721  1
  P  P46  1  0.66619219  0.03472916  0.08310721  1
  P  P47  1  0.36853798  0.33380781  0.08310721  1
  P  P48  1  0.63002128  0.66384830  0.91866801  1
  P  P49  1  0.03382603  0.36997872  0.91866801  1
  P  P50  1  0.33615170  0.96617397  0.91866801  1
  P  P51  1  0.63169968  0.96748878  0.41880938  1
  P  P52  1  0.33578811  0.36830032  0.41880938  1
  P  P53  1  0.03251122  0.66421189  0.41880938  1
  O  O54  1  0.21505139  0.02386225  0.30754588  1
  O  O55  1  0.80881086  0.78494861  0.30754588  1
  O  O56  1  0.97613775  0.19118914  0.30754588  1
  O  O57  1  0.21721828  0.19844870  0.81121536  1
  O  O58  1  0.98123042  0.78278172  0.81121536  1
  O  O59  1  0.80155130  0.01876958  0.81121536  1
  O  O60  1  0.77859364  0.96471851  0.69497014  1
  O  O61  1  0.18612487  0.22140636  0.69497014  1
  O  O62  1  0.03528149  0.81387513  0.69497014  1
  O  O63  1  0.78128127  0.80808116  0.19140397  1
  O  O64  1  0.02679988  0.21871873  0.19140397  1
  O  O65  1  0.19191884  0.97320012  0.19140397  1
  O  O66  1  0.88155163  0.35825479  0.64318022  1
  O  O67  1  0.47670416  0.11844837  0.64318022  1
  O  O68  1  0.64174521  0.52329584  0.64318022  1
  O  O69  1  0.87351885  0.51474125  0.13705351  1
  O  O70  1  0.64122341  0.12648115  0.13705351  1
  O  O71  1  0.48525875  0.35877659  0.13705351  1
  O  O72  1  0.44731077  0.30367369  0.02124903  1
  O  O73  1  0.85636393  0.55268923  0.02124903  1
  O  O74  1  0.69632631  0.14363607  0.02124903  1
  O  O75  1  0.45471866  0.15006112  0.52762670  1
  O  O76  1  0.69534346  0.54528134  0.52762670  1
  O  O77  1  0.84993888  0.30465654  0.52762670  1
  O  O78  1  0.54377241  0.68828304  0.97417605  1
  O  O79  1  0.14450963  0.45622759  0.97417605  1
  O  O80  1  0.31171696  0.85549037  0.97417605  1
  O  O81  1  0.55146244  0.86465238  0.47782498  1
  O  O82  1  0.31318894  0.44853756  0.47782498  1
  O  O83  1  0.13534762  0.68681106  0.47782498  1
  O  O84  1  0.11225476  0.63195332  0.36168468  1
  O  O85  1  0.51969756  0.88774524  0.36168468  1
  O  O86  1  0.36804668  0.48030244  0.36168468  1
  O  O87  1  0.11211218  0.48317435  0.85906462  1
  O  O88  1  0.37106117  0.88788782  0.85906462  1
  O  O89  1  0.51682565  0.62893883  0.85906462  1
  O  O90  1  0.00686246  0.81930292  0.41393764  1
  O  O91  1  0.81244046  0.99313754  0.41393764  1
  O  O92  1  0.18069708  0.18755954  0.41393764  1
  O  O93  1  0.01008055  0.19105196  0.91202513  1
  O  O94  1  0.18097142  0.98991945  0.91202513  1
  O  O95  1  0.80894804  0.81902858  0.91202513  1
  O  O96  1  0.97878713  0.16954532  0.58735624  1
  O  O97  1  0.19075819  0.02121287  0.58735624  1
  O  O98  1  0.83045468  0.80924181  0.58735624  1
  O  O99  1  0.98114603  0.80847130  0.08517570  1
  O  O100  1  0.82732527  0.01885397  0.08517570  1
  O  O101  1  0.19152870  0.17267473  0.08517570  1
  O  O102  1  0.67346309  0.15196969  0.74769249  1
  O  O103  1  0.47850760  0.32653691  0.74769249  1
  O  O104  1  0.84803031  0.52149240  0.74769249  1
  O  O105  1  0.68129587  0.52096044  0.24655976  1
  O  O106  1  0.83966558  0.31870413  0.24655976  1
  O  O107  1  0.47903956  0.16033442  0.24655976  1
  O  O108  1  0.64366380  0.49668513  0.91988104  1
  O  O109  1  0.85302233  0.35633620  0.91988104  1
  O  O110  1  0.50331487  0.14697767  0.91988104  1
  O  O111  1  0.64798927  0.15063634  0.42206947  1
  O  O112  1  0.50264806  0.35201073  0.42206947  1
  O  O113  1  0.84936366  0.49735194  0.42206947  1
  O  O114  1  0.35337170  0.49528999  0.07844176  1
  O  O115  1  0.14191729  0.64662830  0.07844176  1
  O  O116  1  0.50471001  0.85808271  0.07844176  1
  O  O117  1  0.35112924  0.85819992  0.57976973  1
  O  O118  1  0.50706968  0.64887076  0.57976973  1
  O  O119  1  0.14180008  0.49293032  0.57976973  1
  O  O120  1  0.31782918  0.83785555  0.25408367  1
  O  O121  1  0.52002537  0.68217082  0.25408367  1
  O  O122  1  0.16214445  0.47997463  0.25408367  1
  O  O123  1  0.31329152  0.48389463  0.75558141  1
  O  O124  1  0.17060211  0.68670848  0.75558141  1
  O  O125  1  0.51610537  0.82939789  0.75558141  1
