# generated using pymatgen
data_Na5Ca2Nb2SiP5O24
_symmetry_space_group_name_H-M   'P 1'
_cell_length_a   9.17920630
_cell_length_b   9.17489539
_cell_length_c   22.77141594
_cell_angle_alpha   89.97572282
_cell_angle_beta   90.05181209
_cell_angle_gamma   119.91945682
_symmetry_Int_Tables_number   1
_chemical_formula_structural   Na5Ca2Nb2SiP5O24
_chemical_formula_sum   'Na15 Ca6 Nb6 Si3 P15 O72'
_cell_volume   1662.18227218
_cell_formula_units_Z   3
loop_
 _symmetry_equiv_pos_site_id
 _symmetry_equiv_pos_as_xyz
  1  'x, y, z'
loop_
 _atom_site_type_symbol
 _atom_site_label
 _atom_site_symmetry_multiplicity
 _atom_site_fract_x
 _atom_site_fract_y
 _atom_site_fract_z
 _atom_site_occupancy
  Na  Na0  1  0.61501738  0.00217949  0.25172889  1
  Na  Na1  1  0.99673235  0.60928231  0.24752424  1
  Na  Na2  1  0.33882871  0.99798968  0.75339451  1
  Na  Na3  1  0.30252500  0.31130114  0.58560388  1
  Na  Na4  1  0.01507136  0.70013530  0.58894581  1
  Na  Na5  1  0.67941891  0.98151716  0.59054570  1
  Na  Na6  1  0.65276521  0.68007781  0.07674657  1
  Na  Na7  1  0.03969620  0.35459658  0.07772888  1
  Na  Na8  1  0.98959299  0.68323764  0.90892948  1
  Na  Na9  1  0.00920687  0.99893573  0.50643396  1
  Na  Na10  1  0.01521102  0.01899572  0.98606107  1
  Na  Na11  1  0.67334736  0.32689890  0.83232017  1
  Na  Na12  1  0.64895278  0.33572885  0.34201713  1
  Na  Na13  1  0.32270702  0.66844667  0.16129680  1
  Na  Na14  1  0.34132217  0.65363579  0.67063883  1
  Ca  Ca15  1  0.99472367  0.00849563  0.84484335  1
  Ca  Ca16  1  0.99178535  -0.00002676  0.66134969  1
  Ca  Ca17  1  0.65724671  0.33268488  0.19138149  1
  Ca  Ca18  1  0.66532428  0.33190250  0.47863223  1
  Ca  Ca19  1  0.33648614  0.67599134  0.01630108  1
  Ca  Ca20  1  0.33475981  0.65789933  0.30938963  1
  Nb  Nb21  1  0.00347286  0.00468227  0.35917081  1
  Nb  Nb22  1  0.00728244  0.99975346  0.14291324  1
  Nb  Nb23  1  0.66546831  0.32838933  0.68316442  1
  Nb  Nb24  1  0.66381240  0.33136580  0.98192613  1
  Nb  Nb25  1  0.33519846  0.67167190  0.51383266  1
  Nb  Nb26  1  0.33961254  0.66694741  0.81938543  1
  Si  Si27  1  0.68594956  0.99871711  0.74744315  1
  Si  Si28  1  0.36481185  0.03223646  0.58042711  1
  Si  Si29  1  0.95964794  0.62817718  0.08840027  1
  P  P30  1  0.27955972  0.99907860  0.25185658  1
  P  P31  1  0.72473689  0.72637589  0.25054042  1
  P  P32  1  0.00052949  0.27943953  0.24974615  1
  P  P33  1  0.31680708  0.31486275  0.74706872  1
  P  P34  1  0.00123703  0.68165952  0.75216836  1
  P  P35  1  0.96784522  0.34048746  0.58112537  1
  P  P36  1  0.66147600  0.62667391  0.58074933  1
  P  P37  1  0.67637129  0.04434889  0.08728523  1
  P  P38  1  0.37063899  0.32480241  0.08314711  1
  P  P39  1  0.63197949  0.65776493  0.92154993  1
  P  P40  1  0.03081272  0.37126373  0.92203866  1
  P  P41  1  0.33890701  0.97075215  0.91734504  1
  P  P42  1  0.63324591  0.95659647  0.41126465  1
  P  P43  1  0.32374013  0.36825760  0.41523859  1
  P  P44  1  0.04431670  0.67679212  0.41128893  1
  O  O45  1  0.17639108  0.00068586  0.30631012  1
  O  O46  1  0.83061619  0.83300853  0.30482411  1
  O  O47  1  0.00606775  0.17752520  0.30496992  1
  O  O48  1  0.24099942  0.18068512  0.79452180  1
  O  O49  1  0.96844827  0.75432320  0.80718260  1
  O  O50  1  0.80825014  0.04414876  0.80145270  1
  O  O51  1  0.73239757  0.95464422  0.68490153  1
  O  O52  1  0.22268874  0.26509048  0.68870354  1
  O  O53  1  0.05348400  0.79819048  0.69823467  1
  O  O54  1  0.82820476  0.82797691  0.19354304  1
  O  O55  1  0.00254225  0.17908300  0.19338602  1
  O  O56  1  0.17857066  0.00485764  0.19528123  1
  O  O57  1  0.86833327  0.36290512  0.63528002  1
  O  O58  1  0.49454359  0.13551057  0.63888240  1
  O  O59  1  0.63686561  0.50638616  0.63467778  1
  O  O60  1  0.87564094  0.53055096  0.14756018  1
  O  O61  1  0.65396969  0.11452601  0.14440317  1
  O  O62  1  0.47423860  0.35197690  0.13726410  1
  O  O63  1  0.46406446  0.30156778  0.02779066  1
  O  O64  1  0.82322292  0.52031684  0.03004015  1
  O  O65  1  0.69082961  0.16435391  0.03338131  1
  O  O66  1  0.44524118  0.15238426  0.52665107  1
  O  O67  1  0.69825578  0.55743500  0.52652873  1
  O  O68  1  0.86390837  0.30932544  0.52687656  1
  O  O69  1  0.56491820  0.67632861  0.97990562  1
  O  O70  1  0.11334243  0.44350251  0.98073234  1
  O  O71  1  0.30943636  0.86628260  0.97172748  1
  O  O72  1  0.52825666  0.83235953  0.46626391  1
  O  O73  1  0.30508385  0.46420156  0.47220922  1
  O  O74  1  0.16683651  0.69327984  0.46689107  1
  O  O75  1  0.12487600  0.66650238  0.35508976  1
  O  O76  1  0.54192730  0.87865666  0.35465635  1
  O  O77  1  0.33153758  0.46377861  0.36125495  1
  O  O78  1  0.13700533  0.50120688  0.87127090  1
  O  O79  1  0.35733169  0.87133301  0.86235232  1
  O  O80  1  0.50796106  0.64799823  0.87025749  1
  O  O81  1  0.04112988  0.84941784  0.41308193  1
  O  O82  1  0.80896392  0.95995763  0.41257437  1
  O  O83  1  0.15188088  0.18994889  0.41432840  1
  O  O84  1  0.00313082  0.19705631  0.91220562  1
  O  O85  1  0.18810177  0.99401983  0.90691905  1
  O  O86  1  0.81177744  0.79663073  0.91072355  1
  O  O87  1  0.00168890  0.19526631  0.59211545  1
  O  O88  1  0.17401777  0.98944281  0.59210807  1
  O  O89  1  0.80568532  0.80659477  0.59134641  1
  O  O90  1  0.96214137  0.81500743  0.08820110  1
  O  O91  1  0.85488911  0.05120543  0.08665366  1
  O  O92  1  0.19203121  0.15972326  0.08648580  1
  O  O93  1  0.64923803  0.16271976  0.74033816  1
  O  O94  1  0.50164109  0.34753863  0.73802012  1
  O  O95  1  0.84555568  0.50631693  0.73820727  1
  O  O96  1  0.71788804  0.55808451  0.25545819  1
  O  O97  1  0.83395590  0.28023300  0.25507166  1
  O  O98  1  0.45514318  0.14956696  0.25626747  1
  O  O99  1  0.63227239  0.48321249  0.92157637  1
  O  O100  1  0.85375461  0.36974389  0.92247794  1
  O  O101  1  0.50893127  0.14379559  0.92242754  1
  O  O102  1  0.66408062  0.13131395  0.42044993  1
  O  O103  1  0.46904513  0.33642410  0.42010844  1
  O  O104  1  0.86979393  0.53257187  0.42026270  1
  O  O105  1  0.34035216  0.47281191  0.07530039  1
  O  O106  1  0.14154207  0.64874097  0.08121683  1
  O  O107  1  0.54261636  0.86121020  0.07898480  1
  O  O108  1  0.36802097  0.84816811  0.57292471  1
  O  O109  1  0.48829860  0.62876340  0.57540967  1
  O  O110  1  0.14190838  0.51338993  0.57740154  1
  O  O111  1  0.28076794  0.83330971  0.24501957  1
  O  O112  1  0.55820963  0.72390071  0.24433639  1
  O  O113  1  0.14996015  0.45596348  0.24423368  1
  O  O114  1  0.33582310  0.48814531  0.76696956  1
  O  O115  1  0.15750010  0.65523998  0.76424608  1
  O  O116  1  0.49046118  0.83400403  0.76373110  1
