# generated using pymatgen
data_Na3TiZn(PO4)3
_symmetry_space_group_name_H-M   'P 1'
_cell_length_a   8.92004924
_cell_length_b   8.93043999
_cell_length_c   21.83322702
_cell_angle_alpha   89.99999999
_cell_angle_beta   90.06069475
_cell_angle_gamma   120.03854345
_symmetry_Int_Tables_number   1
_chemical_formula_structural   Na3TiZn(PO4)3
_chemical_formula_sum   'Na18 Ti6 Zn6 P18 O72'
_cell_volume   1505.63443388
_cell_formula_units_Z   6
loop_
 _symmetry_equiv_pos_site_id
 _symmetry_equiv_pos_as_xyz
  1  'x, y, z'
loop_
 _atom_site_type_symbol
 _atom_site_label
 _atom_site_symmetry_multiplicity
 _atom_site_fract_x
 _atom_site_fract_y
 _atom_site_fract_z
 _atom_site_occupancy
  Na  Na0  1  0.98680758  0.97151704  0.49449564  1
  Na  Na1  1  0.98680758  0.01529054  0.99449564  1
  Na  Na2  1  0.66654845  0.33667913  0.82772196  1
  Na  Na3  1  0.66654845  0.32986833  0.32772196  1
  Na  Na4  1  0.32873222  0.66236302  0.16103537  1
  Na  Na5  1  0.32873222  0.66637020  0.66103537  1
  Na  Na6  1  0.37157216  0.36123388  0.24694069  1
  Na  Na7  1  0.98643021  0.63089288  0.24655631  1
  Na  Na8  1  0.98643021  0.35553733  0.74655631  1
  Na  Na9  1  0.37157216  0.01033828  0.74694069  1
  Na  Na10  1  0.30876794  0.34546848  0.58019119  1
  Na  Na11  1  0.65692932  0.96418321  0.57987436  1
  Na  Na12  1  0.30876794  0.96329847  0.08019119  1
  Na  Na13  1  0.65692932  0.69274511  0.07987436  1
  Na  Na14  1  0.97675631  0.68088260  0.91314049  1
  Na  Na15  1  0.32275384  0.29537400  0.91430495  1
  Na  Na16  1  0.97675631  0.29587471  0.41314049  1
  Na  Na17  1  0.32275384  0.02738085  0.41430495  1
  Ti  Ti18  1  0.99807958  0.99317059  0.64891379  1
  Ti  Ti19  1  0.99807958  0.00490899  0.14891379  1
  Ti  Ti20  1  0.67062188  0.32584554  0.98194898  1
  Ti  Ti21  1  0.67062188  0.34477534  0.48194898  1
  Ti  Ti22  1  0.34190727  0.67332298  0.31547549  1
  Ti  Ti23  1  0.34190727  0.66858529  0.81547549  1
  Zn  Zn24  1  0.99202319  0.99443421  0.34840881  1
  Zn  Zn25  1  0.99202319  0.99758898  0.84840881  1
  Zn  Zn26  1  0.66913871  0.34071316  0.68169929  1
  Zn  Zn27  1  0.66913871  0.32842455  0.18169929  1
  Zn  Zn28  1  0.32794688  0.66002074  0.01536698  1
  Zn  Zn29  1  0.32794688  0.66792714  0.51536698  1
  P  P30  1  0.29341786  0.99742678  0.25191368  1
  P  P31  1  0.70384957  0.71002596  0.24993032  1
  P  P32  1  0.00261201  0.29657438  0.25372928  1
  P  P33  1  0.29341786  0.29599108  0.75191368  1
  P  P34  1  0.00261201  0.70603763  0.75372928  1
  P  P35  1  0.70384957  0.99382361  0.74993032  1
  P  P36  1  0.96025269  0.33040212  0.58548671  1
  P  P37  1  0.37064114  0.04079682  0.58514748  1
  P  P38  1  0.67164346  0.62977107  0.58520946  1
  P  P39  1  0.96025269  0.62984957  0.08548671  1
  P  P40  1  0.67164346  0.04187139  0.08520946  1
  P  P41  1  0.37064114  0.32984331  0.08514748  1
  P  P42  1  0.62829777  0.66514411  0.92061440  1
  P  P43  1  0.03827307  0.37405416  0.91630105  1
  P  P44  1  0.34069032  0.96372395  0.91841405  1
  P  P45  1  0.62829777  0.96315465  0.42061440  1
  P  P46  1  0.34069032  0.37696737  0.41841405  1
  P  P47  1  0.03827307  0.66421991  0.41630105  1
  O  O48  1  0.21500899  0.02490223  0.30990105  1
  O  O49  1  0.81949789  0.78943023  0.30505913  1
  O  O50  1  0.98485656  0.20183456  0.31314270  1
  O  O51  1  0.21500899  0.19010676  0.80990105  1
  O  O52  1  0.98485656  0.78302200  0.81314270  1
  O  O53  1  0.81949789  0.03006766  0.80505913  1
  O  O54  1  0.79389047  0.97129864  0.69075276  1
  O  O55  1  0.16903673  0.19948175  0.69494835  1
  O  O56  1  0.02200205  0.83254541  0.69869484  1
  O  O57  1  0.79389047  0.82259184  0.19075276  1
  O  O58  1  0.02200205  0.18945664  0.19869484  1
  O  O59  1  0.16903673  0.96955498  0.19494835  1
  O  O60  1  0.88086197  0.34845703  0.64449707  1
  O  O61  1  0.47565269  0.11891589  0.64339116  1
  O  O62  1  0.63524080  0.51615280  0.64057765  1
  O  O63  1  0.88086197  0.53240394  0.14449707  1
  O  O64  1  0.63524080  0.11908700  0.14057765  1
  O  O65  1  0.47565269  0.35673580  0.14339116  1
  O  O66  1  0.46688521  0.30194315  0.02842755  1
  O  O67  1  0.83967854  0.53017269  0.02856356  1
  O  O68  1  0.69410813  0.16093156  0.02737397  1
  O  O69  1  0.46688521  0.16494105  0.52842755  1
  O  O70  1  0.69410813  0.53317557  0.52737397  1
  O  O71  1  0.83967854  0.30950484  0.52856356  1
  O  O72  1  0.55217953  0.68595499  0.97975115  1
  O  O73  1  0.15089849  0.45560829  0.97212895  1
  O  O74  1  0.31286805  0.85802992  0.97640202  1
  O  O75  1  0.55217953  0.86622554  0.47975115  1
  O  O76  1  0.31286805  0.45483913  0.47640202  1
  O  O77  1  0.15089849  0.69529121  0.47212895  1
  O  O78  1  0.12870679  0.63491526  0.35800821  1
  O  O79  1  0.50024425  0.85733915  0.36536070  1
  O  O80  1  0.35913314  0.49259568  0.36075542  1
  O  O81  1  0.12870679  0.49379253  0.85800821  1
  O  O82  1  0.35913314  0.86653846  0.86075542  1
  O  O83  1  0.50024425  0.64290610  0.86536070  1
  O  O84  1  0.01400284  0.82052508  0.40929882  1
  O  O85  1  0.81274828  0.99737248  0.41249635  1
  O  O86  1  0.18459928  0.19292753  0.41218010  1
  O  O87  1  0.01400284  0.19347775  0.90929882  1
  O  O88  1  0.18459928  0.99167176  0.91218010  1
  O  O89  1  0.81274828  0.81537580  0.91249635  1
  O  O90  1  0.96566914  0.15529773  0.58591447  1
  O  O91  1  0.19149476  0.03539228  0.58867681  1
  O  O92  1  0.84193688  0.81003327  0.58828398  1
  O  O93  1  0.96566914  0.81037141  0.08591447  1
  O  O94  1  0.84193688  0.03190361  0.08828398  1
  O  O95  1  0.19149476  0.15610248  0.08867681  1
  O  O96  1  0.67230739  0.14758709  0.74385409  1
  O  O97  1  0.47258479  0.31661272  0.74402490  1
  O  O98  1  0.85241357  0.52089482  0.74611730  1
  O  O99  1  0.67230739  0.52471930  0.24385409  1
  O  O100  1  0.85241357  0.33151775  0.24611730  1
  O  O101  1  0.47258479  0.15597108  0.24402490  1
  O  O102  1  0.63143541  0.48973697  0.91988728  1
  O  O103  1  0.86013063  0.37117230  0.92117242  1
  O  O104  1  0.50901857  0.14684751  0.92109772  1
  O  O105  1  0.63143541  0.14169744  0.41988728  1
  O  O106  1  0.50901857  0.36217006  0.42109772  1
  O  O107  1  0.86013063  0.48895733  0.42117242  1
  O  O108  1  0.34903685  0.48778247  0.07753086  1
  O  O109  1  0.14628035  0.66579043  0.07920161  1
  O  O110  1  0.51734768  0.85790303  0.07729080  1
  O  O111  1  0.34903685  0.86125537  0.57753086  1
  O  O112  1  0.51734768  0.65944565  0.57729080  1
  O  O113  1  0.14628035  0.48049093  0.57920161  1
  O  O114  1  0.29784703  0.82353175  0.25504620  1
  O  O115  1  0.52170712  0.69714727  0.25516966  1
  O  O116  1  0.17869573  0.47521527  0.25219964  1
  O  O117  1  0.29784703  0.47431628  0.75504620  1
  O  O118  1  0.17869573  0.70348146  0.75219964  1
  O  O119  1  0.52170712  0.82456085  0.75516966  1
