# generated using pymatgen
data_SiSn2(SO6)2
_symmetry_space_group_name_H-M   'P 1'
_cell_length_a   8.81202114
_cell_length_b   8.81751808
_cell_length_c   22.99733960
_cell_angle_alpha   89.93993239
_cell_angle_beta   90.00000000
_cell_angle_gamma   119.97937986
_symmetry_Int_Tables_number   1
_chemical_formula_structural   SiSn2(SO6)2
_chemical_formula_sum   'Si6 Sn12 S12 O72'
_cell_volume   1547.81839025
_cell_formula_units_Z   6
loop_
 _symmetry_equiv_pos_site_id
 _symmetry_equiv_pos_as_xyz
  1  'x, y, z'
loop_
 _atom_site_type_symbol
 _atom_site_label
 _atom_site_symmetry_multiplicity
 _atom_site_fract_x
 _atom_site_fract_y
 _atom_site_fract_z
 _atom_site_occupancy
  Si  Si0  1  0.99895573  0.29718984  0.24989678  1
  Si  Si1  1  0.29823410  0.29718984  0.74989678  1
  Si  Si2  1  0.95819797  0.33739296  0.58408017  1
  Si  Si3  1  0.37919600  0.33739296  0.08408017  1
  Si  Si4  1  0.33351954  0.94822122  0.91682346  1
  Si  Si5  1  0.61470068  0.94822122  0.41682346  1
  Sn  Sn6  1  0.98441599  0.00684050  0.35477117  1
  Sn  Sn7  1  0.02242451  0.00684050  0.85477117  1
  Sn  Sn8  1  0.00557963  0.01979104  0.64595552  1
  Sn  Sn9  1  0.01421142  0.01979104  0.14595552  1
  Sn  Sn10  1  0.66959302  0.33459813  0.68695606  1
  Sn  Sn11  1  0.66500611  0.33459813  0.18695606  1
  Sn  Sn12  1  0.64893465  0.31954041  0.97791866  1
  Sn  Sn13  1  0.67060676  0.31954041  0.47791866  1
  Sn  Sn14  1  0.33224586  0.66338410  0.02084723  1
  Sn  Sn15  1  0.33113724  0.66338410  0.52084723  1
  Sn  Sn16  1  0.33273693  0.66516717  0.31276460  1
  Sn  Sn17  1  0.33242925  0.66516717  0.81276460  1
  S  S18  1  0.28561691  0.99782837  0.25140120  1
  S  S19  1  0.71436372  0.71235322  0.24865091  1
  S  S20  1  0.99798950  0.71235322  0.74865091  1
  S  S21  1  0.71221145  0.99782837  0.75140120  1
  S  S22  1  0.37297844  0.04090549  0.58341935  1
  S  S23  1  0.67055995  0.62545336  0.58300823  1
  S  S24  1  0.95489441  0.62545336  0.08300823  1
  S  S25  1  0.66792805  0.04090549  0.08341935  1
  S  S26  1  0.63210131  0.67135780  0.91555188  1
  S  S27  1  0.03512400  0.37253934  0.91776739  1
  S  S28  1  0.33741435  0.37253934  0.41776739  1
  S  S29  1  0.03925549  0.67135780  0.41555188  1
  O  O30  1  0.20448149  0.02475695  0.30403722  1
  O  O31  1  0.82569335  0.78729333  0.30126600  1
  O  O32  1  0.96255984  0.17705090  0.30771091  1
  O  O33  1  0.21449106  0.17705090  0.80771091  1
  O  O34  1  0.96159999  0.78729333  0.80126600  1
  O  O35  1  0.82027546  0.02475695  0.80403722  1
  O  O36  1  0.78648282  0.96105374  0.69857119  1
  O  O37  1  0.17630706  0.21354966  0.69277678  1
  O  O38  1  0.02468381  0.81973942  0.69570292  1
  O  O39  1  0.79505561  0.81973942  0.19570292  1
  O  O40  1  0.03724261  0.21354966  0.19277678  1
  O  O41  1  0.17457092  0.96105374  0.19857119  1
  O  O42  1  0.87417631  0.37322322  0.64245804  1
  O  O43  1  0.48211643  0.11925396  0.63574401  1
  O  O44  1  0.63408588  0.51345715  0.63529260  1
  O  O45  1  0.87937227  0.51345715  0.13529260  1
  O  O46  1  0.63713853  0.11925396  0.13574401  1
  O  O47  1  0.49904792  0.37322322  0.14245804  1
  O  O48  1  0.46489916  0.30397694  0.02653201  1
  O  O49  1  0.84914514  0.54576515  0.02982962  1
  O  O50  1  0.70975812  0.15541355  0.03137346  1
  O  O51  1  0.44565644  0.15541355  0.53137346  1
  O  O52  1  0.69662102  0.54576515  0.52982962  1
  O  O53  1  0.83907877  0.30397694  0.52653201  1
  O  O54  1  0.55521581  0.70147208  0.96851006  1
  O  O55  1  0.14964773  0.44528282  0.96931779  1
  O  O56  1  0.30030833  0.82847312  0.97489632  1
  O  O57  1  0.52816379  0.82847312  0.47489632  1
  O  O58  1  0.29563408  0.44528282  0.46931779  1
  O  O59  1  0.14625528  0.70147208  0.46851006  1
  O  O60  1  0.11279573  0.62953940  0.36415213  1
  O  O61  1  0.49653542  0.86302509  0.35824201  1
  O  O62  1  0.36867186  0.47972237  0.36484669  1
  O  O63  1  0.11104951  0.47972237  0.86484669  1
  O  O64  1  0.36648866  0.86302509  0.85824201  1
  O  O65  1  0.51674267  0.62953940  0.86415213  1
  O  O66  1  0.03183352  0.83327032  0.40590930  1
  O  O67  1  0.80502428  0.96009317  0.41260678  1
  O  O68  1  0.18748392  0.19320422  0.40986004  1
  O  O69  1  0.00572029  0.19320422  0.90986004  1
  O  O70  1  0.15506889  0.96009317  0.91260678  1
  O  O71  1  0.80143681  0.83327032  0.90590930  1
  O  O72  1  0.96721950  0.15806305  0.58851999  1
  O  O73  1  0.19415994  0.01343922  0.59077028  1
  O  O74  1  0.83118899  0.79716291  0.59209286  1
  O  O75  1  0.96597392  0.79716291  0.09209286  1
  O  O76  1  0.81927928  0.01343922  0.09077028  1
  O  O77  1  0.19084355  0.15806305  0.08851999  1
  O  O78  1  0.69858860  0.15697302  0.74409448  1
  O  O79  1  0.48986564  0.31523457  0.74007948  1
  O  O80  1  0.84230517  0.53693543  0.74336275  1
  O  O81  1  0.69463127  0.53693543  0.24336275  1
  O  O82  1  0.82536992  0.31523457  0.24007948  1
  O  O83  1  0.45838543  0.15697302  0.24409448  1
  O  O84  1  0.66117178  0.52088751  0.92322129  1
  O  O85  1  0.86601407  0.36564095  0.92736035  1
  O  O86  1  0.51157742  0.13855671  0.92100000  1
  O  O87  1  0.62698029  0.13855671  0.42100000  1
  O  O88  1  0.49962788  0.36564095  0.42736035  1
  O  O89  1  0.85971672  0.52088751  0.42322129  1
  O  O90  1  0.35861053  0.51022588  0.07485113  1
  O  O91  1  0.13150346  0.64647692  0.07705924  1
  O  O92  1  0.50854019  0.87004964  0.07594050  1
  O  O93  1  0.36150844  0.87004964  0.57594050  1
  O  O94  1  0.51497246  0.64647692  0.57705924  1
  O  O95  1  0.15161436  0.51022588  0.57485113  1
  O  O96  1  0.30596180  0.84251194  0.25690212  1
  O  O97  1  0.54142137  0.69840637  0.25553128  1
  O  O98  1  0.17391039  0.48825634  0.25976575  1
  O  O99  1  0.31434495  0.48825634  0.75976575  1
  O  O100  1  0.15698400  0.69840637  0.75553128  1
  O  O101  1  0.53654914  0.84251194  0.75690212  1
