# generated using pymatgen
data_V2Se3O11
_symmetry_space_group_name_H-M   'P 1'
_cell_length_a   6.34572380
_cell_length_b   9.21978538
_cell_length_c   15.03098793
_cell_angle_alpha   86.73597771
_cell_angle_beta   90.00000000
_cell_angle_gamma   90.00000000
_symmetry_Int_Tables_number   1
_chemical_formula_structural   V2Se3O11
_chemical_formula_sum   'V8 Se12 O44'
_cell_volume   877.97955614
_cell_formula_units_Z   4
loop_
 _symmetry_equiv_pos_site_id
 _symmetry_equiv_pos_as_xyz
  1  'x, y, z'
loop_
 _atom_site_type_symbol
 _atom_site_label
 _atom_site_symmetry_multiplicity
 _atom_site_fract_x
 _atom_site_fract_y
 _atom_site_fract_z
 _atom_site_occupancy
  V  V0  1  0.48327412  0.85976665  0.91340351  1
  V  V1  1  0.98327412  0.64023335  0.08659649  1
  V  V2  1  0.51672588  0.14023335  0.08659649  1
  V  V3  1  0.01672588  0.35976665  0.91340351  1
  V  V4  1  0.94757914  0.14925941  0.65900926  1
  V  V5  1  0.44757914  0.35074059  0.34099074  1
  V  V6  1  0.05242086  0.85074059  0.34099074  1
  V  V7  1  0.55242086  0.64925941  0.65900926  1
  Se  Se8  1  0.36424801  0.96542836  0.69922128  1
  Se  Se9  1  0.86424801  0.53457164  0.30077872  1
  Se  Se10  1  0.63575199  0.03457164  0.30077872  1
  Se  Se11  1  0.13575199  0.46542836  0.69922128  1
  Se  Se12  1  0.64224894  0.36416734  0.55326240  1
  Se  Se13  1  0.14224894  0.13583266  0.44673760  1
  Se  Se14  1  0.35775106  0.63583266  0.44673760  1
  Se  Se15  1  0.85775106  0.86416734  0.55326240  1
  Se  Se16  1  0.49182275  0.71354601  0.11783854  1
  Se  Se17  1  0.99182275  0.78645399  0.88216146  1
  Se  Se18  1  0.50817725  0.28645399  0.88216146  1
  Se  Se19  1  0.00817725  0.21354601  0.11783854  1
  O  O20  1  0.77345268  0.20555824  0.72611189  1
  O  O21  1  0.27345268  0.29444176  0.27388811  1
  O  O22  1  0.22654732  0.79444176  0.27388811  1
  O  O23  1  0.72654732  0.70555824  0.72611189  1
  O  O24  1  0.47603546  0.96775207  0.80337362  1
  O  O25  1  0.97603546  0.53224793  0.19662638  1
  O  O26  1  0.52396454  0.03224793  0.19662638  1
  O  O27  1  0.02396454  0.46775207  0.80337362  1
  O  O28  1  0.32397666  0.78367659  0.68689596  1
  O  O29  1  0.82397666  0.71632341  0.31310404  1
  O  O30  1  0.67602334  0.21632341  0.31310404  1
  O  O31  1  0.17602334  0.28367659  0.68689596  1
  O  O32  1  0.10629926  0.00550590  0.72619435  1
  O  O33  1  0.60629926  0.49449410  0.27380565  1
  O  O34  1  0.89370074  0.99449410  0.27380565  1
  O  O35  1  0.76953305  0.00528005  0.61531214  1
  O  O36  1  0.39370074  0.50550590  0.72619435  1
  O  O37  1  0.66333217  0.43531554  0.44810692  1
  O  O38  1  0.83666783  0.93531554  0.44810692  1
  O  O39  1  0.33666783  0.56468446  0.55189308  1
  O  O40  1  0.00911614  0.36208207  0.04039270  1
  O  O41  1  0.50911614  0.13791793  0.95960730  1
  O  O42  1  0.99088386  0.63791793  0.95960730  1
  O  O43  1  0.49088386  0.86208207  0.04039270  1
  O  O44  1  0.81467472  0.10822314  0.07546146  1
  O  O45  1  0.31467472  0.39177686  0.92453854  1
  O  O46  1  0.18532528  0.89177686  0.92453854  1
  O  O47  1  0.68532528  0.60822314  0.07546146  1
  O  O48  1  0.21617371  0.11266883  0.08509463  1
  O  O49  1  0.71617371  0.38733117  0.91490537  1
  O  O50  1  0.78382629  0.88733117  0.91490537  1
  O  O51  1  0.28382629  0.61266883  0.08509463  1
  O  O52  1  0.02675024  0.19467829  0.89069771  1
  O  O53  1  0.52675024  0.30532171  0.10930229  1
  O  O54  1  0.97324976  0.80532171  0.10930229  1
  O  O55  1  0.47324976  0.69467829  0.89069771  1
  O  O56  1  0.61485741  0.77475083  0.55892987  1
  O  O57  1  0.11485741  0.72524917  0.44107013  1
  O  O58  1  0.38514259  0.22524917  0.44107013  1
  O  O59  1  0.88514259  0.27475083  0.55892987  1
  O  O60  1  0.73046695  0.50528005  0.61531214  1
  O  O61  1  0.23046695  0.99471995  0.38468786  1
  O  O62  1  0.26953305  0.49471995  0.38468786  1
  O  O63  1  0.16333217  0.06468446  0.55189308  1
