# generated using pymatgen
data_Na7Zr3Nb(SiO4)6
_symmetry_space_group_name_H-M   'P 1'
_cell_length_a   9.23244716
_cell_length_b   9.22798211
_cell_length_c   22.88864840
_cell_angle_alpha   90.03891154
_cell_angle_beta   89.93889438
_cell_angle_gamma   120.04432408
_symmetry_Int_Tables_number   1
_chemical_formula_structural   Na7Zr3Nb(SiO4)6
_chemical_formula_sum   'Na21 Zr9 Nb3 Si18 O72'
_cell_volume   1688.02920155
_cell_formula_units_Z   3
loop_
 _symmetry_equiv_pos_site_id
 _symmetry_equiv_pos_as_xyz
  1  'x, y, z'
loop_
 _atom_site_type_symbol
 _atom_site_label
 _atom_site_symmetry_multiplicity
 _atom_site_fract_x
 _atom_site_fract_y
 _atom_site_fract_z
 _atom_site_occupancy
  Na  Na0  1  0.37210831  0.36674589  0.24906572  1
  Na  Na1  1  0.63836110  0.63494217  0.74982624  1
  Na  Na2  1  0.99659994  0.36300636  0.74962697  1
  Na  Na3  1  0.36531719  0.00287485  0.74961829  1
  Na  Na4  1  0.29970362  0.33340305  0.58269088  1
  Na  Na5  1  0.03360910  0.70002877  0.58257911  1
  Na  Na6  1  0.66642698  0.96624971  0.58257722  1
  Na  Na7  1  0.30658519  0.97013201  0.08353179  1
  Na  Na8  1  0.66357812  0.69501759  0.08355529  1
  Na  Na9  1  0.03054862  0.33614958  0.08291382  1
  Na  Na10  1  0.96182480  0.66565747  0.91817131  1
  Na  Na11  1  0.70574024  0.03603087  0.91838061  1
  Na  Na12  1  0.96584219  0.29684823  0.41474156  1
  Na  Na13  1  0.33136629  0.03578612  0.41515892  1
  Na  Na14  1  0.70267879  0.66762875  0.41451946  1
  Na  Na15  1  0.00036013  0.00032061  0.49882809  1
  Na  Na16  1  0.01023112  0.00994179  0.99824357  1
  Na  Na17  1  0.65800450  0.33281222  0.83643512  1
  Na  Na18  1  0.67585930  0.33319907  0.32829573  1
  Na  Na19  1  0.33267823  0.67478471  0.16816578  1
  Na  Na20  1  0.33319339  0.66681741  0.66492169  1
  Zr  Zr21  1  0.99821223  0.99879619  0.35012007  1
  Zr  Zr22  1  0.00567423  0.00518514  0.85305616  1
  Zr  Zr23  1  0.00022738  0.00020771  0.64918488  1
  Zr  Zr24  1  0.66712969  0.33355651  0.68470053  1
  Zr  Zr25  1  0.67229745  0.33284831  0.18722952  1
  Zr  Zr26  1  0.66052587  0.33271456  0.98065910  1
  Zr  Zr27  1  0.66645291  0.33343815  0.47979305  1
  Zr  Zr28  1  0.33312109  0.66448579  0.01876552  1
  Zr  Zr29  1  0.33314820  0.66643807  0.51776819  1
  Nb  Nb30  1  0.99840583  0.99819980  0.15019748  1
  Nb  Nb31  1  0.33339766  0.67108005  0.31070215  1
  Nb  Nb32  1  0.33378801  0.66547606  0.81616358  1
  Si  Si33  1  0.29159321  0.99674445  0.25057054  1
  Si  Si34  1  0.70419719  0.70670378  0.25106021  1
  Si  Si35  1  0.00106991  0.29493620  0.25126085  1
  Si  Si36  1  0.29485026  0.29743772  0.74966215  1
  Si  Si37  1  0.00262204  0.70576749  0.75129852  1
  Si  Si38  1  0.70293354  0.99734558  0.75107777  1
  Si  Si39  1  0.96084531  0.33248951  0.58300276  1
  Si  Si40  1  0.37178623  0.03892655  0.58314494  1
  Si  Si41  1  0.66719307  0.62819594  0.58310970  1
  Si  Si42  1  0.95906460  0.62918992  0.08285347  1
  Si  Si43  1  0.66984475  0.04166166  0.08289241  1
  Si  Si44  1  0.37103591  0.32987276  0.08586100  1
  Si  Si45  1  0.62533419  0.66448746  0.91653415  1
  Si  Si46  1  0.04012283  0.37312306  0.91727224  1
  Si  Si47  1  0.33385568  0.95918231  0.91693423  1
  Si  Si48  1  0.62350797  0.95642621  0.41585527  1
  Si  Si49  1  0.33298301  0.37641346  0.41491281  1
  Si  Si50  1  0.04365285  0.66674174  0.41562884  1
  O  O51  1  0.20608134  0.02658924  0.30831178  1
  O  O52  1  0.81499098  0.79307617  0.30923992  1
  O  O53  1  0.98009261  0.18522472  0.30961509  1
  O  O54  1  0.20242243  0.17017251  0.80371354  1
  O  O55  1  0.96824445  0.79218246  0.80757697  1
  O  O56  1  0.82313144  0.02994485  0.80729712  1
  O  O57  1  0.78650304  0.96208831  0.69306315  1
  O  O58  1  0.17798853  0.21744384  0.69118237  1
  O  O59  1  0.03828720  0.82486235  0.69329968  1
  O  O60  1  0.80519524  0.82932871  0.19363832  1
  O  O61  1  0.02825870  0.19496445  0.19433650  1
  O  O62  1  0.16883393  0.97409200  0.19321421  1
  O  O63  1  0.87414263  0.36259208  0.64099097  1
  O  O64  1  0.48857836  0.12607703  0.64104551  1
  O  O65  1  0.63753667  0.51135336  0.64099004  1
  O  O66  1  0.86727007  0.50293363  0.13699240  1
  O  O67  1  0.63281922  0.13185720  0.13702495  1
  O  O68  1  0.48821714  0.36581732  0.14283132  1
  O  O69  1  0.45947253  0.29293686  0.02954107  1
  O  O70  1  0.84253593  0.54912767  0.02400998  1
  O  O71  1  0.70775563  0.15837571  0.02389163  1
  O  O72  1  0.46027197  0.15747493  0.52565565  1
  O  O73  1  0.69746713  0.53984051  0.52560352  1
  O  O74  1  0.84227571  0.30266033  0.52562504  1
  O  O75  1  0.53976177  0.69565231  0.97391745  1
  O  O76  1  0.15063643  0.46136557  0.97534641  1
  O  O77  1  0.30567905  0.84402806  0.97455919  1
  O  O78  1  0.54226966  0.84463357  0.47513791  1
  O  O79  1  0.30275861  0.45962687  0.47398677  1
  O  O80  1  0.15570984  0.69789159  0.47491073  1
  O  O81  1  0.14617898  0.64111501  0.36078529  1
  O  O82  1  0.49602728  0.85294253  0.36098853  1
  O  O83  1  0.35892688  0.49904834  0.35852795  1
  O  O84  1  0.14267487  0.49612064  0.85985399  1
  O  O85  1  0.35474119  0.85711668  0.85933875  1
  O  O86  1  0.50537718  0.64728525  0.85885825  1
  O  O87  1  0.02393561  0.83298224  0.41115278  1
  O  O88  1  0.80962927  0.97662529  0.41161041  1
  O  O89  1  0.16673289  0.18915143  0.41167636  1
  O  O90  1  0.01163384  0.18483215  0.91166671  1
  O  O91  1  0.16160900  0.96563977  0.91069107  1
  O  O92  1  0.80829227  0.83427175  0.91044962  1
  O  O93  1  0.97713393  0.16389350  0.58804638  1
  O  O94  1  0.18656465  0.02186032  0.58820856  1
  O  O95  1  0.83571947  0.81336595  0.58825794  1
  O  O96  1  0.97692555  0.81690280  0.09161943  1
  O  O97  1  0.83931923  0.02363142  0.09227888  1
  O  O98  1  0.18218556  0.16041059  0.09192481  1
  O  O99  1  0.68079129  0.16234352  0.74551492  1
  O  O100  1  0.48193877  0.32005001  0.74533562  1
  O  O101  1  0.83759542  0.51857694  0.74544353  1
  O  O102  1  0.67381016  0.51844986  0.24474010  1
  O  O103  1  0.83878992  0.31599710  0.24476756  1
  O  O104  1  0.47021476  0.16738138  0.24371159  1
  O  O105  1  0.64845890  0.50090449  0.91856587  1
  O  O106  1  0.85918645  0.36578429  0.91836162  1
  O  O107  1  0.50975791  0.13666598  0.91886989  1
  O  O108  1  0.63651750  0.14016145  0.41879891  1
  O  O109  1  0.50371888  0.36265055  0.41914911  1
  O  O110  1  0.85976177  0.49593528  0.41885578  1
  O  O111  1  0.34767337  0.49430775  0.07864580  1
  O  O112  1  0.14795235  0.65419063  0.07874968  1
  O  O113  1  0.50588641  0.85267204  0.07823687  1
  O  O114  1  0.35389449  0.85332181  0.57934083  1
  O  O115  1  0.49937818  0.64582998  0.57929148  1
  O  O116  1  0.14652700  0.50038941  0.57920269  1
  O  O117  1  0.30564559  0.82628479  0.25672134  1
  O  O118  1  0.51726514  0.69002178  0.25619245  1
  O  O119  1  0.17969990  0.47504332  0.25586206  1
  O  O120  1  0.31196949  0.48386683  0.75778597  1
  O  O121  1  0.17203857  0.68761383  0.75802613  1
  O  O122  1  0.51520861  0.82763073  0.75755900  1
