# generated using pymatgen
data_YTa3(PO4)6
_symmetry_space_group_name_H-M   'P 1'
_cell_length_a   8.88864841
_cell_length_b   8.88864811
_cell_length_c   22.85977840
_cell_angle_alpha   90.00000000
_cell_angle_beta   90.00000000
_cell_angle_gamma   120.00000106
_symmetry_Int_Tables_number   1
_chemical_formula_structural   YTa3(PO4)6
_chemical_formula_sum   'Y3 Ta9 P18 O72'
_cell_volume   1564.13446198
_cell_formula_units_Z   3
loop_
 _symmetry_equiv_pos_site_id
 _symmetry_equiv_pos_as_xyz
  1  'x, y, z'
loop_
 _atom_site_type_symbol
 _atom_site_label
 _atom_site_symmetry_multiplicity
 _atom_site_fract_x
 _atom_site_fract_y
 _atom_site_fract_z
 _atom_site_occupancy
  Y  Y0  1  -0.00000000  0.00000000  0.36504054  1
  Y  Y1  1  0.66666700  0.33333300  0.69291377  1
  Y  Y2  1  0.66666700  0.33333300  0.18890399  1
  Ta  Ta3  1  -0.00000000  0.00000000  0.85898794  1
  Ta  Ta4  1  -0.00000000  0.00000000  0.64144846  1
  Ta  Ta5  1  -0.00000000  0.00000000  0.14739001  1
  Ta  Ta6  1  0.66666700  0.33333300  0.97962983  1
  Ta  Ta7  1  0.66666700  0.33333300  0.47700703  1
  Ta  Ta8  1  0.33333300  0.66666700  0.02021671  1
  Ta  Ta9  1  0.33333300  0.66666700  0.52288107  1
  Ta  Ta10  1  0.33333300  0.66666700  0.30788453  1
  Ta  Ta11  1  0.33333300  0.66666700  0.80877714  1
  P  P12  1  0.27811805  0.98721944  0.25134279  1
  P  P13  1  0.70910139  0.72188195  0.25134279  1
  P  P14  1  0.01278056  0.29089861  0.25134279  1
  P  P15  1  0.27029698  0.28219619  0.75177326  1
  P  P16  1  0.01189922  0.72970302  0.75177326  1
  P  P17  1  0.71780381  0.98810078  0.75177326  1
  P  P18  1  0.95421325  0.33166138  0.58272811  1
  P  P19  1  0.37744913  0.04578675  0.58272811  1
  P  P20  1  0.66833862  0.62255087  0.58272811  1
  P  P21  1  0.95849888  0.62930151  0.08088077  1
  P  P22  1  0.67080363  0.04150112  0.08088077  1
  P  P23  1  0.37069849  0.32919637  0.08088077  1
  P  P24  1  0.61492135  0.66113063  0.91538181  1
  P  P25  1  0.04620829  0.38507865  0.91538181  1
  P  P26  1  0.33886937  0.95379171  0.91538181  1
  P  P27  1  0.60223058  0.95319852  0.41767610  1
  P  P28  1  0.35096694  0.39776942  0.41767610  1
  P  P29  1  0.04680148  0.64903306  0.41767610  1
  O  O30  1  0.19867514  0.01432453  0.30514220  1
  O  O31  1  0.81564939  0.80132486  0.30514220  1
  O  O32  1  0.98567547  0.18435061  0.30514220  1
  O  O33  1  0.17676926  0.17337469  0.80735747  1
  O  O34  1  0.99660543  0.82323074  0.80735747  1
  O  O35  1  0.82662531  0.00339457  0.80735747  1
  O  O36  1  0.80313564  0.96078873  0.69675223  1
  O  O37  1  0.15765308  0.19686436  0.69675223  1
  O  O38  1  0.03921127  0.84234692  0.69675223  1
  O  O39  1  0.80308612  0.84036823  0.19490834  1
  O  O40  1  0.03728211  0.19691388  0.19490834  1
  O  O41  1  0.15963177  0.96271789  0.19490834  1
  O  O42  1  0.88955102  0.37465485  0.63730753  1
  O  O43  1  0.48510482  0.11044898  0.63730753  1
  O  O44  1  0.62534515  0.51489518  0.63730753  1
  O  O45  1  0.89678249  0.51487437  0.13347364  1
  O  O46  1  0.61809288  0.10321751  0.13347364  1
  O  O47  1  0.48512563  0.38190712  0.13347364  1
  O  O48  1  0.46792265  0.30203629  0.02684955  1
  O  O49  1  0.83411464  0.53207735  0.02684955  1
  O  O50  1  0.69796371  0.16588536  0.02684955  1
  O  O51  1  0.46553836  0.16896913  0.52986652  1
  O  O52  1  0.70343178  0.53446164  0.52986652  1
  O  O53  1  0.83103087  0.29656822  0.52986652  1
  O  O54  1  0.53038727  0.69644602  0.96809281  1
  O  O55  1  0.16605775  0.46961273  0.96809281  1
  O  O56  1  0.30355398  0.83394225  0.96809281  1
  O  O57  1  0.50641299  0.84369188  0.47236838  1
  O  O58  1  0.33727788  0.49358701  0.47236838  1
  O  O59  1  0.15630812  0.66272212  0.47236838  1
  O  O60  1  0.13253115  0.62375739  0.36246147  1
  O  O61  1  0.49122524  0.86746885  0.36246147  1
  O  O62  1  0.37624261  0.50877476  0.36246147  1
  O  O63  1  0.13230511  0.50274134  0.86144027  1
  O  O64  1  0.37043523  0.86769489  0.86144027  1
  O  O65  1  0.49725866  0.62956477  0.86144027  1
  O  O66  1  0.02602861  0.80590849  0.41714627  1
  O  O67  1  0.77987988  0.97397139  0.41714627  1
  O  O68  1  0.19409151  0.22012012  0.41714627  1
  O  O69  1  0.02399937  0.20177466  0.90591378  1
  O  O70  1  0.17777529  0.97600063  0.90591378  1
  O  O71  1  0.79822534  0.82222471  0.90591378  1
  O  O72  1  0.96989972  0.16435167  0.59325365  1
  O  O73  1  0.19445195  0.03010028  0.59325365  1
  O  O74  1  0.83564833  0.80554805  0.59325365  1
  O  O75  1  0.97408979  0.80846478  0.08936592  1
  O  O76  1  0.83437499  0.02591021  0.08936592  1
  O  O77  1  0.19153522  0.16562501  0.08936592  1
  O  O78  1  0.69789198  0.14495347  0.74853672  1
  O  O79  1  0.44706248  0.30210802  0.74853672  1
  O  O80  1  0.85504653  0.55293752  0.74853672  1
  O  O81  1  0.67266530  0.54105079  0.23918987  1
  O  O82  1  0.86838649  0.32733470  0.23918987  1
  O  O83  1  0.45894921  0.13161351  0.23918987  1
  O  O84  1  0.63528187  0.50108398  0.92730944  1
  O  O85  1  0.86580310  0.36471813  0.92730944  1
  O  O86  1  0.49891602  0.13419690  0.92730944  1
  O  O87  1  0.61329723  0.13292148  0.42817915  1
  O  O88  1  0.51962525  0.38670277  0.42817915  1
  O  O89  1  0.86707852  0.48037475  0.42817915  1
  O  O90  1  0.34255573  0.48395927  0.06268558  1
  O  O91  1  0.14140254  0.65744427  0.06268558  1
  O  O92  1  0.51604073  0.85859746  0.06268558  1
  O  O93  1  0.33774798  0.85875072  0.56853469  1
  O  O94  1  0.52100174  0.66225202  0.56853469  1
  O  O95  1  0.14124928  0.47899826  0.56853469  1
  O  O96  1  0.28047104  0.81203751  0.25843491  1
  O  O97  1  0.53156547  0.71952896  0.25843491  1
  O  O98  1  0.18796249  0.46843453  0.25843491  1
  O  O99  1  0.28078145  0.46238530  0.76195311  1
  O  O100  1  0.18160286  0.71921855  0.76195311  1
  O  O101  1  0.53761470  0.81839714  0.76195311  1
