# generated using pymatgen
data_Te2Br
_symmetry_space_group_name_H-M   'P 1'
_cell_length_a   4.03908753
_cell_length_b   13.23115883
_cell_length_c   15.78886986
_cell_angle_alpha   90.00000000
_cell_angle_beta   90.00000000
_cell_angle_gamma   90.00000000
_symmetry_Int_Tables_number   1
_chemical_formula_structural   Te2Br
_chemical_formula_sum   'Te16 Br8'
_cell_volume   843.78576166
_cell_formula_units_Z   8
loop_
 _symmetry_equiv_pos_site_id
 _symmetry_equiv_pos_as_xyz
  1  'x, y, z'
loop_
 _atom_site_type_symbol
 _atom_site_label
 _atom_site_symmetry_multiplicity
 _atom_site_fract_x
 _atom_site_fract_y
 _atom_site_fract_z
 _atom_site_occupancy
  Te  Te0  1  0.75000000  0.05279679  0.72095510  1
  Te  Te1  1  0.25000000  0.94720321  0.27904490  1
  Te  Te2  1  0.25000000  0.55279679  0.77904490  1
  Te  Te3  1  0.75000000  0.44720321  0.22095510  1
  Te  Te4  1  0.25000000  0.19749801  0.68316060  1
  Te  Te5  1  0.75000000  0.80250199  0.31683940  1
  Te  Te6  1  0.75000000  0.69749801  0.81683940  1
  Te  Te7  1  0.25000000  0.30250199  0.18316060  1
  Te  Te8  1  0.75000000  0.41572458  0.40820346  1
  Te  Te9  1  0.25000000  0.58427542  0.59179654  1
  Te  Te10  1  0.25000000  0.91572458  0.09179654  1
  Te  Te11  1  0.75000000  0.08427542  0.90820346  1
  Te  Te12  1  0.25000000  0.26296476  0.42305768  1
  Te  Te13  1  0.75000000  0.73703524  0.57694232  1
  Te  Te14  1  0.75000000  0.76296476  0.07694232  1
  Te  Te15  1  0.25000000  0.23703524  0.92305768  1
  Br  Br16  1  0.75000000  0.13913890  0.15273554  1
  Br  Br17  1  0.25000000  0.86086110  0.84726446  1
  Br  Br18  1  0.25000000  0.63913890  0.34726546  1
  Br  Br19  1  0.75000000  0.36086110  0.65273554  1
  Br  Br20  1  0.75000000  0.10533425  0.44313850  1
  Br  Br21  1  0.25000000  0.89466575  0.55686150  1
  Br  Br22  1  0.25000000  0.60533425  0.05686150  1
  Br  Br23  1  0.75000000  0.39466575  0.94313850  1
