# generated using pymatgen
data_Na2NbSi2SnPO12
_symmetry_space_group_name_H-M   'P 1'
_cell_length_a   8.97275497
_cell_length_b   8.97275467
_cell_length_c   22.65362108
_cell_angle_alpha   89.96901460
_cell_angle_beta   90.03098540
_cell_angle_gamma   119.92454851
_symmetry_Int_Tables_number   1
_chemical_formula_structural   Na2NbSi2SnPO12
_chemical_formula_sum   'Na12 Nb6 Si12 Sn6 P6 O72'
_cell_volume   1580.70006818
_cell_formula_units_Z   6
loop_
 _symmetry_equiv_pos_site_id
 _symmetry_equiv_pos_as_xyz
  1  'x, y, z'
loop_
 _atom_site_type_symbol
 _atom_site_label
 _atom_site_symmetry_multiplicity
 _atom_site_fract_x
 _atom_site_fract_y
 _atom_site_fract_z
 _atom_site_occupancy
  Na  Na0  1  0.99201769  0.62842029  0.25022921  1
  Na  Na1  1  0.37157971  0.00798231  0.75022921  1
  Na  Na2  1  0.65868469  0.96175329  0.58356221  1
  Na  Na3  1  0.03824671  0.34131531  0.08356221  1
  Na  Na4  1  0.32535069  0.29508729  0.91689621  1
  Na  Na5  1  0.70491271  0.67464931  0.41689621  1
  Na  Na6  1  0.01694864  0.00373077  0.49713351  1
  Na  Na7  1  0.99626923  0.98305136  0.99713351  1
  Na  Na8  1  0.68361564  0.33706377  0.83046651  1
  Na  Na9  1  0.66293623  0.31638436  0.33046651  1
  Na  Na10  1  0.35028164  0.67039777  0.16380051  1
  Na  Na11  1  0.32960223  0.64971836  0.66380051  1
  Nb  Nb12  1  0.00074167  0.00014566  0.64497358  1
  Nb  Nb13  1  0.99985434  0.99925833  0.14497358  1
  Nb  Nb14  1  0.66740867  0.33347866  0.97830658  1
  Nb  Nb15  1  0.66652134  0.33259133  0.47830658  1
  Nb  Nb16  1  0.33407467  0.66681266  0.31164058  1
  Nb  Nb17  1  0.33318734  0.66592533  0.81164058  1
  Si  Si18  1  0.70800113  0.70853300  0.25078681  1
  Si  Si19  1  0.99629945  0.28807038  0.24952652  1
  Si  Si20  1  0.29146700  0.29199887  0.75078681  1
  Si  Si21  1  0.71192962  0.00370055  0.74952652  1
  Si  Si22  1  0.37466813  0.04186600  0.58411981  1
  Si  Si23  1  0.66296645  0.62140338  0.58285952  1
  Si  Si24  1  0.95813400  0.62533187  0.08411981  1
  Si  Si25  1  0.37859662  0.33703355  0.08285952  1
  Si  Si26  1  0.04133413  0.37520000  0.91745381  1
  Si  Si27  1  0.32963245  0.95473738  0.91619352  1
  Si  Si28  1  0.62480000  0.95866587  0.41745381  1
  Si  Si29  1  0.04526262  0.67036755  0.41619352  1
  Sn  Sn30  1  0.99898244  0.00209256  0.35246634  1
  Sn  Sn31  1  0.99790744  0.00101756  0.85246634  1
  Sn  Sn32  1  0.66564944  0.33542556  0.68579934  1
  Sn  Sn33  1  0.66457444  0.33435056  0.18579934  1
  Sn  Sn34  1  0.33231544  0.66875956  0.01913334  1
  Sn  Sn35  1  0.33124044  0.66768456  0.51913334  1
  P  P36  1  0.29135662  0.00408716  0.25041347  1
  P  P37  1  0.99591284  0.70864338  0.75041347  1
  P  P38  1  0.95802362  0.33742016  0.58374647  1
  P  P39  1  0.66257984  0.04197638  0.08374647  1
  P  P40  1  0.62468962  0.67075416  0.91708047  1
  P  P41  1  0.32924584  0.37531038  0.41708047  1
  O  O42  1  0.21319207  0.03219146  0.30653384  1
  O  O43  1  0.82714706  0.78353618  0.30969581  1
  O  O44  1  0.97026412  0.17505233  0.30761715  1
  O  O45  1  0.21646382  0.17285294  0.80969581  1
  O  O46  1  0.96780854  0.78680793  0.80653384  1
  O  O47  1  0.82494767  0.02973588  0.80761715  1
  O  O48  1  0.80042954  0.97308359  0.68998886  1
  O  O49  1  0.16376008  0.18828415  0.69423345  1
  O  O50  1  0.02674463  0.82839624  0.69600348  1
  O  O51  1  0.81171585  0.83623992  0.19423345  1
  O  O52  1  0.02691641  0.19957046  0.18998886  1
  O  O53  1  0.17160376  0.97325537  0.19600348  1
  O  O54  1  0.87985907  0.36552446  0.63986684  1
  O  O55  1  0.49381406  0.11686918  0.64302881  1
  O  O56  1  0.63693112  0.50838533  0.64095015  1
  O  O57  1  0.88313082  0.50618594  0.14302881  1
  O  O58  1  0.63447554  0.12014093  0.13986684  1
  O  O59  1  0.49161467  0.36306888  0.14095015  1
  O  O60  1  0.46709654  0.30641659  0.02332186  1
  O  O61  1  0.83042708  0.52161715  0.02756645  1
  O  O62  1  0.69341163  0.16172924  0.02933648  1
  O  O63  1  0.47838285  0.16957292  0.52756645  1
  O  O64  1  0.69358341  0.53290346  0.52332186  1
  O  O65  1  0.83827076  0.30658837  0.52933648  1
  O  O66  1  0.54652507  0.69885846  0.97320084  1
  O  O67  1  0.16048006  0.45020318  0.97636281  1
  O  O68  1  0.30359712  0.84171933  0.97428415  1
  O  O69  1  0.54979682  0.83951994  0.47636281  1
  O  O70  1  0.30114154  0.45347493  0.47320084  1
  O  O71  1  0.15828067  0.69640288  0.47428415  1
  O  O72  1  0.13376254  0.63975059  0.35665586  1
  O  O73  1  0.49709308  0.85495115  0.36090045  1
  O  O74  1  0.36007763  0.49506324  0.36267048  1
  O  O75  1  0.14504885  0.50290692  0.86090045  1
  O  O76  1  0.36024941  0.86623746  0.85665586  1
  O  O77  1  0.50493676  0.63992237  0.86267048  1
  O  O78  1  0.01690336  0.83583760  0.41128221  1
  O  O79  1  0.81265231  0.97425093  0.41151875  1
  O  O80  1  0.17649995  0.19425362  0.41031310  1
  O  O81  1  0.02574907  0.18734769  0.91151875  1
  O  O82  1  0.16416240  0.98309664  0.91128221  1
  O  O83  1  0.80574638  0.82350005  0.91031310  1
  O  O84  1  0.96328252  0.16582119  0.58829893  1
  O  O85  1  0.18589823  0.02804174  0.58956153  1
  O  O86  1  0.83492583  0.81691848  0.58942347  1
  O  O87  1  0.97195826  0.81410177  0.08956153  1
  O  O88  1  0.83417881  0.03671748  0.08829893  1
  O  O89  1  0.18308152  0.16507417  0.08942347  1
  O  O90  1  0.68357036  0.16917060  0.74461521  1
  O  O91  1  0.47931931  0.30758393  0.74485175  1
  O  O92  1  0.84316695  0.52758662  0.74364610  1
  O  O93  1  0.69241607  0.52068069  0.24485175  1
  O  O94  1  0.83082940  0.31642964  0.24461521  1
  O  O95  1  0.47241338  0.15683305  0.24364610  1
  O  O96  1  0.62994952  0.49915419  0.92163193  1
  O  O97  1  0.85256523  0.36137474  0.92289453  1
  O  O98  1  0.50159283  0.15025148  0.92275647  1
  O  O99  1  0.63862526  0.14743477  0.42289453  1
  O  O100  1  0.50084581  0.37005048  0.42163193  1
  O  O101  1  0.84974852  0.49840717  0.42275647  1
  O  O102  1  0.35023636  0.50250460  0.07794921  1
  O  O103  1  0.14598531  0.64091793  0.07818575  1
  O  O104  1  0.50983295  0.86092062  0.07698010  1
  O  O105  1  0.35908207  0.85401469  0.57818575  1
  O  O106  1  0.49749540  0.64976364  0.57794921  1
  O  O107  1  0.13907938  0.49016705  0.57698010  1
  O  O108  1  0.29661552  0.83248819  0.25496593  1
  O  O109  1  0.51923123  0.69470874  0.25622853  1
  O  O110  1  0.16825883  0.48358548  0.25609047  1
  O  O111  1  0.30529126  0.48076877  0.75622853  1
  O  O112  1  0.16751181  0.70338448  0.75496593  1
  O  O113  1  0.51641452  0.83174117  0.75609047  1
