# generated using pymatgen
data_Na9Nb2Zn4(PO4)9
_symmetry_space_group_name_H-M   'P 1'
_cell_length_a   9.04215973
_cell_length_b   27.00514436
_cell_length_c   22.11976868
_cell_angle_alpha   89.91495577
_cell_angle_beta   89.97847067
_cell_angle_gamma   120.10671306
_symmetry_Int_Tables_number   1
_chemical_formula_structural   Na9Nb2Zn4(PO4)9
_chemical_formula_sum   'Na54 Nb12 Zn24 P54 O216'
_cell_volume   4672.62621450
_cell_formula_units_Z   6
loop_
 _symmetry_equiv_pos_site_id
 _symmetry_equiv_pos_as_xyz
  1  'x, y, z'
loop_
 _atom_site_type_symbol
 _atom_site_label
 _atom_site_symmetry_multiplicity
 _atom_site_fract_x
 _atom_site_fract_y
 _atom_site_fract_z
 _atom_site_occupancy
  Na  Na0  1  0.02123427  0.00364162  0.49080215  1
  Na  Na1  1  0.00915340  0.33178128  0.49203389  1
  Na  Na2  1  0.98627003  0.66897593  0.50642207  1
  Na  Na3  1  0.99774593  0.00335121  0.99373944  1
  Na  Na4  1  0.01554445  0.33761316  0.00760765  1
  Na  Na5  1  0.99765821  0.66193149  0.01016750  1
  Na  Na6  1  0.65209413  0.10641737  0.82977320  1
  Na  Na7  1  0.68080853  0.44896502  0.83693006  1
  Na  Na8  1  0.66719771  0.77803230  0.83318726  1
  Na  Na9  1  0.65393230  0.10326157  0.32136610  1
  Na  Na10  1  0.67798990  0.45164459  0.34509683  1
  Na  Na11  1  0.69319008  0.78301377  0.33239802  1
  Na  Na12  1  0.32362976  0.22323886  0.17465810  1
  Na  Na13  1  0.31195600  0.55133609  0.17527612  1
  Na  Na14  1  0.33587961  0.89216317  0.16018645  1
  Na  Na15  1  0.31741208  0.21759941  0.65900722  1
  Na  Na16  1  0.33584982  0.55246127  0.67369092  1
  Na  Na17  1  0.33497262  0.89355359  0.65583863  1
  Na  Na18  1  0.63916871  0.32737280  0.26144285  1
  Na  Na19  1  0.62009927  0.66597693  0.24623320  1
  Na  Na20  1  0.37590211  0.12514766  0.25481862  1
  Na  Na21  1  0.34946386  0.45338733  0.25764700  1
  Na  Na22  1  0.36881493  0.78628173  0.23801443  1
  Na  Na23  1  0.99689316  0.21117934  0.24837732  1
  Na  Na24  1  0.62435145  0.20814737  0.74935763  1
  Na  Na25  1  0.62338004  0.54201141  0.74545375  1
  Na  Na26  1  0.64228218  0.87435087  0.74303609  1
  Na  Na27  1  0.00036363  0.12630780  0.74979355  1
  Na  Na28  1  0.99582418  0.45694249  0.75538861  1
  Na  Na29  1  0.38138387  0.33379149  0.74997408  1
  Na  Na30  1  0.37987526  0.66713348  0.74709975  1
  Na  Na31  1  0.29811670  0.77860865  0.58233556  1
  Na  Na32  1  0.01659229  0.56740412  0.58857653  1
  Na  Na33  1  0.02352295  0.89177156  0.57544478  1
  Na  Na34  1  0.65051600  0.32089369  0.57199802  1
  Na  Na35  1  0.68494804  0.66474685  0.59068223  1
  Na  Na36  1  0.31049961  0.66401382  0.09165329  1
  Na  Na37  1  0.31721849  0.98897014  0.07800564  1
  Na  Na38  1  0.68207928  0.23421511  0.09485000  1
  Na  Na39  1  0.64899825  0.89228362  0.07575108  1
  Na  Na40  1  0.03527189  0.77777640  0.08356686  1
  Na  Na41  1  0.95177354  0.22163039  0.91692841  1
  Na  Na42  1  0.95368777  0.88880965  0.91951768  1
  Na  Na43  1  0.71004644  0.01355312  0.92141079  1
  Na  Na44  1  0.70856505  0.34725714  0.91734119  1
  Na  Na45  1  0.69123027  0.68146908  0.92313114  1
  Na  Na46  1  0.33756654  0.09854318  0.91151719  1
  Na  Na47  1  0.33276410  0.42903087  0.91679548  1
  Na  Na48  1  0.98308862  0.10148199  0.40874415  1
  Na  Na49  1  0.95683145  0.43003363  0.41207762  1
  Na  Na50  1  0.33565663  0.34378537  0.41829352  1
  Na  Na51  1  0.35545022  0.68301900  0.42183039  1
  Na  Na52  1  0.69370588  0.22784284  0.40549389  1
  Na  Na53  1  0.70929408  0.88896357  0.41894605  1
  Nb  Nb54  1  0.99431931  0.66314465  0.35258143  1
  Nb  Nb55  1  0.99930714  0.66505102  0.85365950  1
  Nb  Nb56  1  0.00321487  0.00222771  0.64549208  1
  Nb  Nb57  1  0.00508450  0.33160661  0.64735733  1
  Nb  Nb58  1  0.99238197  0.99982125  0.15003874  1
  Nb  Nb59  1  0.67296417  0.44535326  0.18311713  1
  Nb  Nb60  1  0.66004955  0.10998529  0.48342908  1
  Nb  Nb61  1  0.32790490  0.22371961  0.01935091  1
  Nb  Nb62  1  0.33024293  0.55331229  0.02097648  1
  Nb  Nb63  1  0.34046610  0.55464876  0.51772941  1
  Nb  Nb64  1  0.33184596  0.89398360  0.31469214  1
  Nb  Nb65  1  0.33425126  0.89072510  0.81284245  1
  Zn  Zn66  1  0.00586220  0.99931380  0.34919769  1
  Zn  Zn67  1  0.99771456  0.33438932  0.34392129  1
  Zn  Zn68  1  0.00356666  0.00063471  0.84709586  1
  Zn  Zn69  1  0.99877126  0.33347815  0.85132830  1
  Zn  Zn70  1  0.00162416  0.67025254  0.65297845  1
  Zn  Zn71  1  0.00633867  0.33383305  0.15073636  1
  Zn  Zn72  1  0.00026116  0.66670543  0.15031111  1
  Zn  Zn73  1  0.65967819  0.10905695  0.68238003  1
  Zn  Zn74  1  0.66137684  0.44552674  0.67852573  1
  Zn  Zn75  1  0.68524483  0.77683193  0.68064343  1
  Zn  Zn76  1  0.67682934  0.11261462  0.17977997  1
  Zn  Zn77  1  0.66391050  0.77848219  0.18061495  1
  Zn  Zn78  1  0.67183691  0.10984222  0.98842081  1
  Zn  Zn79  1  0.67347901  0.44640123  0.98418792  1
  Zn  Zn80  1  0.65077949  0.77963623  0.98549321  1
  Zn  Zn81  1  0.65528767  0.44250442  0.48700153  1
  Zn  Zn82  1  0.69310697  0.78053189  0.48523175  1
  Zn  Zn83  1  0.33198583  0.88558737  0.01410323  1
  Zn  Zn84  1  0.32624770  0.22141585  0.51589594  1
  Zn  Zn85  1  0.32821096  0.88731809  0.51485185  1
  Zn  Zn86  1  0.33524950  0.22076565  0.32286465  1
  Zn  Zn87  1  0.32530231  0.55444784  0.31700438  1
  Zn  Zn88  1  0.33434431  0.22192477  0.81536072  1
  Zn  Zn89  1  0.32990397  0.55497503  0.81960172  1
  P  P90  1  0.29355426  0.00116861  0.24949842  1
  P  P91  1  0.29654903  0.33386612  0.25111577  1
  P  P92  1  0.29384853  0.66461285  0.24839398  1
  P  P93  1  0.70152058  0.23296800  0.24882070  1
  P  P94  1  0.70588828  0.56898048  0.24652118  1
  P  P95  1  0.70129123  0.90074905  0.25494045  1
  P  P96  1  0.99627358  0.09835758  0.25518881  1
  P  P97  1  0.00151948  0.43247496  0.24901945  1
  P  P98  1  -0.00006898  0.76494474  0.24948844  1
  P  P99  1  0.29625217  0.09839682  0.75308016  1
  P  P100  1  0.29592771  0.43011783  0.75321350  1
  P  P101  1  0.29380880  0.76510124  0.74954073  1
  P  P102  1  0.99580412  0.23404331  0.75489460  1
  P  P103  1  0.00280643  0.56923171  0.74659135  1
  P  P104  1  0.00098630  0.90199820  0.75122964  1
  P  P105  1  0.71017781  0.00134119  0.75381108  1
  P  P106  1  0.70923679  0.33463029  0.75078410  1
  P  P107  1  0.70178521  0.66572843  0.74947018  1
  P  P108  1  0.96101939  0.11257373  0.58727868  1
  P  P109  1  0.96263152  0.44447717  0.58388877  1
  P  P110  1  0.97098682  0.77765966  0.58365269  1
  P  P111  1  0.37024387  0.01211243  0.58767513  1
  P  P112  1  0.37063020  0.34410850  0.58405692  1
  P  P113  1  0.37326391  0.67996753  0.58130824  1
  P  P114  1  0.66500550  0.20941117  0.58779949  1
  P  P115  1  0.66866085  0.54335964  0.58430935  1
  P  P116  1  0.66389391  0.87511281  0.58539184  1
  P  P117  1  0.96257846  0.21142386  0.08268211  1
  P  P118  1  0.96307363  0.54333998  0.07898286  1
  P  P119  1  0.96093897  0.87576094  0.08249994  1
  P  P120  1  0.66536586  0.01208675  0.08244069  1
  P  P121  1  0.66842653  0.34605929  0.07878575  1
  P  P122  1  0.66887016  0.68043457  0.08139060  1
  P  P123  1  0.36922320  0.11067088  0.08270888  1
  P  P124  1  0.37234928  0.44299971  0.07936280  1
  P  P125  1  0.36213005  0.77757769  0.08585142  1
  P  P126  1  0.62426232  0.22100754  0.91587231  1
  P  P127  1  0.62337299  0.55426536  0.91284769  1
  P  P128  1  0.63081387  0.88962235  0.91719632  1
  P  P129  1  0.03717638  0.12539709  0.91341845  1
  P  P130  1  0.03701054  0.45713336  0.91358682  1
  P  P131  1  0.04021680  0.79062266  0.91716822  1
  P  P132  1  0.33761143  0.32144519  0.91183083  1
  P  P133  1  0.33229230  0.65367606  0.91571087  1
  P  P134  1  0.33049764  0.98645576  0.91987557  1
  P  P135  1  0.63159507  0.32250251  0.41786805  1
  P  P136  1  0.62984486  0.65421591  0.41262824  1
  P  P137  1  0.62629392  0.98635622  0.42051113  1
  P  P138  1  0.33164229  0.12302493  0.41762341  1
  P  P139  1  0.33688674  0.45684432  0.41158451  1
  P  P140  1  0.33187084  0.79121560  0.41549890  1
  P  P141  1  0.03680380  0.22173967  0.41557749  1
  P  P142  1  0.03955792  0.55500687  0.41709731  1
  P  P143  1  0.03536042  0.88977075  0.42045129  1
  O  O144  1  0.20911721  0.00844955  0.30494677  1
  O  O145  1  0.23630327  0.35041159  0.30939492  1
  O  O146  1  0.17953553  0.66517281  0.30450264  1
  O  O147  1  0.81058946  0.26191325  0.30593908  1
  O  O148  1  0.81693760  0.59849775  0.30592891  1
  O  O149  1  0.79707369  0.92885681  0.31247943  1
  O  O150  1  0.98403598  0.06663656  0.31368804  1
  O  O151  1  0.95649335  0.39815315  0.30893031  1
  O  O152  1  0.98654618  0.72206397  0.30229461  1
  O  O153  1  0.21540148  0.06691811  0.81223406  1
  O  O154  1  0.21729169  0.39727880  0.81200625  1
  O  O155  1  0.18033649  0.72480796  0.80311791  1
  O  O156  1  0.97493206  0.26137070  0.81243294  1
  O  O157  1  0.99403605  0.60570668  0.80297005  1
  O  O158  1  0.97947967  0.92906636  0.80877241  1
  O  O159  1  0.80476032  0.00701119  0.81294739  1
  O  O160  1  0.81286788  0.34269441  0.80877667  1
  O  O161  1  0.81615579  0.66737577  0.80602372  1
  O  O162  1  0.81181052  0.32981239  0.69436421  1
  O  O163  1  0.78474650  0.65913156  0.69200373  1
  O  O164  1  0.80820899  0.99169623  0.69999396  1
  O  O165  1  0.17159176  0.06023219  0.69877254  1
  O  O166  1  0.17533040  0.39270648  0.69882980  1
  O  O167  1  0.20243989  0.74251448  0.68997622  1
  O  O168  1  0.00050255  0.27298930  0.69899210  1
  O  O169  1  0.02215856  0.60414998  0.68950282  1
  O  O170  1  0.02599003  0.94026537  0.69410959  1
  O  O171  1  0.78475265  0.26869837  0.19152720  1
  O  O172  1  0.79496476  0.60770526  0.19353681  1
  O  O173  1  0.79971698  0.93886310  0.19754900  1
  O  O174  1  0.00472135  0.05857811  0.20159362  1
  O  O175  1  0.02345053  0.40123933  0.19609583  1
  O  O176  1  0.04264895  0.74469333  0.19114185  1
  O  O177  1  0.18283805  0.32439639  0.19704648  1
  O  O178  1  0.19865898  0.66230625  0.19074293  1
  O  O179  1  0.17820928  0.99178352  0.19181178  1
  O  O180  1  0.88031468  0.11760769  0.64556838  1
  O  O181  1  0.89720268  0.46030427  0.64070914  1
  O  O182  1  0.89007923  0.78748034  0.64008883  1
  O  O183  1  0.47012287  0.03967941  0.64422093  1
  O  O184  1  0.48031413  0.37362707  0.64009827  1
  O  O185  1  0.47886754  0.70262605  0.63983808  1
  O  O186  1  0.65432806  0.17783147  0.64587126  1
  O  O187  1  0.63766854  0.51283472  0.64549466  1
  O  O188  1  0.63952818  0.83825767  0.64202955  1
  O  O189  1  0.89511437  0.17753538  0.14151141  1
  O  O190  1  0.86432467  0.50441879  0.13557927  1
  O  O191  1  0.87114961  0.83563576  0.13577554  1
  O  O192  1  0.63709719  0.04337236  0.13403331  1
  O  O193  1  0.65042576  0.38024101  0.13466130  1
  O  O194  1  0.62404230  0.70229069  0.13930470  1
  O  O195  1  0.48147125  0.12403695  0.13855016  1
  O  O196  1  0.49461604  0.45254077  0.13538855  1
  O  O197  1  0.46702371  0.78548459  0.14389504  1
  O  O198  1  0.43573724  0.09522804  0.02578640  1
  O  O199  1  0.45310342  0.43805573  0.02116358  1
  O  O200  1  0.45295962  0.76912378  0.03108607  1
  O  O201  1  0.85327416  0.18199436  0.02650281  1
  O  O202  1  0.86333053  0.51596428  0.02250984  1
  O  O203  1  0.85921591  0.85522570  0.02281942  1
  O  O204  1  0.69715353  0.04271555  0.02119907  1
  O  O205  1  0.67952367  0.37773552  0.02077007  1
  O  O206  1  0.69392566  0.71736619  0.02472003  1
  O  O207  1  0.46910134  0.05123647  0.53117028  1
  O  O208  1  0.43750252  0.37790768  0.52514500  1
  O  O209  1  0.45961183  0.71669502  0.52494783  1
  O  O210  1  0.68326824  0.17556468  0.53183726  1
  O  O211  1  0.69621250  0.51203961  0.53258803  1
  O  O212  1  0.70798946  0.85312029  0.52744897  1
  O  O213  1  0.83883436  0.10305992  0.53131539  1
  O  O214  1  0.85148821  0.43158349  0.52784123  1
  O  O215  1  0.85534797  0.76531636  0.52809367  1
  O  O216  1  0.52163789  0.22583295  0.97229587  1
  O  O217  1  0.52503708  0.56380881  0.96675377  1
  O  O218  1  0.54718842  0.89582463  0.97503860  1
  O  O219  1  0.15799313  0.16289992  0.96780154  1
  O  O220  1  0.16166007  0.49537292  0.96792563  1
  O  O221  1  0.13201021  0.81290842  0.97689323  1
  O  O222  1  0.33282080  0.28253669  0.96771906  1
  O  O223  1  0.30707195  0.61520043  0.97271094  1
  O  O224  1  0.31161053  0.95165419  0.97692684  1
  O  O225  1  0.54852486  0.28704764  0.47522946  1
  O  O226  1  0.53493085  0.61592645  0.47037808  1
  O  O227  1  0.53603735  0.94786203  0.47349691  1
  O  O228  1  0.31024660  0.15433424  0.47059423  1
  O  O229  1  0.32746620  0.49639865  0.46525414  1
  O  O230  1  0.30407741  0.81279420  0.47513824  1
  O  O231  1  0.15092955  0.23144406  0.46960595  1
  O  O232  1  0.15902897  0.56536055  0.47408528  1
  O  O233  1  0.13041423  0.89356379  0.47845471  1
  O  O234  1  0.09732357  0.20535512  0.35721801  1
  O  O235  1  0.12525252  0.54861199  0.36134347  1
  O  O236  1  0.15420308  0.89001047  0.36511380  1
  O  O237  1  0.52223543  0.29354071  0.36079535  1
  O  O238  1  0.52707675  0.62574684  0.35591890  1
  O  O239  1  0.51478274  0.95689453  0.36108709  1
  O  O240  1  0.37771884  0.15754962  0.35784566  1
  O  O241  1  0.34977222  0.48851686  0.35305818  1
  O  O242  1  0.34501353  0.83221829  0.36198826  1
  O  O243  1  0.11569366  0.15826386  0.85468057  1
  O  O244  1  0.11811003  0.48877745  0.85447149  1
  O  O245  1  0.15300351  0.83074505  0.86365743  1
  O  O246  1  0.35851074  0.29418745  0.85423599  1
  O  O247  1  0.35422611  0.62663548  0.85808884  1
  O  O248  1  0.33927623  0.94995077  0.86354057  1
  O  O249  1  0.52088475  0.21305479  0.85786320  1
  O  O250  1  0.52889546  0.54869076  0.85379900  1
  O  O251  1  0.51666869  0.88817361  0.86080939  1
  O  O252  1  0.00928311  0.27353639  0.40959870  1
  O  O253  1  0.03166499  0.61268589  0.41396409  1
  O  O254  1  0.01217547  0.94208436  0.41420109  1
  O  O255  1  0.81249256  0.32856072  0.41331846  1
  O  O256  1  0.80989084  0.65799662  0.41087521  1
  O  O257  1  0.80743671  0.99601772  0.41447561  1
  O  O258  1  0.17500308  0.06300884  0.41354878  1
  O  O259  1  0.16692140  0.39974714  0.41824401  1
  O  O260  1  0.17185425  0.72904682  0.40436653  1
  O  O261  1  0.03209467  0.06758796  0.91884512  1
  O  O262  1  0.03550828  0.39976882  0.92001622  1
  O  O263  1  0.01517876  0.72889024  0.90704000  1
  O  O264  1  0.16848446  0.32199842  0.91771584  1
  O  O265  1  0.16411317  0.65842633  0.91133062  1
  O  O266  1  0.17033003  0.99225212  0.91437395  1
  O  O267  1  0.79939318  0.27692113  0.91819541  1
  O  O268  1  0.80425129  0.61203869  0.91255542  1
  O  O269  1  0.80884963  0.94441456  0.91288387  1
  O  O270  1  0.96933074  0.05441506  0.59113265  1
  O  O271  1  0.98585779  0.39112077  0.59322464  1
  O  O272  1  0.99215897  0.72380408  0.58821001  1
  O  O273  1  0.18883655  0.00955968  0.58809071  1
  O  O274  1  0.18546938  0.33747715  0.59379017  1
  O  O275  1  0.18951238  0.66938613  0.58469002  1
  O  O276  1  0.83552398  0.27071834  0.58691919  1
  O  O277  1  0.81932938  0.60556843  0.58471563  1
  O  O278  1  0.83405350  0.93656080  0.59530077  1
  O  O279  1  0.98512231  0.27161170  0.08522483  1
  O  O280  1  0.00445899  0.60480597  0.08719196  1
  O  O281  1  0.97571954  0.93724788  0.09300600  1
  O  O282  1  0.82968620  0.00455178  0.09308784  1
  O  O283  1  0.81653641  0.33525688  0.08670433  1
  O  O284  1  0.82472009  0.67277386  0.08645600  1
  O  O285  1  0.18386654  0.05708416  0.09328353  1
  O  O286  1  0.19356815  0.39388126  0.08927526  1
  O  O287  1  0.18045944  0.72353561  0.08719860  1
  O  O288  1  0.68985377  0.05322749  0.74561541  1
  O  O289  1  0.69195304  0.38843796  0.74380560  1
  O  O290  1  0.68503326  0.71937115  0.75302129  1
  O  O291  1  0.47607364  0.10711386  0.74717273  1
  O  O292  1  0.47480433  0.43710064  0.74637570  1
  O  O293  1  0.46860969  0.76955390  0.75456791  1
  O  O294  1  0.83830505  0.17403786  0.74925243  1
  O  O295  1  0.83633468  0.51158330  0.75130222  1
  O  O296  1  0.84210527  0.84273837  0.74461284  1
  O  O297  1  0.68258315  0.17219113  0.24658056  1
  O  O298  1  0.69126967  0.50832140  0.24285991  1
  O  O299  1  0.67198081  0.84020820  0.24705751  1
  O  O300  1  0.84212704  0.10622413  0.24704057  1
  O  O301  1  0.83396792  0.43810889  0.23786042  1
  O  O302  1  0.83325851  0.76577043  0.25099826  1
  O  O303  1  0.47024259  0.05314339  0.24114021  1
  O  O304  1  0.48487734  0.38946128  0.23961371  1
  O  O305  1  0.46650785  0.72107062  0.25488117  1
  O  O306  1  0.64162557  0.16723187  0.92287635  1
  O  O307  1  0.64358553  0.50234861  0.92104426  1
  O  O308  1  0.64653735  0.83580699  0.91367381  1
  O  O309  1  0.85842032  0.11847289  0.92038748  1
  O  O310  1  0.85726175  0.44847130  0.91945415  1
  O  O311  1  0.86502705  0.78580631  0.91233014  1
  O  O312  1  0.49712484  0.04413913  0.91527163  1
  O  O313  1  0.49512654  0.38148519  0.91747865  1
  O  O314  1  0.49038428  0.71288880  0.92273314  1
  O  O315  1  0.64177500  0.04720817  0.42384573  1
  O  O316  1  0.65106232  0.38347093  0.42002164  1
  O  O317  1  0.64728255  0.71295561  0.42041167  1
  O  O318  1  0.49933346  0.11739369  0.42876971  1
  O  O319  1  0.49108681  0.44912100  0.41984286  1
  O  O320  1  0.49253366  0.78579062  0.41137890  1
  O  O321  1  0.84869825  0.16619439  0.42697971  1
  O  O322  1  0.86351070  0.50302210  0.42556724  1
  O  O323  1  0.86093309  0.83462301  0.41452962  1
  O  O324  1  0.34652047  0.16427299  0.07323157  1
  O  O325  1  0.36382906  0.50116881  0.07559239  1
  O  O326  1  0.34497248  0.83195688  0.08144268  1
  O  O327  1  0.14789318  0.21808369  0.07298823  1
  O  O328  1  0.14453558  0.54601815  0.07866390  1
  O  O329  1  0.14555428  0.88697475  0.07984144  1
  O  O330  1  0.49801817  0.28489552  0.07974239  1
  O  O331  1  0.49906097  0.61898382  0.07158972  1
  O  O332  1  0.51306823  0.95004601  0.08160445  1
  O  O333  1  0.34816643  0.28390296  0.58152170  1
  O  O334  1  0.35624289  0.61762854  0.57381884  1
  O  O335  1  0.32934501  0.95081112  0.57948034  1
  O  O336  1  0.51692540  0.22031502  0.57995792  1
  O  O337  1  0.50232345  0.55004337  0.57399889  1
  O  O338  1  0.50829963  0.88295469  0.58057752  1
  O  O339  1  0.13970178  0.16166654  0.57737433  1
  O  O340  1  0.14830593  0.49816098  0.57300464  1
  O  O341  1  0.15134960  0.83176553  0.57878775  1
  O  O342  1  0.32407885  0.28209367  0.25703157  1
  O  O343  1  0.32049622  0.61305571  0.25280217  1
  O  O344  1  0.30687590  0.94463036  0.25367267  1
  O  O345  1  0.52049339  0.22689352  0.25339272  1
  O  O346  1  0.52489649  0.55938502  0.25259841  1
  O  O347  1  0.51823620  0.89619947  0.25482099  1
  O  O348  1  0.16597438  0.15549611  0.24841808  1
  O  O349  1  0.15816140  0.49244469  0.25292631  1
  O  O350  1  0.16072322  0.82514151  0.26299149  1
  O  O351  1  0.29794648  0.15587055  0.74668064  1
  O  O352  1  0.30111806  0.48796459  0.74789237  1
  O  O353  1  0.31868862  0.82666880  0.75971697  1
  O  O354  1  0.16501413  0.23359584  0.74897721  1
  O  O355  1  0.16310501  0.56347951  0.75220659  1
  O  O356  1  0.16892053  0.89707245  0.75550971  1
  O  O357  1  0.53416663  0.27873720  0.74848874  1
  O  O358  1  0.52331498  0.61091267  0.75407093  1
  O  O359  1  0.52914900  0.94357881  0.75429732  1
