# generated using pymatgen
data_Nd2MgCr2O8
_symmetry_space_group_name_H-M   'P 1'
_cell_length_a   6.38964885
_cell_length_b   6.30002868
_cell_length_c   6.24222609
_cell_angle_alpha   105.27911632
_cell_angle_beta   105.91011141
_cell_angle_gamma   118.10217088
_symmetry_Int_Tables_number   1
_chemical_formula_structural   Nd2MgCr2O8
_chemical_formula_sum   'Nd2 Mg1 Cr2 O8'
_cell_volume   188.95744264
_cell_formula_units_Z   1
loop_
 _symmetry_equiv_pos_site_id
 _symmetry_equiv_pos_as_xyz
  1  'x, y, z'
loop_
 _atom_site_type_symbol
 _atom_site_label
 _atom_site_symmetry_multiplicity
 _atom_site_fract_x
 _atom_site_fract_y
 _atom_site_fract_z
 _atom_site_occupancy
  Nd  Nd0  1  0.12798300  0.87796200  0.25595000  1
  Nd  Nd1  1  0.90169500  0.15170700  0.80343100  1
  Mg  Mg2  1  0.61154700  0.86154500  0.22301700  1
  Cr  Cr3  1  0.35456700  0.60454800  0.70925100  1
  Cr  Cr4  1  0.62519800  0.37524000  0.25047200  1
  O  O5  1  0.78419300  0.73815500  0.42196900  1
  O  O6  1  0.38510800  0.79820400  0.54508600  1
  O  O7  1  0.71454800  0.80953800  0.94935700  1
  O  O8  1  0.80730900  0.38705900  0.07712300  1
  O  O9  1  0.63781700  0.18385700  0.42197300  1
  O  O10  1  0.15997700  0.24685300  0.54505400  1
  O  O11  1  0.23484300  0.63984900  0.94938600  1
  O  O12  1  0.26979700  0.19006700  0.07709500  1
