# generated using pymatgen
data_Na4ScTa3Si5SO24
_symmetry_space_group_name_H-M   'P 1'
_cell_length_a   8.99884401
_cell_length_b   8.97720556
_cell_length_c   22.75804476
_cell_angle_alpha   90.01216024
_cell_angle_beta   90.17601642
_cell_angle_gamma   119.88662378
_symmetry_Int_Tables_number   1
_chemical_formula_structural   Na4ScTa3Si5SO24
_chemical_formula_sum   'Na12 Sc3 Ta9 Si15 S3 O72'
_cell_volume   1593.98993158
_cell_formula_units_Z   3
loop_
 _symmetry_equiv_pos_site_id
 _symmetry_equiv_pos_as_xyz
  1  'x, y, z'
loop_
 _atom_site_type_symbol
 _atom_site_label
 _atom_site_symmetry_multiplicity
 _atom_site_fract_x
 _atom_site_fract_y
 _atom_site_fract_z
 _atom_site_occupancy
  Na  Na0  1  0.63443144  0.62338131  0.74523007  1
  Na  Na1  1  0.98974508  0.36405438  0.74925266  1
  Na  Na2  1  0.37866192  0.00914557  0.74589744  1
  Na  Na3  1  0.66026456  0.68392764  0.08439179  1
  Na  Na4  1  0.02268240  0.34141758  0.08391708  1
  Na  Na5  1  0.32335106  0.02772613  0.41692352  1
  Na  Na6  1  0.98750374  0.99269826  0.49468672  1
  Na  Na7  1  0.00996809  0.99599947  0.99408260  1
  Na  Na8  1  0.66726779  0.33278215  0.83378260  1
  Na  Na9  1  0.69341369  0.34042041  0.32879372  1
  Na  Na10  1  0.32913713  0.67380979  0.16763020  1
  Na  Na11  1  0.34311496  0.67404059  0.66138708  1
  Sc  Sc12  1  0.99043230  0.00784720  0.35863090  1
  Sc  Sc13  1  0.65415183  0.32941896  0.68592327  1
  Sc  Sc14  1  0.67685790  0.33242502  0.18344262  1
  Ta  Ta15  1  0.99867833  0.00012563  0.85708044  1
  Ta  Ta16  1  0.00187438  0.99113118  0.64484975  1
  Ta  Ta17  1  0.00701119  0.01264158  0.14442299  1
  Ta  Ta18  1  0.66706165  0.33412543  0.97747150  1
  Ta  Ta19  1  0.66054747  0.34044122  0.47766522  1
  Ta  Ta20  1  0.33297892  0.66916395  0.01824156  1
  Ta  Ta21  1  0.34278846  0.67624591  0.51941019  1
  Ta  Ta22  1  0.32357419  0.65567354  0.31537479  1
  Ta  Ta23  1  0.33515477  0.66730346  0.81411124  1
  Si  Si24  1  0.99905296  0.29692823  0.25214157  1
  Si  Si25  1  0.28167505  0.28544395  0.75053278  1
  Si  Si26  1  0.00241819  0.71211661  0.75168009  1
  Si  Si27  1  0.71439722  0.99821985  0.74991231  1
  Si  Si28  1  0.37392383  0.04189218  0.58426441  1
  Si  Si29  1  0.66514710  0.62596750  0.58575339  1
  Si  Si30  1  0.95803323  0.62435776  0.08330244  1
  Si  Si31  1  0.66014753  0.04225006  0.08380543  1
  Si  Si32  1  0.38347468  0.33439849  0.08378930  1
  Si  Si33  1  0.62420205  0.66552053  0.91697770  1
  Si  Si34  1  0.04243419  0.37767667  0.91644920  1
  Si  Si35  1  0.33518558  0.95889694  0.91577309  1
  Si  Si36  1  0.62223203  0.95799283  0.41541168  1
  Si  Si37  1  0.33140918  0.37881913  0.41862867  1
  Si  Si38  1  0.04091830  0.66048024  0.41799641  1
  S  S39  1  0.28779618  0.99719562  0.25113804  1
  S  S40  1  0.70845790  0.71289293  0.24982666  1
  S  S41  1  0.95800302  0.33294920  0.58314746  1
  O  O42  1  0.20587068  0.00781935  0.30500745  1
  O  O43  1  0.81318490  0.79653946  0.30193609  1
  O  O44  1  0.98856649  0.18010577  0.30674235  1
  O  O45  1  0.18693163  0.16330203  0.80712030  1
  O  O46  1  0.97276035  0.80825886  0.80718033  1
  O  O47  1  0.83453282  0.02393869  0.80734549  1
  O  O48  1  0.80555467  0.96347737  0.69290373  1
  O  O49  1  0.15683328  0.19589873  0.69300922  1
  O  O50  1  0.03800231  0.83770450  0.69318737  1
  O  O51  1  0.79529565  0.81600432  0.19491809  1
  O  O52  1  0.02117117  0.19576558  0.19162387  1
  O  O53  1  0.17549279  0.97662397  0.19799765  1
  O  O54  1  0.88546017  0.35743720  0.63832920  1
  O  O55  1  0.48038913  0.11355159  0.64495126  1
  O  O56  1  0.64062817  0.52351419  0.64650613  1
  O  O57  1  0.88601571  0.49911331  0.13897273  1
  O  O58  1  0.62631447  0.11799077  0.14207013  1
  O  O59  1  0.50425674  0.38487330  0.14031936  1
  O  O60  1  0.47254711  0.30237486  0.02600765  1
  O  O61  1  0.82917315  0.53665496  0.02630668  1
  O  O62  1  0.70861359  0.17295051  0.02741924  1
  O  O63  1  0.47614172  0.16245763  0.52658018  1
  O  O64  1  0.69054592  0.52321151  0.52936147  1
  O  O65  1  0.84817333  0.31192019  0.53162762  1
  O  O66  1  0.52972606  0.68777600  0.97473618  1
  O  O67  1  0.16003283  0.46974593  0.97448701  1
  O  O68  1  0.31154080  0.83500394  0.97172771  1
  O  O69  1  0.52081685  0.83909492  0.47316143  1
  O  O70  1  0.31044845  0.47709322  0.47468841  1
  O  O71  1  0.16565686  0.68650981  0.47374071  1
  O  O72  1  0.13555675  0.62974067  0.35913890  1
  O  O73  1  0.49280434  0.86401911  0.35828115  1
  O  O74  1  0.36217737  0.50136404  0.35987503  1
  O  O75  1  0.13817929  0.49674109  0.85787982  1
  O  O76  1  0.35890356  0.86528634  0.85672396  1
  O  O77  1  0.50533231  0.64223438  0.85818070  1
  O  O78  1  0.03497112  0.83443262  0.41019298  1
  O  O79  1  0.80562851  0.97130643  0.41520582  1
  O  O80  1  0.17905950  0.18362671  0.41403662  1
  O  O81  1  0.02622281  0.18912846  0.91015484  1
  O  O82  1  0.16314511  0.97448093  0.91040612  1
  O  O83  1  0.81169291  0.83764794  0.91078466  1
  O  O84  1  0.97338855  0.17514857  0.58651402  1
  O  O85  1  0.18480591  0.03115162  0.58877180  1
  O  O86  1  0.83711743  0.81996915  0.58863930  1
  O  O87  1  0.97046446  0.81243278  0.09408946  1
  O  O88  1  0.83615258  0.02014355  0.09285157  1
  O  O89  1  0.18608076  0.16348663  0.09147067  1
  O  O90  1  0.69465399  0.16743666  0.74648848  1
  O  O91  1  0.47207926  0.30797202  0.74807953  1
  O  O92  1  0.83874277  0.52166219  0.74627933  1
  O  O93  1  0.68198200  0.53888208  0.24481155  1
  O  O94  1  0.83520371  0.32370653  0.24824155  1
  O  O95  1  0.45650182  0.15125864  0.24458990  1
  O  O96  1  0.63945597  0.49286503  0.92276523  1
  O  O97  1  0.85546568  0.36262906  0.92327700  1
  O  O98  1  0.50758384  0.14490066  0.92373197  1
  O  O99  1  0.62683137  0.14222531  0.42446865  1
  O  O100  1  0.51036463  0.36836992  0.42416910  1
  O  O101  1  0.85645218  0.48511549  0.42628566  1
  O  O102  1  0.34467814  0.49422241  0.07297464  1
  O  O103  1  0.14939410  0.64871680  0.07238432  1
  O  O104  1  0.50703439  0.84315593  0.07396575  1
  O  O105  1  0.34036855  0.84534128  0.57496507  1
  O  O106  1  0.49492257  0.64567187  0.57556166  1
  O  O107  1  0.13181635  0.48563739  0.57653903  1
  O  O108  1  0.30296623  0.83736997  0.25151694  1
  O  O109  1  0.53834325  0.70752527  0.25295308  1
  O  O110  1  0.18281996  0.48874307  0.25411841  1
  O  O111  1  0.29779647  0.47663857  0.75642982  1
  O  O112  1  0.18019180  0.70254329  0.75626514  1
  O  O113  1  0.52439545  0.82234494  0.75617817  1
