# generated using pymatgen
data_Na5InS4
_symmetry_space_group_name_H-M   'P 1'
_cell_length_a   8.75246348
_cell_length_b   6.76158263
_cell_length_c   7.81217621
_cell_angle_alpha   88.96603127
_cell_angle_beta   90.00000000
_cell_angle_gamma   90.00000000
_symmetry_Int_Tables_number   1
_chemical_formula_structural   Na5InS4
_chemical_formula_sum   'Na10 In2 S8'
_cell_volume   462.25325356
_cell_formula_units_Z   2
loop_
 _symmetry_equiv_pos_site_id
 _symmetry_equiv_pos_as_xyz
  1  'x, y, z'
loop_
 _atom_site_type_symbol
 _atom_site_label
 _atom_site_symmetry_multiplicity
 _atom_site_fract_x
 _atom_site_fract_y
 _atom_site_fract_z
 _atom_site_occupancy
  Na  Na0  1  0.47955936  0.34357690  0.66518117  1
  Na  Na1  1  0.97955936  0.65642310  0.33481883  1
  Na  Na2  1  0.52044064  0.65642310  0.33481883  1
  Na  Na3  1  0.02044064  0.34357690  0.66518117  1
  Na  Na4  1  0.75000000  0.02528724  0.52859402  1
  Na  Na5  1  0.25000000  0.97471276  0.47140598  1
  Na  Na6  1  0.75000000  0.33098509  0.16091715  1
  Na  Na7  1  0.25000000  0.66901491  0.83908285  1
  Na  Na8  1  -0.00000000  -0.00000000  0.00000000  1
  Na  Na9  1  0.50000000  -0.00000000  0.00000000  1
  In  In10  1  0.25000000  0.36073593  0.17610751  1
  In  In11  1  0.75000000  0.63926407  0.82389249  1
  S  S12  1  0.25000000  0.24016758  0.87905140  1
  S  S13  1  0.75000000  0.75983242  0.12094860  1
  S  S14  1  0.98159665  0.76667352  0.67166090  1
  S  S15  1  0.48159665  0.23332648  0.32833910  1
  S  S16  1  0.01840335  0.23332648  0.32833910  1
  S  S17  1  0.51840335  0.76667352  0.67166090  1
  S  S18  1  0.75000000  0.27124354  0.82150746  1
  S  S19  1  0.25000000  0.72875646  0.17849254  1
