# generated using pymatgen
data_Na6MgTi3Si4(SO12)2
_symmetry_space_group_name_H-M   'P 1'
_cell_length_a   8.95763370
_cell_length_b   8.93906042
_cell_length_c   22.17402978
_cell_angle_alpha   90.38958117
_cell_angle_beta   89.99391626
_cell_angle_gamma   120.08432109
_symmetry_Int_Tables_number   1
_chemical_formula_structural   Na6MgTi3Si4(SO12)2
_chemical_formula_sum   'Na18 Mg3 Ti9 Si12 S6 O72'
_cell_volume   1536.30552035
_cell_formula_units_Z   3
loop_
 _symmetry_equiv_pos_site_id
 _symmetry_equiv_pos_as_xyz
  1  'x, y, z'
loop_
 _atom_site_type_symbol
 _atom_site_label
 _atom_site_symmetry_multiplicity
 _atom_site_fract_x
 _atom_site_fract_y
 _atom_site_fract_z
 _atom_site_occupancy
  Na  Na0  1  0.99478287  0.36097076  0.75331739  1
  Na  Na1  1  0.38711982  0.01255164  0.74818158  1
  Na  Na2  1  0.31729011  0.33710722  0.58515078  1
  Na  Na3  1  0.03213942  0.70423114  0.57833946  1
  Na  Na4  1  0.65623619  0.96485967  0.58809980  1
  Na  Na5  1  0.31810322  0.97831773  0.08607512  1
  Na  Na6  1  0.65551926  0.68324053  0.08672741  1
  Na  Na7  1  0.02699253  0.34000161  0.08679516  1
  Na  Na8  1  0.33579348  0.29819961  0.92255807  1
  Na  Na9  1  0.96188280  0.28942665  0.41277035  1
  Na  Na10  1  0.32373513  0.03250100  0.41330313  1
  Na  Na11  1  0.71314499  0.67831426  0.41297337  1
  Na  Na12  1  0.00157674  0.99504247  0.49350904  1
  Na  Na13  1  0.99383498  0.98988562  0.99593341  1
  Na  Na14  1  0.66631255  0.32843386  0.83406323  1
  Na  Na15  1  0.66928144  0.33352167  0.32599026  1
  Na  Na16  1  0.33583707  0.66596262  0.16925807  1
  Na  Na17  1  0.36087935  0.67136083  0.66924995  1
  Mg  Mg18  1  0.00073660  0.99889130  0.35297317  1
  Mg  Mg19  1  0.64688782  0.32620664  0.68797242  1
  Mg  Mg20  1  0.66527384  0.33340728  0.18106030  1
  Ti  Ti21  1  0.01010457  0.02344774  0.85520520  1
  Ti  Ti22  1  0.99552141  0.99970959  0.64902228  1
  Ti  Ti23  1  0.00354669  0.00174802  0.14171521  1
  Ti  Ti24  1  0.67297919  0.31861144  0.98295509  1
  Ti  Ti25  1  0.65025137  0.33930443  0.47686515  1
  Ti  Ti26  1  0.31721708  0.66678531  0.02101120  1
  Ti  Ti27  1  0.34650338  0.67911413  0.51605241  1
  Ti  Ti28  1  0.33168200  0.66696929  0.31871273  1
  Ti  Ti29  1  0.34004852  0.67148767  0.81534386  1
  Si  Si30  1  0.29462938  0.29843705  0.75076826  1
  Si  Si31  1  0.70925484  0.99604398  0.75156976  1
  Si  Si32  1  0.37340291  0.03871100  0.58468808  1
  Si  Si33  1  0.66571854  0.62551813  0.58445499  1
  Si  Si34  1  0.94961367  0.61651542  0.08471666  1
  Si  Si35  1  0.66255740  0.03730981  0.08623716  1
  Si  Si36  1  0.38176613  0.33901259  0.08274823  1
  Si  Si37  1  0.03821472  0.38420336  0.91563523  1
  Si  Si38  1  0.33166923  0.95795559  0.91602987  1
  Si  Si39  1  0.62516532  0.96273165  0.41561538  1
  Si  Si40  1  0.33059092  0.38017581  0.41723723  1
  Si  Si41  1  0.04098510  0.66049324  0.41798475  1
  S  S42  1  0.29212002  0.99779290  0.25060417  1
  S  S43  1  0.70587769  0.70813917  0.25033458  1
  S  S44  1  0.00220840  0.29386806  0.25086391  1
  S  S45  1  -0.00022201  0.71250845  0.75025301  1
  S  S46  1  0.95719766  0.33315084  0.58461745  1
  S  S47  1  0.62664594  0.67030046  0.91636251  1
  O  O48  1  0.20601701  0.01141487  0.30580818  1
  O  O49  1  0.80542504  0.79490071  0.30575904  1
  O  O50  1  0.98938817  0.19490945  0.30588408  1
  O  O51  1  0.19084348  0.17448945  0.80943897  1
  O  O52  1  0.98059391  0.79691637  0.80351050  1
  O  O53  1  0.83753049  0.01216299  0.80693452  1
  O  O54  1  0.80180767  0.96948399  0.68939832  1
  O  O55  1  0.16418090  0.19225738  0.69174001  1
  O  O56  1  0.02352264  0.81803222  0.69385306  1
  O  O57  1  0.79630730  0.81377598  0.19574443  1
  O  O58  1  0.01749710  0.20236959  0.19593964  1
  O  O59  1  0.18576238  0.98235675  0.19571850  1
  O  O60  1  0.87962785  0.35670116  0.63928018  1
  O  O61  1  0.49394528  0.10707551  0.64325629  1
  O  O62  1  0.62903222  0.49949479  0.63931653  1
  O  O63  1  0.88507229  0.49539323  0.14171176  1
  O  O64  1  0.60858504  0.11085804  0.14179253  1
  O  O65  1  0.50391319  0.38754670  0.13978559  1
  O  O66  1  0.45795333  0.28997449  0.02232565  1
  O  O67  1  0.82071497  0.53017986  0.02599009  1
  O  O68  1  0.71066550  0.16890230  0.02708537  1
  O  O69  1  0.46872277  0.16787725  0.52532753  1
  O  O70  1  0.69948906  0.53771663  0.52235062  1
  O  O71  1  0.85203024  0.30809161  0.52971873  1
  O  O72  1  0.54898174  0.69334363  0.97197417  1
  O  O73  1  0.16448484  0.46985581  0.97414305  1
  O  O74  1  0.31232267  0.83905987  0.97451449  1
  O  O75  1  0.53430124  0.84062777  0.47558851  1
  O  O76  1  0.30524413  0.46996816  0.47790431  1
  O  O77  1  0.16296026  0.68911555  0.47713563  1
  O  O78  1  0.13861443  0.62700583  0.36002786  1
  O  O79  1  0.48889548  0.86450895  0.35940551  1
  O  O80  1  0.37141570  0.51294328  0.36025202  1
  O  O81  1  0.14183725  0.49848669  0.85585696  1
  O  O82  1  0.35574259  0.85973503  0.85610903  1
  O  O83  1  0.51184500  0.64735534  0.86289803  1
  O  O84  1  0.02199975  0.82925207  0.41191300  1
  O  O85  1  0.81109516  0.97915059  0.41089793  1
  O  O86  1  0.16707393  0.18980511  0.41141180  1
  O  O87  1  0.02537045  0.19133748  0.91063610  1
  O  O88  1  0.15800776  0.97633460  0.90989057  1
  O  O89  1  0.79933714  0.82256303  0.90955849  1
  O  O90  1  0.97418475  0.17315820  0.58712842  1
  O  O91  1  0.18130127  0.02329431  0.58922799  1
  O  O92  1  0.84032235  0.82122322  0.58806197  1
  O  O93  1  0.97671124  0.81564324  0.09276823  1
  O  O94  1  0.83987798  0.02122432  0.09355153  1
  O  O95  1  0.18353327  0.16189560  0.09311560  1
  O  O96  1  0.70408950  0.17366800  0.74901757  1
  O  O97  1  0.47482548  0.30340749  0.75074356  1
  O  O98  1  0.85341544  0.53607244  0.74367794  1
  O  O99  1  0.68762635  0.53485759  0.24705684  1
  O  O100  1  0.84799727  0.31213203  0.24742161  1
  O  O101  1  0.46473285  0.15268730  0.24755003  1
  O  O102  1  0.63330790  0.50883945  0.91746245  1
  O  O103  1  0.84890591  0.36418497  0.92151691  1
  O  O104  1  0.50010435  0.15298747  0.92098849  1
  O  O105  1  0.63674364  0.14967299  0.42350651  1
  O  O106  1  0.50938125  0.36870244  0.42083266  1
  O  O107  1  0.85356280  0.48273903  0.42347899  1
  O  O108  1  0.34430048  0.49916289  0.07205546  1
  O  O109  1  0.15000084  0.65642963  0.07392346  1
  O  O110  1  0.50491555  0.84152240  0.07193085  1
  O  O111  1  0.34053869  0.84032852  0.57514065  1
  O  O112  1  0.49528559  0.65027577  0.57684889  1
  O  O113  1  0.13427181  0.48580915  0.58012729  1
  O  O114  1  0.30255464  0.83552561  0.25199711  1
  O  O115  1  0.53259998  0.69617437  0.25234370  1
  O  O116  1  0.16439874  0.46739041  0.25259047  1
  O  O117  1  0.29493033  0.48142104  0.75446119  1
  O  O118  1  0.16321067  0.70350861  0.75190587  1
  O  O119  1  0.51423545  0.82691819  0.75654043  1
