# generated using pymatgen
data_Rb2Cd3Te4
_symmetry_space_group_name_H-M   'P 1'
_cell_length_a   10.70455008
_cell_length_b   10.70455008
_cell_length_c   13.06396771
_cell_angle_alpha   72.41828822
_cell_angle_beta   72.41828822
_cell_angle_gamma   93.58067167
_symmetry_Int_Tables_number   1
_chemical_formula_structural   Rb2Cd3Te4
_chemical_formula_sum   'Rb8 Cd12 Te16'
_cell_volume   1340.77955210
_cell_formula_units_Z   4
loop_
 _symmetry_equiv_pos_site_id
 _symmetry_equiv_pos_as_xyz
  1  'x, y, z'
loop_
 _atom_site_type_symbol
 _atom_site_label
 _atom_site_symmetry_multiplicity
 _atom_site_fract_x
 _atom_site_fract_y
 _atom_site_fract_z
 _atom_site_occupancy
  Rb  Rb0  1  0.00000000  0.00000000  -0.00000000  1
  Rb  Rb1  1  0.75139972  0.75543503  0.36265434  1
  Rb  Rb2  1  0.75543503  0.75139972  0.86265434  1
  Rb  Rb3  1  0.24860028  0.24456497  0.63734566  1
  Rb  Rb4  1  0.49777142  0.50222858  0.25000000  1
  Rb  Rb5  1  0.50222858  0.49777142  0.75000000  1
  Rb  Rb6  1  0.00000000  0.00000000  0.50000000  1
  Rb  Rb7  1  0.24456497  0.24860028  0.13734566  1
  Cd  Cd8  1  0.40821000  0.88902614  0.80082441  1
  Cd  Cd9  1  0.12505260  0.64803290  0.41045489  1
  Cd  Cd10  1  0.87494740  0.35196710  0.58954511  1
  Cd  Cd11  1  0.64803290  0.12505260  0.91045489  1
  Cd  Cd12  1  0.11097386  0.59179000  0.69917559  1
  Cd  Cd13  1  0.59179000  0.11097386  0.19917559  1
  Cd  Cd14  1  0.88902614  0.40821000  0.30082441  1
  Cd  Cd15  1  0.37933565  0.85889418  0.54323081  1
  Cd  Cd16  1  0.14110582  0.62066435  0.95676919  1
  Cd  Cd17  1  0.62066435  0.14110582  0.45676919  1
  Cd  Cd18  1  0.85889418  0.37933565  0.04323081  1
  Cd  Cd19  1  0.35196710  0.87494740  0.08954511  1
  Te  Te20  1  0.34304858  0.62029560  0.50152219  1
  Te  Te21  1  0.37970440  0.65695142  0.99847781  1
  Te  Te22  1  0.65695142  0.37970440  0.49847781  1
  Te  Te23  1  0.62029560  0.34304858  0.00152219  1
  Te  Te24  1  0.84330497  0.15669503  0.25000000  1
  Te  Te25  1  0.15669503  0.84330497  0.75000000  1
  Te  Te26  1  0.11761776  0.88238224  0.25000000  1
  Te  Te27  1  0.88238224  0.11761776  0.75000000  1
  Te  Te28  1  0.39393180  0.10715563  0.87793488  1
  Te  Te29  1  0.60606820  0.89284437  0.12206512  1
  Te  Te30  1  0.10715563  0.39393180  0.37793488  1
  Te  Te31  1  0.61574380  0.88525413  0.60760884  1
  Te  Te32  1  0.11474587  0.38425620  0.89239116  1
  Te  Te33  1  0.38425620  0.11474587  0.39239116  1
  Te  Te34  1  0.88525413  0.61574380  0.10760884  1
  Te  Te35  1  0.89284437  0.60606820  0.62206512  1
