# generated using pymatgen
data_Na3TiInSi(PO6)2
_symmetry_space_group_name_H-M   'P 1'
_cell_length_a   9.02949799
_cell_length_b   9.02949767
_cell_length_c   22.11744540
_cell_angle_alpha   90.15808137
_cell_angle_beta   89.84191862
_cell_angle_gamma   119.67109403
_symmetry_Int_Tables_number   1
_chemical_formula_structural   Na3TiInSi(PO6)2
_chemical_formula_sum   'Na18 Ti6 In6 Si6 P12 O72'
_cell_volume   1566.82477904
_cell_formula_units_Z   6
loop_
 _symmetry_equiv_pos_site_id
 _symmetry_equiv_pos_as_xyz
  1  'x, y, z'
loop_
 _atom_site_type_symbol
 _atom_site_label
 _atom_site_symmetry_multiplicity
 _atom_site_fract_x
 _atom_site_fract_y
 _atom_site_fract_z
 _atom_site_occupancy
  Na  Na0  1  0.99734222  0.99219800  0.49837312  1
  Na  Na1  1  0.00780200  0.00265778  0.99837312  1
  Na  Na2  1  0.66999477  0.32581460  0.83237241  1
  Na  Na3  1  0.67418540  0.33000523  0.33237241  1
  Na  Na4  1  0.35804753  0.68433181  0.16488662  1
  Na  Na5  1  0.31566819  0.64195247  0.66488662  1
  Na  Na6  1  0.36431309  0.36154341  0.24840495  1
  Na  Na7  1  0.99239433  0.63342980  0.24473589  1
  Na  Na8  1  0.63845659  0.63568691  0.74840495  1
  Na  Na9  1  0.36657020  0.00760567  0.74473589  1
  Na  Na10  1  0.03985724  0.69982797  0.58027665  1
  Na  Na11  1  0.65322870  0.96481494  0.58442916  1
  Na  Na12  1  0.30017203  0.96014276  0.08027665  1
  Na  Na13  1  0.03518506  0.34677130  0.08442916  1
  Na  Na14  1  0.97683388  0.67682343  0.91767883  1
  Na  Na15  1  0.70088121  0.02981007  0.91291099  1
  Na  Na16  1  0.97018993  0.29911879  0.41291099  1
  Na  Na17  1  0.32317657  0.02316612  0.41767883  1
  Ti  Ti18  1  0.00805516  0.01139098  0.64821120  1
  Ti  Ti19  1  0.98860902  0.99194484  0.14821120  1
  Ti  Ti20  1  0.66368268  0.33965334  0.98120303  1
  Ti  Ti21  1  0.66034666  0.33631732  0.48120303  1
  Ti  Ti22  1  0.32298768  0.66017636  0.31488164  1
  Ti  Ti23  1  0.33982364  0.67701232  0.81488164  1
  In  In24  1  0.98829294  0.99170728  0.34919133  1
  In  In25  1  0.00829272  0.01170706  0.84919133  1
  In  In26  1  0.67157285  0.32933796  0.68319108  1
  In  In27  1  0.67066204  0.32842715  0.18319108  1
  In  In28  1  0.33308454  0.66501299  0.01568833  1
  In  In29  1  0.33498701  0.66691546  0.51568833  1
  Si  Si30  1  0.00292663  0.29769650  0.25217303  1
  Si  Si31  1  0.70230350  0.99707337  0.75217303  1
  Si  Si32  1  0.36602574  0.03980235  0.58406869  1
  Si  Si33  1  0.96019765  0.63397426  0.08406869  1
  Si  Si34  1  0.33844220  0.97157313  0.91853005  1
  Si  Si35  1  0.02842687  0.66155780  0.41853005  1
  P  P36  1  0.29099857  0.99436267  0.24991564  1
  P  P37  1  0.69834250  0.70694529  0.24884373  1
  P  P38  1  0.29305471  0.30165750  0.74884373  1
  P  P39  1  0.00563733  0.70900143  0.74991564  1
  P  P40  1  0.95925868  0.32740984  0.58099233  1
  P  P41  1  0.67227089  0.62990814  0.58514018  1
  P  P42  1  0.67259016  0.04074132  0.08099233  1
  P  P43  1  0.37009186  0.32772911  0.08514018  1
  P  P44  1  0.62339463  0.65734483  0.91458008  1
  P  P45  1  0.03771179  0.37732249  0.91831404  1
  P  P46  1  0.62267751  0.96228821  0.41831404  1
  P  P47  1  0.34265517  0.37660537  0.41458008  1
  O  O48  1  0.21802586  0.02395098  0.30872805  1
  O  O49  1  0.81226318  0.77067943  0.30446662  1
  O  O50  1  0.98742258  0.20209838  0.31500035  1
  O  O51  1  0.22932057  0.18773682  0.80446662  1
  O  O52  1  0.97604902  0.78197414  0.80872805  1
  O  O53  1  0.79790162  0.01257742  0.81500035  1
  O  O54  1  0.80986198  0.97615751  0.69387458  1
  O  O55  1  0.17529764  0.19730644  0.69366358  1
  O  O56  1  0.03238729  0.83124302  0.69507764  1
  O  O57  1  0.80269356  0.82470236  0.19366358  1
  O  O58  1  0.02384249  0.19013802  0.19387458  1
  O  O59  1  0.16875698  0.96761271  0.19507764  1
  O  O60  1  0.89003287  0.37232638  0.63718452  1
  O  O61  1  0.47744118  0.11243805  0.64477081  1
  O  O62  1  0.65261430  0.53900597  0.64497457  1
  O  O63  1  0.88756195  0.52255882  0.14477081  1
  O  O64  1  0.62767362  0.10996713  0.13718452  1
  O  O65  1  0.46099403  0.34738570  0.14497457  1
  O  O66  1  0.47852276  0.31115994  0.03179302  1
  O  O67  1  0.83569005  0.52621203  0.02509441  1
  O  O68  1  0.69704302  0.15824483  0.02507993  1
  O  O69  1  0.47378797  0.16430995  0.52509441  1
  O  O70  1  0.68884006  0.52147724  0.53179302  1
  O  O71  1  0.84175517  0.30295698  0.52507993  1
  O  O72  1  0.54547247  0.69187164  0.97036576  1
  O  O73  1  0.12521848  0.44038777  0.97970618  1
  O  O74  1  0.30221349  0.85980051  0.97920004  1
  O  O75  1  0.55961223  0.87478152  0.47970618  1
  O  O76  1  0.30812836  0.45452753  0.47036576  1
  O  O77  1  0.14019949  0.69778651  0.47920004  1
  O  O78  1  0.13862116  0.63529152  0.36008466  1
  O  O79  1  0.49980701  0.85164848  0.36644504  1
  O  O80  1  0.35967956  0.48501448  0.35692325  1
  O  O81  1  0.14835152  0.50019299  0.86644504  1
  O  O82  1  0.36470848  0.86137884  0.86008466  1
  O  O83  1  0.51498552  0.64032044  0.85692325  1
  O  O84  1  0.01628588  0.83297764  0.41151715  1
  O  O85  1  0.80862030  0.00190013  0.41280139  1
  O  O86  1  0.18991497  0.19344706  0.41111110  1
  O  O87  1  0.99809987  0.19137970  0.91280139  1
  O  O88  1  0.16702236  0.98371412  0.91151715  1
  O  O89  1  0.80655294  0.81008503  0.91111110  1
  O  O90  1  0.95663244  0.15347594  0.58803648  1
  O  O91  1  0.17509364  0.02360247  0.58913125  1
  O  O92  1  0.84241473  0.80505896  0.58457469  1
  O  O93  1  0.97639753  0.82490636  0.08913125  1
  O  O94  1  0.84652406  0.04336756  0.08803648  1
  O  O95  1  0.19494104  0.15758527  0.08457469  1
  O  O96  1  0.66098895  0.15228744  0.74952229  1
  O  O97  1  0.47774862  0.33758451  0.74153457  1
  O  O98  1  0.84650610  0.53372734  0.74307320  1
  O  O99  1  0.66241549  0.52225138  0.24153457  1
  O  O100  1  0.84771256  0.33901105  0.24952229  1
  O  O101  1  0.46627266  0.15349390  0.24307320  1
  O  O102  1  0.63560031  0.49138935  0.92033997  1
  O  O103  1  0.86304983  0.37678907  0.91808108  1
  O  O104  1  0.52021537  0.15256255  0.92257556  1
  O  O105  1  0.62321093  0.13695017  0.41808108  1
  O  O106  1  0.50861065  0.36439969  0.42033997  1
  O  O107  1  0.84743745  0.47978463  0.42257556  1
  O  O108  1  0.33752193  0.47782684  0.07823674  1
  O  O109  1  0.15316967  0.66028204  0.08068760  1
  O  O110  1  0.52391900  0.85861725  0.07505631  1
  O  O111  1  0.33971796  0.84683033  0.58068760  1
  O  O112  1  0.52217316  0.66247807  0.57823674  1
  O  O113  1  0.14138275  0.47608100  0.57505631  1
  O  O114  1  0.29991084  0.82640040  0.25441633  1
  O  O115  1  0.52654323  0.70467016  0.25317031  1
  O  O116  1  0.18674520  0.48746164  0.25470798  1
  O  O117  1  0.29532984  0.47345677  0.75317031  1
  O  O118  1  0.17359960  0.70008916  0.75441633  1
  O  O119  1  0.51253836  0.81325480  0.75470798  1
