# generated using pymatgen
data_HoB3H18C2S
_symmetry_space_group_name_H-M   'P 1'
_cell_length_a   5.48586956
_cell_length_b   22.63916000
_cell_length_c   8.12788507
_cell_angle_alpha   90.00000000
_cell_angle_beta   100.00786096
_cell_angle_gamma   90.00000000
_symmetry_Int_Tables_number   1
_chemical_formula_structural   HoB3H18C2S
_chemical_formula_sum   'Ho4 B12 H72 C8 S4'
_cell_volume   994.08675745
_cell_formula_units_Z   4
loop_
 _symmetry_equiv_pos_site_id
 _symmetry_equiv_pos_as_xyz
  1  'x, y, z'
loop_
 _atom_site_type_symbol
 _atom_site_label
 _atom_site_symmetry_multiplicity
 _atom_site_fract_x
 _atom_site_fract_y
 _atom_site_fract_z
 _atom_site_occupancy
  Ho  Ho0  1  0.68114300  0.33347700  0.11774400  1
  Ho  Ho1  1  0.31885700  0.83347700  0.38225600  1
  Ho  Ho2  1  0.31885700  0.66652300  0.88225600  1
  Ho  Ho3  1  0.68114300  0.16652300  0.61774400  1
  B  B4  1  0.16529400  0.16897000  0.56518200  1
  B  B5  1  0.83470600  0.66897000  0.93481800  1
  B  B6  1  0.83470600  0.83103000  0.43481800  1
  B  B7  1  0.16529400  0.33103000  0.06518200  1
  B  B8  1  0.80014500  0.08460200  0.81250700  1
  B  B9  1  0.19985500  0.58460200  0.68749300  1
  B  B10  1  0.19985500  0.91539800  0.18749300  1
  B  B11  1  0.80014500  0.41539800  0.31250700  1
  B  B12  1  0.32238600  0.75479500  0.12311000  1
  B  B13  1  0.67761400  0.25479500  0.37689000  1
  B  B14  1  0.67761400  0.24520500  0.87689000  1
  B  B15  1  0.32238600  0.74520500  0.62311000  1
  H  H16  1  0.28023400  0.19653000  0.47307900  1
  H  H17  1  0.71976600  0.69653000  0.02692100  1
  H  H18  1  0.71976600  0.80347000  0.52692100  1
  H  H19  1  0.28023400  0.30347000  0.97307900  1
  H  H20  1  0.29583300  0.13588500  0.66258100  1
  H  H21  1  0.70416700  0.63588500  0.83741900  1
  H  H22  1  0.70416700  0.86411500  0.33741900  1
  H  H23  1  0.29583300  0.36411500  0.16258100  1
  H  H24  1  0.07265800  0.20579400  0.64698400  1
  H  H25  1  0.92734200  0.70579400  0.85301600  1
  H  H26  1  0.92734200  0.79420600  0.35301600  1
  H  H27  1  0.07265800  0.29420600  0.14698400  1
  H  H28  1  0.00751500  0.13826100  0.47784900  1
  H  H29  1  0.99248500  0.63826100  0.02215100  1
  H  H30  1  0.99248500  0.86173900  0.52215100  1
  H  H31  1  0.00751500  0.36173900  0.97784900  1
  H  H32  1  0.86084700  0.04329700  0.90345600  1
  H  H33  1  0.13915300  0.54329700  0.59654400  1
  H  H34  1  0.13915300  0.95670300  0.09654400  1
  H  H35  1  0.86084700  0.45670300  0.40345600  1
  H  H36  1  0.96042700  0.12353600  0.82357000  1
  H  H37  1  0.03957300  0.62353600  0.67643000  1
  H  H38  1  0.03957300  0.87646400  0.17643000  1
  H  H39  1  0.96042700  0.37646400  0.32357000  1
  H  H40  1  0.75903500  0.06948700  0.66305600  1
  H  H41  1  0.24096500  0.56948700  0.83694400  1
  H  H42  1  0.24096500  0.93051300  0.33694400  1
  H  H43  1  0.75903500  0.43051300  0.16305600  1
  H  H44  1  0.60891600  0.10909900  0.83885400  1
  H  H45  1  0.39108400  0.60909900  0.66114600  1
  H  H46  1  0.39108400  0.89090100  0.16114600  1
  H  H47  1  0.60891600  0.39090100  0.33885400  1
  H  H48  1  0.13000000  0.77273100  0.16352600  1
  H  H49  1  0.87000000  0.27273100  0.33647400  1
  H  H50  1  0.87000000  0.22726900  0.83647400  1
  H  H51  1  0.13000000  0.72726900  0.66352600  1
  H  H52  1  0.33703700  0.70152400  0.15234900  1
  H  H53  1  0.66296300  0.20152400  0.34765100  1
  H  H54  1  0.66296300  0.29847600  0.84765100  1
  H  H55  1  0.33703700  0.79847600  0.65234900  1
  H  H56  1  0.31487900  0.76633900  0.97429400  1
  H  H57  1  0.68512100  0.26633900  0.52570600  1
  H  H58  1  0.68512100  0.23366100  0.02570600  1
  H  H59  1  0.31487900  0.73366100  0.47429400  1
  H  H60  1  0.50961000  0.77804400  0.20204300  1
  H  H61  1  0.49039000  0.27804400  0.29795700  1
  H  H62  1  0.49039000  0.22195600  0.79795700  1
  H  H63  1  0.50961000  0.72195600  0.70204300  1
  H  H64  1  0.80464100  0.01002700  0.41360900  1
  H  H65  1  0.19535900  0.51002700  0.08639100  1
  H  H66  1  0.19535900  0.98997300  0.58639100  1
  H  H67  1  0.80464100  0.48997300  0.91360900  1
  H  H68  1  0.85787800  0.06015700  0.25232700  1
  H  H69  1  0.14212200  0.56015700  0.24767300  1
  H  H70  1  0.14212200  0.93984300  0.74767300  1
  H  H71  1  0.85787800  0.43984300  0.75232700  1
  H  H72  1  0.63186400  0.00215200  0.20753200  1
  H  H73  1  0.36813600  0.50215200  0.29246800  1
  H  H74  1  0.36813600  0.99784800  0.79246800  1
  H  H75  1  0.63186400  0.49784800  0.70753200  1
  H  H76  1  0.21421300  0.14581900  0.18640200  1
  H  H77  1  0.78578700  0.64581900  0.31359800  1
  H  H78  1  0.78578700  0.85418100  0.81359800  1
  H  H79  1  0.21421300  0.35418100  0.68640200  1
  H  H80  1  0.27145400  0.08034400  0.07603200  1
  H  H81  1  0.72854600  0.58034400  0.42396800  1
  H  H82  1  0.72854600  0.91965600  0.92396800  1
  H  H83  1  0.27145400  0.41965600  0.57603200  1
  H  H84  1  0.50095100  0.13789600  0.11215200  1
  H  H85  1  0.49904900  0.63789600  0.38784800  1
  H  H86  1  0.49904900  0.86210400  0.88784800  1
  H  H87  1  0.50095100  0.36210400  0.61215200  1
  C  C88  1  0.71853900  0.03400600  0.30137600  1
  C  C89  1  0.28146100  0.53400600  0.19862400  1
  C  C90  1  0.28146100  0.96599400  0.69862400  1
  C  C91  1  0.71853900  0.46599400  0.80137600  1
  C  C92  1  0.35650100  0.11438600  0.16346800  1
  C  C93  1  0.64349900  0.61438600  0.33653200  1
  C  C94  1  0.64349900  0.88561400  0.83653200  1
  C  C95  1  0.35650100  0.38561400  0.66346800  1
  S  S96  1  0.48025500  0.08025600  0.36118000  1
  S  S97  1  0.51974500  0.58025600  0.13882000  1
  S  S98  1  0.51974500  0.91974400  0.63882000  1
  S  S99  1  0.48025500  0.41974400  0.86118000  1
