# generated using pymatgen
data_BaP10
_symmetry_space_group_name_H-M   'P 1'
_cell_length_a   6.47984656
_cell_length_b   7.22169254
_cell_length_c   12.12473597
_cell_angle_alpha   90.00000000
_cell_angle_beta   90.00000000
_cell_angle_gamma   116.65631152
_symmetry_Int_Tables_number   1
_chemical_formula_structural   BaP10
_chemical_formula_sum   'Ba2 P20'
_cell_volume   507.07761662
_cell_formula_units_Z   2
loop_
 _symmetry_equiv_pos_site_id
 _symmetry_equiv_pos_as_xyz
  1  'x, y, z'
loop_
 _atom_site_type_symbol
 _atom_site_label
 _atom_site_symmetry_multiplicity
 _atom_site_fract_x
 _atom_site_fract_y
 _atom_site_fract_z
 _atom_site_occupancy
  Ba  Ba0  1  0.18739920  0.37479840  0.00576844  1
  Ba  Ba1  1  0.81260080  0.62520160  0.50576844  1
  P  P2  1  0.39028997  0.78057995  0.60558741  1
  P  P3  1  0.60971003  0.21942005  0.10558741  1
  P  P4  1  0.06738476  0.13477152  0.55840235  1
  P  P5  1  0.93261524  0.86522848  0.05840235  1
  P  P6  1  0.40851440  0.81702880  0.78205710  1
  P  P7  1  0.59148560  0.18297120  0.28205710  1
  P  P8  1  0.81335084  0.62670267  0.92929373  1
  P  P9  1  0.18664916  0.37329733  0.42929373  1
  P  P10  1  0.90889026  0.81778252  0.78104051  1
  P  P11  1  0.09110974  0.18221748  0.28104051  1
  P  P12  1  0.55207917  0.10416134  0.56616569  1
  P  P13  1  0.44792083  0.89583866  0.06616569  1
  P  P14  1  0.86909747  0.24740607  0.66537823  1
  P  P15  1  0.13090253  0.75259393  0.16537823  1
  P  P16  1  0.37830760  0.24740607  0.66537823  1
  P  P17  1  0.62169240  0.75259393  0.16537823  1
  P  P18  1  0.77193028  0.04336430  0.81516416  1
  P  P19  1  0.22806972  0.95663570  0.31516416  1
  P  P20  1  0.27143302  0.04336430  0.81516416  1
  P  P21  1  0.72856698  0.95663570  0.31516416  1
