# generated using pymatgen
data_NaTi4P5SO24
_symmetry_space_group_name_H-M   'P 1'
_cell_length_a   8.58974210
_cell_length_b   8.59628770
_cell_length_c   22.29353911
_cell_angle_alpha   90.03614858
_cell_angle_beta   89.90261234
_cell_angle_gamma   120.03403940
_symmetry_Int_Tables_number   1
_chemical_formula_structural   NaTi4P5SO24
_chemical_formula_sum   'Na3 Ti12 P15 S3 O72'
_cell_volume   1425.11860219
_cell_formula_units_Z   3
loop_
 _symmetry_equiv_pos_site_id
 _symmetry_equiv_pos_as_xyz
  1  'x, y, z'
loop_
 _atom_site_type_symbol
 _atom_site_label
 _atom_site_symmetry_multiplicity
 _atom_site_fract_x
 _atom_site_fract_y
 _atom_site_fract_z
 _atom_site_occupancy
  Na  Na0  1  0.66843468  0.33549304  0.83441056  1
  Na  Na1  1  0.66721244  0.33392498  0.33162337  1
  Na  Na2  1  0.33340921  0.66732552  0.16724795  1
  Ti  Ti3  1  0.00078761  0.00004529  0.35542814  1
  Ti  Ti4  1  0.99225595  0.99951603  0.85626392  1
  Ti  Ti5  1  0.00634424  0.99890183  0.64735698  1
  Ti  Ti6  1  0.99910639  -0.00001102  0.14375574  1
  Ti  Ti7  1  0.66134068  0.32475787  0.68929109  1
  Ti  Ti8  1  0.66638672  0.33229682  0.18762935  1
  Ti  Ti9  1  0.67303279  0.33934058  0.98259311  1
  Ti  Ti10  1  0.65722923  0.32710713  0.47633537  1
  Ti  Ti11  1  0.33615854  0.65940168  0.02184075  1
  Ti  Ti12  1  0.33296702  0.67276887  0.51853208  1
  Ti  Ti13  1  0.33269856  0.66571370  0.31150865  1
  Ti  Ti14  1  0.33051245  0.65786116  0.80902796  1
  P  P15  1  0.28578178  -0.00017181  0.24979642  1
  P  P16  1  0.71431407  0.71378839  0.24999968  1
  P  P17  1  0.99954034  0.28548445  0.24998958  1
  P  P18  1  0.28488895  0.28403220  0.75055750  1
  P  P19  1  -0.00032241  0.71238864  0.75077798  1
  P  P20  1  0.71284183  0.99746849  0.74953801  1
  P  P21  1  0.37810850  0.04415878  0.58322674  1
  P  P22  1  0.95688705  0.62327301  0.08414320  1
  P  P23  1  0.66642833  0.04520743  0.08330142  1
  P  P24  1  0.37906593  0.33061079  0.08361974  1
  P  P25  1  0.61934510  0.66459759  0.91611717  1
  P  P26  1  0.04579993  0.37965493  0.91633542  1
  P  P27  1  0.62161992  0.95248173  0.41617712  1
  P  P28  1  0.33031577  0.38023464  0.41696993  1
  P  P29  1  0.04455607  0.66654498  0.41643449  1
  S  S30  1  0.95472006  0.33277932  0.58319241  1
  S  S31  1  0.66621375  0.62130138  0.58337066  1
  S  S32  1  0.33286312  0.95406049  0.91629067  1
  O  O33  1  0.20183049  0.03149082  0.30631490  1
  O  O34  1  0.82973533  0.79832169  0.30637011  1
  O  O35  1  0.96834997  0.17022474  0.30641014  1
  O  O36  1  0.20286689  0.16726308  0.80609044  1
  O  O37  1  0.96606745  0.79883585  0.80585907  1
  O  O38  1  0.83199323  0.03526519  0.80563090  1
  O  O39  1  0.80031786  0.97003242  0.69361734  1
  O  O40  1  0.17009770  0.20108917  0.69385365  1
  O  O41  1  0.03022183  0.82991951  0.69408759  1
  O  O42  1  0.79788336  0.82990654  0.19379996  1
  O  O43  1  0.03225063  0.20229763  0.19376548  1
  O  O44  1  0.17003005  0.96783785  0.19370813  1
  O  O45  1  0.87240363  0.36480875  0.63728918  1
  O  O46  1  0.49935299  0.13608850  0.63865261  1
  O  O47  1  0.63684942  0.50801842  0.63719279  1
  O  O48  1  0.86899247  0.50111854  0.13902454  1
  O  O49  1  0.63264707  0.13179489  0.13900534  1
  O  O50  1  0.49920663  0.36789197  0.13919020  1
  O  O51  1  0.46659832  0.30349627  0.02710581  1
  O  O52  1  0.83786276  0.53515328  0.02767121  1
  O  O53  1  0.69640284  0.16363723  0.02724366  1
  O  O54  1  0.46906333  0.16641078  0.52818589  1
  O  O55  1  0.69909434  0.53983341  0.52955931  1
  O  O56  1  0.84129362  0.30292641  0.52968529  1
  O  O57  1  0.53415364  0.69798246  0.97231391  1
  O  O58  1  0.16371287  0.46787178  0.97220829  1
  O  O59  1  0.30286848  0.84406244  0.97067117  1
  O  O60  1  0.53376474  0.83725906  0.47276504  1
  O  O61  1  0.30458873  0.46820974  0.47327947  1
  O  O62  1  0.16290274  0.69610608  0.47270478  1
  O  O63  1  0.13055162  0.63128049  0.36120459  1
  O  O64  1  0.50063995  0.86995694  0.36104606  1
  O  O65  1  0.36875855  0.49954502  0.36105295  1
  O  O66  1  0.13307038  0.49891791  0.86060015  1
  O  O67  1  0.36552047  0.87418812  0.86231072  1
  O  O68  1  0.50112653  0.63597496  0.86064930  1
  O  O69  1  0.02568658  0.83259179  0.40779273  1
  O  O70  1  0.80786429  0.97485362  0.40787975  1
  O  O71  1  0.16800875  0.19299029  0.40782614  1
  O  O72  1  0.02802555  0.19411267  0.90660999  1
  O  O73  1  0.17246856  0.97305698  0.90840228  1
  O  O74  1  0.80642554  0.83192473  0.90671861  1
  O  O75  1  0.97186683  0.17170811  0.59174932  1
  O  O76  1  0.19288210  0.02660889  0.59337414  1
  O  O77  1  0.82708284  0.80083856  0.59167147  1
  O  O78  1  0.97366736  0.80710713  0.09253754  1
  O  O79  1  0.83235211  0.02615352  0.09254823  1
  O  O80  1  0.19282794  0.16713758  0.09245847  1
  O  O81  1  0.69391156  0.16784319  0.74147219  1
  O  O82  1  0.47570992  0.30942755  0.74121716  1
  O  O83  1  0.83276315  0.52485730  0.74033784  1
  O  O84  1  0.69194995  0.52445334  0.24259627  1
  O  O85  1  0.83251950  0.30811034  0.24270205  1
  O  O86  1  0.47542425  0.16750810  0.24260042  1
  O  O87  1  0.64024191  0.49751415  0.92384226  1
  O  O88  1  0.85642992  0.35690123  0.92386906  1
  O  O89  1  0.49492857  0.13574713  0.92293861  1
  O  O90  1  0.64151532  0.14140109  0.42569043  1
  O  O91  1  0.50097325  0.36103520  0.42548757  1
  O  O92  1  0.85786020  0.49831360  0.42668061  1
  O  O93  1  0.35975942  0.50029759  0.07564657  1
  O  O94  1  0.14307263  0.64204599  0.07449070  1
  O  O95  1  0.49750857  0.85843891  0.07461198  1
  O  O96  1  0.35937905  0.85898168  0.57375837  1
  O  O97  1  0.50527897  0.63875116  0.57542882  1
  O  O98  1  0.13416399  0.49345560  0.57541997  1
  O  O99  1  0.30785003  0.83260208  0.25777133  1
  O  O100  1  0.52491286  0.69236256  0.25787149  1
  O  O101  1  0.16738241  0.47505648  0.25776940  1
  O  O102  1  0.30773732  0.47232004  0.75857768  1
  O  O103  1  0.16676545  0.69394558  0.75997754  1
  O  O104  1  0.52555490  0.83552237  0.76020288  1
