# generated using pymatgen
data_YMgCu(WO4)2
_symmetry_space_group_name_H-M   'P 1'
_cell_length_a   5.36745171
_cell_length_b   6.17491175
_cell_length_c   6.12716703
_cell_angle_alpha   107.13622331
_cell_angle_beta   115.58374018
_cell_angle_gamma   91.67547587
_symmetry_Int_Tables_number   1
_chemical_formula_structural   YMgCu(WO4)2
_chemical_formula_sum   'Y1 Mg1 Cu1 W2 O8'
_cell_volume   172.12562077
_cell_formula_units_Z   1
loop_
 _symmetry_equiv_pos_site_id
 _symmetry_equiv_pos_as_xyz
  1  'x, y, z'
loop_
 _atom_site_type_symbol
 _atom_site_label
 _atom_site_symmetry_multiplicity
 _atom_site_fract_x
 _atom_site_fract_y
 _atom_site_fract_z
 _atom_site_occupancy
  Y  Y0  1  0.59708700  0.70922100  0.04905000  1
  Mg  Mg1  1  0.89315500  0.85650300  0.66392600  1
  Cu  Cu2  1  0.15439300  0.26423400  0.12781400  1
  W  W3  1  0.86130500  0.36312500  0.58202200  1
  W  W4  1  0.36007400  0.06842800  0.59191300  1
  O  O5  1  0.12713700  0.65165900  0.84253600  1
  O  O6  1  0.66419100  0.52307200  0.36482900  1
  O  O7  1  0.15039200  0.18112000  0.80666300  1
  O  O8  1  0.61497600  0.02391800  0.40993800  1
  O  O9  1  0.62517500  0.91579100  0.81884500  1
  O  O10  1  0.06825200  0.82063200  0.37553600  1
  O  O11  1  0.65443800  0.37814200  0.79584700  1
  O  O12  1  0.11292400  0.27682100  0.41301300  1
