# generated using pymatgen
data_GeBi2O5
_symmetry_space_group_name_H-M   'P 1'
_cell_length_a   8.31609713
_cell_length_b   8.31609713
_cell_length_c   5.37537955
_cell_angle_alpha   90.00000000
_cell_angle_beta   90.00000000
_cell_angle_gamma   141.30113365
_symmetry_Int_Tables_number   1
_chemical_formula_structural   GeBi2O5
_chemical_formula_sum   'Ge2 Bi4 O10'
_cell_volume   232.42675279
_cell_formula_units_Z   2
loop_
 _symmetry_equiv_pos_site_id
 _symmetry_equiv_pos_as_xyz
  1  'x, y, z'
loop_
 _atom_site_type_symbol
 _atom_site_label
 _atom_site_symmetry_multiplicity
 _atom_site_fract_x
 _atom_site_fract_y
 _atom_site_fract_z
 _atom_site_occupancy
  Ge  Ge0  1  0.68695126  0.68695126  0.29872723  1
  Ge  Ge1  1  0.31304874  0.31304874  0.79872723  1
  Bi  Bi2  1  0.94680371  0.60986478  0.76572302  1
  Bi  Bi3  1  0.05319629  0.39013522  0.26572302  1
  Bi  Bi4  1  0.39013522  0.05319629  0.26572302  1
  Bi  Bi5  1  0.60986478  0.94680371  0.76572302  1
  O  O6  1  0.76045568  0.25991029  0.53646199  1
  O  O7  1  0.23954432  0.74008971  0.03646199  1
  O  O8  1  0.74008971  0.23954432  0.03646199  1
  O  O9  1  0.25991029  0.76045568  0.53646199  1
  O  O10  1  0.92704457  0.73394811  0.35237989  1
  O  O11  1  0.07295543  0.26605189  0.85237989  1
  O  O12  1  0.41243561  0.41243561  0.48071496  1
  O  O13  1  0.58756439  0.58756439  0.98071496  1
  O  O14  1  0.73394811  0.92704457  0.35237989  1
  O  O15  1  0.26605189  0.07295543  0.85237989  1
