# generated using pymatgen
data_K2Mg(CoO2)2
_symmetry_space_group_name_H-M   'P 1'
_cell_length_a   6.20991021
_cell_length_b   5.84747712
_cell_length_c   5.85878133
_cell_angle_alpha   95.87973457
_cell_angle_beta   124.66674187
_cell_angle_gamma   108.44015219
_symmetry_Int_Tables_number   1
_chemical_formula_structural   K2Mg(CoO2)2
_chemical_formula_sum   'K2 Mg1 Co2 O4'
_cell_volume   154.74292716
_cell_formula_units_Z   1
loop_
 _symmetry_equiv_pos_site_id
 _symmetry_equiv_pos_as_xyz
  1  'x, y, z'
loop_
 _atom_site_type_symbol
 _atom_site_label
 _atom_site_symmetry_multiplicity
 _atom_site_fract_x
 _atom_site_fract_y
 _atom_site_fract_z
 _atom_site_occupancy
  K  K0  1  0.58724739  0.35283623  0.79810383  1
  K  K1  1  0.15124306  0.69378370  0.61068364  1
  Mg  Mg2  1  0.80086857  0.04633470  0.47451665  1
  Co  Co3  1  0.34750715  0.58783986  0.21186316  1
  Co  Co4  1  0.04648279  0.99746467  0.04063965  1
  O  O5  1  0.02581890  0.05410893  0.34723844  1
  O  O6  1  0.04718547  0.30640913  0.87512274  1
  O  O7  1  0.37654028  0.92454662  0.16027764  1
  O  O8  1  0.70043939  0.73905917  0.60060425  1
