# generated using pymatgen
data_Ba(Ag3O2)2
_symmetry_space_group_name_H-M   'P 1'
_cell_length_a   6.64008391
_cell_length_b   9.11018522
_cell_length_c   12.86301610
_cell_angle_alpha   90.00000000
_cell_angle_beta   90.00000000
_cell_angle_gamma   90.00000000
_symmetry_Int_Tables_number   1
_chemical_formula_structural   Ba(Ag3O2)2
_chemical_formula_sum   'Ba4 Ag24 O16'
_cell_volume   778.11464176
_cell_formula_units_Z   4
loop_
 _symmetry_equiv_pos_site_id
 _symmetry_equiv_pos_as_xyz
  1  'x, y, z'
loop_
 _atom_site_type_symbol
 _atom_site_label
 _atom_site_symmetry_multiplicity
 _atom_site_fract_x
 _atom_site_fract_y
 _atom_site_fract_z
 _atom_site_occupancy
  Ba  Ba0  1  0.25000000  0.87754033  0.50000000  1
  Ba  Ba1  1  0.25000000  0.62245967  -0.00000000  1
  Ba  Ba2  1  0.75000000  0.12245967  0.50000000  1
  Ba  Ba3  1  0.75000000  0.37754033  -0.00000000  1
  Ag  Ag4  1  0.29284088  0.23789227  0.37420835  1
  Ag  Ag5  1  0.07597610  0.53449920  0.26314793  1
  Ag  Ag6  1  0.42402390  0.96550080  0.76314793  1
  Ag  Ag7  1  0.07597610  0.96550080  0.23685207  1
  Ag  Ag8  1  0.92402390  0.03449920  0.76314793  1
  Ag  Ag9  1  0.92402390  0.46550080  0.73685207  1
  Ag  Ag10  1  0.57597610  0.03449920  0.23685207  1
  Ag  Ag11  1  0.57597610  0.46550080  0.26314793  1
  Ag  Ag12  1  0.39853888  0.75000000  0.25000000  1
  Ag  Ag13  1  0.10146112  0.75000000  0.75000000  1
  Ag  Ag14  1  0.60146112  0.25000000  0.75000000  1
  Ag  Ag15  1  0.89853888  0.25000000  0.25000000  1
  Ag  Ag16  1  0.20715912  0.23789227  0.62579165  1
  Ag  Ag17  1  0.20715912  0.26210773  0.87420835  1
  Ag  Ag18  1  0.70715912  0.76210773  0.62579165  1
  Ag  Ag19  1  0.70715912  0.73789227  0.87420835  1
  Ag  Ag20  1  0.79284088  0.76210773  0.37420835  1
  Ag  Ag21  1  0.79284088  0.73789227  0.12579165  1
  Ag  Ag22  1  0.50000000  0.50000000  0.50000000  1
  Ag  Ag23  1  0.50000000  -0.00000000  -0.00000000  1
  Ag  Ag24  1  -0.00000000  0.50000000  0.50000000  1
  Ag  Ag25  1  -0.00000000  -0.00000000  -0.00000000  1
  Ag  Ag26  1  0.42402390  0.53449920  0.73685207  1
  Ag  Ag27  1  0.29284088  0.26210773  0.12579165  1
  O  O28  1  0.57726754  0.33588811  0.39434905  1
  O  O29  1  0.57726754  0.16411189  0.10565095  1
  O  O30  1  0.92273246  0.33588811  0.60565095  1
  O  O31  1  0.92273246  0.16411189  0.89434905  1
  O  O32  1  0.07726754  0.66411189  0.39434905  1
  O  O33  1  0.07726754  0.83588811  0.10565095  1
  O  O34  1  0.05177733  0.09137775  0.37046152  1
  O  O35  1  0.05177733  0.40862225  0.12953848  1
  O  O36  1  0.44822267  0.09137775  0.62953848  1
  O  O37  1  0.44822267  0.40862225  0.87046152  1
  O  O38  1  0.94822267  0.90862225  0.62953848  1
  O  O39  1  0.94822267  0.59137775  0.87046152  1
  O  O40  1  0.55177733  0.90862225  0.37046152  1
  O  O41  1  0.55177733  0.59137775  0.12953848  1
  O  O42  1  0.42273246  0.66411189  0.60565095  1
  O  O43  1  0.42273246  0.83588811  0.89434905  1
