# generated using pymatgen
data_MgZn2AgWO6
_symmetry_space_group_name_H-M   'P 1'
_cell_length_a   5.87325025
_cell_length_b   6.74039303
_cell_length_c   7.74368006
_cell_angle_alpha   88.59041675
_cell_angle_beta   130.18242226
_cell_angle_gamma   128.42679377
_symmetry_Int_Tables_number   1
_chemical_formula_structural   MgZn2AgWO6
_chemical_formula_sum   'Mg1 Zn2 Ag1 W1 O6'
_cell_volume   142.64989665
_cell_formula_units_Z   1
loop_
 _symmetry_equiv_pos_site_id
 _symmetry_equiv_pos_as_xyz
  1  'x, y, z'
loop_
 _atom_site_type_symbol
 _atom_site_label
 _atom_site_symmetry_multiplicity
 _atom_site_fract_x
 _atom_site_fract_y
 _atom_site_fract_z
 _atom_site_occupancy
  Mg  Mg0  1  0.89177100  0.67169200  0.70555800  1
  Zn  Zn1  1  0.97656200  0.48283400  0.17023000  1
  Zn  Zn2  1  0.93358700  0.27448800  0.72514900  1
  Ag  Ag3  1  0.88223100  0.04075000  0.40157300  1
  W  W4  1  0.97685500  0.98500000  0.01851900  1
  O  O5  1  0.39621800  0.18675300  0.42765000  1
  O  O6  1  0.64659100  0.83954800  0.60356700  1
  O  O7  1  0.17901600  0.38002600  0.08834300  1
  O  O8  1  0.37067900  0.72913200  0.83863100  1
  O  O9  1  0.49099000  0.14299700  0.11366200  1
  O  O10  1  0.72810600  0.56302100  0.89704100  1
