# generated using pymatgen
data_Rb4Mg(FeO2)4
_symmetry_space_group_name_H-M   'P 1'
_cell_length_a   5.84772993
_cell_length_b   5.84535171
_cell_length_c   8.82432189
_cell_angle_alpha   88.41110242
_cell_angle_beta   88.90657912
_cell_angle_gamma   103.15241677
_symmetry_Int_Tables_number   1
_chemical_formula_structural   Rb4Mg(FeO2)4
_chemical_formula_sum   'Rb4 Mg1 Fe4 O8'
_cell_volume   293.50807812
_cell_formula_units_Z   1
loop_
 _symmetry_equiv_pos_site_id
 _symmetry_equiv_pos_as_xyz
  1  'x, y, z'
loop_
 _atom_site_type_symbol
 _atom_site_label
 _atom_site_symmetry_multiplicity
 _atom_site_fract_x
 _atom_site_fract_y
 _atom_site_fract_z
 _atom_site_occupancy
  Rb  Rb0  1  0.01478124  0.04351928  0.62678654  1
  Rb  Rb1  1  0.41449215  0.55912005  0.11434252  1
  Rb  Rb2  1  0.49151106  0.98592325  0.82890882  1
  Rb  Rb3  1  0.95045039  0.56080779  0.42416240  1
  Mg  Mg4  1  0.77672975  0.25393760  0.12577680  1
  Fe  Fe5  1  0.07915408  0.95768643  0.12473209  1
  Fe  Fe6  1  0.45543835  0.50007964  0.62154421  1
  Fe  Fe7  1  0.55244360  0.00421785  0.37466396  1
  Fe  Fe8  1  0.94249138  0.49190736  0.87001400  1
  O  O9  1  0.94372196  0.61083825  0.08431427  1
  O  O10  1  0.16437874  0.59460502  0.71606308  1
  O  O11  1  0.43090055  0.07955163  0.16944542  1
  O  O12  1  0.51568658  0.19473244  0.53575581  1
  O  O13  1  0.47113655  0.68564859  0.42448882  1
  O  O14  1  0.64099546  0.50756637  0.81218162  1
  O  O15  1  0.88305455  0.08919761  0.29781796  1
  O  O16  1  0.94971663  0.17114385  0.95056366  1
