# generated using pymatgen
data_MgMn2FeWO6
_symmetry_space_group_name_H-M   'P 1'
_cell_length_a   5.39164961
_cell_length_b   5.56076462
_cell_length_c   6.15594575
_cell_angle_alpha   61.54768198
_cell_angle_beta   58.30865699
_cell_angle_gamma   68.32962912
_symmetry_Int_Tables_number   1
_chemical_formula_structural   MgMn2FeWO6
_chemical_formula_sum   'Mg1 Mn2 Fe1 W1 O6'
_cell_volume   136.31894600
_cell_formula_units_Z   1
loop_
 _symmetry_equiv_pos_site_id
 _symmetry_equiv_pos_as_xyz
  1  'x, y, z'
loop_
 _atom_site_type_symbol
 _atom_site_label
 _atom_site_symmetry_multiplicity
 _atom_site_fract_x
 _atom_site_fract_y
 _atom_site_fract_z
 _atom_site_occupancy
  Mg  Mg0  1  0.39311226  0.85282153  0.46188964  1
  Mn  Mn1  1  0.83257929  0.69991664  0.68536349  1
  Mn  Mn2  1  0.22964694  0.40829312  0.10459202  1
  Fe  Fe3  1  0.62045462  0.26806005  0.52856987  1
  W  W4  1  0.98263758  0.02678646  0.01946368  1
  O  O5  1  0.11433347  -0.00367544  0.29271921  1
  O  O6  1  0.81252009  0.63975155  0.32953420  1
  O  O7  1  0.56923567  0.22143855  0.24433598  1
  O  O8  1  0.17711759  0.41036566  0.76544545  1
  O  O9  1  0.37379394  0.80463934  0.81570030  1
  O  O10  1  0.80841955  0.04795353  0.78940916  1
