# generated using pymatgen
data_NaY2Sn2P3(SO8)3
_symmetry_space_group_name_H-M   'P 1'
_cell_length_a   8.97145168
_cell_length_b   8.97148577
_cell_length_c   23.55130731
_cell_angle_alpha   90.25540766
_cell_angle_beta   90.13905692
_cell_angle_gamma   120.06380209
_symmetry_Int_Tables_number   1
_chemical_formula_structural   NaY2Sn2P3(SO8)3
_chemical_formula_sum   'Na3 Y6 Sn6 P9 S9 O72'
_cell_volume   1640.52390308
_cell_formula_units_Z   3
loop_
 _symmetry_equiv_pos_site_id
 _symmetry_equiv_pos_as_xyz
  1  'x, y, z'
loop_
 _atom_site_type_symbol
 _atom_site_label
 _atom_site_symmetry_multiplicity
 _atom_site_fract_x
 _atom_site_fract_y
 _atom_site_fract_z
 _atom_site_occupancy
  Na  Na0  1  0.68196962  0.33592836  0.83444078  1
  Na  Na1  1  0.66193612  0.34229041  0.33054578  1
  Na  Na2  1  0.34646366  0.67572059  0.16672525  1
  Y  Y3  1  0.67428534  0.33467340  0.68700534  1
  Y  Y4  1  0.65358212  0.32856074  0.18485354  1
  Y  Y5  1  0.66588131  0.32467297  0.98610950  1
  Y  Y6  1  0.66546595  0.33797074  0.48069758  1
  Y  Y7  1  0.33586325  0.66817689  0.31048708  1
  Y  Y8  1  0.32827112  0.66809120  0.80791779  1
  Sn  Sn9  1  0.00939436  0.99470412  0.35394613  1
  Sn  Sn10  1  0.99440271  0.00255355  0.85470082  1
  Sn  Sn11  1  0.99489034  0.99410905  0.64938022  1
  Sn  Sn12  1  0.99893440  0.99976150  0.14651705  1
  Sn  Sn13  1  0.33349579  0.65744814  0.01756137  1
  Sn  Sn14  1  0.32576896  0.66045289  0.51261373  1
  P  P15  1  0.28297482  0.00045969  0.24905437  1
  P  P16  1  0.72175766  0.71938826  0.24988062  1
  P  P17  1  0.99571305  0.72085052  0.75129951  1
  P  P18  1  0.71924253  0.00227380  0.75043997  1
  P  P19  1  0.66527884  0.02643615  0.08388780  1
  P  P20  1  0.36050698  0.33136197  0.08338374  1
  P  P21  1  0.04364052  0.37210180  0.91508416  1
  P  P22  1  0.32387367  0.36847940  0.41521034  1
  P  P23  1  0.04372478  0.67192251  0.41585196  1
  S  S24  1  0.99688785  0.28080472  0.25062704  1
  S  S25  1  0.28396697  0.27973612  0.75003771  1
  S  S26  1  0.97259674  0.33255594  0.58340053  1
  S  S27  1  0.36156563  0.02703844  0.58336377  1
  S  S28  1  0.66283379  0.63742832  0.58324157  1
  S  S29  1  0.97081176  0.63620783  0.08380026  1
  S  S30  1  0.62931899  0.67082140  0.91553799  1
  S  S31  1  0.32560819  0.95618372  0.91597589  1
  S  S32  1  0.63225673  0.95695173  0.41687011  1
  O  O33  1  0.20455004  0.03032601  0.30403494  1
  O  O34  1  0.82598431  0.80562980  0.30557771  1
  O  O35  1  0.97539130  0.17857992  0.30290189  1
  O  O36  1  0.20561501  0.17314148  0.80142276  1
  O  O37  1  0.97048986  0.80673400  0.80525024  1
  O  O38  1  0.83443292  0.03714325  0.80390578  1
  O  O39  1  0.80100580  0.97857899  0.69498928  1
  O  O40  1  0.18017795  0.20212907  0.69690861  1
  O  O41  1  0.02526418  0.82736436  0.69581456  1
  O  O42  1  0.80504314  0.82843022  0.19603391  1
  O  O43  1  0.02086145  0.20206460  0.19835697  1
  O  O44  1  0.17381480  0.97780600  0.19522740  1
  O  O45  1  0.89556625  0.36451472  0.63391461  1
  O  O46  1  0.46989043  0.10550799  0.63411271  1
  O  O47  1  0.63282446  0.53035909  0.63372088  1
  O  O48  1  0.89595293  0.52791525  0.13403953  1
  O  O49  1  0.63011342  0.10461721  0.13630093  1
  O  O50  1  0.47579008  0.37158964  0.13577697  1
  O  O51  1  0.44093699  0.30385015  0.03012861  1
  O  O52  1  0.86606978  0.55963653  0.03235017  1
  O  O53  1  0.69716454  0.13555297  0.03077691  1
  O  O54  1  0.43799719  0.13581339  0.53334264  1
  O  O55  1  0.69596177  0.56038559  0.53324661  1
  O  O56  1  0.86257794  0.29854579  0.53331116  1
  O  O57  1  0.55273074  0.70178100  0.96793144  1
  O  O58  1  0.15550872  0.45549200  0.97027952  1
  O  O59  1  0.30032187  0.85122828  0.96822045  1
  O  O60  1  0.55294041  0.84995557  0.46982857  1
  O  O61  1  0.29678443  0.44933142  0.47181878  1
  O  O62  1  0.15542478  0.70565354  0.47211201  1
  O  O63  1  0.12728232  0.64291508  0.36466744  1
  O  O64  1  0.52260761  0.87990741  0.36703232  1
  O  O65  1  0.35837267  0.48404871  0.36465270  1
  O  O66  1  0.12954033  0.48193125  0.86335068  1
  O  O67  1  0.35460077  0.87764664  0.86569116  1
  O  O68  1  0.52359217  0.64598283  0.86515934  1
  O  O69  1  0.02567405  0.83418108  0.41083256  1
  O  O70  1  0.80334892  0.97345991  0.41009379  1
  O  O71  1  0.15729259  0.19112331  0.40829201  1
  O  O72  1  0.03144486  0.19182736  0.90888964  1
  O  O73  1  0.16711515  0.97015559  0.90884497  1
  O  O74  1  0.80318259  0.82926968  0.91031769  1
  O  O75  1  0.99264955  0.17769008  0.59278415  1
  O  O76  1  0.18692751  0.00963087  0.59213137  1
  O  O77  1  0.82031677  0.81211957  0.59104593  1
  O  O78  1  0.98962526  0.80865892  0.09109602  1
  O  O79  1  0.82452748  0.00506220  0.09275123  1
  O  O80  1  0.18126743  0.17119322  0.09317541  1
  O  O81  1  0.70225515  0.16465672  0.74559443  1
  O  O82  1  0.45505813  0.29544832  0.74455800  1
  O  O83  1  0.83107918  0.54319595  0.74635093  1
  O  O84  1  0.70912533  0.54255420  0.24692769  1
  O  O85  1  0.84302206  0.29886648  0.24631562  1
  O  O86  1  0.46271334  0.16206791  0.24711146  1
  O  O87  1  0.65003860  0.51922189  0.92237985  1
  O  O88  1  0.86325635  0.34881439  0.92187611  1
  O  O89  1  0.47653727  0.13065634  0.92186949  1
  O  O90  1  0.65054458  0.12851949  0.42520195  1
  O  O91  1  0.47983587  0.34334773  0.42412719  1
  O  O92  1  0.86515864  0.51211165  0.42437428  1
  O  O93  1  0.34108222  0.49645182  0.07647951  1
  O  O94  1  0.14735998  0.65613177  0.07591188  1
  O  O95  1  0.49735418  0.84365693  0.07392473  1
  O  O96  1  0.34444382  0.85299811  0.57417222  1
  O  O97  1  0.50836090  0.65750812  0.57347000  1
  O  O98  1  0.14634795  0.48935177  0.57525674  1
  O  O99  1  0.29609696  0.83679083  0.25183964  1
  O  O100  1  0.54288035  0.70261731  0.25238261  1
  O  O101  1  0.15334259  0.45227774  0.25373656  1
  O  O102  1  0.29967926  0.44866077  0.75488798  1
  O  O103  1  0.15480286  0.70435199  0.75559864  1
  O  O104  1  0.54657137  0.84049633  0.75609120  1
