# generated using pymatgen
data_CeP2O7
_symmetry_space_group_name_H-M   'P 1'
_cell_length_a   8.82968337
_cell_length_b   8.82968337
_cell_length_c   8.82968337
_cell_angle_alpha   90.00000000
_cell_angle_beta   90.00000000
_cell_angle_gamma   90.00000000
_symmetry_Int_Tables_number   1
_chemical_formula_structural   CeP2O7
_chemical_formula_sum   'Ce4 P8 O28'
_cell_volume   688.39132778
_cell_formula_units_Z   4
loop_
 _symmetry_equiv_pos_site_id
 _symmetry_equiv_pos_as_xyz
  1  'x, y, z'
loop_
 _atom_site_type_symbol
 _atom_site_label
 _atom_site_symmetry_multiplicity
 _atom_site_fract_x
 _atom_site_fract_y
 _atom_site_fract_z
 _atom_site_occupancy
  Ce  Ce0  1  0.50000000  -0.00000000  0.50000000  1
  Ce  Ce1  1  0.00000000  -0.00000000  -0.00000000  1
  Ce  Ce2  1  0.50000000  0.50000000  -0.00000000  1
  Ce  Ce3  1  0.00000000  0.50000000  0.50000000  1
  P  P4  1  0.60259097  0.89740903  0.10259097  1
  P  P5  1  0.10259097  0.60259097  0.89740903  1
  P  P6  1  0.39740903  0.10259097  0.89740903  1
  P  P7  1  0.89740903  0.39740903  0.10259097  1
  P  P8  1  0.89740903  0.10259097  0.60259097  1
  P  P9  1  0.39740903  0.39740903  0.39740903  1
  P  P10  1  0.60259097  0.60259097  0.60259097  1
  P  P11  1  0.10259097  0.89740903  0.39740903  1
  O  O12  1  0.55607535  0.73528873  0.07257832  1
  O  O13  1  0.07257832  0.55607535  0.73528873  1
  O  O14  1  0.50000000  0.50000000  0.50000000  1
  O  O15  1  0.26471127  0.57257832  0.94392465  1
  O  O16  1  0.76471127  0.92742168  0.05607535  1
  O  O17  1  0.42742168  0.44392465  0.23528873  1
  O  O18  1  0.42742168  0.05607535  0.73528873  1
  O  O19  1  0.50000000  -0.00000000  -0.00000000  1
  O  O20  1  0.57257832  0.94392465  0.26471127  1
  O  O21  1  0.07257832  0.94392465  0.23528873  1
  O  O22  1  0.44392465  0.26471127  0.92742168  1
  O  O23  1  0.92742168  0.44392465  0.26471127  1
  O  O24  1  0.94392465  0.23528873  0.07257832  1
  O  O25  1  0.92742168  0.05607535  0.76471127  1
  O  O26  1  0.57257832  0.55607535  0.76471127  1
  O  O27  1  0.94392465  0.26471127  0.57257832  1
  O  O28  1  0.05607535  0.73528873  0.42742168  1
  O  O29  1  0.55607535  0.76471127  0.57257832  1
  O  O30  1  0.23528873  0.07257832  0.94392465  1
  O  O31  1  0.05607535  0.76471127  0.92742168  1
  O  O32  1  0.26471127  0.92742168  0.44392465  1
  O  O33  1  0.76471127  0.57257832  0.55607535  1
  O  O34  1  0.44392465  0.23528873  0.42742168  1
  O  O35  1  0.73528873  0.07257832  0.55607535  1
  O  O36  1  0.00000000  -0.00000000  0.50000000  1
  O  O37  1  0.00000000  0.50000000  -0.00000000  1
  O  O38  1  0.23528873  0.42742168  0.44392465  1
  O  O39  1  0.73528873  0.42742168  0.05607535  1
