# generated using pymatgen
data_Ta4Zn2P6(SO12)3
_symmetry_space_group_name_H-M   'P 1'
_cell_length_a   8.75800496
_cell_length_b   8.75800468
_cell_length_c   22.54966491
_cell_angle_alpha   90.00000000
_cell_angle_beta   90.00000000
_cell_angle_gamma   120.00000105
_symmetry_Int_Tables_number   1
_chemical_formula_structural   Ta4Zn2P6(SO12)3
_chemical_formula_sum   'Ta8 Zn4 P12 S6 O72'
_cell_volume   1497.89399430
_cell_formula_units_Z   2
loop_
 _symmetry_equiv_pos_site_id
 _symmetry_equiv_pos_as_xyz
  1  'x, y, z'
loop_
 _atom_site_type_symbol
 _atom_site_label
 _atom_site_symmetry_multiplicity
 _atom_site_fract_x
 _atom_site_fract_y
 _atom_site_fract_z
 _atom_site_occupancy
  Ta  Ta0  1  -0.00000000  0.00000000  0.64182691  1
  Ta  Ta1  1  -0.00000000  0.00000000  0.14182691  1
  Ta  Ta2  1  0.66666700  0.33333300  0.97593512  1
  Ta  Ta3  1  0.66666700  0.33333300  0.47593512  1
  Ta  Ta4  1  0.33333300  0.66666700  0.02245221  1
  Ta  Ta5  1  0.33333300  0.66666700  0.52245221  1
  Ta  Ta6  1  0.33333300  0.66666700  0.31140564  1
  Ta  Ta7  1  0.33333300  0.66666700  0.81140564  1
  Zn  Zn8  1  -0.00000000  0.00000000  0.35916881  1
  Zn  Zn9  1  -0.00000000  0.00000000  0.85916881  1
  Zn  Zn10  1  0.66666700  0.33333300  0.68338582  1
  Zn  Zn11  1  0.66666700  0.33333300  0.18338582  1
  P  P12  1  0.95149162  0.33541968  0.58460551  1
  P  P13  1  0.38392906  0.04850838  0.58460551  1
  P  P14  1  0.66458032  0.61607094  0.58460551  1
  P  P15  1  0.95149162  0.61607094  0.08460551  1
  P  P16  1  0.66458032  0.04850838  0.08460551  1
  P  P17  1  0.38392906  0.33541968  0.08460551  1
  P  P18  1  0.62235839  0.66951551  0.91639831  1
  P  P19  1  0.04715612  0.37764161  0.91639831  1
  P  P20  1  0.33048449  0.95284388  0.91639831  1
  P  P21  1  0.62235839  0.95284388  0.41639831  1
  P  P22  1  0.33048449  0.37764161  0.41639831  1
  P  P23  1  0.04715612  0.66951551  0.41639831  1
  S  S24  1  0.29055896  0.00436333  0.25103736  1
  S  S25  1  0.71380437  0.70944104  0.25103736  1
  S  S26  1  0.99563667  0.28619563  0.25103736  1
  S  S27  1  0.29055896  0.28619563  0.75103736  1
  S  S28  1  0.99563667  0.70944104  0.75103736  1
  S  S29  1  0.71380437  0.00436333  0.75103736  1
  O  O30  1  0.20692407  0.02643852  0.30325912  1
  O  O31  1  0.81951445  0.79307593  0.30325912  1
  O  O32  1  0.97356148  0.18048555  0.30325912  1
  O  O33  1  0.20692407  0.18048555  0.80325912  1
  O  O34  1  0.97356148  0.79307593  0.80325912  1
  O  O35  1  0.81951445  0.02643852  0.80325912  1
  O  O36  1  0.79640579  0.96905374  0.69662852  1
  O  O37  1  0.17264795  0.20359421  0.69662852  1
  O  O38  1  0.03094626  0.82735205  0.69662852  1
  O  O39  1  0.79640579  0.82735205  0.19662852  1
  O  O40  1  0.03094626  0.20359421  0.19662852  1
  O  O41  1  0.17264795  0.96905374  0.19662852  1
  O  O42  1  0.88235803  0.37197368  0.63980090  1
  O  O43  1  0.48961665  0.11764197  0.63980090  1
  O  O44  1  0.62802632  0.51038335  0.63980090  1
  O  O45  1  0.88235803  0.51038335  0.13980090  1
  O  O46  1  0.62802632  0.11764197  0.13980090  1
  O  O47  1  0.48961665  0.37197368  0.13980090  1
  O  O48  1  0.46566090  0.30035380  0.02855626  1
  O  O49  1  0.83469390  0.53433910  0.02855626  1
  O  O50  1  0.69964620  0.16530610  0.02855626  1
  O  O51  1  0.46566090  0.16530610  0.52855626  1
  O  O52  1  0.69964620  0.53433910  0.52855626  1
  O  O53  1  0.83469390  0.30035380  0.52855626  1
  O  O54  1  0.52560059  0.68844016  0.97102362  1
  O  O55  1  0.16283857  0.47439941  0.97102362  1
  O  O56  1  0.31155984  0.83716143  0.97102362  1
  O  O57  1  0.52560059  0.83716143  0.47102362  1
  O  O58  1  0.31155984  0.47439941  0.47102362  1
  O  O59  1  0.16283857  0.68844016  0.47102362  1
  O  O60  1  0.13563251  0.63270543  0.36126289  1
  O  O61  1  0.49707192  0.86436749  0.36126289  1
  O  O62  1  0.36729457  0.50292808  0.36126289  1
  O  O63  1  0.13563251  0.50292808  0.86126289  1
  O  O64  1  0.36729457  0.86436749  0.86126289  1
  O  O65  1  0.49707192  0.63270543  0.86126289  1
  O  O66  1  0.02709360  0.82634407  0.40879273  1
  O  O67  1  0.79925047  0.97290640  0.40879273  1
  O  O68  1  0.17365593  0.20074953  0.40879273  1
  O  O69  1  0.02709360  0.20074953  0.90879273  1
  O  O70  1  0.17365593  0.97290640  0.90879273  1
  O  O71  1  0.79925047  0.82634407  0.90879273  1
  O  O72  1  0.97511307  0.16917780  0.59382553  1
  O  O73  1  0.19406473  0.02488693  0.59382553  1
  O  O74  1  0.83082220  0.80593527  0.59382553  1
  O  O75  1  0.97511307  0.80593527  0.09382553  1
  O  O76  1  0.83082220  0.02488693  0.09382553  1
  O  O77  1  0.19406473  0.16917780  0.09382553  1
  O  O78  1  0.68582268  0.15101798  0.74132768  1
  O  O79  1  0.46519629  0.31417731  0.74132768  1
  O  O80  1  0.84898202  0.53480371  0.74132768  1
  O  O81  1  0.68582269  0.53480371  0.24132768  1
  O  O82  1  0.84898202  0.31417731  0.24132768  1
  O  O83  1  0.46519629  0.15101798  0.24132768  1
  O  O84  1  0.63054774  0.49715282  0.92684993  1
  O  O85  1  0.86660608  0.36945226  0.92684993  1
  O  O86  1  0.50284718  0.13339392  0.92684993  1
  O  O87  1  0.63054774  0.13339392  0.42684993  1
  O  O88  1  0.50284718  0.36945226  0.42684993  1
  O  O89  1  0.86660608  0.49715282  0.42684993  1
  O  O90  1  0.35114059  0.49042611  0.07076408  1
  O  O91  1  0.13928452  0.64885941  0.07076408  1
  O  O92  1  0.50957389  0.86071548  0.07076408  1
  O  O93  1  0.35114059  0.86071548  0.57076408  1
  O  O94  1  0.50957389  0.64885941  0.57076408  1
  O  O95  1  0.13928452  0.49042611  0.57076408  1
  O  O96  1  0.30128330  0.83523599  0.25780938  1
  O  O97  1  0.53395169  0.69871670  0.25780938  1
  O  O98  1  0.16476401  0.46604831  0.25780938  1
  O  O99  1  0.30128330  0.46604831  0.75780938  1
  O  O100  1  0.16476401  0.69871670  0.75780938  1
  O  O101  1  0.53395169  0.83523599  0.75780938  1
