# generated using pymatgen
data_ZrInP(SO6)2
_symmetry_space_group_name_H-M   'P 1'
_cell_length_a   8.96402549
_cell_length_b   8.95323217
_cell_length_c   23.17263442
_cell_angle_alpha   90.08259238
_cell_angle_beta   90.00000000
_cell_angle_gamma   120.03988640
_symmetry_Int_Tables_number   1
_chemical_formula_structural   ZrInP(SO6)2
_chemical_formula_sum   'Zr6 In6 P6 S12 O72'
_cell_volume   1609.95477399
_cell_formula_units_Z   6
loop_
 _symmetry_equiv_pos_site_id
 _symmetry_equiv_pos_as_xyz
  1  'x, y, z'
loop_
 _atom_site_type_symbol
 _atom_site_label
 _atom_site_symmetry_multiplicity
 _atom_site_fract_x
 _atom_site_fract_y
 _atom_site_fract_z
 _atom_site_occupancy
  Zr  Zr0  1  0.00072221  0.00005843  0.64346842  1
  Zr  Zr1  1  -0.00066379  0.00005843  0.14346842  1
  Zr  Zr2  1  0.66374788  0.33285206  0.97685345  1
  Zr  Zr3  1  0.66910518  0.33285206  0.47685345  1
  Zr  Zr4  1  0.34234514  0.65946362  0.31011825  1
  Zr  Zr5  1  0.31711748  0.65946362  0.81011825  1
  In  In6  1  0.00068696  -0.00042207  0.35330776  1
  In  In7  1  0.99889097  -0.00042207  0.85330776  1
  In  In8  1  0.67838942  0.33975552  0.68691989  1
  In  In9  1  0.66136709  0.33975552  0.18691989  1
  In  In10  1  0.32976903  0.65481725  0.02004840  1
  In  In11  1  0.32504721  0.65481725  0.52004840  1
  P  P12  1  0.71846854  0.71319896  0.25041417  1
  P  P13  1  0.99473042  0.71319896  0.75041417  1
  P  P14  1  0.95629737  0.33525474  0.58348074  1
  P  P15  1  0.37895836  0.33525474  0.08348074  1
  P  P16  1  0.04277317  0.37253995  0.91707115  1
  P  P17  1  0.32976578  0.37253995  0.41707115  1
  S  S18  1  0.29110890  -0.00031366  0.25024699  1
  S  S19  1  0.99536534  0.28875843  0.24959963  1
  S  S20  1  0.29339309  0.28875843  0.74959963  1
  S  S21  1  0.70857744  -0.00031366  0.75024699  1
  S  S22  1  0.37960178  0.04256799  0.58344813  1
  S  S23  1  0.66366320  0.62188462  0.58339468  1
  S  S24  1  0.95822243  0.62188462  0.08339468  1
  S  S25  1  0.66296721  0.04256799  0.08344813  1
  S  S26  1  0.62343724  0.66968148  0.91641585  1
  S  S27  1  0.33130567  0.95333838  0.91736968  1
  S  S28  1  0.62203171  0.95333838  0.41736968  1
  S  S29  1  0.04624324  0.66968148  0.41641585  1
  O  O30  1  0.21606487  0.03190950  0.30188288  1
  O  O31  1  0.82383739  0.79473998  0.30489101  1
  O  O32  1  0.96848061  0.18565392  0.30175937  1
  O  O33  1  0.21717331  0.18565392  0.80175937  1
  O  O34  1  0.97090259  0.79473998  0.80489101  1
  O  O35  1  0.81584463  0.03190950  0.80188288  1
  O  O36  1  0.79164704  0.97160177  0.69852318  1
  O  O37  1  0.18017955  0.20915503  0.69818506  1
  O  O38  1  0.02738996  0.83011081  0.69662855  1
  O  O39  1  0.80272085  0.83011081  0.19662855  1
  O  O40  1  0.02897548  0.20915503  0.19818506  1
  O  O41  1  0.17995472  0.97160177  0.19852318  1
  O  O42  1  0.87557548  0.36296203  0.63717328  1
  O  O43  1  0.48225728  0.12050691  0.63588470  1
  O  O44  1  0.63282685  0.51627124  0.63524318  1
  O  O45  1  0.88344539  0.51627124  0.13524318  1
  O  O46  1  0.63825062  0.12050691  0.13588470  1
  O  O47  1  0.48738756  0.36296203  0.13717328  1
  O  O48  1  0.46619652  0.30422346  0.02971579  1
  O  O49  1  0.84668669  0.54125650  0.03182971  1
  O  O50  1  0.69517439  0.15448508  0.03180043  1
  O  O51  1  0.45931170  0.15448508  0.53180043  1
  O  O52  1  0.69457082  0.54125650  0.53182971  1
  O  O53  1  0.83802794  0.30422346  0.52971579  1
  O  O54  1  0.54932119  0.69967090  0.96871355  1
  O  O55  1  0.15316759  0.45479880  0.97014004  1
  O  O56  1  0.30620169  0.85029013  0.96944684  1
  O  O57  1  0.54408744  0.85029013  0.46944684  1
  O  O58  1  0.30163021  0.45479880  0.47014004  1
  O  O59  1  0.15034871  0.69967090  0.46871355  1
  O  O60  1  0.12588403  0.63908827  0.36494534  1
  O  O61  1  0.51127418  0.87435302  0.36539171  1
  O  O62  1  0.36194616  0.49250566  0.36319485  1
  O  O63  1  0.13055850  0.49250566  0.86319485  1
  O  O64  1  0.36307783  0.87435302  0.86539171  1
  O  O65  1  0.51320324  0.63908827  0.86494534  1
  O  O66  1  0.02146115  0.81823410  0.40900748  1
  O  O67  1  0.79440264  0.97703455  0.40920666  1
  O  O68  1  0.17463495  0.19490067  0.40617181  1
  O  O69  1  0.02026572  0.19490067  0.90617181  1
  O  O70  1  0.18263191  0.97703455  0.90920666  1
  O  O71  1  0.79677295  0.81823410  0.90900748  1
  O  O72  1  0.97295555  0.17110592  0.59366549  1
  O  O73  1  0.20624778  0.02684167  0.59133661  1
  O  O74  1  0.82217240  0.79419316  0.59147309  1
  O  O75  1  0.97202076  0.79419316  0.09147309  1
  O  O76  1  0.82059388  0.02684167  0.09133661  1
  O  O77  1  0.19815037  0.17110592  0.09366549  1
  O  O78  1  0.68446781  0.14844518  0.74184792  1
  O  O79  1  0.46412532  0.30951359  0.74017233  1
  O  O80  1  0.84161182  0.53324659  0.74249392  1
  O  O81  1  0.69163577  0.53324659  0.24249392  1
  O  O82  1  0.84538926  0.30951359  0.24017233  1
  O  O83  1  0.46397837  0.14844518  0.24184792  1
  O  O84  1  0.63938083  0.51198916  0.92491458  1
  O  O85  1  0.86377121  0.35820220  0.92712917  1
  O  O86  1  0.48919880  0.12691745  0.92474679  1
  O  O87  1  0.63771965  0.12691745  0.42474679  1
  O  O88  1  0.49443199  0.35820220  0.42712917  1
  O  O89  1  0.87260932  0.51198916  0.42491458  1
  O  O90  1  0.35629519  0.49079324  0.07526518  1
  O  O91  1  0.13145725  0.64868122  0.07504583  1
  O  O92  1  0.51315311  0.87114912  0.07424949  1
  O  O93  1  0.35799501  0.87114912  0.57424949  1
  O  O94  1  0.51722298  0.64868122  0.57504583  1
  O  O95  1  0.13449705  0.49079324  0.57526518  1
  O  O96  1  0.30426949  0.84191944  0.25886320  1
  O  O97  1  0.53664521  0.69730085  0.25908988  1
  O  O98  1  0.15204359  0.46251319  0.25781392  1
  O  O99  1  0.31046860  0.46251319  0.75781392  1
  O  O100  1  0.16065464  0.69730085  0.75908988  1
  O  O101  1  0.53764895  0.84191944  0.75886320  1
