# generated using pymatgen
data_Na14Zr3Zn5Si6(SO8)6
_symmetry_space_group_name_H-M   'P 1'
_cell_length_a   18.51854908
_cell_length_b   9.19805660
_cell_length_c   22.54902828
_cell_angle_alpha   89.92611069
_cell_angle_beta   90.49724147
_cell_angle_gamma   119.98582122
_symmetry_Int_Tables_number   1
_chemical_formula_structural   Na14Zr3Zn5Si6(SO8)6
_chemical_formula_sum   'Na42 Zr9 Zn15 Si18 S18 O144'
_cell_volume   3326.62989371
_cell_formula_units_Z   3
loop_
 _symmetry_equiv_pos_site_id
 _symmetry_equiv_pos_as_xyz
  1  'x, y, z'
loop_
 _atom_site_type_symbol
 _atom_site_label
 _atom_site_symmetry_multiplicity
 _atom_site_fract_x
 _atom_site_fract_y
 _atom_site_fract_z
 _atom_site_occupancy
  Na  Na0  1  0.19603898  0.36190487  0.24700986  1
  Na  Na1  1  0.68885916  0.35747096  0.24809567  1
  Na  Na2  1  0.99559835  0.64187195  0.25056622  1
  Na  Na3  1  0.49320076  0.63260270  0.24214221  1
  Na  Na4  1  0.31721056  0.62922813  0.74601211  1
  Na  Na5  1  0.81578783  0.62302341  0.73717194  1
  Na  Na6  1  0.19075980  0.02430420  0.74823322  1
  Na  Na7  1  0.69499540  0.02932993  0.74683459  1
  Na  Na8  1  0.15292292  0.32898543  0.57698287  1
  Na  Na9  1  0.66338775  0.34650996  0.57772716  1
  Na  Na10  1  0.01239486  0.69523572  0.57712009  1
  Na  Na11  1  0.52358822  0.70062890  0.57857536  1
  Na  Na12  1  0.32229004  0.96792224  0.58849242  1
  Na  Na13  1  0.82083702  0.95321745  0.58727786  1
  Na  Na14  1  0.15571604  0.97621894  0.07864182  1
  Na  Na15  1  0.64788804  0.96149146  0.07524158  1
  Na  Na16  1  0.82092963  0.67743780  0.08753567  1
  Na  Na17  1  0.02082670  0.34382479  0.07833746  1
  Na  Na18  1  0.52421708  0.35366972  0.08625878  1
  Na  Na19  1  0.49337179  0.68636108  0.92176647  1
  Na  Na20  1  0.98715063  0.67795115  0.91824138  1
  Na  Na21  1  0.84772361  0.03498467  0.90811072  1
  Na  Na22  1  0.15956799  0.27715868  0.90880520  1
  Na  Na23  1  0.66519904  0.27911773  0.91604718  1
  Na  Na24  1  0.49079568  0.30245873  0.41841821  1
  Na  Na25  1  0.98626866  0.29594854  0.42118774  1
  Na  Na26  1  0.16489174  0.05197651  0.41580308  1
  Na  Na27  1  0.66711098  0.05274595  0.41622882  1
  Na  Na28  1  0.35082416  0.66029583  0.40723944  1
  Na  Na29  1  0.84900178  0.65506580  0.41718272  1
  Na  Na30  1  0.00384737  0.99805487  0.49772486  1
  Na  Na31  1  0.51296062  0.01487842  0.49391632  1
  Na  Na32  1  0.00811868  0.00653160  0.99378868  1
  Na  Na33  1  0.50182102  0.99485790  0.99718691  1
  Na  Na34  1  0.33143885  0.30403246  0.82669137  1
  Na  Na35  1  0.82851438  0.31298221  0.82592317  1
  Na  Na36  1  0.32533677  0.32663593  0.32518790  1
  Na  Na37  1  0.82158178  0.32458705  0.32964240  1
  Na  Na38  1  0.18660527  0.67994227  0.16193951  1
  Na  Na39  1  0.66694421  0.67116881  0.16082065  1
  Na  Na40  1  0.16375396  0.66554203  0.66341075  1
  Na  Na41  1  0.67334503  0.66853463  0.65990641  1
  Zr  Zr42  1  0.99984870  0.00610022  0.64980576  1
  Zr  Zr43  1  0.50447321  0.01672674  0.65256714  1
  Zr  Zr44  1  0.00358645  0.99686685  0.15214226  1
  Zr  Zr45  1  0.49973764  0.98190372  0.14766668  1
  Zr  Zr46  1  0.32580396  0.32643882  0.98504583  1
  Zr  Zr47  1  0.17619232  0.67410569  0.31221535  1
  Zr  Zr48  1  0.67527243  0.67172894  0.31161021  1
  Zr  Zr49  1  0.17126681  0.67782558  0.81249317  1
  Zr  Zr50  1  0.67170719  0.67682029  0.81226160  1
  Zn  Zn51  1  0.00965372  0.00272071  0.34330459  1
  Zn  Zn52  1  0.50958572  0.00381534  0.34156311  1
  Zn  Zn53  1  0.00793222  0.02000149  0.84014061  1
  Zn  Zn54  1  0.50768432  0.02245795  0.84509138  1
  Zn  Zn55  1  0.32040714  0.29390075  0.68667223  1
  Zn  Zn56  1  0.81680987  0.31131533  0.68077647  1
  Zn  Zn57  1  0.32763240  0.35687150  0.18227827  1
  Zn  Zn58  1  0.81555986  0.33150887  0.18684384  1
  Zn  Zn59  1  0.81101401  0.29519635  0.98620777  1
  Zn  Zn60  1  0.31419346  0.32631949  0.48500598  1
  Zn  Zn61  1  0.80793579  0.34215508  0.49262501  1
  Zn  Zn62  1  0.17214554  0.67174123  0.01397014  1
  Zn  Zn63  1  0.65448340  0.66264700  0.01962056  1
  Zn  Zn64  1  0.16361017  0.66401730  0.51338092  1
  Zn  Zn65  1  0.67508192  0.66251811  0.51833323  1
  Si  Si66  1  0.15497416  0.00576346  0.25235719  1
  Si  Si67  1  0.65137124  0.00101826  0.25258270  1
  Si  Si68  1  0.35687872  0.71105098  0.25535819  1
  Si  Si69  1  0.85630977  0.70685161  0.25269451  1
  Si  Si70  1  0.15211954  0.30185126  0.75114943  1
  Si  Si71  1  0.65235529  0.30228243  0.75493136  1
  Si  Si72  1  0.35723646  0.00526502  0.75246464  1
  Si  Si73  1  0.85707510  0.01263011  0.75407825  1
  Si  Si74  1  0.18285996  0.02336432  0.58097048  1
  Si  Si75  1  0.68039453  0.02275101  0.58159053  1
  Si  Si76  1  0.83616402  0.63039265  0.58455915  1
  Si  Si77  1  0.47854605  0.62057348  0.08542392  1
  Si  Si78  1  0.18119046  0.34359530  0.08455346  1
  Si  Si79  1  0.68260064  0.34020506  0.08154106  1
  Si  Si80  1  0.16314829  0.95861395  0.92033210  1
  Si  Si81  1  0.66481005  0.96280757  0.91910960  1
  Si  Si82  1  0.16403853  0.36897353  0.42019371  1
  Si  Si83  1  0.66235667  0.36504331  0.41862625  1
  S  S84  1  0.99878430  0.29605634  0.25143200  1
  S  S85  1  0.49818372  0.29323634  0.25203742  1
  S  S86  1  0.99957412  0.70291857  0.75197365  1
  S  S87  1  0.49880046  0.70220774  0.75088986  1
  S  S88  1  0.47550153  0.33186546  0.58272261  1
  S  S89  1  0.97940344  0.33531728  0.58280908  1
  S  S90  1  0.33598969  0.62983136  0.58376377  1
  S  S91  1  0.97889018  0.62453445  0.08340322  1
  S  S92  1  0.33253012  0.04026638  0.08587001  1
  S  S93  1  0.83768758  0.04734049  0.08353345  1
  S  S94  1  0.31515885  0.66740201  0.91750412  1
  S  S95  1  0.81586794  0.66761595  0.91905440  1
  S  S96  1  0.01889134  0.37493347  0.91924289  1
  S  S97  1  0.51811610  0.37146695  0.91770978  1
  S  S98  1  0.31620132  0.96577630  0.41983477  1
  S  S99  1  0.81676033  0.96625110  0.41823389  1
  S  S100  1  0.01895182  0.66341883  0.41658158  1
  S  S101  1  0.51830131  0.66146515  0.41931943  1
  O  O102  1  0.11429064  0.04124678  0.31029408  1
  O  O103  1  0.61456407  0.04037472  0.31155123  1
  O  O104  1  0.40792380  0.79916029  0.31590197  1
  O  O105  1  0.91137381  0.80000426  0.31118106  1
  O  O106  1  0.49060937  0.19799272  0.30666299  1
  O  O107  1  0.98780157  0.19794784  0.30534391  1
  O  O108  1  0.11559690  0.18506202  0.80992422  1
  O  O109  1  0.61313219  0.18346311  0.81190106  1
  O  O110  1  0.48689212  0.77612923  0.80512075  1
  O  O111  1  0.98971811  0.78184779  0.80631095  1
  O  O112  1  0.40955481  0.00320599  0.80858501  1
  O  O113  1  0.90569954  0.01479163  0.81476639  1
  O  O114  1  0.39445533  0.96627412  0.69031859  1
  O  O115  1  0.89890439  0.97078467  0.69610511  1
  O  O116  1  0.09402697  0.20862128  0.69199494  1
  O  O117  1  0.59310644  0.20972936  0.69432098  1
  O  O118  1  0.01468105  0.81494483  0.69901717  1
  O  O119  1  0.51331171  0.81606163  0.69789452  1
  O  O120  1  0.40184502  0.82987977  0.19739674  1
  O  O121  1  0.89883452  0.82098751  0.19170753  1
  O  O122  1  0.01316518  0.21316124  0.19808971  1
  O  O123  1  0.51236460  0.21459378  0.19862615  1
  O  O124  1  0.08953786  0.97013441  0.19358737  1
  O  O125  1  0.58969927  0.97116499  0.19364145  1
  O  O126  1  0.43400840  0.35365141  0.63457666  1
  O  O127  1  0.93825078  0.35499711  0.63415678  1
  O  O128  1  0.24239334  0.09995522  0.63956737  1
  O  O129  1  0.73711502  0.09841711  0.64101345  1
  O  O130  1  0.32779710  0.52964707  0.63722004  1
  O  O131  1  0.82438748  0.51576558  0.64247272  1
  O  O132  1  0.43594245  0.50212431  0.14236605  1
  O  O133  1  0.93941623  0.52446852  0.13672964  1
  O  O134  1  0.32019405  0.11905826  0.13734803  1
  O  O135  1  0.82989182  0.13561497  0.13482471  1
  O  O136  1  0.23073028  0.35965144  0.14486197  1
  O  O137  1  0.74272076  0.38168125  0.13978016  1
  O  O138  1  0.22629480  0.30298152  0.02701102  1
  O  O139  1  0.71744884  0.28962461  0.02303031  1
  O  O140  1  0.42373426  0.52915608  0.02357908  1
  O  O141  1  0.92983095  0.54684137  0.02846956  1
  O  O142  1  0.34301018  0.14484215  0.03063222  1
  O  O143  1  0.85368953  0.14695276  0.02745592  1
  O  O144  1  0.21993144  0.14137184  0.52210460  1
  O  O145  1  0.71581822  0.13875797  0.52211864  1
  O  O146  1  0.35007734  0.55581407  0.52934749  1
  O  O147  1  0.86083001  0.56512671  0.52395014  1
  O  O148  1  0.42755373  0.30661280  0.52700845  1
  O  O149  1  0.93287627  0.31038294  0.52634658  1
  O  O150  1  0.27343251  0.68325144  0.97008390  1
  O  O151  1  0.77506569  0.68725954  0.97194263  1
  O  O152  1  0.06924622  0.45036949  0.97391056  1
  O  O153  1  0.56705628  0.44579849  0.97291812  1
  O  O154  1  0.15174513  0.84478071  0.97906525  1
  O  O155  1  0.65385100  0.84834332  0.97728417  1
  O  O156  1  0.27610203  0.86519648  0.47352629  1
  O  O157  1  0.77737393  0.86691433  0.47225835  1
  O  O158  1  0.15232250  0.45883976  0.47920857  1
  O  O159  1  0.64776512  0.45190560  0.47711572  1
  O  O160  1  0.07009992  0.68918882  0.47100196  1
  O  O161  1  0.57012265  0.68460035  0.47286176  1
  O  O162  1  0.06480147  0.65290341  0.36331653  1
  O  O163  1  0.56078374  0.64547804  0.36507997  1
  O  O164  1  0.25969106  0.87757662  0.36682575  1
  O  O165  1  0.75981966  0.87623967  0.36552364  1
  O  O166  1  0.17517377  0.49188710  0.36208720  1
  O  O167  1  0.67401031  0.48852924  0.36062349  1
  O  O168  1  0.06465287  0.48070881  0.86691724  1
  O  O169  1  0.56225652  0.48164006  0.86606241  1
  O  O170  1  0.17318945  0.86267548  0.86115287  1
  O  O171  1  0.67496247  0.86365420  0.86035088  1
  O  O172  1  0.26206072  0.64112845  0.86290330  1
  O  O173  1  0.76122019  0.64419105  0.86486080  1
  O  O174  1  0.00742889  0.81228708  0.41336968  1
  O  O175  1  0.50655878  0.81015156  0.41579305  1
  O  O176  1  0.39817242  0.97796047  0.41364271  1
  O  O177  1  0.89873030  0.97660328  0.41170085  1
  O  O178  1  0.07915484  0.18197153  0.41438282  1
  O  O179  1  0.57781460  0.17832653  0.41255258  1
  O  O180  1  0.00731911  0.20277051  0.91461489  1
  O  O181  1  0.50835451  0.20276188  0.91229267  1
  O  O182  1  0.07920366  0.97767151  0.91494974  1
  O  O183  1  0.58002415  0.97927305  0.91443267  1
  O  O184  1  0.39984787  0.80788858  0.91254089  1
  O  O185  1  0.89911553  0.82003877  0.91324922  1
  O  O186  1  0.48268316  0.17194160  0.58826040  1
  O  O187  1  0.98888990  0.17820502  0.58789586  1
  O  O188  1  0.08964066  0.00813250  0.58946309  1
  O  O189  1  0.58462351  0.00647763  0.58920835  1
  O  O190  1  0.41207834  0.80357488  0.58784636  1
  O  O191  1  0.91847588  0.82467319  0.58990531  1
  O  O192  1  0.48861444  0.81200261  0.08529029  1
  O  O193  1  0.98494288  0.79836740  0.08692063  1
  O  O194  1  0.41137554  0.03278011  0.08800305  1
  O  O195  1  0.91408684  0.02643725  0.08876550  1
  O  O196  1  0.08605041  0.16449434  0.08605709  1
  O  O197  1  0.58673048  0.17498047  0.09052888  1
  O  O198  1  0.34176114  0.16326489  0.74887132  1
  O  O199  1  0.84136477  0.16884297  0.74699161  1
  O  O200  1  0.24761148  0.33497973  0.74437121  1
  O  O201  1  0.74572576  0.33037816  0.74839450  1
  O  O202  1  0.42508678  0.53747409  0.74020969  1
  O  O203  1  0.92749663  0.53778413  0.74406166  1
  O  O204  1  0.34762013  0.52546878  0.25123824  1
  O  O205  1  0.84999733  0.52323658  0.24798678  1
  O  O206  1  0.42735444  0.32013534  0.24646451  1
  O  O207  1  0.92893146  0.32492763  0.24160159  1
  O  O208  1  0.24547248  0.16701654  0.24246074  1
  O  O209  1  0.74373020  0.16280009  0.24535646  1
  O  O210  1  0.31894875  0.50526809  0.92001861  1
  O  O211  1  0.82548596  0.51623982  0.92022807  1
  O  O212  1  0.43489639  0.36358638  0.92022570  1
  O  O213  1  0.93657798  0.36647308  0.92145565  1
  O  O214  1  0.24779735  0.15075317  0.92145860  1
  O  O215  1  0.75345030  0.14592479  0.91709706  1
  O  O216  1  0.32530457  0.13554648  0.42067487  1
  O  O217  1  0.82630401  0.13546796  0.41923795  1
  O  O218  1  0.25189744  0.36155140  0.41845897  1
  O  O219  1  0.74955210  0.35630997  0.41757836  1
  O  O220  1  0.43511245  0.50450360  0.42210610  1
  O  O221  1  0.93797333  0.50546239  0.41779611  1
  O  O222  1  0.16511064  0.50138236  0.07432297  1
  O  O223  1  0.67551368  0.51137095  0.07424754  1
  O  O224  1  0.06531714  0.65506535  0.08085590  1
  O  O225  1  0.57387339  0.65221803  0.08321223  1
  O  O226  1  0.25834324  0.87060207  0.07791557  1
  O  O227  1  0.76337272  0.87719670  0.07906399  1
  O  O228  1  0.17078957  0.83192282  0.57455364  1
  O  O229  1  0.66640211  0.83185354  0.57471403  1
  O  O230  1  0.26048910  0.64754244  0.57946209  1
  O  O231  1  0.75170007  0.64758323  0.58100692  1
  O  O232  1  0.06635959  0.48253259  0.58072931  1
  O  O233  1  0.56155856  0.47608443  0.58061675  1
  O  O234  1  0.14817614  0.81852888  0.25626570  1
  O  O235  1  0.64723388  0.81665692  0.25656999  1
  O  O236  1  0.25874149  0.67896647  0.25472311  1
  O  O237  1  0.75899764  0.67592175  0.25405185  1
  O  O238  1  0.07833227  0.46541427  0.25493308  1
  O  O239  1  0.57785232  0.46616288  0.25568696  1
  O  O240  1  0.15897172  0.48787505  0.75683988  1
  O  O241  1  0.65840329  0.48723611  0.75711525  1
  O  O242  1  0.07921793  0.69439216  0.75532219  1
  O  O243  1  0.57719869  0.69175592  0.75413585  1
  O  O244  1  0.25960848  0.83160840  0.75505022  1
  O  O245  1  0.76061352  0.83430514  0.75601586  1
