# generated using pymatgen
data_RbSF5
_symmetry_space_group_name_H-M   'P 1'
_cell_length_a   6.06291462
_cell_length_b   7.60377248
_cell_length_c   9.76935768
_cell_angle_alpha   90.00000000
_cell_angle_beta   90.00000000
_cell_angle_gamma   90.00000000
_symmetry_Int_Tables_number   1
_chemical_formula_structural   RbSF5
_chemical_formula_sum   'Rb4 S4 F20'
_cell_volume   450.37738638
_cell_formula_units_Z   4
loop_
 _symmetry_equiv_pos_site_id
 _symmetry_equiv_pos_as_xyz
  1  'x, y, z'
loop_
 _atom_site_type_symbol
 _atom_site_label
 _atom_site_symmetry_multiplicity
 _atom_site_fract_x
 _atom_site_fract_y
 _atom_site_fract_z
 _atom_site_occupancy
  Rb  Rb0  1  0.25000000  0.65344768  0.65874238  1
  Rb  Rb1  1  0.75000000  0.34655232  0.34125762  1
  Rb  Rb2  1  0.75000000  0.15344768  0.84125762  1
  Rb  Rb3  1  0.25000000  0.84655232  0.15874238  1
  S  S4  1  0.25000000  0.15318561  0.59335526  1
  S  S5  1  0.75000000  0.84681439  0.40664474  1
  S  S6  1  0.75000000  0.65318561  0.90664474  1
  S  S7  1  0.25000000  0.34681439  0.09335526  1
  F  F8  1  0.25000000  0.21516774  0.75081072  1
  F  F9  1  0.75000000  0.78483226  0.24918928  1
  F  F10  1  0.75000000  0.71516774  0.74918928  1
  F  F11  1  0.25000000  0.28483226  0.25081072  1
  F  F12  1  0.95671550  0.68437409  0.42629269  1
  F  F13  1  0.45671550  0.31562591  0.57370731  1
  F  F14  1  0.04328450  0.18437409  0.07370731  1
  F  F15  1  0.54328450  0.81562591  0.92629269  1
  F  F16  1  0.45071976  0.49633444  0.14510439  1
  F  F17  1  0.95071976  0.50366556  0.85489561  1
  F  F18  1  0.54928024  0.99633444  0.35489561  1
  F  F19  1  0.04928024  0.00366556  0.64510439  1
  F  F20  1  0.54928024  0.50366556  0.85489561  1
  F  F21  1  0.04928024  0.49633444  0.14510439  1
  F  F22  1  0.45071976  0.00366556  0.64510439  1
  F  F23  1  0.95071976  0.99633444  0.35489561  1
  F  F24  1  0.45671550  0.18437409  0.07370731  1
  F  F25  1  0.95671550  0.81562591  0.92629269  1
  F  F26  1  0.54328450  0.68437409  0.42629269  1
  F  F27  1  0.04328450  0.31562591  0.57370731  1
