# generated using pymatgen
data_Na3CaSn(PO4)3
_symmetry_space_group_name_H-M   'P 1'
_cell_length_a   9.21492745
_cell_length_b   9.23158931
_cell_length_c   22.47440138
_cell_angle_alpha   90.00000000
_cell_angle_beta   89.94021485
_cell_angle_gamma   120.05983316
_symmetry_Int_Tables_number   1
_chemical_formula_structural   Na3CaSn(PO4)3
_chemical_formula_sum   'Na18 Ca6 Sn6 P18 O72'
_cell_volume   1654.72064127
_cell_formula_units_Z   6
loop_
 _symmetry_equiv_pos_site_id
 _symmetry_equiv_pos_as_xyz
  1  'x, y, z'
loop_
 _atom_site_type_symbol
 _atom_site_label
 _atom_site_symmetry_multiplicity
 _atom_site_fract_x
 _atom_site_fract_y
 _atom_site_fract_z
 _atom_site_occupancy
  Na  Na0  1  0.98123705  0.96464929  0.49702260  1
  Na  Na1  1  0.98123705  0.01658775  0.99702260  1
  Na  Na2  1  0.66728394  0.33707320  0.83054085  1
  Na  Na3  1  0.66728394  0.33020974  0.33054085  1
  Na  Na4  1  0.33034908  0.66461050  0.16383930  1
  Na  Na5  1  0.33034908  0.66573958  0.66383930  1
  Na  Na6  1  0.36791695  0.35559083  0.24607519  1
  Na  Na7  1  0.98815101  0.64114209  0.24686748  1
  Na  Na8  1  0.98815101  0.34700891  0.74686748  1
  Na  Na9  1  0.36791695  0.01232612  0.74607519  1
  Na  Na10  1  0.31711253  0.34384430  0.57977097  1
  Na  Na11  1  0.65604194  0.96655453  0.57981775  1
  Na  Na12  1  0.31711253  0.97326723  0.07977097  1
  Na  Na13  1  0.65604194  0.68948642  0.07981775  1
  Na  Na14  1  0.98569146  0.68057437  0.91261339  1
  Na  Na15  1  0.32069460  0.29758260  0.91297130  1
  Na  Na16  1  0.98569146  0.30511809  0.41261339  1
  Na  Na17  1  0.32069460  0.02311300  0.41297130  1
  Ca  Ca18  1  0.98799095  0.99495977  0.35185202  1
  Ca  Ca19  1  0.98799095  0.99303118  0.85185202  1
  Ca  Ca20  1  0.67223598  0.34617149  0.68545299  1
  Ca  Ca21  1  0.67223598  0.32606349  0.18545299  1
  Ca  Ca22  1  0.32902757  0.66204814  0.01886631  1
  Ca  Ca23  1  0.32902757  0.66698043  0.51886631  1
  Sn  Sn24  1  0.99534822  0.99232490  0.65076425  1
  Sn  Sn25  1  0.99534822  0.00302332  0.15076425  1
  Sn  Sn26  1  0.67062961  0.32755675  0.98388310  1
  Sn  Sn27  1  0.67062961  0.34307186  0.48388310  1
  Sn  Sn28  1  0.34109551  0.67236030  0.31735259  1
  Sn  Sn29  1  0.34109551  0.66873621  0.81735259  1
  P  P30  1  0.28996443  0.98736987  0.25254355  1
  P  P31  1  0.69283988  0.70577917  0.24765614  1
  P  P32  1  0.01727278  0.31073369  0.25462166  1
  P  P33  1  0.28996443  0.30259456  0.75254355  1
  P  P34  1  0.01727278  0.70653908  0.75462166  1
  P  P35  1  0.69283988  0.98706071  0.74765614  1
  P  P36  1  0.96104505  0.31752108  0.58591417  1
  P  P37  1  0.36277015  0.04390096  0.58636201  1
  P  P38  1  0.67895684  0.63913626  0.58302282  1
  P  P39  1  0.96104505  0.64352297  0.08591417  1
  P  P40  1  0.67895684  0.03981957  0.08302282  1
  P  P41  1  0.36277015  0.31886819  0.08636201  1
  P  P42  1  0.62664400  0.65008472  0.92169905  1
  P  P43  1  0.02975207  0.37594137  0.91501505  1
  P  P44  1  0.34802232  0.97418425  0.91782373  1
  P  P45  1  0.62664400  0.97656028  0.42169905  1
  P  P46  1  0.34802232  0.37383907  0.41782373  1
  P  P47  1  0.02975207  0.65381170  0.41501505  1
  O  O48  1  0.20912932  0.00305847  0.30896831  1
  O  O49  1  0.80819542  0.79141320  0.29971613  1
  O  O50  1  0.00184476  0.22261421  0.31292864  1
  O  O51  1  0.20912932  0.20607085  0.80896831  1
  O  O52  1  0.00184476  0.77923055  0.81292864  1
  O  O53  1  0.80819542  0.01678222  0.79971613  1
  O  O54  1  0.77178575  0.96470476  0.68789592  1
  O  O55  1  0.17259866  0.21583236  0.69571965  1
  O  O56  1  0.04051191  0.82702534  0.70026602  1
  O  O57  1  0.77178575  0.80708098  0.18789592  1
  O  O58  1  0.04051191  0.21348657  0.20026602  1
  O  O59  1  0.17259866  0.95676630  0.19571965  1
  O  O60  1  0.88208033  0.33181355  0.64282781  1
  O  O61  1  0.45966754  0.12477086  0.64259930  1
  O  O62  1  0.64913827  0.53101047  0.63677626  1
  O  O63  1  0.88208033  0.55026578  0.14282781  1
  O  O64  1  0.64913827  0.11812680  0.13677626  1
  O  O65  1  0.45966754  0.33489568  0.14259930  1
  O  O66  1  0.44936364  0.28809930  0.02954786  1
  O  O67  1  0.84834376  0.55057912  0.02890971  1
  O  O68  1  0.70338525  0.14608649  0.02488040  1
  O  O69  1  0.44936364  0.16126334  0.52954786  1
  O  O70  1  0.70338525  0.55729776  0.52488040  1
  O  O71  1  0.84834376  0.29776363  0.52890971  1
  O  O72  1  0.55274396  0.66605551  0.97997560  1
  O  O73  1  0.13813337  0.46395354  0.96778195  1
  O  O74  1  0.32699408  0.87473753  0.97428200  1
  O  O75  1  0.55274396  0.88668944  0.47997560  1
  O  O76  1  0.32699408  0.45225755  0.47428200  1
  O  O77  1  0.13813337  0.67418083  0.46778195  1
  O  O78  1  0.11047331  0.62559981  0.35608305  1
  O  O79  1  0.50547956  0.88281407  0.36707807  1
  O  O80  1  0.36625961  0.48150257  0.36030521  1
  O  O81  1  0.11047331  0.48487449  0.85608305  1
  O  O82  1  0.36625961  0.88475804  0.86030521  1
  O  O83  1  0.50547956  0.62266649  0.86707807  1
  O  O84  1  0.00648511  0.80608161  0.41110731  1
  O  O85  1  0.80579796  0.01254371  0.41456881  1
  O  O86  1  0.19594087  0.19574360  0.41250476  1
  O  O87  1  0.00648511  0.20040350  0.91110731  1
  O  O88  1  0.19594087  0.00019728  0.91250476  1
  O  O89  1  0.80579796  0.79325425  0.91456881  1
  O  O90  1  0.96253471  0.14537471  0.58503878  1
  O  O91  1  0.18680238  0.03667118  0.58756891  1
  O  O92  1  0.84446197  0.81542793  0.58638146  1
  O  O93  1  0.96253471  0.81716001  0.08503878  1
  O  O94  1  0.84446197  0.02903404  0.08638146  1
  O  O95  1  0.18680238  0.15013120  0.08756891  1
  O  O96  1  0.66196680  0.13579084  0.74409941  1
  O  O97  1  0.46242190  0.31921075  0.74638839  1
  O  O98  1  0.87485606  0.52620433  0.74784224  1
  O  O99  1  0.66196680  0.52617497  0.24409941  1
  O  O100  1  0.87485606  0.34865073  0.24784224  1
  O  O101  1  0.46242190  0.14321015  0.24638839  1
  O  O102  1  0.62963774  0.47865543  0.92096111  1
  O  O103  1  0.85687408  0.37462836  0.91857418  1
  O  O104  1  0.51085183  0.15288361  0.91883514  1
  O  O105  1  0.62963774  0.15098131  0.42096111  1
  O  O106  1  0.51085183  0.35796723  0.41883514  1
  O  O107  1  0.85687408  0.48224472  0.41857418  1
  O  O108  1  0.34487266  0.47363559  0.07996173  1
  O  O109  1  0.14260074  0.68249215  0.08073434  1
  O  O110  1  0.52962680  0.86031302  0.07781491  1
  O  O111  1  0.34487266  0.87123807  0.57996173  1
  O  O112  1  0.52962680  0.66931478  0.57781491  1
  O  O113  1  0.14260074  0.46010959  0.58073434  1
  O  O114  1  0.29755438  0.81909560  0.25331529  1
  O  O115  1  0.51703380  0.69501650  0.25293881  1
  O  O116  1  0.19017778  0.48413840  0.25247426  1
  O  O117  1  0.29755438  0.47845978  0.75331529  1
  O  O118  1  0.19017778  0.70604038  0.75247426  1
  O  O119  1  0.51703380  0.82201830  0.75293881  1
