# generated using pymatgen
data_H8S5N2
_symmetry_space_group_name_H-M   'P 1'
_cell_length_a   16.27614777
_cell_length_b   5.38481860
_cell_length_c   9.39062562
_cell_angle_alpha   75.33006392
_cell_angle_beta   90.00000000
_cell_angle_gamma   90.00000000
_symmetry_Int_Tables_number   1
_chemical_formula_structural   H8S5N2
_chemical_formula_sum   'H32 S20 N8'
_cell_volume   796.20272029
_cell_formula_units_Z   4
loop_
 _symmetry_equiv_pos_site_id
 _symmetry_equiv_pos_as_xyz
  1  'x, y, z'
loop_
 _atom_site_type_symbol
 _atom_site_label
 _atom_site_symmetry_multiplicity
 _atom_site_fract_x
 _atom_site_fract_y
 _atom_site_fract_z
 _atom_site_occupancy
  H  H0  1  0.64214057  0.89620717  0.41794156  1
  H  H1  1  0.14214057  0.10379283  0.08205844  1
  H  H2  1  0.35785943  0.10379283  0.58205844  1
  H  H3  1  0.85785943  0.89620717  0.91794156  1
  H  H4  1  0.72649363  0.71074120  0.45299762  1
  H  H5  1  0.22649363  0.28925880  0.04700238  1
  H  H6  1  0.27350637  0.28925880  0.54700238  1
  H  H7  1  0.77350637  0.71074120  0.95299762  1
  H  H8  1  0.63161864  0.57252967  0.46289936  1
  H  H9  1  0.13161864  0.42747033  0.03710064  1
  H  H10  1  0.36838136  0.42747033  0.53710064  1
  H  H11  1  0.86838136  0.57252967  0.96289936  1
  H  H12  1  0.67033645  0.72333101  0.29751764  1
  H  H13  1  0.17033645  0.27666899  0.20248236  1
  H  H14  1  0.93158312  0.63400200  0.36857709  1
  H  H15  1  0.32966355  0.27666899  0.70248236  1
  H  H16  1  0.97540773  0.82969910  0.21791372  1
  H  H17  1  0.47540773  0.17030090  0.28208628  1
  H  H18  1  0.02459227  0.17030090  0.78208628  1
  H  H19  1  0.52459227  0.82969910  0.71791372  1
  H  H20  1  0.95538719  0.51939904  0.22122876  1
  H  H21  1  0.45538719  0.48060096  0.27877124  1
  H  H22  1  0.04461281  0.48060096  0.77877124  1
  H  H23  1  0.54461281  0.51939904  0.72122876  1
  H  H24  1  0.53039423  0.41787102  0.17214760  1
  H  H25  1  0.03039423  0.58212898  0.32785240  1
  H  H26  1  0.46960577  0.58212898  0.82785240  1
  H  H27  1  0.96960577  0.41787102  0.67214760  1
  H  H28  1  0.56841688  0.63400200  0.86857709  1
  H  H29  1  0.06841688  0.36599800  0.63142291  1
  H  H30  1  0.43158312  0.36599800  0.13142291  1
  H  H31  1  0.82966355  0.72333101  0.79751764  1
  S  S32  1  0.93003882  0.22152469  0.07662018  1
  S  S33  1  0.43003882  0.77847531  0.42337982  1
  S  S34  1  0.06996118  0.77847531  0.92337982  1
  S  S35  1  0.56996118  0.22152469  0.57662018  1
  S  S36  1  0.81840150  0.10374512  0.17239243  1
  S  S37  1  0.31840150  0.89625488  0.32760757  1
  S  S38  1  0.18159850  0.89625488  0.82760757  1
  S  S39  1  0.68159850  0.10374512  0.67239243  1
  S  S40  1  0.80362629  0.23837571  0.35605425  1
  S  S41  1  0.30362629  0.76162429  0.14394575  1
  S  S42  1  0.19637371  0.76162429  0.64394575  1
  S  S43  1  0.69637371  0.23837571  0.85605425  1
  S  S44  1  0.61181691  0.04988655  0.01001676  1
  S  S45  1  0.11181691  0.95011345  0.48998324  1
  S  S46  1  0.38818309  0.95011345  0.98998324  1
  S  S47  1  0.88818309  0.04988655  0.51001676  1
  S  S48  1  0.64520822  0.66920160  0.07022826  1
  S  S49  1  0.14520822  0.33079840  0.42977174  1
  S  S50  1  0.35479178  0.33079840  0.92977174  1
  S  S51  1  0.85479178  0.66920160  0.57022826  1
  N  N52  1  0.66797748  0.72813372  0.40778083  1
  N  N53  1  0.16797748  0.27186628  0.09221917  1
  N  N54  1  0.33202252  0.27186628  0.59221917  1
  N  N55  1  0.83202252  0.72813372  0.90778083  1
  N  N56  1  0.97344684  0.64297523  0.28368159  1
  N  N57  1  0.47344684  0.35702477  0.21631841  1
  N  N58  1  0.02655316  0.35702477  0.71631841  1
  N  N59  1  0.52655316  0.64297523  0.78368159  1
