# generated using pymatgen
data_Na6Ta4Si9Sn4(SO16)3
_symmetry_space_group_name_H-M   'P 1'
_cell_length_a   17.87201980
_cell_length_b   8.92820905
_cell_length_c   22.80165823
_cell_angle_alpha   89.89360677
_cell_angle_beta   89.73989445
_cell_angle_gamma   119.90478954
_symmetry_Int_Tables_number   1
_chemical_formula_structural   Na6Ta4Si9Sn4(SO16)3
_chemical_formula_sum   'Na18 Ta12 Si27 Sn12 S9 O144'
_cell_volume   3153.85363597
_cell_formula_units_Z   3
loop_
 _symmetry_equiv_pos_site_id
 _symmetry_equiv_pos_as_xyz
  1  'x, y, z'
loop_
 _atom_site_type_symbol
 _atom_site_label
 _atom_site_symmetry_multiplicity
 _atom_site_fract_x
 _atom_site_fract_y
 _atom_site_fract_z
 _atom_site_occupancy
  Na  Na0  1  0.00350565  0.64771354  0.24314075  1
  Na  Na1  1  0.50074971  0.62419024  0.24699899  1
  Na  Na2  1  0.00025802  0.37765377  0.74734358  1
  Na  Na3  1  0.50333924  0.36421943  0.74505713  1
  Na  Na4  1  0.33295285  0.97040014  0.58935921  1
  Na  Na5  1  0.83083614  0.69281786  0.08163770  1
  Na  Na6  1  0.99745064  0.01268294  0.50357283  1
  Na  Na7  1  0.50477932  0.99937868  0.50460895  1
  Na  Na8  1  0.00416502  0.01031916  0.99970046  1
  Na  Na9  1  0.49834079  0.98449519  0.99666752  1
  Na  Na10  1  0.32748838  0.34014319  0.82786160  1
  Na  Na11  1  0.82548839  0.33784480  0.83117233  1
  Na  Na12  1  0.32844513  0.31583150  0.33337437  1
  Na  Na13  1  0.81985720  0.31062419  0.33231427  1
  Na  Na14  1  0.17399316  0.68539543  0.16077496  1
  Na  Na15  1  0.66247449  0.65435488  0.16836675  1
  Na  Na16  1  0.16538542  0.67397725  0.67074996  1
  Na  Na17  1  0.66583605  0.66057024  0.66772558  1
  Ta  Ta18  1  0.00104232  0.00130327  0.35526741  1
  Ta  Ta19  1  0.50421990  0.00945576  0.35603042  1
  Ta  Ta20  1  0.00270642  0.99794748  0.85530078  1
  Ta  Ta21  1  0.49987080  0.98508514  0.85103918  1
  Ta  Ta22  1  0.00552132  0.99650749  0.64058829  1
  Ta  Ta23  1  0.50542801  0.01460007  0.13944803  1
  Ta  Ta24  1  0.33366468  0.34513218  0.98558639  1
  Ta  Ta25  1  0.83192173  0.34133416  0.97344153  1
  Ta  Ta26  1  0.33308905  0.32640115  0.47576966  1
  Ta  Ta27  1  0.83269849  0.32071202  0.48644923  1
  Ta  Ta28  1  0.16842300  0.65176161  0.02274231  1
  Ta  Ta29  1  0.66815681  0.68481593  0.52407049  1
  Si  Si30  1  0.14893566  0.99921629  0.25274920  1
  Si  Si31  1  0.64554343  0.00599162  0.24720465  1
  Si  Si32  1  0.85475800  0.71494700  0.24921775  1
  Si  Si33  1  0.49920249  0.28830242  0.24998304  1
  Si  Si34  1  0.14424962  0.28405774  0.74741000  1
  Si  Si35  1  0.64863841  0.29525571  0.75272739  1
  Si  Si36  1  0.99887027  0.70883386  0.75038681  1
  Si  Si37  1  0.50152215  0.70874691  0.74673673  1
  Si  Si38  1  0.35450211  0.99202200  0.74936700  1
  Si  Si39  1  0.47857160  0.33419269  0.58365733  1
  Si  Si40  1  0.98000446  0.33660387  0.58863231  1
  Si  Si41  1  0.19232881  0.04539106  0.58200630  1
  Si  Si42  1  0.68593460  0.04679610  0.58857019  1
  Si  Si43  1  0.83288065  0.62392531  0.58089550  1
  Si  Si44  1  0.48016374  0.62330342  0.08841903  1
  Si  Si45  1  0.97765467  0.61466881  0.08355555  1
  Si  Si46  1  0.33167392  0.04040618  0.08124469  1
  Si  Si47  1  0.18740832  0.32699789  0.08844179  1
  Si  Si48  1  0.68967163  0.34046762  0.07998670  1
  Si  Si49  1  0.31182260  0.66610625  0.91529358  1
  Si  Si50  1  0.81110003  0.67499584  0.91762867  1
  Si  Si51  1  0.02397826  0.37923058  0.91476742  1
  Si  Si52  1  0.66564469  0.95691298  0.91653265  1
  Si  Si53  1  0.31409185  0.95565675  0.41914384  1
  Si  Si54  1  0.80984947  0.95830801  0.41484628  1
  Si  Si55  1  0.16709235  0.37928447  0.41597604  1
  Si  Si56  1  0.52410720  0.66769315  0.41463386  1
  Sn  Sn57  1  0.50744650  0.01629656  0.65005373  1
  Sn  Sn58  1  0.00547225  0.98587283  0.14637147  1
  Sn  Sn59  1  0.33457304  0.32384731  0.69022727  1
  Sn  Sn60  1  0.82931882  0.34602324  0.68614185  1
  Sn  Sn61  1  0.33045781  0.31209455  0.18568832  1
  Sn  Sn62  1  0.82873127  0.34557366  0.18618166  1
  Sn  Sn63  1  0.66264428  0.66956631  0.01820250  1
  Sn  Sn64  1  0.16547519  0.65856415  0.52076828  1
  Sn  Sn65  1  0.17618224  0.67951309  0.31763637  1
  Sn  Sn66  1  0.66711127  0.67622539  0.30988140  1
  Sn  Sn67  1  0.16768830  0.65739905  0.80994211  1
  Sn  Sn68  1  0.66885857  0.67374115  0.81452871  1
  S  S69  1  0.35728728  0.71731063  0.25004375  1
  S  S70  1  0.00122523  0.28956056  0.25051664  1
  S  S71  1  0.85828025  0.99822404  0.74977561  1
  S  S72  1  0.33367279  0.61906414  0.58310587  1
  S  S73  1  0.83460805  0.04852978  0.08450037  1
  S  S74  1  0.51581183  0.36713158  0.91680029  1
  S  S75  1  0.16890520  0.95839724  0.91744695  1
  S  S76  1  0.66934104  0.37999750  0.41686446  1
  S  S77  1  0.01727851  0.66343986  0.41544484  1
  O  O78  1  0.09609497  0.01663436  0.30929412  1
  O  O79  1  0.59612377  0.02650439  0.30576092  1
  O  O80  1  0.40810322  0.80347545  0.30397121  1
  O  O81  1  0.92050437  0.82136077  0.30368188  1
  O  O82  1  0.48835178  0.16790474  0.30805272  1
  O  O83  1  0.99269200  0.18470262  0.30371255  1
  O  O84  1  0.09307658  0.16522863  0.80595806  1
  O  O85  1  0.59596133  0.17086825  0.80903393  1
  O  O86  1  0.48966687  0.80144603  0.80631511  1
  O  O87  1  0.98798564  0.80787191  0.80832857  1
  O  O88  1  0.41860914  0.01791279  0.80471266  1
  O  O89  1  0.91030565  0.01598604  0.80355446  1
  O  O90  1  0.39334647  0.96506948  0.68723775  1
  O  O91  1  0.89981813  0.97995134  0.69644821  1
  O  O92  1  0.08058935  0.18400588  0.69167313  1
  O  O93  1  0.58799806  0.22827370  0.69420972  1
  O  O94  1  0.00520313  0.82557872  0.69257576  1
  O  O95  1  0.51895629  0.82767756  0.68937369  1
  O  O96  1  0.39754780  0.81812494  0.19691250  1
  O  O97  1  0.89470968  0.82550312  0.18802957  1
  O  O98  1  0.01444413  0.21267484  0.19697865  1
  O  O99  1  0.50544901  0.18458692  0.19244273  1
  O  O100  1  0.08618694  0.94647844  0.19527195  1
  O  O101  1  0.58307434  0.98202461  0.19145926  1
  O  O102  1  0.44405632  0.37340021  0.64474518  1
  O  O103  1  0.93762508  0.36409042  0.64772913  1
  O  O104  1  0.25344165  0.12512915  0.63875813  1
  O  O105  1  0.74691131  0.12607781  0.64445675  1
  O  O106  1  0.32227632  0.51906527  0.63679911  1
  O  O107  1  0.81023698  0.51099311  0.63997340  1
  O  O108  1  0.43813147  0.51177075  0.14818307  1
  O  O109  1  0.94311955  0.50991205  0.14679399  1
  O  O110  1  0.30815032  0.10512911  0.14107820  1
  O  O111  1  0.82337996  0.12728875  0.13906737  1
  O  O112  1  0.24565916  0.36537578  0.14594355  1
  O  O113  1  0.74925202  0.38868092  0.13873215  1
  O  O114  1  0.23517558  0.30308281  0.02968886  1
  O  O115  1  0.73573997  0.30590065  0.02463917  1
  O  O116  1  0.41747190  0.52594974  0.03067103  1
  O  O117  1  0.91064827  0.51023472  0.03086250  1
  O  O118  1  0.34759106  0.16761104  0.02487285  1
  O  O119  1  0.84266313  0.14824077  0.03161004  1
  O  O120  1  0.23516863  0.16631982  0.52416311  1
  O  O121  1  0.73612917  0.16517770  0.52884068  1
  O  O122  1  0.33983104  0.53350147  0.52965067  1
  O  O123  1  0.84815754  0.52813578  0.52355918  1
  O  O124  1  0.41244706  0.30984979  0.52943642  1
  O  O125  1  0.91789983  0.30932078  0.52996884  1
  O  O126  1  0.26347530  0.68921526  0.97320596  1
  O  O127  1  0.77339190  0.70654063  0.97887023  1
  O  O128  1  0.08610488  0.47715059  0.97085601  1
  O  O129  1  0.57003026  0.44739614  0.96922264  1
  O  O130  1  0.15420914  0.85116514  0.96949279  1
  O  O131  1  0.64324219  0.83680262  0.97497466  1
  O  O132  1  0.27277974  0.83852344  0.47750163  1
  O  O133  1  0.76509100  0.83830809  0.47241803  1
  O  O134  1  0.14222400  0.45625355  0.47215813  1
  O  O135  1  0.65476860  0.45686434  0.46858011  1
  O  O136  1  0.07122054  0.69332306  0.46698403  1
  O  O137  1  0.58754592  0.69715944  0.46984638  1
  O  O138  1  0.05496890  0.63803331  0.36054303  1
  O  O139  1  0.55775324  0.62399529  0.35399318  1
  O  O140  1  0.25535232  0.88598873  0.36068492  1
  O  O141  1  0.75235467  0.88042138  0.35666164  1
  O  O142  1  0.18243640  0.49044277  0.35534886  1
  O  O143  1  0.68235789  0.47823221  0.36221917  1
  O  O144  1  0.05822337  0.49214292  0.85478472  1
  O  O145  1  0.55320382  0.47196181  0.86283426  1
  O  O146  1  0.18190290  0.88572873  0.86317880  1
  O  O147  1  0.68573907  0.87832920  0.85849914  1
  O  O148  1  0.25170956  0.62438458  0.85837057  1
  O  O149  1  0.75087904  0.63381263  0.86117038  1
  O  O150  1  0.00796297  0.82132367  0.41001530  1
  O  O151  1  0.51496461  0.84207920  0.40641045  1
  O  O152  1  0.41024349  0.97792404  0.40874167  1
  O  O153  1  0.90747199  0.98065037  0.40623824  1
  O  O154  1  0.08209161  0.18453944  0.40605627  1
  O  O155  1  0.58999428  0.20098678  0.41137700  1
  O  O156  1  0.01459734  0.18670346  0.90798535  1
  O  O157  1  0.50591159  0.19394989  0.91157215  1
  O  O158  1  0.08916785  0.97760957  0.91214313  1
  O  O159  1  0.58232128  0.98522136  0.90935169  1
  O  O160  1  0.40730069  0.83897386  0.91025541  1
  O  O161  1  0.90861249  0.84239338  0.90862201  1
  O  O162  1  0.47901709  0.15032977  0.58517137  1
  O  O163  1  0.98568624  0.15939377  0.59160590  1
  O  O164  1  0.09564133  0.02330995  0.58873495  1
  O  O165  1  0.59132323  0.02746492  0.58664176  1
  O  O166  1  0.41090443  0.79417771  0.58436617  1
  O  O167  1  0.91862577  0.81496113  0.58819809  1
  O  O168  1  0.48567859  0.81175429  0.09270434  1
  O  O169  1  0.97756254  0.80037135  0.08445647  1
  O  O170  1  0.41741384  0.02084546  0.08960929  1
  O  O171  1  0.91341655  0.03084864  0.08794535  1
  O  O172  1  0.08957437  0.16021647  0.08976489  1
  O  O173  1  0.59442683  0.16810919  0.08745678  1
  O  O174  1  0.35438688  0.17561267  0.74984363  1
  O  O175  1  0.85346985  0.15871708  0.74871983  1
  O  O176  1  0.23828603  0.30215834  0.74425370  1
  O  O177  1  0.74057757  0.30009604  0.74986354  1
  O  O178  1  0.41539731  0.51795966  0.74604034  1
  O  O179  1  0.91523907  0.51307693  0.74824628  1
  O  O180  1  0.35136179  0.54615042  0.24922331  1
  O  O181  1  0.85746302  0.53183855  0.24899557  1
  O  O182  1  0.41544541  0.31759403  0.24828631  1
  O  O183  1  0.92219877  0.30363197  0.24851359  1
  O  O184  1  0.24100418  0.17411779  0.24994283  1
  O  O185  1  0.74284157  0.17440059  0.24393454  1
  O  O186  1  0.32463108  0.49545203  0.92663308  1
  O  O187  1  0.82482966  0.50442801  0.92371282  1
  O  O188  1  0.42917209  0.35134878  0.92410695  1
  O  O189  1  0.92766490  0.35079224  0.92900838  1
  O  O190  1  0.24425946  0.13567783  0.92415803  1
  O  O191  1  0.75281492  0.14649831  0.92591851  1
  O  O192  1  0.32688064  0.15065279  0.42487410  1
  O  O193  1  0.82512462  0.15646551  0.42469749  1
  O  O194  1  0.25244642  0.36061449  0.42439916  1
  O  O195  1  0.74498201  0.35307818  0.42283646  1
  O  O196  1  0.42729725  0.50661413  0.42838816  1
  O  O197  1  0.93001902  0.51090639  0.42125331  1
  O  O198  1  0.17786175  0.49904919  0.07738475  1
  O  O199  1  0.68113178  0.51296758  0.07388292  1
  O  O200  1  0.07435839  0.64687861  0.07280000  1
  O  O201  1  0.57505175  0.64378004  0.08006775  1
  O  O202  1  0.24789539  0.85072828  0.06993096  1
  O  O203  1  0.75812618  0.87035097  0.08216487  1
  O  O204  1  0.18373877  0.85450475  0.57527642  1
  O  O205  1  0.67735707  0.85604418  0.57717280  1
  O  O206  1  0.25558167  0.64206118  0.58063977  1
  O  O207  1  0.74900114  0.64534637  0.56861480  1
  O  O208  1  0.07447635  0.50729098  0.57964502  1
  O  O209  1  0.57473059  0.49836530  0.56988342  1
  O  O210  1  0.15100385  0.81406421  0.25828527  1
  O  O211  1  0.64649962  0.82483662  0.24984420  1
  O  O212  1  0.26880040  0.69653160  0.25294858  1
  O  O213  1  0.75879140  0.68439577  0.25567285  1
  O  O214  1  0.07708548  0.46767069  0.25628725  1
  O  O215  1  0.58577061  0.47723019  0.25371012  1
  O  O216  1  0.14445415  0.46632566  0.75011627  1
  O  O217  1  0.65629015  0.48580443  0.75929219  1
  O  O218  1  0.08574033  0.69470220  0.75415815  1
  O  O219  1  0.58519095  0.68057574  0.75531721  1
  O  O220  1  0.25863847  0.82686706  0.75535773  1
  O  O221  1  0.77179980  0.84365836  0.75302962  1
