# generated using pymatgen
data_Na5HfAl3(PO4)6
_symmetry_space_group_name_H-M   'P 1'
_cell_length_a   8.64789855
_cell_length_b   8.63821481
_cell_length_c   21.93083316
_cell_angle_alpha   89.94444195
_cell_angle_beta   90.02208200
_cell_angle_gamma   119.99926232
_symmetry_Int_Tables_number   1
_chemical_formula_structural   Na5HfAl3(PO4)6
_chemical_formula_sum   'Na15 Hf3 Al9 P18 O72'
_cell_volume   1418.80715500
_cell_formula_units_Z   3
loop_
 _symmetry_equiv_pos_site_id
 _symmetry_equiv_pos_as_xyz
  1  'x, y, z'
loop_
 _atom_site_type_symbol
 _atom_site_label
 _atom_site_symmetry_multiplicity
 _atom_site_fract_x
 _atom_site_fract_y
 _atom_site_fract_z
 _atom_site_occupancy
  Na  Na0  1  0.63388089  0.99937390  0.25202428  1
  Na  Na1  1  0.36494714  0.36559166  0.25233662  1
  Na  Na2  1  0.00086170  0.63546637  0.25202624  1
  Na  Na3  1  0.63779239  0.63319662  0.74882579  1
  Na  Na4  1  0.99827367  0.36243099  0.74888932  1
  Na  Na5  1  0.03120771  0.69917688  0.58233724  1
  Na  Na6  1  0.66573333  0.96835106  0.58220161  1
  Na  Na7  1  0.66613949  0.69812151  0.08266167  1
  Na  Na8  1  0.03111491  0.33191887  0.08279083  1
  Na  Na9  1  0.00619017  0.00670647  0.49691899  1
  Na  Na10  1  0.00577913  0.99927561  0.99677344  1
  Na  Na11  1  0.66020875  0.32650429  0.83269625  1
  Na  Na12  1  0.66633565  0.33326302  0.33557278  1
  Na  Na13  1  0.33266732  0.67228353  0.16602366  1
  Na  Na14  1  0.33322030  0.66596174  0.66359395  1
  Hf  Hf15  1  0.66554427  0.33278310  0.97876338  1
  Hf  Hf16  1  0.66439218  0.33239971  0.47709678  1
  Hf  Hf17  1  0.33399455  0.67282683  0.81377781  1
  Al  Al18  1  0.00088916  0.00035644  0.35601618  1
  Al  Al19  1  0.00254358  0.00121625  0.85375694  1
  Al  Al20  1  0.00583449  0.00535952  0.64800570  1
  Al  Al21  1  0.00479338  0.99917496  0.14953331  1
  Al  Al22  1  0.65987153  0.32739630  0.68428915  1
  Al  Al23  1  0.66575332  0.33214159  0.18400738  1
  Al  Al24  1  0.33268679  0.67227219  0.01650131  1
  Al  Al25  1  0.33258796  0.66075775  0.51542191  1
  Al  Al26  1  0.33313278  0.66666009  0.31922335  1
  P  P27  1  0.28674796  0.00017892  0.25045860  1
  P  P28  1  0.71339804  0.71303322  0.25014808  1
  P  P29  1  0.99964263  0.28675829  0.25015225  1
  P  P30  1  0.28747517  0.27565537  0.74893749  1
  P  P31  1  0.99534941  0.71605903  0.74820342  1
  P  P32  1  0.72016424  0.00782996  0.74820151  1
  P  P33  1  0.96399180  0.33348196  0.58599283  1
  P  P34  1  0.37124365  0.04162409  0.58593968  1
  P  P35  1  0.66301004  0.62549981  0.58619224  1
  P  P36  1  0.96492840  0.63183414  0.08613657  1
  P  P37  1  0.66327299  0.03670268  0.08641036  1
  P  P38  1  0.36975271  0.32903787  0.08631563  1
  P  P39  1  0.63017918  0.67774861  0.91778338  1
  P  P40  1  0.04740069  0.37005827  0.91799057  1
  P  P41  1  0.32226225  0.95312467  0.91837620  1
  P  P42  1  0.62263235  0.94550484  0.41521205  1
  P  P43  1  0.32292002  0.37788421  0.41483652  1
  P  P44  1  0.05427161  0.67648814  0.41534733  1
  O  O45  1  0.20339203  0.03820590  0.30570604  1
  O  O46  1  0.83547416  0.79790910  0.30496092  1
  O  O47  1  0.96246087  0.16438215  0.30496454  1
  O  O48  1  0.20081278  0.16760007  0.80689059  1
  O  O49  1  0.96292595  0.79913442  0.80534761  1
  O  O50  1  0.83515252  0.03751403  0.80540764  1
  O  O51  1  0.79934667  0.96799414  0.69140447  1
  O  O52  1  0.16553845  0.19861430  0.69341731  1
  O  O53  1  0.02740290  0.82855021  0.69084649  1
  O  O54  1  0.79363964  0.82943372  0.19195214  1
  O  O55  1  0.03543482  0.20645320  0.19197539  1
  O  O56  1  0.16756893  0.96324513  0.19369637  1
  O  O57  1  0.87564990  0.36997062  0.64204586  1
  O  O58  1  0.49905165  0.12866670  0.64025437  1
  O  O59  1  0.63493819  0.50771618  0.64276972  1
  O  O60  1  0.87531187  0.50552403  0.14184187  1
  O  O61  1  0.63458041  0.12706762  0.14257432  1
  O  O62  1  0.49575872  0.36914006  0.14191175  1
  O  O63  1  0.45348897  0.29757304  0.02958805  1
  O  O64  1  0.84198911  0.54864144  0.03018793  1
  O  O65  1  0.70686311  0.15918884  0.03030115  1
  O  O66  1  0.45352546  0.15611410  0.52853019  1
  O  O67  1  0.70620047  0.54615703  0.53003365  1
  O  O68  1  0.84082766  0.29387710  0.52993330  1
  O  O69  1  0.53817024  0.69915520  0.97496748  1
  O  O70  1  0.16135312  0.46182134  0.97508429  1
  O  O71  1  0.29903686  0.83665132  0.97399283  1
  O  O72  1  0.53668113  0.83754309  0.47398391  1
  O  O73  1  0.29996854  0.46547884  0.47202312  1
  O  O74  1  0.16277239  0.69938990  0.47400932  1
  O  O75  1  0.13422447  0.63973447  0.35772257  1
  O  O76  1  0.50563838  0.86548594  0.35765879  1
  O  O77  1  0.36028119  0.49372105  0.35672749  1
  O  O78  1  0.12250657  0.48521998  0.85981602  1
  O  O79  1  0.36395055  0.87773896  0.86109206  1
  O  O80  1  0.51473609  0.63728145  0.85974667  1
  O  O81  1  0.02999090  0.84017812  0.40785530  1
  O  O82  1  0.81035964  0.96976084  0.40777603  1
  O  O83  1  0.15957748  0.18965140  0.40757649  1
  O  O84  1  0.02715719  0.18505166  0.90960310  1
  O  O85  1  0.15723644  0.97234669  0.90939109  1
  O  O86  1  0.81487736  0.84272849  0.90923047  1
  O  O87  1  0.97544955  0.16189803  0.59365808  1
  O  O88  1  0.18276385  0.01672145  0.59340580  1
  O  O89  1  0.83340644  0.81399223  0.59312807  1
  O  O90  1  0.97568128  0.81421900  0.09390330  1
  O  O91  1  0.83388398  0.01958907  0.09358007  1
  O  O92  1  0.18178156  0.16539005  0.09374037  1
  O  O93  1  0.69797834  0.17405946  0.74123312  1
  O  O94  1  0.48002219  0.30944720  0.74161253  1
  O  O95  1  0.82952466  0.52317725  0.74220596  1
  O  O96  1  0.69063936  0.52191125  0.24143227  1
  O  O97  1  0.83160952  0.30973349  0.24161824  1
  O  O98  1  0.47763108  0.16844350  0.24145564  1
  O  O99  1  0.64541939  0.50719103  0.92264246  1
  O  O100  1  0.86199148  0.35526988  0.92294088  1
  O  O101  1  0.49292546  0.13874572  0.92296543  1
  O  O102  1  0.64096636  0.13403270  0.42042988  1
  O  O103  1  0.49333461  0.35995424  0.42034219  1
  O  O104  1  0.86608894  0.50635667  0.42082896  1
  O  O105  1  0.35460450  0.50056318  0.07763774  1
  O  O106  1  0.14592626  0.64072679  0.07668184  1
  O  O107  1  0.49888804  0.84975443  0.07689637  1
  O  O108  1  0.35444090  0.85403389  0.57735929  1
  O  O109  1  0.49895994  0.64897746  0.57680417  1
  O  O110  1  0.14595857  0.50513749  0.57652893  1
  O  O111  1  0.31078202  0.83293130  0.25703526  1
  O  O112  1  0.52266034  0.68954426  0.25665374  1
  O  O113  1  0.16684900  0.47773651  0.25669341  1
  O  O114  1  0.30980853  0.46888104  0.75414908  1
  O  O115  1  0.15815292  0.68613911  0.75297777  1
  O  O116  1  0.53296548  0.83699112  0.75329188  1
