# generated using pymatgen
data_Na3Ca5Nb(SO4)9
_symmetry_space_group_name_H-M   'P 1'
_cell_length_a   9.13140620
_cell_length_b   9.13140589
_cell_length_c   24.35105868
_cell_angle_alpha   90.00000000
_cell_angle_beta   90.00000000
_cell_angle_gamma   120.00000113
_symmetry_Int_Tables_number   1
_chemical_formula_structural   Na3Ca5Nb(SO4)9
_chemical_formula_sum   'Na6 Ca10 Nb2 S18 O72'
_cell_volume   1758.42473302
_cell_formula_units_Z   2
loop_
 _symmetry_equiv_pos_site_id
 _symmetry_equiv_pos_as_xyz
  1  'x, y, z'
loop_
 _atom_site_type_symbol
 _atom_site_label
 _atom_site_symmetry_multiplicity
 _atom_site_fract_x
 _atom_site_fract_y
 _atom_site_fract_z
 _atom_site_occupancy
  Na  Na0  1  -0.00000000  0.00000000  0.51178053  1
  Na  Na1  1  -0.00000000  0.00000000  0.01178053  1
  Na  Na2  1  0.66666700  0.33333300  0.83284019  1
  Na  Na3  1  0.66666700  0.33333300  0.33284019  1
  Na  Na4  1  0.33333300  0.66666700  0.15363800  1
  Na  Na5  1  0.33333300  0.66666700  0.65363800  1
  Ca  Ca6  1  -0.00000000  0.00000000  0.35024630  1
  Ca  Ca7  1  -0.00000000  0.00000000  0.85024630  1
  Ca  Ca8  1  -0.00000000  0.00000000  0.65208720  1
  Ca  Ca9  1  -0.00000000  0.00000000  0.15208720  1
  Ca  Ca10  1  0.66666700  0.33333300  0.68186554  1
  Ca  Ca11  1  0.66666700  0.33333300  0.18186554  1
  Ca  Ca12  1  0.66666700  0.33333300  0.98257560  1
  Ca  Ca13  1  0.66666700  0.33333300  0.48257560  1
  Ca  Ca14  1  0.33333300  0.66666700  0.02057903  1
  Ca  Ca15  1  0.33333300  0.66666700  0.52057903  1
  Nb  Nb16  1  0.33333300  0.66666700  0.31651994  1
  Nb  Nb17  1  0.33333300  0.66666700  0.81651994  1
  S  S18  1  0.30335971  0.99179349  0.25463306  1
  S  S19  1  0.68843378  0.69664029  0.25463306  1
  S  S20  1  0.00820651  0.31156622  0.25463306  1
  S  S21  1  0.30335971  0.31156622  0.75463306  1
  S  S22  1  0.00820651  0.69664029  0.75463306  1
  S  S23  1  0.68843378  0.99179349  0.75463306  1
  S  S24  1  0.96655015  0.33035414  0.58339445  1
  S  S25  1  0.36380499  0.03344985  0.58339445  1
  S  S26  1  0.66964586  0.63619501  0.58339445  1
  S  S27  1  0.96655015  0.63619501  0.08339445  1
  S  S28  1  0.66964586  0.03344985  0.08339445  1
  S  S29  1  0.36380499  0.33035414  0.08339445  1
  S  S30  1  0.61888240  0.66376189  0.91326319  1
  S  S31  1  0.04487849  0.38111760  0.91326319  1
  S  S32  1  0.33623811  0.95512151  0.91326319  1
  S  S33  1  0.61888240  0.95512151  0.41326319  1
  S  S34  1  0.33623811  0.38111760  0.41326319  1
  S  S35  1  0.04487849  0.66376189  0.41326319  1
  O  O36  1  0.21988771  0.01360935  0.30257440  1
  O  O37  1  0.79372164  0.78011229  0.30257440  1
  O  O38  1  0.98639065  0.20627836  0.30257440  1
  O  O39  1  0.21988771  0.20627836  0.80257440  1
  O  O40  1  0.98639065  0.78011229  0.80257440  1
  O  O41  1  0.79372164  0.01360935  0.80257440  1
  O  O42  1  0.75034717  0.95277764  0.70437688  1
  O  O43  1  0.20243047  0.24965283  0.70437688  1
  O  O44  1  0.04722236  0.79756953  0.70437688  1
  O  O45  1  0.75034717  0.79756953  0.20437688  1
  O  O46  1  0.04722236  0.24965283  0.20437688  1
  O  O47  1  0.20243047  0.95277764  0.20437688  1
  O  O48  1  0.88075221  0.34055462  0.63368908  1
  O  O49  1  0.45980341  0.11924779  0.63368908  1
  O  O50  1  0.65944538  0.54019659  0.63368908  1
  O  O51  1  0.88075221  0.54019659  0.13368908  1
  O  O52  1  0.65944538  0.11924779  0.13368908  1
  O  O53  1  0.45980341  0.34055462  0.13368908  1
  O  O54  1  0.44991567  0.32120651  0.03283312  1
  O  O55  1  0.87129185  0.55008433  0.03283312  1
  O  O56  1  0.67879349  0.12870815  0.03283312  1
  O  O57  1  0.44991567  0.12870815  0.53283312  1
  O  O58  1  0.67879349  0.55008433  0.53283312  1
  O  O59  1  0.87129185  0.32120651  0.53283312  1
  O  O60  1  0.53815970  0.67618488  0.96301567  1
  O  O61  1  0.13802418  0.46184030  0.96301567  1
  O  O62  1  0.32381512  0.86197582  0.96301567  1
  O  O63  1  0.53815970  0.86197582  0.46301567  1
  O  O64  1  0.32381512  0.46184030  0.46301567  1
  O  O65  1  0.13802418  0.67618488  0.46301567  1
  O  O66  1  0.14998006  0.65861998  0.36289637  1
  O  O67  1  0.50863892  0.85001994  0.36289637  1
  O  O68  1  0.34138002  0.49136108  0.36289637  1
  O  O69  1  0.14998006  0.49136108  0.86289637  1
  O  O70  1  0.34138002  0.85001994  0.86289637  1
  O  O71  1  0.50863892  0.65861998  0.86289637  1
  O  O72  1  0.02858973  0.81455217  0.40659235  1
  O  O73  1  0.78596244  0.97141027  0.40659235  1
  O  O74  1  0.18544783  0.21403756  0.40659235  1
  O  O75  1  0.02858973  0.21403756  0.90659235  1
  O  O76  1  0.18544783  0.97141027  0.90659235  1
  O  O77  1  0.78596244  0.81455217  0.90659235  1
  O  O78  1  0.98416794  0.17614748  0.58561328  1
  O  O79  1  0.19197954  0.01583206  0.58561328  1
  O  O80  1  0.82385252  0.80802046  0.58561328  1
  O  O81  1  0.98416794  0.80802046  0.08561328  1
  O  O82  1  0.82385252  0.01583206  0.08561328  1
  O  O83  1  0.19197954  0.17614748  0.08561328  1
  O  O84  1  0.65655496  0.13410454  0.74962173  1
  O  O85  1  0.47755059  0.34344504  0.74962173  1
  O  O86  1  0.86589546  0.52244941  0.74962173  1
  O  O87  1  0.65655496  0.52244941  0.24962173  1
  O  O88  1  0.86589546  0.34344504  0.24962173  1
  O  O89  1  0.47755059  0.13410454  0.24962173  1
  O  O90  1  0.62335159  0.50489897  0.90948314  1
  O  O91  1  0.88154838  0.37664841  0.90948314  1
  O  O92  1  0.49510103  0.11845162  0.90948314  1
  O  O93  1  0.62335159  0.11845162  0.40948314  1
  O  O94  1  0.49510103  0.37664841  0.40948314  1
  O  O95  1  0.88154838  0.50489897  0.40948314  1
  O  O96  1  0.34577322  0.48418718  0.08197842  1
  O  O97  1  0.13841296  0.65422678  0.08197842  1
  O  O98  1  0.51581282  0.86158704  0.08197842  1
  O  O99  1  0.34577322  0.86158704  0.58197842  1
  O  O100  1  0.51581282  0.65422678  0.58197842  1
  O  O101  1  0.13841296  0.48418718  0.58197842  1
  O  O102  1  0.32038786  0.83207312  0.26532409  1
  O  O103  1  0.51168426  0.67961214  0.26532409  1
  O  O104  1  0.16792688  0.48831574  0.26532409  1
  O  O105  1  0.32038786  0.48831574  0.76532409  1
  O  O106  1  0.16792688  0.67961214  0.76532409  1
  O  O107  1  0.51168426  0.83207312  0.76532409  1
