# generated using pymatgen
data_Sc2SiSn2S5O24
_symmetry_space_group_name_H-M   'P 1'
_cell_length_a   8.84416205
_cell_length_b   8.84359294
_cell_length_c   22.90075404
_cell_angle_alpha   89.72001530
_cell_angle_beta   89.97151461
_cell_angle_gamma   120.16001150
_symmetry_Int_Tables_number   1
_chemical_formula_structural   Sc2SiSn2S5O24
_chemical_formula_sum   'Sc6 Si3 Sn6 S15 O72'
_cell_volume   1548.65836819
_cell_formula_units_Z   3
loop_
 _symmetry_equiv_pos_site_id
 _symmetry_equiv_pos_as_xyz
  1  'x, y, z'
loop_
 _atom_site_type_symbol
 _atom_site_label
 _atom_site_symmetry_multiplicity
 _atom_site_fract_x
 _atom_site_fract_y
 _atom_site_fract_z
 _atom_site_occupancy
  Sc  Sc0  1  0.98911050  0.99960995  0.35891284  1
  Sc  Sc1  1  0.00152509  0.00171181  0.85585750  1
  Sc  Sc2  1  0.68098418  0.33677025  0.68581995  1
  Sc  Sc3  1  0.65572510  0.33530610  0.18532797  1
  Sc  Sc4  1  0.65361547  0.33035572  0.98144029  1
  Sc  Sc5  1  0.33183337  0.66490552  0.81099573  1
  Si  Si6  1  0.96194726  0.33656302  0.58353393  1
  Si  Si7  1  0.37377372  0.33363364  0.08336415  1
  Si  Si8  1  0.61810861  0.95490028  0.41760544  1
  Sn  Sn9  1  0.99916869  0.00474837  0.64550896  1
  Sn  Sn10  1  0.00523319  0.00471163  0.14637116  1
  Sn  Sn11  1  0.67166417  0.32297741  0.47944487  1
  Sn  Sn12  1  0.33338278  0.66233186  0.02102290  1
  Sn  Sn13  1  0.33458797  0.66653231  0.52104506  1
  Sn  Sn14  1  0.33769028  0.67248902  0.31406846  1
  S  S15  1  0.28890121  0.99794247  0.25129956  1
  S  S16  1  0.71118057  0.71056348  0.25022021  1
  S  S17  1  0.00102029  0.29370261  0.25130992  1
  S  S18  1  0.29161367  0.28955038  0.75057624  1
  S  S19  1  -0.00061389  0.71280866  0.75025829  1
  S  S20  1  0.71029391  -0.00055607  0.75092053  1
  S  S21  1  0.37530093  0.04294553  0.58447279  1
  S  S22  1  0.66707857  0.62169076  0.58348036  1
  S  S23  1  0.95698834  0.62443156  0.08329775  1
  S  S24  1  0.66646559  0.04244641  0.08345314  1
  S  S25  1  0.62308190  0.66700897  0.91578222  1
  S  S26  1  0.04164493  0.37703892  0.91610363  1
  S  S27  1  0.33412780  0.95424430  0.91638507  1
  S  S28  1  0.33595074  0.37587633  0.41715943  1
  S  S29  1  0.04199911  0.66662598  0.41639627  1
  O  O30  1  0.20730612  0.02540273  0.30244400  1
  O  O31  1  0.82050209  0.79336170  0.30134381  1
  O  O32  1  0.97517676  0.18347927  0.30259412  1
  O  O33  1  0.20556575  0.17727053  0.80241596  1
  O  O34  1  0.97283035  0.79686626  0.80182364  1
  O  O35  1  0.82255159  0.02793454  0.80229080  1
  O  O36  1  0.78532304  0.96251607  0.69765473  1
  O  O37  1  0.17919111  0.21263275  0.69745938  1
  O  O38  1  0.03445839  0.82449678  0.69598811  1
  O  O39  1  0.78748129  0.82264553  0.19589911  1
  O  O40  1  0.03696422  0.21882574  0.19773198  1
  O  O41  1  0.17861190  0.96299470  0.19741344  1
  O  O42  1  0.87082644  0.36745352  0.64015831  1
  O  O43  1  0.48338265  0.12341753  0.63602113  1
  O  O44  1  0.63594219  0.51280157  0.63564039  1
  O  O45  1  0.88283846  0.51605076  0.13597745  1
  O  O46  1  0.63801437  0.11941332  0.13600068  1
  O  O47  1  0.49652154  0.36592465  0.14003442  1
  O  O48  1  0.46387641  0.30089010  0.02662146  1
  O  O49  1  0.85187018  0.54713692  0.03061907  1
  O  O50  1  0.70065366  0.15056425  0.03068936  1
  O  O51  1  0.44543652  0.15241330  0.53062783  1
  O  O52  1  0.69717910  0.54668494  0.52934541  1
  O  O53  1  0.84041109  0.29942135  0.52626841  1
  O  O54  1  0.54801321  0.70388223  0.96894181  1
  O  O55  1  0.15407240  0.45384894  0.96918903  1
  O  O56  1  0.29895051  0.84255260  0.97056680  1
  O  O57  1  0.53388200  0.83052662  0.47533020  1
  O  O58  1  0.29953017  0.45125607  0.46927699  1
  O  O59  1  0.15124763  0.69772832  0.46887424  1
  O  O60  1  0.11529001  0.62697073  0.36333519  1
  O  O61  1  0.49925753  0.87223971  0.35877829  1
  O  O62  1  0.36865167  0.48556858  0.36322865  1
  O  O63  1  0.12771607  0.48934752  0.86425469  1
  O  O64  1  0.36056879  0.86997701  0.86481558  1
  O  O65  1  0.51086554  0.63866591  0.86434035  1
  O  O66  1  0.02890530  0.82253127  0.40745511  1
  O  O67  1  0.80742640  0.97352511  0.40725406  1
  O  O68  1  0.18354534  0.20368897  0.40815751  1
  O  O69  1  0.02685534  0.20418324  0.90767679  1
  O  O70  1  0.17763461  0.97138941  0.90853317  1
  O  O71  1  0.79721526  0.82389338  0.90726423  1
  O  O72  1  0.97974409  0.16250955  0.59186444  1
  O  O73  1  0.19742691  0.02002460  0.59182501  1
  O  O74  1  0.82631701  0.79720021  0.59095282  1
  O  O75  1  0.97310835  0.79945081  0.09139959  1
  O  O76  1  0.82113256  0.01861452  0.09149633  1
  O  O77  1  0.18122871  0.15886537  0.09137928  1
  O  O78  1  0.69090301  0.15269290  0.74256927  1
  O  O79  1  0.46281976  0.30748351  0.74173433  1
  O  O80  1  0.84314947  0.54151262  0.74278554  1
  O  O81  1  0.69517570  0.53942818  0.24213196  1
  O  O82  1  0.84923528  0.31335643  0.24155635  1
  O  O83  1  0.46336819  0.14949173  0.24202299  1
  O  O84  1  0.64251480  0.51375854  0.92411785  1
  O  O85  1  0.87048896  0.35915285  0.92495644  1
  O  O86  1  0.49029197  0.12549235  0.92396919  1
  O  O87  1  0.63507755  0.14579350  0.42276209  1
  O  O88  1  0.49593854  0.36411670  0.42569724  1
  O  O89  1  0.86527562  0.51217916  0.42360191  1
  O  O90  1  0.35572007  0.50751408  0.07530806  1
  O  O91  1  0.13573991  0.64861216  0.07530351  1
  O  O92  1  0.50708087  0.86718092  0.07528936  1
  O  O93  1  0.35804719  0.86942677  0.57677993  1
  O  O94  1  0.51175479  0.64168606  0.57699320  1
  O  O95  1  0.15437579  0.50985033  0.57431212  1
  O  O96  1  0.30331158  0.83614153  0.25626627  1
  O  O97  1  0.53314168  0.68990820  0.25596627  1
  O  O98  1  0.16334409  0.47170476  0.25886717  1
  O  O99  1  0.30640568  0.46242003  0.75895095  1
  O  O100  1  0.15571432  0.69546753  0.75803915  1
  O  O101  1  0.53624054  0.84272249  0.75933113  1
