# generated using pymatgen
data_Ti3(BiO3)4
_symmetry_space_group_name_H-M   'P 1'
_cell_length_a   16.70806185
_cell_length_b   16.70806185
_cell_length_c   5.42117964
_cell_angle_alpha   90.00000000
_cell_angle_beta   90.00000000
_cell_angle_gamma   161.17610497
_symmetry_Int_Tables_number   1
_chemical_formula_structural   Ti3(BiO3)4
_chemical_formula_sum   'Ti6 Bi8 O24'
_cell_volume   488.30559653
_cell_formula_units_Z   2
loop_
 _symmetry_equiv_pos_site_id
 _symmetry_equiv_pos_as_xyz
  1  'x, y, z'
loop_
 _atom_site_type_symbol
 _atom_site_label
 _atom_site_symmetry_multiplicity
 _atom_site_fract_x
 _atom_site_fract_y
 _atom_site_fract_z
 _atom_site_occupancy
  Ti  Ti0  1  0.82598864  0.08090172  0.49752172  1
  Ti  Ti1  1  0.08090172  0.82598864  0.50247828  1
  Ti  Ti2  1  0.32598864  0.58090172  0.00247828  1
  Ti  Ti3  1  0.58090172  0.32598864  0.99752172  1
  Ti  Ti4  1  0.95921199  0.95921199  0.50000000  1
  Ti  Ti5  1  0.45921199  0.45921199  0.00000000  1
  Bi  Bi6  1  0.81502945  0.23778186  0.97762707  1
  Bi  Bi7  1  0.23778186  0.81502945  0.02237293  1
  Bi  Bi8  1  0.31502945  0.73778186  0.52237293  1
  Bi  Bi9  1  0.73778186  0.31502945  0.47762707  1
  Bi  Bi10  1  0.93570450  0.06774461  0.99805459  1
  Bi  Bi11  1  0.06774461  0.93570450  0.00194541  1
  Bi  Bi12  1  0.43570450  0.56774461  0.50194541  1
  Bi  Bi13  1  0.56774461  0.43570450  0.49805459  1
  O  O14  1  0.51768435  0.76502217  0.29795070  1
  O  O15  1  0.76502217  0.51768435  0.70204930  1
  O  O16  1  0.01768435  0.26502217  0.20204930  1
  O  O17  1  0.26502217  0.01768435  0.79795070  1
  O  O18  1  0.60021465  0.81914880  0.77554962  1
  O  O19  1  0.81914880  0.60021465  0.22445038  1
  O  O20  1  0.10021465  0.31914880  0.72445038  1
  O  O21  1  0.31914880  0.10021465  0.27554962  1
  O  O22  1  0.76780254  0.12817895  0.55979730  1
  O  O23  1  0.12817895  0.76780254  0.44020270  1
  O  O24  1  0.26780254  0.62817895  0.94020270  1
  O  O25  1  0.62817895  0.26780254  0.05979730  1
  O  O26  1  0.85334796  0.97031684  0.42737624  1
  O  O27  1  0.97031684  0.85334796  0.57262376  1
  O  O28  1  0.18766963  0.16832113  0.24577525  1
  O  O29  1  0.16832113  0.18766963  0.75422475  1
  O  O30  1  0.68766963  0.66832113  0.25422475  1
  O  O31  1  0.66832113  0.68766963  0.74577525  1
  O  O32  1  0.00352500  0.50260720  0.24105122  1
  O  O33  1  0.50260720  0.00352500  0.75894878  1
  O  O34  1  0.50352500  0.00260720  0.25894878  1
  O  O35  1  0.00260720  0.50352500  0.74105122  1
  O  O36  1  0.47031684  0.35334796  0.92737624  1
  O  O37  1  0.35334796  0.47031684  0.07262376  1
