# generated using pymatgen
data_MgScMo3O8
_symmetry_space_group_name_H-M   'P 1'
_cell_length_a   6.14097142
_cell_length_b   6.19890101
_cell_length_c   5.17368756
_cell_angle_alpha   90.09890990
_cell_angle_beta   89.15264553
_cell_angle_gamma   119.21009739
_symmetry_Int_Tables_number   1
_chemical_formula_structural   MgScMo3O8
_chemical_formula_sum   'Mg1 Sc1 Mo3 O8'
_cell_volume   171.88127969
_cell_formula_units_Z   1
loop_
 _symmetry_equiv_pos_site_id
 _symmetry_equiv_pos_as_xyz
  1  'x, y, z'
loop_
 _atom_site_type_symbol
 _atom_site_label
 _atom_site_symmetry_multiplicity
 _atom_site_fract_x
 _atom_site_fract_y
 _atom_site_fract_z
 _atom_site_occupancy
  Mg  Mg0  1  0.33449400  0.66745400  0.25242700  1
  Sc  Sc1  1  0.32974700  0.66476900  0.75222000  1
  Mo  Mo2  1  0.83334900  0.66718000  0.25263200  1
  Mo  Mo3  1  0.83368900  0.16666700  0.25360300  1
  Mo  Mo4  1  0.33365900  0.16693800  0.25312400  1
  O  O5  1  0.49911800  0.98063100  0.47238500  1
  O  O6  1  0.68424300  0.34419100  0.05861500  1
  O  O7  1  0.65457800  0.81950500  0.03222600  1
  O  O8  1  0.17772600  0.82114100  0.02824400  1
  O  O9  1  0.01413400  0.51501300  0.47448700  1
  O  O10  1  0.98340000  0.98947800  0.44854600  1
  O  O11  1  0.16802100  0.35336600  0.03335900  1
  O  O12  1  0.48925400  0.51241200  0.47724200  1
