# generated using pymatgen
data_Na8HfZn3Si3(SO8)3
_symmetry_space_group_name_H-M   'P 1'
_cell_length_a   9.16551276
_cell_length_b   9.18683978
_cell_length_c   22.32825725
_cell_angle_alpha   89.00157829
_cell_angle_beta   90.33500373
_cell_angle_gamma   119.22125040
_symmetry_Int_Tables_number   1
_chemical_formula_structural   Na8HfZn3Si3(SO8)3
_chemical_formula_sum   'Na24 Hf3 Zn9 Si9 S9 O72'
_cell_volume   1640.57161496
_cell_formula_units_Z   3
loop_
 _symmetry_equiv_pos_site_id
 _symmetry_equiv_pos_as_xyz
  1  'x, y, z'
loop_
 _atom_site_type_symbol
 _atom_site_label
 _atom_site_symmetry_multiplicity
 _atom_site_fract_x
 _atom_site_fract_y
 _atom_site_fract_z
 _atom_site_occupancy
  Na  Na0  1  0.62913196  0.99619810  0.25709925  1
  Na  Na1  1  0.37008597  0.36881646  0.24535055  1
  Na  Na2  1  0.00201536  0.62677972  0.25144499  1
  Na  Na3  1  0.64469822  0.64410479  0.73532886  1
  Na  Na4  1  0.97999385  0.34597305  0.75011572  1
  Na  Na5  1  0.38826918  0.01708979  0.74056814  1
  Na  Na6  1  0.31150965  0.33530333  0.58361634  1
  Na  Na7  1  0.04215077  0.71571614  0.57562401  1
  Na  Na8  1  0.65293135  0.94635278  0.58428641  1
  Na  Na9  1  0.28440425  0.95631111  0.07741528  1
  Na  Na10  1  0.66222732  0.68806501  0.08533477  1
  Na  Na11  1  0.05271063  0.34902221  0.08170151  1
  Na  Na12  1  0.98790792  0.67760411  0.91980502  1
  Na  Na13  1  0.71077623  0.04122183  0.90768164  1
  Na  Na14  1  0.30838241  0.28298868  0.92120753  1
  Na  Na15  1  0.96523602  0.29994625  0.41298552  1
  Na  Na16  1  0.32538147  0.00988666  0.42098091  1
  Na  Na17  1  0.71210319  0.68847425  0.42332452  1
  Na  Na18  1  0.99093171  0.98021948  0.50178340  1
  Na  Na19  1  0.01912012  0.01019797  0.00042507  1
  Na  Na20  1  0.66923287  0.31447562  0.82923761  1
  Na  Na21  1  0.67785280  0.33255113  0.33631944  1
  Na  Na22  1  0.32203719  0.65384106  0.16011479  1
  Na  Na23  1  0.35418957  0.68338500  0.65524436  1
  Hf  Hf24  1  0.66508828  0.33399235  0.98341430  1
  Hf  Hf25  1  0.66285707  0.33311145  0.48353659  1
  Hf  Hf26  1  0.33534281  0.67912089  0.81761017  1
  Zn  Zn27  1  0.98561159  0.98271154  0.35459695  1
  Zn  Zn28  1  0.00467023  0.02246488  0.85088768  1
  Zn  Zn29  1  0.97759694  0.97580826  0.64404448  1
  Zn  Zn30  1  0.01693608  0.99940161  0.14401586  1
  Zn  Zn31  1  0.65133380  0.31656619  0.67319400  1
  Zn  Zn32  1  0.67016732  0.35301959  0.16923665  1
  Zn  Zn33  1  0.29416473  0.64753223  0.01715835  1
  Zn  Zn34  1  0.35430101  0.70804310  0.51558300  1
  Zn  Zn35  1  0.33060649  0.68746239  0.33729293  1
  Si  Si36  1  0.70930150  0.00241703  0.75002531  1
  Si  Si37  1  0.36172305  0.03458630  0.58666329  1
  Si  Si38  1  0.66080627  0.62416583  0.58570449  1
  Si  Si39  1  0.96251592  0.63130104  0.08644630  1
  Si  Si40  1  0.36842915  0.33825629  0.08538708  1
  Si  Si41  1  0.03596120  0.36780273  0.91748069  1
  Si  Si42  1  0.33148298  0.96522968  0.91918298  1
  Si  Si43  1  0.63649561  0.96921248  0.41455860  1
  Si  Si44  1  0.03594047  0.66186103  0.41592488  1
  S  S45  1  0.29687069  0.00149421  0.24983497  1
  S  S46  1  0.70324451  0.70472757  0.24935668  1
  S  S47  1  0.99948937  0.29009352  0.24890273  1
  S  S48  1  0.29651043  0.29957988  0.75151289  1
  S  S49  1  0.00244045  0.70623412  0.75225159  1
  S  S50  1  0.96284571  0.33501808  0.58467784  1
  S  S51  1  0.66747568  0.03966225  0.08599910  1
  S  S52  1  0.62493195  0.66510816  0.91849533  1
  S  S53  1  0.33318698  0.37261978  0.41557881  1
  O  O54  1  0.21684043  0.02647279  0.30354147  1
  O  O55  1  0.80665903  0.78522327  0.30317030  1
  O  O56  1  0.98251885  0.18910249  0.30417868  1
  O  O57  1  0.21972829  0.19448342  0.80587277  1
  O  O58  1  0.98077310  0.78311775  0.80640895  1
  O  O59  1  0.81528226  0.02506672  0.81153079  1
  O  O60  1  0.79118433  0.96488180  0.69179809  1
  O  O61  1  0.19574474  0.22818265  0.69790793  1
  O  O62  1  0.03530936  0.81033998  0.69801485  1
  O  O63  1  0.78262380  0.80905362  0.19482522  1
  O  O64  1  0.01758319  0.20759746  0.19469896  1
  O  O65  1  0.19339619  0.98057203  0.19552531  1
  O  O66  1  0.88676125  0.36168901  0.63890712  1
  O  O67  1  0.48008331  0.10731278  0.64528568  1
  O  O68  1  0.64246349  0.51578369  0.64708621  1
  O  O69  1  0.88805240  0.51090600  0.14565208  1
  O  O70  1  0.63888950  0.11606157  0.13933952  1
  O  O71  1  0.47531128  0.36069936  0.14663947  1
  O  O72  1  0.46438207  0.30449953  0.02756983  1
  O  O73  1  0.83920852  0.53221909  0.02757079  1
  O  O74  1  0.69112750  0.15080552  0.03117298  1
  O  O75  1  0.46173786  0.15663698  0.52738800  1
  O  O76  1  0.68920270  0.52849995  0.52766358  1
  O  O77  1  0.85100772  0.31208619  0.53099111  1
  O  O78  1  0.54908095  0.69093764  0.97118654  1
  O  O79  1  0.15389128  0.44419441  0.97504399  1
  O  O80  1  0.30829035  0.85132199  0.97783235  1
  O  O81  1  0.55978330  0.84483810  0.47191271  1
  O  O82  1  0.30654384  0.44713157  0.46866697  1
  O  O83  1  0.15241788  0.68895168  0.47419602  1
  O  O84  1  0.10136680  0.61326614  0.35445154  1
  O  O85  1  0.52449552  0.89604853  0.35335729  1
  O  O86  1  0.36477877  0.47753566  0.36009596  1
  O  O87  1  0.12952078  0.49121443  0.85798309  1
  O  O88  1  0.36672566  0.87517432  0.86015547  1
  O  O89  1  0.51714691  0.63938536  0.86383461  1
  O  O90  1  0.02465732  0.83535846  0.41043941  1
  O  O91  1  0.82890410  0.00188615  0.41004299  1
  O  O92  1  0.18921163  0.20213820  0.40846292  1
  O  O93  1  0.00822339  0.17872453  0.91405445  1
  O  O94  1  0.16109086  0.97793830  0.90889814  1
  O  O95  1  0.79557957  0.80573185  0.90953641  1
  O  O96  1  0.97473421  0.18043265  0.58712505  1
  O  O97  1  0.18161670  0.03353397  0.58945363  1
  O  O98  1  0.82959409  0.80852416  0.58265272  1
  O  O99  1  0.96313088  0.81084139  0.08694853  1
  O  O100  1  0.82350148  0.02954924  0.08870201  1
  O  O101  1  0.18228052  0.17085613  0.08600354  1
  O  O102  1  0.68654323  0.17083284  0.74661702  1
  O  O103  1  0.46927407  0.32368552  0.74855281  1
  O  O104  1  0.85661919  0.53600196  0.74723636  1
  O  O105  1  0.68982076  0.53512268  0.24725774  1
  O  O106  1  0.84403032  0.30653286  0.24665393  1
  O  O107  1  0.46805101  0.15078744  0.24497787  1
  O  O108  1  0.63550716  0.50578040  0.92131685  1
  O  O109  1  0.84985304  0.35934181  0.92163214  1
  O  O110  1  0.50248205  0.15318133  0.92140923  1
  O  O111  1  0.64565788  0.15419777  0.42256874  1
  O  O112  1  0.49058737  0.35585713  0.42115441  1
  O  O113  1  0.84297428  0.49712197  0.42239870  1
  O  O114  1  0.36507790  0.51430502  0.07866787  1
  O  O115  1  0.15223614  0.65932198  0.08338414  1
  O  O116  1  0.52155062  0.87387419  0.07798450  1
  O  O117  1  0.33771195  0.84669812  0.58199652  1
  O  O118  1  0.48624777  0.63175753  0.57972168  1
  O  O119  1  0.12897891  0.48169417  0.57644129  1
  O  O120  1  0.31239748  0.84656412  0.25319940  1
  O  O121  1  0.53126379  0.68383888  0.25398629  1
  O  O122  1  0.15165906  0.45875826  0.25137441  1
  O  O123  1  0.31158372  0.47152737  0.75863290  1
  O  O124  1  0.15949579  0.68600286  0.75721195  1
  O  O125  1  0.51635025  0.82727624  0.75629704  1
