# generated using pymatgen
data_RbPaF6
_symmetry_space_group_name_H-M   'P 1'
_cell_length_a   7.01395573
_cell_length_b   6.99012364
_cell_length_c   6.99012428
_cell_angle_alpha   110.61542702
_cell_angle_beta   90.00000000
_cell_angle_gamma   90.00000000
_symmetry_Int_Tables_number   1
_chemical_formula_structural   RbPaF6
_chemical_formula_sum   'Rb2 Pa2 F12'
_cell_volume   320.76891555
_cell_formula_units_Z   2
loop_
 _symmetry_equiv_pos_site_id
 _symmetry_equiv_pos_as_xyz
  1  'x, y, z'
loop_
 _atom_site_type_symbol
 _atom_site_label
 _atom_site_symmetry_multiplicity
 _atom_site_fract_x
 _atom_site_fract_y
 _atom_site_fract_z
 _atom_site_occupancy
  Rb  Rb0  1  0.50755367  0.25000000  0.75000000  1
  Rb  Rb1  1  0.49244633  0.75000000  0.25000000  1
  Pa  Pa2  1  0.00000000  0.50000000  0.00000000  1
  Pa  Pa3  1  0.00000000  -0.00000000  0.50000000  1
  F  F4  1  0.75673844  0.40333809  0.12144398  1
  F  F5  1  0.75673844  0.09666191  0.37855602  1
  F  F6  1  0.24326156  0.12144398  0.40333809  1
  F  F7  1  0.24326156  0.37855602  0.09666191  1
  F  F8  1  0.98206833  0.35273303  0.64726697  1
  F  F9  1  0.98206833  0.14726697  0.85273303  1
  F  F10  1  0.01793167  0.64726697  0.35273303  1
  F  F11  1  0.01793167  0.85273303  0.14726697  1
  F  F12  1  0.75673844  0.62144398  0.90333809  1
  F  F13  1  0.75673844  0.87855602  0.59666191  1
  F  F14  1  0.24326156  0.90333809  0.62144398  1
  F  F15  1  0.24326156  0.59666191  0.87855602  1
