# generated using pymatgen
data_Rb4PbO3
_symmetry_space_group_name_H-M   'P 1'
_cell_length_a   6.81432257
_cell_length_b   11.91988299
_cell_length_c   19.74349593
_cell_angle_alpha   90.00000000
_cell_angle_beta   90.00000000
_cell_angle_gamma   90.00000000
_symmetry_Int_Tables_number   1
_chemical_formula_structural   Rb4PbO3
_chemical_formula_sum   'Rb32 Pb8 O24'
_cell_volume   1603.68377277
_cell_formula_units_Z   8
loop_
 _symmetry_equiv_pos_site_id
 _symmetry_equiv_pos_as_xyz
  1  'x, y, z'
loop_
 _atom_site_type_symbol
 _atom_site_label
 _atom_site_symmetry_multiplicity
 _atom_site_fract_x
 _atom_site_fract_y
 _atom_site_fract_z
 _atom_site_occupancy
  Rb  Rb0  1  0.95324570  0.38206247  0.20169445  1
  Rb  Rb1  1  0.45324570  0.11793753  0.79830555  1
  Rb  Rb2  1  0.04675430  0.88206247  0.29830555  1
  Rb  Rb3  1  0.54675430  0.61793753  0.70169445  1
  Rb  Rb4  1  0.04675430  0.61793753  0.79830555  1
  Rb  Rb5  1  0.54675430  0.88206247  0.20169445  1
  Rb  Rb6  1  0.95324570  0.11793753  0.70169445  1
  Rb  Rb7  1  0.45324570  0.38206247  0.29830555  1
  Rb  Rb8  1  0.77005699  0.18904642  0.94379035  1
  Rb  Rb9  1  0.27005699  0.31095358  0.05620965  1
  Rb  Rb10  1  0.22994301  0.68904642  0.55620965  1
  Rb  Rb11  1  0.72994301  0.81095358  0.44379035  1
  Rb  Rb12  1  0.22994301  0.81095358  0.05620965  1
  Rb  Rb13  1  0.72994301  0.68904642  0.94379035  1
  Rb  Rb14  1  0.77005699  0.31095358  0.44379035  1
  Rb  Rb15  1  0.27005699  0.18904642  0.55620965  1
  Rb  Rb16  1  0.75132784  0.05747033  0.53517557  1
  Rb  Rb17  1  0.25132784  0.44252967  0.46482443  1
  Rb  Rb18  1  0.24867216  0.55747033  0.96482443  1
  Rb  Rb19  1  0.74867216  0.94252967  0.03517557  1
  Rb  Rb20  1  0.24867216  0.94252967  0.46482443  1
  Rb  Rb21  1  0.74867216  0.55747033  0.53517557  1
  Rb  Rb22  1  0.75132784  0.44252967  0.03517557  1
  Rb  Rb23  1  0.25132784  0.05747033  0.96482443  1
  Rb  Rb24  1  0.62681846  0.17200249  0.15274114  1
  Rb  Rb25  1  0.12681846  0.32799751  0.84725886  1
  Rb  Rb26  1  0.37318154  0.67200249  0.34725886  1
  Rb  Rb27  1  0.87318154  0.82799751  0.65274114  1
  Rb  Rb28  1  0.37318154  0.82799751  0.84725886  1
  Rb  Rb29  1  0.87318154  0.67200249  0.15274114  1
  Rb  Rb30  1  0.62681846  0.32799751  0.65274114  1
  Rb  Rb31  1  0.12681846  0.17200249  0.34725886  1
  Pb  Pb32  1  0.61136017  0.06504057  0.34742726  1
  Pb  Pb33  1  0.11136017  0.43495943  0.65257274  1
  Pb  Pb34  1  0.38863983  0.56504057  0.15257274  1
  Pb  Pb35  1  0.88863983  0.93495943  0.84742726  1
  Pb  Pb36  1  0.38863983  0.93495943  0.65257274  1
  Pb  Pb37  1  0.88863983  0.56504057  0.34742726  1
  Pb  Pb38  1  0.61136017  0.43495943  0.84742726  1
  Pb  Pb39  1  0.11136017  0.06504057  0.15257274  1
  O  O40  1  0.95633333  0.35495456  0.56814873  1
  O  O41  1  0.45633333  0.14504544  0.43185127  1
  O  O42  1  0.04366667  0.85495456  0.93185127  1
  O  O43  1  0.54366667  0.64504544  0.06814873  1
  O  O44  1  0.04366667  0.64504544  0.43185127  1
  O  O45  1  0.54366667  0.85495456  0.56814873  1
  O  O46  1  0.95633333  0.14504544  0.06814873  1
  O  O47  1  0.45633333  0.35495456  0.93185127  1
  O  O48  1  0.53669762  0.40149564  0.15760448  1
  O  O49  1  0.03669762  0.09850436  0.84239552  1
  O  O50  1  0.46330238  0.90149564  0.34239552  1
  O  O51  1  0.96330238  0.59850436  0.65760448  1
  O  O52  1  0.46330238  0.59850436  0.84239552  1
  O  O53  1  0.96330238  0.90149564  0.15760448  1
  O  O54  1  0.53669762  0.09850436  0.65760448  1
  O  O55  1  0.03669762  0.40149564  0.34239552  1
  O  O56  1  0.87800428  0.48426542  0.90035183  1
  O  O57  1  0.37800428  0.01573458  0.09964817  1
  O  O58  1  0.12199572  0.98426542  0.59964817  1
  O  O59  1  0.62199572  0.51573458  0.40035183  1
  O  O60  1  0.12199572  0.51573458  0.09964817  1
  O  O61  1  0.62199572  0.98426542  0.90035183  1
  O  O62  1  0.87800428  0.01573458  0.40035183  1
  O  O63  1  0.37800428  0.48426542  0.59964817  1
