# generated using pymatgen
data_TaClF8
_symmetry_space_group_name_H-M   'P 1'
_cell_length_a   5.80553271
_cell_length_b   9.80181926
_cell_length_c   10.45814511
_cell_angle_alpha   90.00000000
_cell_angle_beta   90.00000000
_cell_angle_gamma   90.00000000
_symmetry_Int_Tables_number   1
_chemical_formula_structural   TaClF8
_chemical_formula_sum   'Ta4 Cl4 F32'
_cell_volume   595.11847108
_cell_formula_units_Z   4
loop_
 _symmetry_equiv_pos_site_id
 _symmetry_equiv_pos_as_xyz
  1  'x, y, z'
loop_
 _atom_site_type_symbol
 _atom_site_label
 _atom_site_symmetry_multiplicity
 _atom_site_fract_x
 _atom_site_fract_y
 _atom_site_fract_z
 _atom_site_occupancy
  Ta  Ta0  1  0.39332302  0.50000000  0.75000000  1
  Ta  Ta1  1  0.60667698  0.00000000  0.75000000  1
  Ta  Ta2  1  0.60667698  0.50000000  0.25000000  1
  Ta  Ta3  1  0.39332302  0.00000000  0.25000000  1
  Cl  Cl4  1  0.00000000  0.75000000  0.53725652  1
  Cl  Cl5  1  0.00000000  0.25000000  0.96274348  1
  Cl  Cl6  1  0.00000000  0.25000000  0.46274348  1
  Cl  Cl7  1  0.00000000  0.75000000  0.03725652  1
  F  F8  1  0.11034286  0.35134842  0.06619622  1
  F  F9  1  0.11034286  0.64865158  0.43380378  1
  F  F10  1  0.88965714  0.85134842  0.43380378  1
  F  F11  1  0.88965714  0.14865158  0.06619622  1
  F  F12  1  0.88965714  0.64865158  0.93380378  1
  F  F13  1  0.88965714  0.35134842  0.56619622  1
  F  F14  1  0.11034286  0.14865158  0.56619622  1
  F  F15  1  0.11034286  0.85134842  0.93380378  1
  F  F16  1  0.61516261  0.87932886  0.18685113  1
  F  F17  1  0.61516261  0.12067114  0.31314887  1
  F  F18  1  0.38483739  0.37932886  0.31314887  1
  F  F19  1  0.38483739  0.62067114  0.18685113  1
  F  F20  1  0.38483739  0.12067114  0.81314887  1
  F  F21  1  0.38483739  0.87932886  0.68685113  1
  F  F22  1  0.61516261  0.62067114  0.68685113  1
  F  F23  1  0.61516261  0.37932886  0.81314887  1
  F  F24  1  0.14145992  0.88371915  0.18225617  1
  F  F25  1  0.14145992  0.11628085  0.31774383  1
  F  F26  1  0.85854008  0.38371915  0.31774383  1
  F  F27  1  0.85854008  0.61628085  0.18225617  1
  F  F28  1  0.85854008  0.11628085  0.81774383  1
  F  F29  1  0.85854008  0.88371915  0.68225617  1
  F  F30  1  0.14145992  0.61628085  0.68225617  1
  F  F31  1  0.14145992  0.38371915  0.81774383  1
  F  F32  1  0.36666497  0.09818587  0.09462403  1
  F  F33  1  0.36666497  0.90181413  0.40537597  1
  F  F34  1  0.63333503  0.59818587  0.40537597  1
  F  F35  1  0.63333503  0.40181413  0.09462403  1
  F  F36  1  0.63333503  0.90181413  0.90537597  1
  F  F37  1  0.63333503  0.09818587  0.59462403  1
  F  F38  1  0.36666497  0.40181413  0.59462403  1
  F  F39  1  0.36666497  0.59818587  0.90537597  1
