# generated using pymatgen
data_Na14Al4Si9Ge4(SO16)3
_symmetry_space_group_name_H-M   'P 1'
_cell_length_a   17.55222114
_cell_length_b   8.76418499
_cell_length_c   21.55691479
_cell_angle_alpha   90.07465792
_cell_angle_beta   89.36388051
_cell_angle_gamma   120.01293575
_symmetry_Int_Tables_number   1
_chemical_formula_structural   Na14Al4Si9Ge4(SO16)3
_chemical_formula_sum   'Na42 Al12 Si27 Ge12 S9 O144'
_cell_volume   2871.25808348
_cell_formula_units_Z   3
loop_
 _symmetry_equiv_pos_site_id
 _symmetry_equiv_pos_as_xyz
  1  'x, y, z'
loop_
 _atom_site_type_symbol
 _atom_site_label
 _atom_site_symmetry_multiplicity
 _atom_site_fract_x
 _atom_site_fract_y
 _atom_site_fract_z
 _atom_site_occupancy
  Na  Na0  1  0.81912487  0.00741004  0.25344310  1
  Na  Na1  1  0.17750492  0.35974898  0.25397833  1
  Na  Na2  1  0.68905410  0.37151830  0.25427357  1
  Na  Na3  1  0.99875955  0.63030276  0.24713063  1
  Na  Na4  1  0.50213746  0.63855868  0.25123848  1
  Na  Na5  1  0.31776250  0.62861180  0.74989083  1
  Na  Na6  1  0.00061115  0.36402926  0.74411956  1
  Na  Na7  1  0.49996409  0.36888915  0.74339710  1
  Na  Na8  1  0.18788803  0.00625599  0.74983574  1
  Na  Na9  1  0.68086135  0.99693918  0.74895619  1
  Na  Na10  1  0.14853308  0.32814132  0.58194530  1
  Na  Na11  1  0.65196700  0.33288167  0.58215949  1
  Na  Na12  1  0.33537717  0.97843972  0.58683413  1
  Na  Na13  1  0.83298199  0.96756216  0.58281468  1
  Na  Na14  1  0.14671130  0.96427580  0.07993643  1
  Na  Na15  1  0.65156756  0.97198430  0.08000008  1
  Na  Na16  1  0.33225325  0.69520438  0.08168420  1
  Na  Na17  1  0.83517384  0.69295710  0.08688971  1
  Na  Na18  1  0.48070811  0.67343598  0.91490993  1
  Na  Na19  1  0.98093981  0.67299441  0.92164196  1
  Na  Na20  1  0.34772943  0.02760235  0.90911526  1
  Na  Na21  1  0.84804673  0.02847158  0.91131755  1
  Na  Na22  1  0.16973380  0.29543579  0.90969050  1
  Na  Na23  1  0.66728996  0.29246742  0.91092085  1
  Na  Na24  1  0.48325230  0.29428419  0.42551780  1
  Na  Na25  1  0.97930779  0.28629787  0.41984819  1
  Na  Na26  1  0.16713319  0.04329083  0.41479668  1
  Na  Na27  1  0.67162554  0.04551435  0.41609835  1
  Na  Na28  1  0.34878170  0.66777337  0.41518429  1
  Na  Na29  1  0.84787045  0.66716610  0.41908226  1
  Na  Na30  1  0.99875754  0.99402893  0.50053379  1
  Na  Na31  1  0.50404514  0.00678019  0.50237814  1
  Na  Na32  1  0.00157372  0.99864624  0.00111448  1
  Na  Na33  1  0.50246975  0.00300826  0.99864195  1
  Na  Na34  1  0.33040088  0.33589996  0.82897176  1
  Na  Na35  1  0.82691461  0.33538714  0.83057256  1
  Na  Na36  1  0.32736450  0.31763556  0.33426513  1
  Na  Na37  1  0.83051755  0.32579140  0.33282475  1
  Na  Na38  1  0.16000994  0.65710123  0.16692870  1
  Na  Na39  1  0.66450081  0.65924709  0.16833435  1
  Na  Na40  1  0.16264557  0.66866240  0.66690125  1
  Na  Na41  1  0.66487412  0.66411615  0.66543957  1
  Al  Al42  1  0.00016334  0.01488002  0.35081646  1
  Al  Al43  1  0.50220997  0.00475298  0.35342821  1
  Al  Al44  1  0.00104766  0.99725008  0.85118443  1
  Al  Al45  1  0.50010938  0.98590748  0.84981448  1
  Al  Al46  1  0.33528715  0.32016856  0.68946988  1
  Al  Al47  1  0.83562582  0.34992442  0.19032515  1
  Al  Al48  1  0.32370209  0.33640692  0.98012035  1
  Al  Al49  1  0.82172840  0.33931778  0.98199568  1
  Al  Al50  1  0.32386184  0.30685670  0.48188936  1
  Al  Al51  1  0.82511642  0.32336581  0.48373013  1
  Al  Al52  1  0.68221911  0.68963230  0.31453280  1
  Al  Al53  1  0.18015616  0.67519665  0.81195580  1
  Si  Si54  1  0.14940355  0.00191851  0.25145546  1
  Si  Si55  1  0.64656569  0.99653904  0.25231520  1
  Si  Si56  1  0.36052209  0.72347354  0.24989613  1
  Si  Si57  1  0.85932695  0.71899075  0.25139754  1
  Si  Si58  1  0.99953207  0.28990953  0.25053066  1
  Si  Si59  1  0.14304109  0.28964420  0.75008874  1
  Si  Si60  1  0.64833232  0.29563627  0.75314517  1
  Si  Si61  1  0.49958344  0.70947140  0.75080048  1
  Si  Si62  1  0.35893134  0.99909936  0.75137689  1
  Si  Si63  1  0.86074622  0.00508390  0.74988635  1
  Si  Si64  1  0.47653510  0.33707853  0.58268383  1
  Si  Si65  1  0.97692086  0.34455541  0.58164401  1
  Si  Si66  1  0.18659967  0.03841691  0.58526465  1
  Si  Si67  1  0.68201775  0.03097882  0.58198140  1
  Si  Si68  1  0.83939146  0.61877172  0.58293192  1
  Si  Si69  1  0.47650327  0.61002308  0.08183210  1
  Si  Si70  1  0.97611332  0.61495717  0.08251791  1
  Si  Si71  1  0.18208957  0.33266459  0.08216620  1
  Si  Si72  1  0.68430786  0.33301692  0.08604911  1
  Si  Si73  1  0.31199673  0.66892796  0.91757644  1
  Si  Si74  1  0.81009038  0.66838246  0.91586759  1
  Si  Si75  1  0.16717420  0.95453777  0.91501157  1
  Si  Si76  1  0.66830546  0.95628456  0.91734925  1
  Si  Si77  1  0.31051789  0.95240517  0.41561172  1
  Si  Si78  1  0.81351166  0.96026507  0.41822748  1
  Si  Si79  1  0.16812207  0.38031004  0.41678646  1
  Si  Si80  1  0.66636641  0.37936779  0.41406026  1
  Ge  Ge81  1  0.99827963  0.01167112  0.64121891  1
  Ge  Ge82  1  0.50977279  0.01912209  0.65219307  1
  Ge  Ge83  1  0.00929826  0.00119949  0.15239195  1
  Ge  Ge84  1  0.50643086  0.98222846  0.14776198  1
  Ge  Ge85  1  0.82525347  0.31372572  0.68152275  1
  Ge  Ge86  1  0.32782947  0.35170754  0.18537397  1
  Ge  Ge87  1  0.16134236  0.66094732  0.01885654  1
  Ge  Ge88  1  0.66451672  0.66259981  0.02028339  1
  Ge  Ge89  1  0.16419917  0.66691433  0.52023616  1
  Ge  Ge90  1  0.67301592  0.65819684  0.52575596  1
  Ge  Ge91  1  0.17773657  0.67605214  0.30774232  1
  Ge  Ge92  1  0.67898647  0.68243310  0.80659546  1
  S  S93  1  0.49665764  0.28098685  0.25020006  1
  S  S94  1  -0.00071646  0.71210755  0.75227198  1
  S  S95  1  0.33511624  0.61669505  0.58176070  1
  S  S96  1  0.33597845  0.05527203  0.08298084  1
  S  S97  1  0.83539461  0.05317488  0.08179087  1
  S  S98  1  0.02216119  0.37805955  0.91606106  1
  S  S99  1  0.52054383  0.37705445  0.91823271  1
  S  S100  1  0.02336037  0.66709926  0.41541327  1
  S  S101  1  0.52291917  0.66727961  0.41603889  1
  O  O102  1  0.10618686  0.04810254  0.31011755  1
  O  O103  1  0.60015994  0.03956036  0.30973490  1
  O  O104  1  0.42251684  0.80855346  0.30886329  1
  O  O105  1  0.92352222  0.81104082  0.30976436  1
  O  O106  1  0.48570416  0.17961878  0.30744639  1
  O  O107  1  0.98060241  0.17315739  0.31259069  1
  O  O108  1  0.10038442  0.16200939  0.81098026  1
  O  O109  1  0.60223540  0.16522165  0.81243241  1
  O  O110  1  0.47963903  0.78564159  0.81382000  1
  O  O111  1  0.98819262  0.79306322  0.81007638  1
  O  O112  1  0.42091696  0.03257264  0.81130175  1
  O  O113  1  0.92058819  0.03916322  0.81082804  1
  O  O114  1  0.40243118  0.95825999  0.68877372  1
  O  O115  1  0.90219726  0.97138558  0.68709407  1
  O  O116  1  0.07897406  0.20439254  0.68898122  1
  O  O117  1  0.58746506  0.22231334  0.69027871  1
  O  O118  1  0.01582408  0.82380199  0.69723780  1
  O  O119  1  0.52573658  0.85222773  0.69355156  1
  O  O120  1  0.40200113  0.83907198  0.18524367  1
  O  O121  1  0.90221487  0.84576693  0.18782350  1
  O  O122  1  0.02665512  0.20164314  0.19239514  1
  O  O123  1  0.51268165  0.19893245  0.19448223  1
  O  O124  1  0.08956834  0.95633026  0.18802810  1
  O  O125  1  0.58358348  0.94538892  0.18899355  1
  O  O126  1  0.43174334  0.36003823  0.64471615  1
  O  O127  1  0.93413706  0.36999134  0.64657287  1
  O  O128  1  0.25017364  0.12444559  0.64456106  1
  O  O129  1  0.74553570  0.10872442  0.64414333  1
  O  O130  1  0.32264905  0.51179298  0.63795114  1
  O  O131  1  0.81412110  0.48355410  0.64234209  1
  O  O132  1  0.43317172  0.49580984  0.14655396  1
  O  O133  1  0.93225936  0.50284530  0.14447768  1
  O  O134  1  0.32173277  0.13871490  0.13878895  1
  O  O135  1  0.82269487  0.13325434  0.13788923  1
  O  O136  1  0.24725963  0.38360395  0.14365703  1
  O  O137  1  0.74743851  0.37025208  0.14498073  1
  O  O138  1  0.22597301  0.28903203  0.02347299  1
  O  O139  1  0.72139069  0.28488235  0.02369590  1
  O  O140  1  0.41279558  0.51843809  0.02391485  1
  O  O141  1  0.91468653  0.52551779  0.02143589  1
  O  O142  1  0.34417773  0.15364413  0.02554642  1
  O  O143  1  0.84177951  0.15262464  0.02469870  1
  O  O144  1  0.22461861  0.15927375  0.52275765  1
  O  O145  1  0.72455934  0.16190226  0.52298584  1
  O  O146  1  0.34197967  0.53051983  0.52455724  1
  O  O147  1  0.84993053  0.53371725  0.51938290  1
  O  O148  1  0.41433315  0.30081910  0.52170792  1
  O  O149  1  0.91475247  0.30726861  0.52279935  1
  O  O150  1  0.26460316  0.70631321  0.97929588  1
  O  O151  1  0.76736216  0.71031846  0.97867378  1
  O  O152  1  0.07781639  0.45403999  0.97265988  1
  O  O153  1  0.57818532  0.45687162  0.97389378  1
  O  O154  1  0.14572470  0.82745519  0.97808261  1
  O  O155  1  0.64596722  0.82515323  0.97907231  1
  O  O156  1  0.26697160  0.82329673  0.47751188  1
  O  O157  1  0.76617601  0.82534982  0.47801354  1
  O  O158  1  0.14630676  0.46862336  0.47772738  1
  O  O159  1  0.64518468  0.46288192  0.47670729  1
  O  O160  1  0.07949511  0.70140741  0.47139928  1
  O  O161  1  0.57764624  0.69788060  0.47062740  1
  O  O162  1  0.06303547  0.63630008  0.35921361  1
  O  O163  1  0.56133399  0.63704127  0.35872601  1
  O  O164  1  0.24227672  0.86477409  0.35771796  1
  O  O165  1  0.75115609  0.88092317  0.35761604  1
  O  O166  1  0.18869242  0.50844397  0.35499703  1
  O  O167  1  0.67847926  0.50367690  0.35394460  1
  O  O168  1  0.06217837  0.48884328  0.86122317  1
  O  O169  1  0.55711670  0.48641766  0.86241937  1
  O  O170  1  0.18187350  0.85703465  0.85579919  1
  O  O171  1  0.68815392  0.86656151  0.85672707  1
  O  O172  1  0.24832743  0.62392082  0.85849601  1
  O  O173  1  0.74088927  0.62002189  0.85906708  1
  O  O174  1  0.01512232  0.82737490  0.41154878  1
  O  O175  1  0.51305942  0.82800930  0.41127999  1
  O  O176  1  0.40775986  0.97074039  0.40826794  1
  O  O177  1  0.90975973  0.97116244  0.41310745  1
  O  O178  1  0.08126498  0.18398333  0.41183171  1
  O  O179  1  0.57789984  0.18047460  0.41044237  1
  O  O180  1  0.01342374  0.19993558  0.91277355  1
  O  O181  1  0.51281156  0.20069075  0.91447709  1
  O  O182  1  0.07969710  0.97806579  0.91162918  1
  O  O183  1  0.58145054  0.97869270  0.91276937  1
  O  O184  1  0.40867826  0.84854713  0.91445077  1
  O  O185  1  0.90790925  0.84392011  0.90861212  1
  O  O186  1  0.48637081  0.15486691  0.58839194  1
  O  O187  1  0.98838790  0.16606877  0.58498064  1
  O  O188  1  0.08936603  0.02143766  0.59298707  1
  O  O189  1  0.58680566  0.02389686  0.59045137  1
  O  O190  1  0.41238550  0.79717021  0.58291598  1
  O  O191  1  0.92272540  0.82034494  0.58969590  1
  O  O192  1  0.48526010  0.81084764  0.08619631  1
  O  O193  1  0.98724863  0.81747666  0.08757809  1
  O  O194  1  0.41412431  0.03280370  0.08610492  1
  O  O195  1  0.91239289  0.02719100  0.08269122  1
  O  O196  1  0.08692472  0.15103287  0.08969016  1
  O  O197  1  0.58409575  0.15292634  0.09361183  1
  O  O198  1  0.34622789  0.17117867  0.74754357  1
  O  O199  1  0.84945286  0.18334162  0.74486916  1
  O  O200  1  0.24157219  0.31577017  0.74043416  1
  O  O201  1  0.74380966  0.30392049  0.74434299  1
  O  O202  1  0.41278375  0.51694666  0.74165156  1
  O  O203  1  0.91975830  0.53433870  0.74960655  1
  O  O204  1  0.35067978  0.52243780  0.24536461  1
  O  O205  1  0.84619338  0.52122640  0.24654356  1
  O  O206  1  0.41675046  0.29881265  0.24622743  1
  O  O207  1  0.91292361  0.30868518  0.24121798  1
  O  O208  1  0.24745782  0.18413128  0.24030460  1
  O  O209  1  0.74323787  0.16821251  0.24085104  1
  O  O210  1  0.32341989  0.49423866  0.92356081  1
  O  O211  1  0.82055181  0.49282383  0.92208229  1
  O  O212  1  0.43122665  0.35394072  0.92700798  1
  O  O213  1  0.93295417  0.35625309  0.92367259  1
  O  O214  1  0.25761191  0.14797570  0.92290155  1
  O  O215  1  0.75848190  0.14962801  0.92439755  1
  O  O216  1  0.32128788  0.14904967  0.42133524  1
  O  O217  1  0.82461063  0.15708307  0.42485589  1
  O  O218  1  0.25805564  0.36692927  0.42351353  1
  O  O219  1  0.75545809  0.36368269  0.41929739  1
  O  O220  1  0.43235156  0.51036522  0.42165646  1
  O  O221  1  0.93521373  0.50841097  0.42088269  1
  O  O222  1  0.17798036  0.51527242  0.07523497  1
  O  O223  1  0.67952138  0.51627464  0.07649942  1
  O  O224  1  0.07902489  0.64967627  0.07699944  1
  O  O225  1  0.57839766  0.64702964  0.07895863  1
  O  O226  1  0.25479091  0.87415702  0.08253585  1
  O  O227  1  0.75260602  0.86994231  0.08097887  1
  O  O228  1  0.18183408  0.84502652  0.57587896  1
  O  O229  1  0.67657357  0.84037114  0.57501177  1
  O  O230  1  0.25263384  0.63395260  0.58075224  1
  O  O231  1  0.74908160  0.63862489  0.58112022  1
  O  O232  1  0.07929847  0.51415548  0.57833502  1
  O  O233  1  0.57781462  0.50552869  0.57734041  1
  O  O234  1  0.15376219  0.82048500  0.25657873  1
  O  O235  1  0.65136157  0.81487877  0.25879806  1
  O  O236  1  0.26036308  0.68959570  0.25071718  1
  O  O237  1  0.76061100  0.69787087  0.25390267  1
  O  O238  1  0.08849975  0.48913255  0.25692672  1
  O  O239  1  0.57534579  0.46159101  0.25304392  1
  O  O240  1  0.14930560  0.48341269  0.75794221  1
  O  O241  1  0.65248442  0.48659756  0.75858168  1
  O  O242  1  0.07844416  0.68975585  0.75710985  1
  O  O243  1  0.58863761  0.68895254  0.75776340  1
  O  O244  1  0.26007514  0.82235687  0.75338043  1
  O  O245  1  0.76051797  0.83459904  0.75167147  1
