# generated using pymatgen
data_MgFe4(CoO4)2
_symmetry_space_group_name_H-M   'P 1'
_cell_length_a   5.96705567
_cell_length_b   6.34438264
_cell_length_c   5.96705690
_cell_angle_alpha   62.30087320
_cell_angle_beta   60.18302239
_cell_angle_gamma   62.30087915
_symmetry_Int_Tables_number   1
_chemical_formula_structural   MgFe4(CoO4)2
_chemical_formula_sum   'Mg1 Fe4 Co2 O8'
_cell_volume   165.30616173
_cell_formula_units_Z   1
loop_
 _symmetry_equiv_pos_site_id
 _symmetry_equiv_pos_as_xyz
  1  'x, y, z'
loop_
 _atom_site_type_symbol
 _atom_site_label
 _atom_site_symmetry_multiplicity
 _atom_site_fract_x
 _atom_site_fract_y
 _atom_site_fract_z
 _atom_site_occupancy
  Mg  Mg0  1  0.12500000  0.62500000  0.12500000  1
  Fe  Fe1  1  0.97452900  0.08564000  0.97452900  1
  Fe  Fe2  1  0.27547100  0.16436000  0.27547100  1
  Fe  Fe3  1  0.12500000  0.62500000  0.62500000  1
  Fe  Fe4  1  0.62500000  0.62500000  0.12500000  1
  Co  Co5  1  0.62500000  0.12500000  0.62500000  1
  Co  Co6  1  0.62500000  0.62500000  0.62500000  1
  O  O7  1  0.36580400  0.39501500  0.36580400  1
  O  O8  1  0.36166100  0.39281100  0.86563900  1
  O  O9  1  0.39356900  0.80894200  0.39356900  1
  O  O10  1  0.86563900  0.39281100  0.36166100  1
  O  O11  1  0.38436100  0.85718900  0.88833900  1
  O  O12  1  0.85643100  0.44105800  0.85643100  1
  O  O13  1  0.88833900  0.85718900  0.38436100  1
  O  O14  1  0.88419600  0.85498500  0.88419600  1
