# generated using pymatgen
data_Fe4As5O13
_symmetry_space_group_name_H-M   'P 1'
_cell_length_a   8.97622929
_cell_length_b   9.06486462
_cell_length_c   9.13601465
_cell_angle_alpha   94.25450254
_cell_angle_beta   116.51337368
_cell_angle_gamma   112.03259441
_symmetry_Int_Tables_number   1
_chemical_formula_structural   Fe4As5O13
_chemical_formula_sum   'Fe8 As10 O26'
_cell_volume   589.87484759
_cell_formula_units_Z   2
loop_
 _symmetry_equiv_pos_site_id
 _symmetry_equiv_pos_as_xyz
  1  'x, y, z'
loop_
 _atom_site_type_symbol
 _atom_site_label
 _atom_site_symmetry_multiplicity
 _atom_site_fract_x
 _atom_site_fract_y
 _atom_site_fract_z
 _atom_site_occupancy
  Fe  Fe0  1  0.00000000  0.50000000  0.00000000  1
  Fe  Fe1  1  0.00000000  0.50000000  0.50000000  1
  Fe  Fe2  1  0.73726850  0.30199469  0.61872669  1
  Fe  Fe3  1  0.26273150  0.69800531  0.38127331  1
  Fe  Fe4  1  0.35090727  0.87923349  0.80626946  1
  Fe  Fe5  1  0.64909273  0.12076651  0.19373054  1
  Fe  Fe6  1  0.46616134  0.72696133  0.10347405  1
  Fe  Fe7  1  0.53383866  0.27303867  0.89652595  1
  As  As8  1  0.89880820  0.70914447  0.69720494  1
  As  As9  1  0.10119180  0.29085553  0.30279506  1
  As  As10  1  0.16453318  0.33455086  0.83530130  1
  As  As11  1  0.83546682  0.66544914  0.16469870  1
  As  As12  1  0.21252760  0.93465460  0.10011447  1
  As  As13  1  0.78747240  0.06534540  0.89988553  1
  As  As14  1  0.52688979  0.40968191  0.25930958  1
  As  As15  1  0.47311021  0.59031809  0.74069042  1
  As  As16  1  0.69916329  0.94693191  0.45822026  1
  As  As17  1  0.30083671  0.05306809  0.54177974  1
  O  O18  1  0.09304187  0.70745767  0.68673452  1
  O  O19  1  0.90695813  0.29254233  0.31326548  1
  O  O20  1  0.62708265  0.09160687  0.95637988  1
  O  O21  1  0.37291735  0.90839313  0.04362012  1
  O  O22  1  0.00137307  0.65092685  0.35324512  1
  O  O23  1  0.99862693  0.34907315  0.64675488  1
  O  O24  1  0.48012140  0.76183183  0.35163193  1
  O  O25  1  0.51987860  0.23816817  0.64836807  1
  O  O26  1  0.26616069  0.56434171  0.55589472  1
  O  O27  1  0.73383931  0.43565829  0.44410528  1
  O  O28  1  0.86642666  0.26098298  0.85593542  1
  O  O29  1  0.13357334  0.73901702  0.14406458  1
  O  O30  1  0.28867335  0.06613645  0.73334616  1
  O  O31  1  0.71132665  0.93386355  0.26665384  1
  O  O32  1  0.13880049  0.46472133  0.22094136  1
  O  O33  1  0.86119951  0.53527867  0.77905864  1
  O  O34  1  0.77361940  0.47555116  0.02517934  1
  O  O35  1  0.22638060  0.52444884  0.97482066  1
  O  O36  1  0.62024732  0.10371971  0.41831256  1
  O  O37  1  0.37975268  0.89628029  0.58168744  1
  O  O38  1  0.37181801  0.41063919  0.80461381  1
  O  O39  1  0.62818199  0.58936081  0.19538619  1
  O  O40  1  0.97951668  0.12336389  0.10980475  1
  O  O41  1  0.51621023  0.25986005  0.11366454  1
  O  O42  1  0.02048332  0.87663611  0.89019525  1
  O  O43  1  0.48378977  0.74013995  0.88633546  1
