# generated using pymatgen
data_Na9NbZn11(SO4)18
_symmetry_space_group_name_H-M   'P 1'
_cell_length_a   8.78255505
_cell_length_b   8.79646554
_cell_length_c   22.54609010
_cell_angle_alpha   90.38326345
_cell_angle_beta   89.73268819
_cell_angle_gamma   120.17323733
_symmetry_Int_Tables_number   1
_chemical_formula_structural   Na9NbZn11(SO4)18
_chemical_formula_sum   'Na9 Nb1 Zn11 S18 O72'
_cell_volume   1505.77460480
_cell_formula_units_Z   1
loop_
 _symmetry_equiv_pos_site_id
 _symmetry_equiv_pos_as_xyz
  1  'x, y, z'
loop_
 _atom_site_type_symbol
 _atom_site_label
 _atom_site_symmetry_multiplicity
 _atom_site_fract_x
 _atom_site_fract_y
 _atom_site_fract_z
 _atom_site_occupancy
  Na  Na0  1  0.36151775  0.36199392  0.25406746  1
  Na  Na1  1  0.30333311  0.97209857  0.08874431  1
  Na  Na2  1  0.97169804  0.30423809  0.41980007  1
  Na  Na3  1  0.00072736  0.98205128  0.50160833  1
  Na  Na4  1  0.98344944  0.00067038  0.00269087  1
  Na  Na5  1  0.66674735  0.33347683  0.83121780  1
  Na  Na6  1  0.66766837  0.33418268  0.33677385  1
  Na  Na7  1  0.33404211  0.66721544  0.17087391  1
  Na  Na8  1  0.33433556  0.66780515  0.64987217  1
  Nb  Nb9  1  0.33336086  0.66705780  0.81336980  1
  Zn  Zn10  1  0.99566772  0.98559441  0.34892373  1
  Zn  Zn11  1  0.99956730  0.99941049  0.84830128  1
  Zn  Zn12  1  0.00006155  0.00085816  0.64680645  1
  Zn  Zn13  1  0.98739618  0.99631276  0.15442581  1
  Zn  Zn14  1  0.66668170  0.33514024  0.67143346  1
  Zn  Zn15  1  0.68101988  0.33750173  0.18185493  1
  Zn  Zn16  1  0.67119100  0.33606489  0.98607747  1
  Zn  Zn17  1  0.65778446  0.33393885  0.48788857  1
  Zn  Zn18  1  0.33410460  0.65758321  0.01794067  1
  Zn  Zn19  1  0.33813229  0.67209623  0.51482508  1
  Zn  Zn20  1  0.33699080  0.67873625  0.32169995  1
  S  S21  1  0.29833650  -0.00086274  0.24708184  1
  S  S22  1  0.69870349  0.69915912  0.24945945  1
  S  S23  1  0.00005815  0.29881431  0.25176768  1
  S  S24  1  0.29662610  0.29059148  0.75187339  1
  S  S25  1  0.99409229  0.70283876  0.75183715  1
  S  S26  1  0.71006131  0.00693588  0.75187422  1
  S  S27  1  0.96786896  0.33397177  0.58217095  1
  S  S28  1  0.36705228  0.03276789  0.58422877  1
  S  S29  1  0.66563628  0.63286216  0.58404119  1
  S  S30  1  0.96512569  0.63323343  0.08185164  1
  S  S31  1  0.66826214  0.03765261  0.08152571  1
  S  S32  1  0.36905513  0.33294981  0.08425044  1
  S  S33  1  0.62865379  0.66787005  0.91737768  1
  S  S34  1  0.03817415  0.37051216  0.91747873  1
  S  S35  1  0.33223877  0.96260457  0.91878986  1
  S  S36  1  0.63343736  0.96723825  0.41700927  1
  S  S37  1  0.33454506  0.36862563  0.41434340  1
  S  S38  1  0.03571974  0.66615756  0.41752250  1
  O  O39  1  0.20685599  0.02604863  0.29787853  1
  O  O40  1  0.80297199  0.78392020  0.30283463  1
  O  O41  1  0.98143825  0.19878165  0.30665180  1
  O  O42  1  0.21669083  0.19159032  0.80644664  1
  O  O43  1  0.97407140  0.78208538  0.80676393  1
  O  O44  1  0.80904286  0.02647157  0.80647746  1
  O  O45  1  0.77910312  0.96618104  0.69904725  1
  O  O46  1  0.18708570  0.21990696  0.69924008  1
  O  O47  1  0.03488942  0.81218404  0.69938800  1
  O  O48  1  0.77773779  0.79798895  0.19422344  1
  O  O49  1  0.02845233  0.21334901  0.19876759  1
  O  O50  1  0.20117450  0.97829466  0.19027031  1
  O  O51  1  0.88406430  0.35574477  0.63683684  1
  O  O52  1  0.46746190  0.11136817  0.64015731  1
  O  O53  1  0.64252046  0.53297284  0.63989014  1
  O  O54  1  0.88114586  0.52930278  0.13525248  1
  O  O55  1  0.63924077  0.12207252  0.13410781  1
  O  O56  1  0.46916835  0.35124623  0.13923576  1
  O  O57  1  0.45523726  0.30629530  0.03105148  1
  O  O58  1  0.86494501  0.55301223  0.02664054  1
  O  O59  1  0.69141141  0.13917036  0.02642123  1
  O  O60  1  0.45534928  0.13925581  0.53150642  1
  O  O61  1  0.68655370  0.54525856  0.53126722  1
  O  O62  1  0.86548135  0.31610813  0.52767460  1
  O  O63  1  0.54594655  0.68925585  0.97064685  1
  O  O64  1  0.14140404  0.45463481  0.97058299  1
  O  O65  1  0.31376846  0.86364159  0.97310210  1
  O  O66  1  0.54857208  0.86242440  0.46998398  1
  O  O67  1  0.30794521  0.45993543  0.46513696  1
  O  O68  1  0.14159683  0.68737895  0.47060762  1
  O  O69  1  0.11463341  0.63589072  0.36303211  1
  O  O70  1  0.53409882  0.88856457  0.36154917  1
  O  O71  1  0.35516221  0.46540211  0.35761050  1
  O  O72  1  0.14027802  0.48374984  0.86342135  1
  O  O73  1  0.34376743  0.85589905  0.86570480  1
  O  O74  1  0.51483009  0.65562294  0.86342229  1
  O  O75  1  0.01623194  0.82349563  0.41174485  1
  O  O76  1  0.81515169  0.99120937  0.41285328  1
  O  O77  1  0.17062655  0.19125897  0.41090341  1
  O  O78  1  0.02178698  0.19676017  0.90966413  1
  O  O79  1  0.17415759  0.97677096  0.90995832  1
  O  O80  1  0.80263374  0.82581377  0.90954053  1
  O  O81  1  0.98326073  0.17330547  0.58668958  1
  O  O82  1  0.18945383  0.01551948  0.58784457  1
  O  O83  1  0.82636926  0.81032306  0.58778709  1
  O  O84  1  0.98916864  0.81400319  0.08659672  1
  O  O85  1  0.82381906  0.01588781  0.08805230  1
  O  O86  1  0.19103565  0.17052548  0.08744990  1
  O  O87  1  0.67620685  0.15293026  0.74607507  1
  O  O88  1  0.47726127  0.32487826  0.74581186  1
  O  O89  1  0.84745763  0.52203883  0.74570650  1
  O  O90  1  0.67490755  0.51784374  0.24553322  1
  O  O91  1  0.84218118  0.31723612  0.24534338  1
  O  O92  1  0.47532351  0.16304158  0.24399470  1
  O  O93  1  0.63307904  0.50268631  0.91608825  1
  O  O94  1  0.86771815  0.36508263  0.91624466  1
  O  O95  1  0.49740253  0.13303823  0.91634279  1
  O  O96  1  0.65770687  0.14832319  0.42198713  1
  O  O97  1  0.49067003  0.34803765  0.42121031  1
  O  O98  1  0.85809822  0.50373614  0.42248927  1
  O  O99  1  0.34945151  0.49016589  0.07875830  1
  O  O100  1  0.14719199  0.65752314  0.07835721  1
  O  O101  1  0.50362892  0.86068454  0.07750791  1
  O  O102  1  0.34769223  0.85579332  0.57903604  1
  O  O103  1  0.50707283  0.65044722  0.57857187  1
  O  O104  1  0.14574756  0.49202588  0.57824722  1
  O  O105  1  0.31843182  0.84313142  0.25403834  1
  O  O106  1  0.51765787  0.67526266  0.25434494  1
  O  O107  1  0.16263694  0.47646445  0.25504736  1
  O  O108  1  0.31568093  0.47694487  0.76107958  1
  O  O109  1  0.16151023  0.68423429  0.76136629  1
  O  O110  1  0.52306706  0.83931555  0.76122107  1
