# generated using pymatgen
data_Na7Ti2Al2Si3(PO8)3
_symmetry_space_group_name_H-M   'P 1'
_cell_length_a   8.80429219
_cell_length_b   8.76990235
_cell_length_c   21.77274005
_cell_angle_alpha   89.83476184
_cell_angle_beta   90.04432525
_cell_angle_gamma   119.96449644
_symmetry_Int_Tables_number   1
_chemical_formula_structural   Na7Ti2Al2Si3(PO8)3
_chemical_formula_sum   'Na21 Ti6 Al6 Si9 P9 O72'
_cell_volume   1456.41871277
_cell_formula_units_Z   3
loop_
 _symmetry_equiv_pos_site_id
 _symmetry_equiv_pos_as_xyz
  1  'x, y, z'
loop_
 _atom_site_type_symbol
 _atom_site_label
 _atom_site_symmetry_multiplicity
 _atom_site_fract_x
 _atom_site_fract_y
 _atom_site_fract_z
 _atom_site_occupancy
  Na  Na0  1  0.63414681  0.00155036  0.25104088  1
  Na  Na1  1  0.36593676  0.36733963  0.24888635  1
  Na  Na2  1  0.99980689  0.62999805  0.24975054  1
  Na  Na3  1  0.63270115  0.63521274  0.74985723  1
  Na  Na4  1  0.99532546  0.36362191  0.74938370  1
  Na  Na5  1  0.37022761  0.00058802  0.74820387  1
  Na  Na6  1  0.03256818  0.69844385  0.58363698  1
  Na  Na7  1  0.66304277  0.96707129  0.58318225  1
  Na  Na8  1  0.66662378  0.69550496  0.08309193  1
  Na  Na9  1  0.03156390  0.33498366  0.08449100  1
  Na  Na10  1  0.96333820  0.66550780  0.91866165  1
  Na  Na11  1  0.70070334  0.03142493  0.91641829  1
  Na  Na12  1  0.33806336  0.30318182  0.91799539  1
  Na  Na13  1  0.96804146  0.30326588  0.41632018  1
  Na  Na14  1  0.33530223  0.03263820  0.41710148  1
  Na  Na15  1  0.00099930  0.99925161  0.50012225  1
  Na  Na16  1  0.00571650  0.99630693  0.00033731  1
  Na  Na17  1  0.66670215  0.33327174  0.83339300  1
  Na  Na18  1  0.66987421  0.34028945  0.33446051  1
  Na  Na19  1  0.32925330  0.66962529  0.16636267  1
  Na  Na20  1  0.33370779  0.66159038  0.66533579  1
  Ti  Ti21  1  0.98665613  0.99431941  0.35476208  1
  Ti  Ti22  1  0.00094190  0.00794943  0.64619769  1
  Ti  Ti23  1  0.01421503  0.00656204  0.14486641  1
  Ti  Ti24  1  0.66810294  0.33027532  0.48042798  1
  Ti  Ti25  1  0.33647670  0.66870391  0.02159412  1
  Ti  Ti26  1  0.33087322  0.67016402  0.51961620  1
  Al  Al27  1  0.99259661  0.99725720  0.85112005  1
  Al  Al28  1  0.66924191  0.32721291  0.68401936  1
  Al  Al29  1  0.67294625  0.33600879  0.18321848  1
  Al  Al30  1  0.66404445  0.34177645  0.98297833  1
  Al  Al31  1  0.32726913  0.66179189  0.31628183  1
  Al  Al32  1  0.34065986  0.67000199  0.81562049  1
  Si  Si33  1  0.99973139  0.29767156  0.24963765  1
  Si  Si34  1  0.70581829  0.00078265  0.75194226  1
  Si  Si35  1  0.95826274  0.33606124  0.58545366  1
  Si  Si36  1  0.37730428  0.04934965  0.58519515  1
  Si  Si37  1  0.95386344  0.62052291  0.08316230  1
  Si  Si38  1  0.38549198  0.32966031  0.08347477  1
  Si  Si39  1  0.62731302  0.66584582  0.91472190  1
  Si  Si40  1  0.61729229  0.94825175  0.41438890  1
  Si  Si41  1  0.04166686  0.66645713  0.41428820  1
  P  P42  1  0.29452211  0.00128317  0.25066919  1
  P  P43  1  0.70591194  0.70708246  0.24928012  1
  P  P44  1  0.28929598  0.29004902  0.75245678  1
  P  P45  1  0.00028750  0.70923650  0.75177780  1
  P  P46  1  0.66256020  0.61448040  0.58596031  1
  P  P47  1  0.66345063  0.05049325  0.08293351  1
  P  P48  1  0.04435706  0.37654736  0.91486477  1
  P  P49  1  0.33342393  0.95683585  0.91483098  1
  P  P50  1  0.33769514  0.38344486  0.41488670  1
  O  O51  1  0.21089570  0.03571265  0.30717726  1
  O  O52  1  0.83040267  0.79539879  0.30522390  1
  O  O53  1  0.96550075  0.16618305  0.30869808  1
  O  O54  1  0.20555812  0.16907687  0.80881957  1
  O  O55  1  0.96968969  0.79741211  0.80821217  1
  O  O56  1  0.83710332  0.03938815  0.80979601  1
  O  O57  1  0.79795967  0.96227034  0.69189663  1
  O  O58  1  0.16870141  0.20185772  0.69574580  1
  O  O59  1  0.03784736  0.82629906  0.69396900  1
  O  O60  1  0.78932599  0.82538550  0.19251669  1
  O  O61  1  0.03401654  0.20025152  0.19098611  1
  O  O62  1  0.16982344  0.96502674  0.19471447  1
  O  O63  1  0.87173666  0.37489309  0.64451259  1
  O  O64  1  0.50199105  0.13396980  0.64435938  1
  O  O65  1  0.63863388  0.50507641  0.64426146  1
  O  O66  1  0.87221438  0.49830842  0.14390554  1
  O  O67  1  0.63597964  0.13114165  0.14137555  1
  O  O68  1  0.50509522  0.36989867  0.14445673  1
  O  O69  1  0.46459212  0.29794019  0.02149464  1
  O  O70  1  0.83355772  0.53564870  0.02249506  1
  O  O71  1  0.69876426  0.16571520  0.02508639  1
  O  O72  1  0.46426677  0.16501038  0.52273596  1
  O  O73  1  0.69968204  0.53294506  0.52906746  1
  O  O74  1  0.83255939  0.29590872  0.52449156  1
  O  O75  1  0.53523294  0.70409659  0.97497653  1
  O  O76  1  0.16048260  0.46001021  0.97270767  1
  O  O77  1  0.29578501  0.83485861  0.97120454  1
  O  O78  1  0.53440000  0.83392670  0.47709839  1
  O  O79  1  0.29914505  0.46493742  0.47126448  1
  O  O80  1  0.16692735  0.70309331  0.47545314  1
  O  O81  1  0.12914599  0.62714628  0.35559749  1
  O  O82  1  0.49469897  0.86242277  0.35488696  1
  O  O83  1  0.36374318  0.49301207  0.35659243  1
  O  O84  1  0.12878621  0.49802232  0.85855841  1
  O  O85  1  0.36439698  0.87086213  0.85776225  1
  O  O86  1  0.49630391  0.62766561  0.85681361  1
  O  O87  1  0.03358153  0.84808834  0.40915950  1
  O  O88  1  0.81854611  0.98101892  0.41085934  1
  O  O89  1  0.17077485  0.19609441  0.40994713  1
  O  O90  1  0.03107046  0.19321013  0.90920020  1
  O  O91  1  0.16949472  0.97922710  0.90811234  1
  O  O92  1  0.82275919  0.84292738  0.90919758  1
  O  O93  1  0.96890152  0.15474655  0.59008708  1
  O  O94  1  0.17668700  0.01345614  0.59073136  1
  O  O95  1  0.83097402  0.80149164  0.58999081  1
  O  O96  1  0.96780161  0.81388731  0.09094320  1
  O  O97  1  0.82768997  0.02624161  0.08837531  1
  O  O98  1  0.18155163  0.16377306  0.08911567  1
  O  O99  1  0.68860511  0.17797812  0.74439754  1
  O  O100  1  0.47418336  0.31310843  0.74435144  1
  O  O101  1  0.83150049  0.52679777  0.74539745  1
  O  O102  1  0.68880480  0.52307226  0.24497125  1
  O  O103  1  0.82055365  0.30885143  0.24350607  1
  O  O104  1  0.47653718  0.16727225  0.24239671  1
  O  O105  1  0.64563728  0.48927077  0.92180559  1
  O  O106  1  0.85830501  0.35240767  0.92228572  1
  O  O107  1  0.50193662  0.13873795  0.92196335  1
  O  O108  1  0.64058276  0.14641307  0.42052604  1
  O  O109  1  0.49719267  0.35711519  0.42074435  1
  O  O110  1  0.85005064  0.49225208  0.42298858  1
  O  O111  1  0.35792342  0.50473462  0.07687338  1
  O  O112  1  0.14901950  0.64072024  0.07527359  1
  O  O113  1  0.50253704  0.86146816  0.07789242  1
  O  O114  1  0.35933197  0.85268285  0.57875730  1
  O  O115  1  0.50417615  0.64239366  0.57976057  1
  O  O116  1  0.15064192  0.50838161  0.57738155  1
  O  O117  1  0.31124826  0.83415493  0.25500952  1
  O  O118  1  0.52397288  0.69115173  0.25722104  1
  O  O119  1  0.17880187  0.48841356  0.25609265  1
  O  O120  1  0.30174597  0.47268924  0.75739010  1
  O  O121  1  0.16395746  0.68648091  0.75887259  1
  O  O122  1  0.51069029  0.82373543  0.75751353  1
