# generated using pymatgen
data_TePbF6
_symmetry_space_group_name_H-M   'P 1'
_cell_length_a   12.77687458
_cell_length_b   4.58401748
_cell_length_c   8.38995049
_cell_angle_alpha   78.54788710
_cell_angle_beta   90.00000000
_cell_angle_gamma   90.00000000
_symmetry_Int_Tables_number   1
_chemical_formula_structural   TePbF6
_chemical_formula_sum   'Te4 Pb4 F24'
_cell_volume   481.61132642
_cell_formula_units_Z   4
loop_
 _symmetry_equiv_pos_site_id
 _symmetry_equiv_pos_as_xyz
  1  'x, y, z'
loop_
 _atom_site_type_symbol
 _atom_site_label
 _atom_site_symmetry_multiplicity
 _atom_site_fract_x
 _atom_site_fract_y
 _atom_site_fract_z
 _atom_site_occupancy
  Te  Te0  1  0.77473943  0.93810641  0.96648633  1
  Te  Te1  1  0.27473943  0.06189359  0.53351367  1
  Te  Te2  1  0.22526057  0.06189359  0.03351367  1
  Te  Te3  1  0.72526057  0.93810641  0.46648633  1
  Pb  Pb4  1  0.50508355  0.35238754  0.80087697  1
  Pb  Pb5  1  0.00508355  0.64761246  0.69912303  1
  Pb  Pb6  1  0.49491645  0.64761246  0.19912303  1
  Pb  Pb7  1  0.99491645  0.35238754  0.30087697  1
  F  F8  1  0.67185484  0.11656863  0.63513089  1
  F  F9  1  0.17185484  0.88343137  0.86486911  1
  F  F10  1  0.32814516  0.88343137  0.36486911  1
  F  F11  1  0.82814516  0.11656863  0.13513089  1
  F  F12  1  0.81062519  0.74290952  0.66525475  1
  F  F13  1  0.31062519  0.25709048  0.83474525  1
  F  F14  1  0.18937481  0.25709048  0.33474525  1
  F  F15  1  0.68937481  0.74290952  0.16525475  1
  F  F16  1  0.46639873  0.21725088  0.08439165  1
  F  F17  1  0.96639873  0.78274912  0.41560835  1
  F  F18  1  0.53360127  0.78274912  0.91560835  1
  F  F19  1  0.03360127  0.21725088  0.58439165  1
  F  F20  1  0.39682051  0.32204040  0.46430589  1
  F  F21  1  0.89682051  0.67795960  0.03569411  1
  F  F22  1  0.60317949  0.67795960  0.53569411  1
  F  F23  1  0.10317949  0.32204040  0.96430589  1
  F  F24  1  0.88042615  0.19471981  0.83963188  1
  F  F25  1  0.38042615  0.80528019  0.66036812  1
  F  F26  1  0.11957385  0.80528019  0.16036812  1
  F  F27  1  0.61957385  0.19471981  0.33963188  1
  F  F28  1  0.68264637  0.30268382  0.94214370  1
  F  F29  1  0.18264637  0.69731618  0.55785630  1
  F  F30  1  0.31735363  0.69731618  0.05785630  1
  F  F31  1  0.81735363  0.30268382  0.44214370  1
