# generated using pymatgen
data_Te4O9
_symmetry_space_group_name_H-M   'P 1'
_cell_length_a   7.30014705
_cell_length_b   7.30014741
_cell_length_c   7.30014606
_cell_angle_alpha   79.57393237
_cell_angle_beta   79.57393593
_cell_angle_gamma   79.57393644
_symmetry_Int_Tables_number   1
_chemical_formula_structural   Te4O9
_chemical_formula_sum   'Te8 O18'
_cell_volume   371.85558525
_cell_formula_units_Z   2
loop_
 _symmetry_equiv_pos_site_id
 _symmetry_equiv_pos_as_xyz
  1  'x, y, z'
loop_
 _atom_site_type_symbol
 _atom_site_label
 _atom_site_symmetry_multiplicity
 _atom_site_fract_x
 _atom_site_fract_y
 _atom_site_fract_z
 _atom_site_occupancy
  Te  Te0  1  0.81704161  0.81704161  0.81704161  1
  Te  Te1  1  0.18295839  0.18295839  0.18295839  1
  Te  Te2  1  0.15725132  0.70653441  0.39961021  1
  Te  Te3  1  0.39961021  0.15725132  0.70653441  1
  Te  Te4  1  0.70653441  0.39961021  0.15725132  1
  Te  Te5  1  0.84274868  0.29346559  0.60038979  1
  Te  Te6  1  0.60038979  0.84274868  0.29346559  1
  Te  Te7  1  0.29346559  0.60038979  0.84274868  1
  O  O8  1  0.92927659  0.04486485  0.71922359  1
  O  O9  1  0.71922359  0.92927659  0.04486485  1
  O  O10  1  0.04486485  0.71922359  0.92927659  1
  O  O11  1  0.07072341  0.95513515  0.28077641  1
  O  O12  1  0.28077641  0.07072341  0.95513515  1
  O  O13  1  0.95513515  0.28077641  0.07072341  1
  O  O14  1  0.41376381  0.08444475  0.27629184  1
  O  O15  1  0.27629184  0.41376381  0.08444475  1
  O  O16  1  0.08444475  0.27629184  0.41376381  1
  O  O17  1  0.58623619  0.91555525  0.72370816  1
  O  O18  1  0.72370816  0.58623619  0.91555525  1
  O  O19  1  0.91555525  0.72370816  0.58623619  1
  O  O20  1  0.71412929  0.22699887  0.42376440  1
  O  O21  1  0.42376440  0.71412929  0.22699887  1
  O  O22  1  0.22699887  0.42376440  0.71412929  1
  O  O23  1  0.28587071  0.77300113  0.57623560  1
  O  O24  1  0.57623560  0.28587071  0.77300113  1
  O  O25  1  0.77300113  0.57623560  0.28587071  1
