# generated using pymatgen
data_Na14In4Ga4Si7S5O48
_symmetry_space_group_name_H-M   'P 1'
_cell_length_a   18.12241700
_cell_length_b   9.06898229
_cell_length_c   22.42934712
_cell_angle_alpha   89.81916682
_cell_angle_beta   89.83910838
_cell_angle_gamma   120.03907004
_symmetry_Int_Tables_number   1
_chemical_formula_structural   Na14In4Ga4Si7S5O48
_chemical_formula_sum   'Na42 In12 Ga12 Si21 S15 O144'
_cell_volume   3191.11958906
_cell_formula_units_Z   3
loop_
 _symmetry_equiv_pos_site_id
 _symmetry_equiv_pos_as_xyz
  1  'x, y, z'
loop_
 _atom_site_type_symbol
 _atom_site_label
 _atom_site_symmetry_multiplicity
 _atom_site_fract_x
 _atom_site_fract_y
 _atom_site_fract_z
 _atom_site_occupancy
  Na  Na0  1  0.81263417  0.99275229  0.24297389  1
  Na  Na1  1  0.18709069  0.36831362  0.25625056  1
  Na  Na2  1  0.68791251  0.36728144  0.25387965  1
  Na  Na3  1  0.99707703  0.64051227  0.24235171  1
  Na  Na4  1  0.50241415  0.64619183  0.24587013  1
  Na  Na5  1  0.31225929  0.63421237  0.75153830  1
  Na  Na6  1  0.00110396  0.35710764  0.74943485  1
  Na  Na7  1  0.49984187  0.35578814  0.74770352  1
  Na  Na8  1  0.18445396  0.00325763  0.75778857  1
  Na  Na9  1  0.68853642  0.00750595  0.75931673  1
  Na  Na10  1  0.14345423  0.33455102  0.58323006  1
  Na  Na11  1  0.64305509  0.33528327  0.58413668  1
  Na  Na12  1  0.33685492  0.97195447  0.58080063  1
  Na  Na13  1  0.83794668  0.97402042  0.58323360  1
  Na  Na14  1  0.14061449  0.94893630  0.08471651  1
  Na  Na15  1  0.65057458  0.95639739  0.08507232  1
  Na  Na16  1  0.33782831  0.70144964  0.08332781  1
  Na  Na17  1  0.83746344  0.71380106  0.08059707  1
  Na  Na18  1  0.48757464  0.68155138  0.92339812  1
  Na  Na19  1  0.98309389  0.67523434  0.92377424  1
  Na  Na20  1  0.34563776  0.02259110  0.91462004  1
  Na  Na21  1  0.84444306  0.02411044  0.91929540  1
  Na  Na22  1  0.16761411  0.29726825  0.91060473  1
  Na  Na23  1  0.67422174  0.30679028  0.91137558  1
  Na  Na24  1  0.48563505  0.29177764  0.41895221  1
  Na  Na25  1  0.98522734  0.28921939  0.41979083  1
  Na  Na26  1  0.17024681  0.03656740  0.40691120  1
  Na  Na27  1  0.66847234  0.03857432  0.40764342  1
  Na  Na28  1  0.34556732  0.66808865  0.41026257  1
  Na  Na29  1  0.84549023  0.66923268  0.41143769  1
  Na  Na30  1  0.99842469  0.00887664  0.49613109  1
  Na  Na31  1  0.49897119  0.00935114  0.49566127  1
  Na  Na32  1  0.99206845  0.98845331  0.00106134  1
  Na  Na33  1  0.50115507  0.99026374  0.99779452  1
  Na  Na34  1  0.32710154  0.32596623  0.83460621  1
  Na  Na35  1  0.82496602  0.33175530  0.83555536  1
  Na  Na36  1  0.32587619  0.31937030  0.33097869  1
  Na  Na37  1  0.82652185  0.32792017  0.32962160  1
  Na  Na38  1  0.16610131  0.67718294  0.17016673  1
  Na  Na39  1  0.66594291  0.67617845  0.16510510  1
  Na  Na40  1  0.15949434  0.65462576  0.67020538  1
  Na  Na41  1  0.66865641  0.65716432  0.67187425  1
  In  In42  1  0.99927109  0.01616600  0.65257594  1
  In  In43  1  0.49629620  0.01288233  0.65175600  1
  In  In44  1  0.99216653  0.98294239  0.14734303  1
  In  In45  1  0.50061583  0.98274487  0.15135505  1
  In  In46  1  0.83509960  0.33325745  0.68838426  1
  In  In47  1  0.33453628  0.33562329  0.18815858  1
  In  In48  1  0.16229286  0.67001957  0.01429051  1
  In  In49  1  0.67207285  0.69052360  0.01731509  1
  In  In50  1  0.16577907  0.65624021  0.51301726  1
  In  In51  1  0.66320855  0.65424510  0.51379455  1
  In  In52  1  0.18093448  0.68767150  0.31546095  1
  In  In53  1  0.68257847  0.67468503  0.81791361  1
  Ga  Ga54  1  0.00019409  0.99923702  0.34766441  1
  Ga  Ga55  1  0.50138588  0.00377101  0.34739315  1
  Ga  Ga56  1  0.00083540  0.99884884  0.84916568  1
  Ga  Ga57  1  0.50150122  0.00467445  0.85018280  1
  Ga  Ga58  1  0.33454370  0.32182695  0.68877272  1
  Ga  Ga59  1  0.83379600  0.33318486  0.18304675  1
  Ga  Ga60  1  0.33129998  0.34623462  0.97872969  1
  Ga  Ga61  1  0.83399200  0.33363357  0.98479766  1
  Ga  Ga62  1  0.33228415  0.31924938  0.47970606  1
  Ga  Ga63  1  0.83117718  0.31604869  0.47812363  1
  Ga  Ga64  1  0.68506047  0.68694582  0.31688345  1
  Ga  Ga65  1  0.18278289  0.68128352  0.81851724  1
  Si  Si66  1  0.14434752  0.99816735  0.25029435  1
  Si  Si67  1  0.65027908  0.99781440  0.25330936  1
  Si  Si68  1  0.35404058  0.70969556  0.25119256  1
  Si  Si69  1  0.85175138  0.69988105  0.25265870  1
  Si  Si70  1  0.15110788  0.30270474  0.75090826  1
  Si  Si71  1  0.64662106  0.29617756  0.75108020  1
  Si  Si72  1  0.35139266  0.99753272  0.75219942  1
  Si  Si73  1  0.85361115  0.99741934  0.75092405  1
  Si  Si74  1  0.47617180  0.34201231  0.58367192  1
  Si  Si75  1  0.98011910  0.34202131  0.58078815  1
  Si  Si76  1  0.47885157  0.61748887  0.08070439  1
  Si  Si77  1  0.97801211  0.61255412  0.08355320  1
  Si  Si78  1  0.83769039  0.05653211  0.08379848  1
  Si  Si79  1  0.31677120  0.66941784  0.91663037  1
  Si  Si80  1  0.82031179  0.66287441  0.91961832  1
  Si  Si81  1  0.16651597  0.96725617  0.91472759  1
  Si  Si82  1  0.66477288  0.97233565  0.91481373  1
  Si  Si83  1  0.31941802  0.96995389  0.41992824  1
  Si  Si84  1  0.81692348  0.96413807  0.41718463  1
  Si  Si85  1  0.16637654  0.35842350  0.41712058  1
  Si  Si86  1  0.66633385  0.36593606  0.41556155  1
  S  S87  1  0.99911623  0.29192904  0.25158986  1
  S  S88  1  0.50177289  0.29396397  0.25251705  1
  S  S89  1  0.00215745  0.70995001  0.75178051  1
  S  S90  1  0.49725595  0.70473027  0.74963331  1
  S  S91  1  0.18740521  0.04176287  0.58430962  1
  S  S92  1  0.68444533  0.03648104  0.58140484  1
  S  S93  1  0.33625526  0.62115267  0.58438321  1
  S  S94  1  0.83577217  0.62546042  0.58107209  1
  S  S95  1  0.33566553  0.04616986  0.08091769  1
  S  S96  1  0.18670148  0.33460394  0.08093184  1
  S  S97  1  0.68598317  0.33204206  0.08405657  1
  S  S98  1  0.02045473  0.37244588  0.91277059  1
  S  S99  1  0.51698417  0.36875441  0.91684699  1
  S  S100  1  0.01596348  0.66564403  0.41678304  1
  S  S101  1  0.51846593  0.66667773  0.41519294  1
  O  O102  1  0.10094930  0.03440065  0.30937898  1
  O  O103  1  0.60429540  0.03732156  0.30962479  1
  O  O104  1  0.41504961  0.80502925  0.30937892  1
  O  O105  1  0.91369468  0.78979942  0.31091966  1
  O  O106  1  0.48952631  0.18964404  0.30713020  1
  O  O107  1  0.98513011  0.18582374  0.30659645  1
  O  O108  1  0.10685536  0.16995082  0.80685627  1
  O  O109  1  0.59957483  0.16632888  0.80748277  1
  O  O110  1  0.48289744  0.78223828  0.80342854  1
  O  O111  1  0.99097394  0.79158894  0.80578096  1
  O  O112  1  0.41569259  0.03484403  0.80832177  1
  O  O113  1  0.91783146  0.02809558  0.80720947  1
  O  O114  1  0.38140645  0.94309586  0.69087153  1
  O  O115  1  0.88587699  0.95993302  0.68732294  1
  O  O116  1  0.09837974  0.23332995  0.68828125  1
  O  O117  1  0.59596304  0.22337459  0.68726360  1
  O  O118  1  0.01744714  0.81619620  0.69696720  1
  O  O119  1  0.51304708  0.81213885  0.69539460  1
  O  O120  1  0.38793452  0.81528715  0.18864617  1
  O  O121  1  0.88382992  0.82082849  0.19378757  1
  O  O122  1  0.01565387  0.21745478  0.19871786  1
  O  O123  1  0.51631490  0.21669025  0.19821786  1
  O  O124  1  0.09223061  0.97590223  0.18847276  1
  O  O125  1  0.59552198  0.95835777  0.19157817  1
  O  O126  1  0.42937024  0.35623237  0.64459495  1
  O  O127  1  0.94031201  0.36434491  0.64286586  1
  O  O128  1  0.23926407  0.12375572  0.63842680  1
  O  O129  1  0.73556508  0.11389772  0.63612280  1
  O  O130  1  0.32358337  0.51597431  0.63836794  1
  O  O131  1  0.82026844  0.51856863  0.63511887  1
  O  O132  1  0.43845962  0.51678758  0.14329921  1
  O  O133  1  0.93259138  0.50958888  0.14561452  1
  O  O134  1  0.32000508  0.12142538  0.13497419  1
  O  O135  1  0.81840931  0.13766355  0.14376914  1
  O  O136  1  0.23823543  0.36138434  0.13578580  1
  O  O137  1  0.73760813  0.35587076  0.13896446  1
  O  O138  1  0.22737520  0.30545975  0.02724617  1
  O  O139  1  0.72443753  0.30269201  0.02984285  1
  O  O140  1  0.41489917  0.52528317  0.02312595  1
  O  O141  1  0.91980687  0.52837471  0.02423982  1
  O  O142  1  0.34203584  0.14344745  0.02608839  1
  O  O143  1  0.84313667  0.15787203  0.02175591  1
  O  O144  1  0.22606472  0.14975967  0.52969998  1
  O  O145  1  0.72502346  0.14794006  0.52782465  1
  O  O146  1  0.34250716  0.53919315  0.52866672  1
  O  O147  1  0.84211310  0.54158129  0.52633561  1
  O  O148  1  0.41616347  0.31210574  0.52493056  1
  O  O149  1  0.91685878  0.30932492  0.52302563  1
  O  O150  1  0.27669286  0.70578418  0.97668308  1
  O  O151  1  0.78064819  0.70661155  0.97845564  1
  O  O152  1  0.07381926  0.44313725  0.96726919  1
  O  O153  1  0.57302657  0.44899442  0.96879178  1
  O  O154  1  0.14251285  0.85237697  0.97533365  1
  O  O155  1  0.63685209  0.84603015  0.97292333  1
  O  O156  1  0.28124603  0.85379637  0.48142777  1
  O  O157  1  0.77820140  0.85011187  0.47836162  1
  O  O158  1  0.14159940  0.42818516  0.47686822  1
  O  O159  1  0.64116098  0.42869911  0.47693409  1
  O  O160  1  0.07144306  0.70020133  0.46994332  1
  O  O161  1  0.57198858  0.70165952  0.46966041  1
  O  O162  1  0.05330757  0.63006471  0.36331370  1
  O  O163  1  0.55778317  0.63439727  0.36285535  1
  O  O164  1  0.24990913  0.89459374  0.36700008  1
  O  O165  1  0.75167891  0.88153029  0.36121292  1
  O  O166  1  0.18697089  0.48350742  0.35937969  1
  O  O167  1  0.68402804  0.49760383  0.35962870  1
  O  O168  1  0.06253325  0.48458534  0.86006445  1
  O  O169  1  0.55237144  0.47476987  0.86164090  1
  O  O170  1  0.18514450  0.87452567  0.85783263  1
  O  O171  1  0.68251723  0.88698133  0.85599454  1
  O  O172  1  0.25330321  0.62224542  0.85907364  1
  O  O173  1  0.75357972  0.59920156  0.86419487  1
  O  O174  1  0.00726406  0.81865708  0.41155714  1
  O  O175  1  0.50904569  0.82034222  0.41017285  1
  O  O176  1  0.41256185  0.98236796  0.40982777  1
  O  O177  1  0.91139769  0.98200254  0.40759649  1
  O  O178  1  0.08155203  0.16734193  0.40961236  1
  O  O179  1  0.58258059  0.17359241  0.40736659  1
  O  O180  1  0.01139609  0.19976147  0.90772982  1
  O  O181  1  0.50744018  0.19682338  0.91167710  1
  O  O182  1  0.08316346  0.99262078  0.90619059  1
  O  O183  1  0.57886214  0.99270147  0.90819813  1
  O  O184  1  0.41058937  0.84130940  0.90696580  1
  O  O185  1  0.91308636  0.84015919  0.90859016  1
  O  O186  1  0.48390957  0.16407774  0.58251296  1
  O  O187  1  0.98832215  0.16490255  0.57993843  1
  O  O188  1  0.10090069  0.02236512  0.58861119  1
  O  O189  1  0.59851736  0.01883663  0.58547165  1
  O  O190  1  0.41374085  0.79428380  0.58676885  1
  O  O191  1  0.91364338  0.79643152  0.58482214  1
  O  O192  1  0.48666462  0.81069544  0.07985903  1
  O  O193  1  0.98949125  0.80707958  0.08215448  1
  O  O194  1  0.41364022  0.03164488  0.08480863  1
  O  O195  1  0.92170082  0.03256548  0.08435763  1
  O  O196  1  0.10209306  0.18092106  0.08518836  1
  O  O197  1  0.59979834  0.17543404  0.08895232  1
  O  O198  1  0.34390882  0.17253642  0.74647163  1
  O  O199  1  0.85047647  0.17713396  0.75164611  1
  O  O200  1  0.24842404  0.32482916  0.74182252  1
  O  O201  1  0.73978783  0.30730429  0.74752349  1
  O  O202  1  0.41798577  0.53425459  0.74457490  1
  O  O203  1  0.92537365  0.53976065  0.74848098  1
  O  O204  1  0.35077972  0.52366760  0.25243502  1
  O  O205  1  0.84363623  0.51005013  0.24553508  1
  O  O206  1  0.42485403  0.31047851  0.24923245  1
  O  O207  1  0.92057811  0.30539919  0.24754071  1
  O  O208  1  0.23901544  0.17180707  0.24775687  1
  O  O209  1  0.74537082  0.17081977  0.24673947  1
  O  O210  1  0.32572862  0.49608150  0.92027292  1
  O  O211  1  0.83215086  0.49445148  0.92674308  1
  O  O212  1  0.42984224  0.34735244  0.92361488  1
  O  O213  1  0.93562221  0.35611510  0.91822182  1
  O  O214  1  0.25603839  0.15580613  0.92373035  1
  O  O215  1  0.75213600  0.15846967  0.92350503  1
  O  O216  1  0.33138266  0.16280559  0.42401552  1
  O  O217  1  0.82596377  0.15557041  0.42088169  1
  O  O218  1  0.25613260  0.35157516  0.42785284  1
  O  O219  1  0.75593437  0.35682944  0.42471182  1
  O  O220  1  0.43195547  0.51347182  0.42263199  1
  O  O221  1  0.92972034  0.51248467  0.42418060  1
  O  O222  1  0.18233085  0.49264760  0.07533300  1
  O  O223  1  0.67912251  0.48668712  0.07892525  1
  O  O224  1  0.07660418  0.64265144  0.08302253  1
  O  O225  1  0.57457123  0.64349810  0.07887111  1
  O  O226  1  0.25894119  0.86914743  0.07927919  1
  O  O227  1  0.75216620  0.86141536  0.08483657  1
  O  O228  1  0.18297041  0.87487301  0.57940963  1
  O  O229  1  0.68000894  0.86957655  0.57592581  1
  O  O230  1  0.25885761  0.64279622  0.58294477  1
  O  O231  1  0.75866056  0.64841815  0.57962632  1
  O  O232  1  0.07833935  0.50721271  0.57954892  1
  O  O233  1  0.57449685  0.50508247  0.58234874  1
  O  O234  1  0.14303187  0.81601612  0.25511734  1
  O  O235  1  0.65439807  0.81931177  0.26214104  1
  O  O236  1  0.25434976  0.66480380  0.24981592  1
  O  O237  1  0.75465861  0.67388456  0.25765994  1
  O  O238  1  0.07424218  0.46553189  0.25819217  1
  O  O239  1  0.57810106  0.46641090  0.25801257  1
  O  O240  1  0.15628289  0.48941367  0.75979810  1
  O  O241  1  0.64452241  0.47437264  0.75583066  1
  O  O242  1  0.07855172  0.68949848  0.75691488  1
  O  O243  1  0.57195181  0.68027211  0.75530631  1
  O  O244  1  0.25427351  0.83178063  0.75723969  1
  O  O245  1  0.75414041  0.84283995  0.75009826  1
