# generated using pymatgen
data_Na3Hf3MgP5SO24
_symmetry_space_group_name_H-M   'P 1'
_cell_length_a   8.85671016
_cell_length_b   8.84813492
_cell_length_c   22.90512142
_cell_angle_alpha   89.95361620
_cell_angle_beta   90.07543823
_cell_angle_gamma   119.94653623
_symmetry_Int_Tables_number   1
_chemical_formula_structural   Na3Hf3MgP5SO24
_chemical_formula_sum   'Na9 Hf9 Mg3 P15 S3 O72'
_cell_volume   1555.32350031
_cell_formula_units_Z   3
loop_
 _symmetry_equiv_pos_site_id
 _symmetry_equiv_pos_as_xyz
  1  'x, y, z'
loop_
 _atom_site_type_symbol
 _atom_site_label
 _atom_site_symmetry_multiplicity
 _atom_site_fract_x
 _atom_site_fract_y
 _atom_site_fract_z
 _atom_site_occupancy
  Na  Na0  1  0.99085066  0.36351514  0.74309467  1
  Na  Na1  1  0.31586883  0.97840144  0.08708244  1
  Na  Na2  1  0.32606650  0.03220589  0.40780078  1
  Na  Na3  1  0.97700611  0.99837765  0.49293733  1
  Na  Na4  1  0.98510454  0.00087055  0.99825659  1
  Na  Na5  1  0.65015874  0.33276535  0.82645052  1
  Na  Na6  1  0.66816409  0.33547965  0.32405634  1
  Na  Na7  1  0.33300815  0.65778282  0.16758387  1
  Na  Na8  1  0.34768651  0.67059773  0.66537752  1
  Hf  Hf9  1  0.00136206  0.99883134  0.85312002  1
  Hf  Hf10  1  0.99426543  0.99636731  0.64644168  1
  Hf  Hf11  1  0.00047215  0.99865485  0.14828740  1
  Hf  Hf12  1  0.66998999  0.33545699  0.98054004  1
  Hf  Hf13  1  0.67919371  0.34411889  0.48059708  1
  Hf  Hf14  1  0.33277152  0.66106124  0.01906668  1
  Hf  Hf15  1  0.33358084  0.65886962  0.51943940  1
  Hf  Hf16  1  0.33333832  0.67017134  0.31381121  1
  Hf  Hf17  1  0.33818397  0.67103074  0.81325946  1
  Mg  Mg18  1  0.99886813  0.00105245  0.35280963  1
  Mg  Mg19  1  0.66526743  0.34235113  0.68661501  1
  Mg  Mg20  1  0.66163886  0.32799749  0.18395419  1
  P  P21  1  0.29875134  0.00654501  0.25285518  1
  P  P22  1  0.29502056  0.28960099  0.74975912  1
  P  P23  1  0.99779962  0.70595918  0.74991323  1
  P  P24  1  0.70724150  0.00260094  0.74964695  1
  P  P25  1  0.95870305  0.33430393  0.58738048  1
  P  P26  1  0.66659222  0.62264645  0.58575280  1
  P  P27  1  0.95524206  0.62037163  0.08634823  1
  P  P28  1  0.66824911  0.04419165  0.08462001  1
  P  P29  1  0.37948278  0.33495259  0.08602042  1
  P  P30  1  0.62600413  0.66643153  0.91669217  1
  P  P31  1  0.04017572  0.37437092  0.91471097  1
  P  P32  1  0.33433214  0.95986975  0.91837843  1
  P  P33  1  0.62879950  0.95802566  0.41725869  1
  P  P34  1  0.33072621  0.37060609  0.41564318  1
  P  P35  1  0.04338115  0.66987001  0.41633931  1
  S  S36  1  0.71025912  0.70586616  0.25196221  1
  S  S37  1  0.99625843  0.29035051  0.25167480  1
  S  S38  1  0.37808860  0.04402155  0.58367996  1
  O  O39  1  0.20714111  0.01810972  0.30753941  1
  O  O40  1  0.81101395  0.79457944  0.30372112  1
  O  O41  1  0.97874102  0.18720546  0.30341191  1
  O  O42  1  0.19961673  0.18086233  0.80469865  1
  O  O43  1  0.98288322  0.80062666  0.80442156  1
  O  O44  1  0.82315241  0.02348716  0.80346837  1
  O  O45  1  0.79528083  0.97420156  0.69518743  1
  O  O46  1  0.17267825  0.20203507  0.69639776  1
  O  O47  1  0.02424651  0.82033456  0.69552414  1
  O  O48  1  0.79156111  0.81562895  0.19820046  1
  O  O49  1  0.01856279  0.20529350  0.19792710  1
  O  O50  1  0.18306069  0.98202558  0.19672871  1
  O  O51  1  0.88119521  0.35679454  0.64321821  1
  O  O52  1  0.48360106  0.12566775  0.63466863  1
  O  O53  1  0.63795541  0.51422461  0.63922954  1
  O  O54  1  0.87525719  0.51311165  0.14009445  1
  O  O55  1  0.62776427  0.12009762  0.13726890  1
  O  O56  1  0.48568323  0.36266144  0.14007584  1
  O  O57  1  0.46064918  0.30095905  0.03058862  1
  O  O58  1  0.84798154  0.53965202  0.02977615  1
  O  O59  1  0.69478670  0.15374701  0.02855567  1
  O  O60  1  0.45563551  0.14351109  0.52838888  1
  O  O61  1  0.68622837  0.53498399  0.52926609  1
  O  O62  1  0.84424548  0.31187162  0.53251656  1
  O  O63  1  0.53712499  0.68979074  0.97097066  1
  O  O64  1  0.15493372  0.46713659  0.96832241  1
  O  O65  1  0.31238183  0.85327438  0.97441682  1
  O  O66  1  0.53414601  0.84610694  0.47141284  1
  O  O67  1  0.31316860  0.46385527  0.47035044  1
  O  O68  1  0.15867645  0.69104765  0.47009063  1
  O  O69  1  0.13104354  0.64126410  0.36188141  1
  O  O70  1  0.50584973  0.87127551  0.36339515  1
  O  O71  1  0.35930547  0.48763147  0.36174793  1
  O  O72  1  0.12559715  0.48090582  0.85886174  1
  O  O73  1  0.35521951  0.86578239  0.86495748  1
  O  O74  1  0.51451623  0.64368196  0.86216095  1
  O  O75  1  0.02815658  0.83295542  0.41110158  1
  O  O76  1  0.80785727  0.98017064  0.41008180  1
  O  O77  1  0.17217618  0.18858864  0.41144760  1
  O  O78  1  0.02175156  0.19190288  0.91114993  1
  O  O79  1  0.17030779  0.97708449  0.91176464  1
  O  O80  1  0.80723174  0.83034931  0.91113542  1
  O  O81  1  0.98214810  0.17088603  0.58839489  1
  O  O82  1  0.20076563  0.02442008  0.58784142  1
  O  O83  1  0.83345153  0.80676968  0.58789161  1
  O  O84  1  0.98333398  0.81123362  0.09059329  1
  O  O85  1  0.82954492  0.02028248  0.09092367  1
  O  O86  1  0.19365257  0.16585327  0.09074805  1
  O  O87  1  0.69372652  0.16653311  0.74434284  1
  O  O88  1  0.47326374  0.30893787  0.74474862  1
  O  O89  1  0.84099897  0.52281395  0.74680096  1
  O  O90  1  0.69140057  0.53338493  0.24506921  1
  O  O91  1  0.84713214  0.31679796  0.24463557  1
  O  O92  1  0.48010614  0.16399359  0.24581541  1
  O  O93  1  0.64310446  0.50243937  0.92298620  1
  O  O94  1  0.85975469  0.35778896  0.92208080  1
  O  O95  1  0.49809839  0.14174663  0.92279549  1
  O  O96  1  0.63050702  0.13496805  0.42431356  1
  O  O97  1  0.49598226  0.35126189  0.42323034  1
  O  O98  1  0.86301708  0.50207614  0.42212161  1
  O  O99  1  0.34823183  0.49028627  0.07612850  1
  O  O100  1  0.14596026  0.65567499  0.07683657  1
  O  O101  1  0.50409963  0.85952860  0.07484398  1
  O  O102  1  0.35406931  0.86510861  0.57718583  1
  O  O103  1  0.50879937  0.65265569  0.57656025  1
  O  O104  1  0.14183802  0.49752767  0.57700544  1
  O  O105  1  0.30969620  0.83293629  0.25473067  1
  O  O106  1  0.53193697  0.68968960  0.25463024  1
  O  O107  1  0.16248105  0.46523301  0.25432578  1
  O  O108  1  0.29928567  0.46877202  0.75586293  1
  O  O109  1  0.16521558  0.68906619  0.75564431  1
  O  O110  1  0.52677749  0.83561277  0.75557038  1
