# generated using pymatgen
data_Na10Y4Al4Si5S7O48
_symmetry_space_group_name_H-M   'P 1'
_cell_length_a   17.99006801
_cell_length_b   9.03510376
_cell_length_c   22.66483422
_cell_angle_alpha   89.59059685
_cell_angle_beta   89.09223444
_cell_angle_gamma   120.05417726
_symmetry_Int_Tables_number   1
_chemical_formula_structural   Na10Y4Al4Si5S7O48
_chemical_formula_sum   'Na30 Y12 Al12 Si15 S21 O144'
_cell_volume   3187.80193037
_cell_formula_units_Z   3
loop_
 _symmetry_equiv_pos_site_id
 _symmetry_equiv_pos_as_xyz
  1  'x, y, z'
loop_
 _atom_site_type_symbol
 _atom_site_label
 _atom_site_symmetry_multiplicity
 _atom_site_fract_x
 _atom_site_fract_y
 _atom_site_fract_z
 _atom_site_occupancy
  Na  Na0  1  0.32688939  0.99966036  0.25014188  1
  Na  Na1  1  0.82252621  0.99471914  0.25701613  1
  Na  Na2  1  0.18650706  0.38012370  0.24015927  1
  Na  Na3  1  0.66979022  0.35678050  0.24558800  1
  Na  Na4  1  0.99312101  0.63600524  0.26470327  1
  Na  Na5  1  0.49620416  0.62252219  0.25989315  1
  Na  Na6  1  0.83044241  0.65345566  0.73880056  1
  Na  Na7  1  0.99163259  0.35511965  0.75500723  1
  Na  Na8  1  0.49639404  0.34902178  0.75822737  1
  Na  Na9  1  0.17498383  0.99328056  0.73607272  1
  Na  Na10  1  0.02000886  0.71286810  0.58618984  1
  Na  Na11  1  0.32989723  0.98328295  0.59386619  1
  Na  Na12  1  0.02353283  0.32713049  0.08407369  1
  Na  Na13  1  0.51195753  0.33352863  0.08800903  1
  Na  Na14  1  0.16025596  0.30440635  0.93075149  1
  Na  Na15  1  0.66267707  0.30055844  0.93063303  1
  Na  Na16  1  0.16418897  0.01508079  0.42772962  1
  Na  Na17  1  0.66169093  0.03512210  0.42450347  1
  Na  Na18  1  0.99194717  0.99294950  0.50554896  1
  Na  Na19  1  0.51394101  0.99439764  0.49129352  1
  Na  Na20  1  0.00564543  0.00944725  0.00202963  1
  Na  Na21  1  0.50535960  0.00157175  0.00830755  1
  Na  Na22  1  0.34860085  0.33082194  0.83535924  1
  Na  Na23  1  0.85117678  0.31797012  0.82779299  1
  Na  Na24  1  0.35404846  0.36858861  0.33940371  1
  Na  Na25  1  0.84680095  0.36303554  0.34139063  1
  Na  Na26  1  0.17783157  0.65978459  0.17267822  1
  Na  Na27  1  0.67786127  0.65769601  0.16532752  1
  Na  Na28  1  0.17219823  0.67790280  0.66949167  1
  Na  Na29  1  0.68584233  0.72258087  0.65398502  1
  Y  Y30  1  0.98836956  0.98497037  0.35551322  1
  Y  Y31  1  0.98855257  0.98766622  0.84656767  1
  Y  Y32  1  0.49588323  0.01570437  0.84948934  1
  Y  Y33  1  0.51175160  0.00794625  0.63971215  1
  Y  Y34  1  0.99597652  0.99989547  0.15823190  1
  Y  Y35  1  0.82330922  0.33110034  0.18287457  1
  Y  Y36  1  0.33987713  0.33684484  0.98735814  1
  Y  Y37  1  0.83142666  0.33184842  0.98586788  1
  Y  Y38  1  0.17125091  0.65563741  0.02197081  1
  Y  Y39  1  0.16805243  0.66670783  0.52064156  1
  Y  Y40  1  0.16273744  0.66565914  0.81159019  1
  Y  Y41  1  0.67053420  0.68822131  0.81081243  1
  Al  Al42  1  0.48337073  0.96467269  0.34587073  1
  Al  Al43  1  0.00600369  0.99395413  0.64770931  1
  Al  Al44  1  0.49827815  0.01952170  0.15631902  1
  Al  Al45  1  0.33066627  0.32314510  0.67921625  1
  Al  Al46  1  0.83044562  0.31002566  0.68148664  1
  Al  Al47  1  0.33902723  0.35642487  0.18831206  1
  Al  Al48  1  0.33929571  0.35245731  0.48354874  1
  Al  Al49  1  0.84219883  0.35662822  0.48618703  1
  Al  Al50  1  0.65926374  0.64126898  0.01837796  1
  Al  Al51  1  0.65706688  0.71235803  0.51535131  1
  Al  Al52  1  0.16112395  0.64577648  0.31655603  1
  Al  Al53  1  0.64634836  0.61319493  0.31937851  1
  Si  Si54  1  0.35540929  0.71203553  0.25001227  1
  Si  Si55  1  0.83382688  0.68969259  0.25589124  1
  Si  Si56  1  0.00393428  0.31695685  0.25139230  1
  Si  Si57  1  0.49401546  0.28020505  0.25242904  1
  Si  Si58  1  0.99050270  0.68681971  0.73811339  1
  Si  Si59  1  0.35103026  0.01848107  0.73825602  1
  Si  Si60  1  0.85735140  0.00742631  0.73682183  1
  Si  Si61  1  0.18910618  0.06570523  0.58050177  1
  Si  Si62  1  0.70129797  0.06188254  0.57548417  1
  Si  Si63  1  0.18883094  0.32975350  0.08901674  1
  Si  Si64  1  0.66782446  0.32274567  0.08335505  1
  Si  Si65  1  0.01102000  0.35181049  0.91702482  1
  Si  Si66  1  0.52176245  0.37630440  0.91636374  1
  Si  Si67  1  0.01601225  0.64901256  0.41924760  1
  Si  Si68  1  0.51583167  0.66760073  0.41492925  1
  S  S69  1  0.15735506  0.00188313  0.25371437  1
  S  S70  1  0.63389763  0.98794578  0.25236218  1
  S  S71  1  0.15313865  0.29075597  0.74172160  1
  S  S72  1  0.65873360  0.30106663  0.74838020  1
  S  S73  1  0.49111430  0.68595117  0.74577888  1
  S  S74  1  0.47850614  0.35311529  0.57907782  1
  S  S75  1  0.97258024  0.32308612  0.58391900  1
  S  S76  1  0.33568690  0.60791348  0.58456119  1
  S  S77  1  0.83162171  0.62009209  0.58168030  1
  S  S78  1  0.48559992  0.64382636  0.08993528  1
  S  S79  1  0.98619512  0.64319125  0.08525060  1
  S  S80  1  0.33805513  0.04029931  0.09489169  1
  S  S81  1  0.82328403  0.00359780  0.08256887  1
  S  S82  1  0.31982505  0.66394115  0.91387760  1
  S  S83  1  0.80893653  0.67097517  0.92175487  1
  S  S84  1  0.16802835  0.97172681  0.91627201  1
  S  S85  1  0.66326919  0.95171063  0.92406915  1
  S  S86  1  0.32046465  0.96652272  0.41290351  1
  S  S87  1  0.80336395  0.95204648  0.41875607  1
  S  S88  1  0.17563241  0.37714751  0.41377809  1
  S  S89  1  0.66652542  0.38126644  0.41975304  1
  O  O90  1  0.11922277  0.03580425  0.30656482  1
  O  O91  1  0.59641974  0.01934613  0.30665093  1
  O  O92  1  0.41670428  0.77742664  0.30690330  1
  O  O93  1  0.91040982  0.77164389  0.30400200  1
  O  O94  1  0.47673400  0.13964087  0.30503380  1
  O  O95  1  0.98664335  0.18178823  0.30389870  1
  O  O96  1  0.12087501  0.19195081  0.79842705  1
  O  O97  1  0.62436861  0.20450422  0.80519357  1
  O  O98  1  0.48526445  0.76441284  0.80104587  1
  O  O99  1  0.96955615  0.76281898  0.79740171  1
  O  O100  1  0.41463457  0.05704543  0.79496138  1
  O  O101  1  0.90732293  0.04632547  0.79987351  1
  O  O102  1  0.39617455  0.99542562  0.67920884  1
  O  O103  1  0.91859321  0.98874583  0.68677325  1
  O  O104  1  0.09546973  0.19455365  0.69328861  1
  O  O105  1  0.59708476  0.21089201  0.70081753  1
  O  O106  1  0.01494645  0.82396859  0.68251406  1
  O  O107  1  0.50540711  0.79689545  0.69421681  1
  O  O108  1  0.40290662  0.85052644  0.19581856  1
  O  O109  1  0.87066122  0.81449217  0.19716066  1
  O  O110  1  0.02385061  0.24711023  0.18963628  1
  O  O111  1  0.51741068  0.21276317  0.19196941  1
  O  O112  1  0.09928239  0.96087277  0.20287132  1
  O  O113  1  0.58374568  0.97640129  0.19986304  1
  O  O114  1  0.43978347  0.36833029  0.63616888  1
  O  O115  1  0.93182323  0.34927076  0.63708706  1
  O  O116  1  0.25037152  0.15482614  0.63741569  1
  O  O117  1  0.75181792  0.15445664  0.63511851  1
  O  O118  1  0.33582853  0.51300330  0.63756515  1
  O  O119  1  0.82080502  0.52103423  0.63688001  1
  O  O120  1  0.44251675  0.51912476  0.14124584  1
  O  O121  1  0.94437069  0.54213354  0.13976860  1
  O  O122  1  0.33295483  0.13691236  0.14550476  1
  O  O123  1  0.81073038  0.07211757  0.13920271  1
  O  O124  1  0.25139220  0.33447096  0.14280411  1
  O  O125  1  0.72539017  0.35667133  0.14170574  1
  O  O126  1  0.22791681  0.33158897  0.02304398  1
  O  O127  1  0.71104875  0.29636342  0.02345299  1
  O  O128  1  0.43478910  0.56825624  0.03586896  1
  O  O129  1  0.93678615  0.54991599  0.03307903  1
  O  O130  1  0.35463350  0.14259687  0.03890477  1
  O  O131  1  0.83936321  0.12862982  0.03420569  1
  O  O132  1  0.24100759  0.17405456  0.51915374  1
  O  O133  1  0.75116843  0.17834815  0.51675362  1
  O  O134  1  0.33872088  0.52497310  0.52935373  1
  O  O135  1  0.85048458  0.53688813  0.53061311  1
  O  O136  1  0.41929957  0.32850484  0.53030615  1
  O  O137  1  0.92529531  0.31731763  0.53022894  1
  O  O138  1  0.28095853  0.68486256  0.96882511  1
  O  O139  1  0.75828666  0.67786040  0.97258123  1
  O  O140  1  0.06941201  0.45629402  0.97511266  1
  O  O141  1  0.57913894  0.48932096  0.97228751  1
  O  O142  1  0.16793539  0.87467700  0.96901659  1
  O  O143  1  0.66366076  0.85000137  0.97466339  1
  O  O144  1  0.28512414  0.87099284  0.47025145  1
  O  O145  1  0.75727244  0.84134409  0.47119646  1
  O  O146  1  0.16703599  0.45977638  0.46735706  1
  O  O147  1  0.65686582  0.47366329  0.46993715  1
  O  O148  1  0.07127813  0.67895145  0.47900841  1
  O  O149  1  0.58190822  0.71841662  0.47021132  1
  O  O150  1  0.07143950  0.63766319  0.36106505  1
  O  O151  1  0.56148841  0.63054467  0.35681331  1
  O  O152  1  0.26070355  0.87323100  0.36406976  1
  O  O153  1  0.75793622  0.86992734  0.36394179  1
  O  O154  1  0.18149673  0.47901939  0.35982962  1
  O  O155  1  0.67471495  0.47507781  0.36232400  1
  O  O156  1  0.06001418  0.44973098  0.85496880  1
  O  O157  1  0.56684835  0.46129222  0.85203905  1
  O  O158  1  0.17528313  0.89246452  0.86076052  1
  O  O159  1  0.67329617  0.88382801  0.86686072  1
  O  O160  1  0.27135424  0.66258827  0.86219246  1
  O  O161  1  0.76857153  0.66731995  0.86482208  1
  O  O162  1  0.01396847  0.82853916  0.41608319  1
  O  O163  1  0.51085424  0.84614447  0.40394889  1
  O  O164  1  0.40606948  0.98401620  0.40481026  1
  O  O165  1  0.89103287  0.97418859  0.42165760  1
  O  O166  1  0.10038564  0.20181671  0.41242624  1
  O  O167  1  0.59162403  0.20486316  0.41602675  1
  O  O168  1  0.01114830  0.17056371  0.91931365  1
  O  O169  1  0.51905806  0.18941006  0.92144199  1
  O  O170  1  0.08879908  0.98240536  0.91634182  1
  O  O171  1  0.58268044  0.95994532  0.92365490  1
  O  O172  1  0.40912117  0.80858412  0.91179582  1
  O  O173  1  0.89625035  0.81871087  0.92379850  1
  O  O174  1  0.48415767  0.19378774  0.58011056  1
  O  O175  1  0.98202314  0.17086074  0.58674333  1
  O  O176  1  0.08959061  0.03389867  0.58800347  1
  O  O177  1  0.60330994  0.03469516  0.57433734  1
  O  O178  1  0.41099748  0.78364704  0.58278028  1
  O  O179  1  0.91224907  0.79350798  0.58426894  1
  O  O180  1  0.49434464  0.81003498  0.09955531  1
  O  O181  1  0.99259790  0.81136698  0.08592580  1
  O  O182  1  0.41364374  0.01639439  0.09836118  1
  O  O183  1  0.90296293  0.99203989  0.08396354  1
  O  O184  1  0.09049571  0.16439236  0.08988319  1
  O  O185  1  0.57305811  0.14942166  0.09411397  1
  O  O186  1  0.34458104  0.19570462  0.73485362  1
  O  O187  1  0.84235690  0.17071921  0.73233419  1
  O  O188  1  0.24106355  0.31753006  0.73274053  1
  O  O189  1  0.74367777  0.32152423  0.73761145  1
  O  O190  1  0.41144422  0.51579846  0.74015611  1
  O  O191  1  0.90589328  0.49864302  0.72735489  1
  O  O192  1  0.34209352  0.51841966  0.23785735  1
  O  O193  1  0.81726326  0.49531596  0.24905278  1
  O  O194  1  0.41139743  0.31364464  0.24221658  1
  O  O195  1  0.91782741  0.33434437  0.24696446  1
  O  O196  1  0.24279185  0.15597394  0.24262944  1
  O  O197  1  0.72367092  0.13601392  0.24797643  1
  O  O198  1  0.31966022  0.50048705  0.91506738  1
  O  O199  1  0.81192381  0.50932849  0.92393974  1
  O  O200  1  0.42526393  0.34649276  0.91794604  1
  O  O201  1  0.91643472  0.33382362  0.91770226  1
  O  O202  1  0.24312846  0.14932276  0.91661572  1
  O  O203  1  0.73643390  0.13119025  0.92442389  1
  O  O204  1  0.32550826  0.13667488  0.41709521  1
  O  O205  1  0.81057654  0.12280408  0.42043440  1
  O  O206  1  0.25506027  0.36379222  0.41594724  1
  O  O207  1  0.74624873  0.36719872  0.42193712  1
  O  O208  1  0.42137862  0.49541900  0.43016934  1
  O  O209  1  0.91939718  0.47793859  0.42789187  1
  O  O210  1  0.17600046  0.49964388  0.09389041  1
  O  O211  1  0.65766368  0.49553771  0.07458196  1
  O  O212  1  0.07265043  0.66163067  0.08309753  1
  O  O213  1  0.57119744  0.65452482  0.08203093  1
  O  O214  1  0.25826640  0.87389861  0.09136977  1
  O  O215  1  0.74654932  0.83561485  0.07194710  1
  O  O216  1  0.18080618  0.87191985  0.58074182  1
  O  O217  1  0.68709856  0.86413892  0.57221879  1
  O  O218  1  0.25643800  0.62174267  0.58732095  1
  O  O219  1  0.75543622  0.63653687  0.57289278  1
  O  O220  1  0.06078564  0.48060410  0.58285825  1
  O  O221  1  0.56486683  0.50547831  0.57141443  1
  O  O222  1  0.16951370  0.85171510  0.26249035  1
  O  O223  1  0.64115381  0.83176228  0.25606947  1
  O  O224  1  0.25888441  0.69065650  0.26399160  1
  O  O225  1  0.74170870  0.68337618  0.27077400  1
  O  O226  1  0.09110396  0.50688232  0.25988496  1
  O  O227  1  0.57865782  0.47010304  0.26269068  1
  O  O228  1  0.15830436  0.45923915  0.74474608  1
  O  O229  1  0.66677001  0.47261899  0.75130246  1
  O  O230  1  0.07437651  0.66170799  0.74453336  1
  O  O231  1  0.56544015  0.65393877  0.74645608  1
  O  O232  1  0.25433787  0.85678781  0.74640681  1
  O  O233  1  0.76609462  0.82437100  0.73959899  1
