# generated using pymatgen
data_Na6Ta4Ga4Si7S5O48
_symmetry_space_group_name_H-M   'P 1'
_cell_length_a   17.64696311
_cell_length_b   8.77193652
_cell_length_c   22.53877326
_cell_angle_alpha   89.87175223
_cell_angle_beta   90.28793975
_cell_angle_gamma   119.81127664
_symmetry_Int_Tables_number   1
_chemical_formula_structural   Na6Ta4Ga4Si7S5O48
_chemical_formula_sum   'Na18 Ta12 Ga12 Si21 S15 O144'
_cell_volume   3027.21747489
_cell_formula_units_Z   3
loop_
 _symmetry_equiv_pos_site_id
 _symmetry_equiv_pos_as_xyz
  1  'x, y, z'
loop_
 _atom_site_type_symbol
 _atom_site_label
 _atom_site_symmetry_multiplicity
 _atom_site_fract_x
 _atom_site_fract_y
 _atom_site_fract_z
 _atom_site_occupancy
  Na  Na0  1  0.00001198  0.61983614  0.25130412  1
  Na  Na1  1  0.50124561  0.64154106  0.25571095  1
  Na  Na2  1  -0.00002540  0.36143299  0.75073762  1
  Na  Na3  1  0.50006601  0.37965572  0.74887901  1
  Na  Na4  1  0.33273879  0.97016038  0.58172304  1
  Na  Na5  1  0.83177126  0.69415647  0.08366697  1
  Na  Na6  1  0.00011513  0.98660505  0.50047775  1
  Na  Na7  1  0.50196979  0.00482426  0.49913208  1
  Na  Na8  1  0.99748894  0.99790278  0.00183924  1
  Na  Na9  1  0.50148988  0.01531905  0.00188049  1
  Na  Na10  1  0.33200001  0.34779963  0.82543020  1
  Na  Na11  1  0.83007530  0.33347006  0.83243972  1
  Na  Na12  1  0.33157499  0.32957105  0.33380044  1
  Na  Na13  1  0.82866031  0.31506899  0.32772475  1
  Na  Na14  1  0.16924147  0.66225501  0.17386634  1
  Na  Na15  1  0.66923367  0.66886804  0.16857073  1
  Na  Na16  1  0.16870915  0.66924537  0.66476515  1
  Na  Na17  1  0.66912625  0.67587746  0.66922041  1
  Ta  Ta18  1  0.99517416  0.00528981  0.35654862  1
  Ta  Ta19  1  0.50076779  0.98606857  0.35707518  1
  Ta  Ta20  1  0.99588825  0.01383865  0.85305930  1
  Ta  Ta21  1  0.49632619  0.98626182  0.85571682  1
  Ta  Ta22  1  0.99857791  0.00323839  0.64449347  1
  Ta  Ta23  1  0.49940289  0.99607847  0.14715481  1
  Ta  Ta24  1  0.34139145  0.33313658  0.97574847  1
  Ta  Ta25  1  0.83509892  0.35248671  0.98030570  1
  Ta  Ta26  1  0.33562272  0.31621765  0.48007444  1
  Ta  Ta27  1  0.83582756  0.35173440  0.47209756  1
  Ta  Ta28  1  0.16754375  0.66580211  0.02418984  1
  Ta  Ta29  1  0.66600556  0.65362761  0.52073712  1
  Ga  Ga30  1  0.50484351  0.99874286  0.64654018  1
  Ga  Ga31  1  0.00092183  0.00310117  0.15039947  1
  Ga  Ga32  1  0.33248658  0.34005787  0.68539645  1
  Ga  Ga33  1  0.82578253  0.32199408  0.68363231  1
  Ga  Ga34  1  0.32705892  0.32628401  0.18759858  1
  Ga  Ga35  1  0.83204312  0.32504702  0.18685650  1
  Ga  Ga36  1  0.67098344  0.63678695  0.01418679  1
  Ga  Ga37  1  0.17011140  0.70488789  0.51417009  1
  Ga  Ga38  1  0.16736781  0.66085601  0.31298328  1
  Ga  Ga39  1  0.66711108  0.68547536  0.32171204  1
  Ga  Ga40  1  0.16566364  0.63294048  0.81593445  1
  Ga  Ga41  1  0.66652120  0.67209265  0.81243169  1
  Si  Si42  1  0.65153691  0.00114713  0.25062894  1
  Si  Si43  1  0.34854809  0.69901853  0.24920799  1
  Si  Si44  1  0.00100688  0.29412787  0.24523689  1
  Si  Si45  1  0.15086933  0.29379292  0.74911827  1
  Si  Si46  1  0.50080949  0.70762005  0.74526237  1
  Si  Si47  1  0.84638798  0.99824623  0.74691874  1
  Si  Si48  1  0.47994607  0.32960331  0.59101868  1
  Si  Si49  1  0.19010267  0.04480527  0.58671604  1
  Si  Si50  1  0.83197984  0.61528265  0.58797782  1
  Si  Si51  1  0.97905751  0.63145518  0.09016343  1
  Si  Si52  1  0.33350805  0.04936924  0.08820416  1
  Si  Si53  1  0.68924159  0.33389612  0.08672938  1
  Si  Si54  1  0.30822465  0.66493477  0.91703812  1
  Si  Si55  1  0.80773148  0.67105413  0.91413636  1
  Si  Si56  1  0.02213605  0.38389098  0.91552401  1
  Si  Si57  1  0.53034215  0.38679159  0.91293041  1
  Si  Si58  1  0.30662762  0.94155256  0.41397132  1
  Si  Si59  1  0.80736235  0.95203010  0.41759009  1
  Si  Si60  1  0.66415683  0.38376639  0.41045629  1
  Si  Si61  1  0.03003279  0.67173727  0.41279857  1
  Si  Si62  1  0.52196880  0.65876676  0.41638109  1
  S  S63  1  0.14523606  0.00382084  0.24921868  1
  S  S64  1  0.85247932  0.71182083  0.24937054  1
  S  S65  1  0.50004863  0.28981726  0.24964229  1
  S  S66  1  0.64536945  0.28659211  0.74934283  1
  S  S67  1  0.00168120  0.71304349  0.75056363  1
  S  S68  1  0.35119040  0.99179730  0.75044757  1
  S  S69  1  0.98006303  0.34033924  0.58343555  1
  S  S70  1  0.68887170  0.04542912  0.58333473  1
  S  S71  1  0.33138583  0.62141934  0.58291310  1
  S  S72  1  0.48038880  0.62186864  0.08360707  1
  S  S73  1  0.83124542  0.04133240  0.08275962  1
  S  S74  1  0.18908988  0.32866927  0.08318146  1
  S  S75  1  0.16648887  0.95226441  0.91548468  1
  S  S76  1  0.66795639  0.95404234  0.91763571  1
  S  S77  1  0.16782271  0.38140213  0.41797267  1
  O  O78  1  0.10226517  0.02685357  0.30225913  1
  O  O79  1  0.59783946  0.02531874  0.30652992  1
  O  O80  1  0.41769213  0.79459143  0.30483350  1
  O  O81  1  0.91278130  0.80295444  0.30242590  1
  O  O82  1  0.48568228  0.17953228  0.30248978  1
  O  O83  1  0.98938619  0.16734742  0.30468100  1
  O  O84  1  0.09825833  0.16778822  0.80742662  1
  O  O85  1  0.60147216  0.17687979  0.80307504  1
  O  O86  1  0.48913748  0.81024572  0.80529158  1
  O  O87  1  0.98789236  0.79627530  0.80393226  1
  O  O88  1  0.41165643  0.02035753  0.80379432  1
  O  O89  1  0.91596812  0.04125938  0.80512033  1
  O  O90  1  0.39046442  0.96558778  0.69633281  1
  O  O91  1  0.90108066  0.97469542  0.69214878  1
  O  O92  1  0.08052960  0.19362866  0.69422609  1
  O  O93  1  0.59023060  0.20898371  0.69554394  1
  O  O94  1  0.01250096  0.82077273  0.69652204  1
  O  O95  1  0.51599108  0.83837935  0.69000346  1
  O  O96  1  0.40023904  0.82698517  0.19115421  1
  O  O97  1  0.89404017  0.81613236  0.19440116  1
  O  O98  1  0.01707230  0.19724260  0.18887045  1
  O  O99  1  0.51040489  0.20118712  0.19512563  1
  O  O100  1  0.09088056  0.97237293  0.19456327  1
  O  O101  1  0.58162183  0.96594353  0.19366670  1
  O  O102  1  0.43606052  0.36157675  0.64830359  1
  O  O103  1  0.94133537  0.36213099  0.63910293  1
  O  O104  1  0.25542807  0.13332459  0.64217061  1
  O  O105  1  0.74070444  0.11740166  0.63877516  1
  O  O106  1  0.31897721  0.51898685  0.63757478  1
  O  O107  1  0.81766390  0.49511649  0.64574893  1
  O  O108  1  0.44008489  0.51742704  0.13751633  1
  O  O109  1  0.93742913  0.50982216  0.14711293  1
  O  O110  1  0.31663360  0.14211517  0.14391463  1
  O  O111  1  0.81932503  0.11964474  0.13672447  1
  O  O112  1  0.24170727  0.36395371  0.13752035  1
  O  O113  1  0.75670074  0.37871694  0.14104417  1
  O  O114  1  0.23225928  0.31079293  0.02987406  1
  O  O115  1  0.73402612  0.30274475  0.02608603  1
  O  O116  1  0.42240591  0.53664289  0.02987582  1
  O  O117  1  0.91632710  0.53840175  0.02943246  1
  O  O118  1  0.34470135  0.16750960  0.02792091  1
  O  O119  1  0.84588574  0.15303219  0.02894794  1
  O  O120  1  0.23336557  0.16546605  0.52645525  1
  O  O121  1  0.73271571  0.15597725  0.53104586  1
  O  O122  1  0.34577479  0.53882198  0.52967479  1
  O  O123  1  0.84678554  0.52427105  0.52878732  1
  O  O124  1  0.41609202  0.29389548  0.53050264  1
  O  O125  1  0.92307494  0.30756791  0.53118733  1
  O  O126  1  0.26565392  0.70135308  0.97555079  1
  O  O127  1  0.77793420  0.71383020  0.97760087  1
  O  O128  1  0.08550698  0.47887350  0.97288962  1
  O  O129  1  0.57807383  0.46148519  0.97563977  1
  O  O130  1  0.15436484  0.84765827  0.97040983  1
  O  O131  1  0.64996919  0.84607516  0.97169410  1
  O  O132  1  0.27666298  0.84114265  0.47796597  1
  O  O133  1  0.76630508  0.83100523  0.47629899  1
  O  O134  1  0.14985057  0.45306473  0.47143066  1
  O  O135  1  0.65107160  0.46546216  0.47305580  1
  O  O136  1  0.07873386  0.69862099  0.47556016  1
  O  O137  1  0.58443898  0.69482586  0.47430467  1
  O  O138  1  0.06402025  0.63022550  0.35247963  1
  O  O139  1  0.55567772  0.62093544  0.35465469  1
  O  O140  1  0.24505270  0.86049623  0.35731975  1
  O  O141  1  0.75549383  0.88562614  0.35649595  1
  O  O142  1  0.18154874  0.48081047  0.36306186  1
  O  O143  1  0.68544728  0.50727677  0.35376199  1
  O  O144  1  0.05858162  0.49655745  0.85485098  1
  O  O145  1  0.56309482  0.49700702  0.85279647  1
  O  O146  1  0.18322931  0.87871866  0.86241878  1
  O  O147  1  0.68144526  0.88180696  0.86331485  1
  O  O148  1  0.25449832  0.63473679  0.85709900  1
  O  O149  1  0.74662458  0.63373464  0.85762997  1
  O  O150  1  0.01416355  0.84154651  0.40432064  1
  O  O151  1  0.51266319  0.83659702  0.41285485  1
  O  O152  1  0.40695900  0.98046812  0.40503694  1
  O  O153  1  0.90752746  0.97718513  0.41053899  1
  O  O154  1  0.08885130  0.19677667  0.41016937  1
  O  O155  1  0.57894411  0.18821417  0.40731751  1
  O  O156  1  0.01589961  0.18869849  0.91155582  1
  O  O157  1  0.51287935  0.18498527  0.90533365  1
  O  O158  1  0.08793649  0.97161721  0.91106426  1
  O  O159  1  0.58909490  0.98099995  0.91025613  1
  O  O160  1  0.40811197  0.83566713  0.91064871  1
  O  O161  1  0.91047374  0.83291025  0.90540931  1
  O  O162  1  0.48510844  0.14563798  0.59413911  1
  O  O163  1  0.98536236  0.17191028  0.58799977  1
  O  O164  1  0.09238702  0.02464361  0.59284508  1
  O  O165  1  0.60167043  0.03194510  0.58722006  1
  O  O166  1  0.41015705  0.80199774  0.58716582  1
  O  O167  1  0.91961587  0.81135512  0.59247545  1
  O  O168  1  0.48388003  0.79672525  0.08649643  1
  O  O169  1  0.98591715  0.82661858  0.09327882  1
  O  O170  1  0.41950812  0.02615581  0.09085032  1
  O  O171  1  0.90999218  0.01810159  0.08652636  1
  O  O172  1  0.10100894  0.17316649  0.08646799  1
  O  O173  1  0.59178862  0.15886008  0.09169709  1
  O  O174  1  0.34902908  0.15761331  0.74962616  1
  O  O175  1  0.84907417  0.18869517  0.73981714  1
  O  O176  1  0.24387902  0.30715089  0.74332691  1
  O  O177  1  0.73189045  0.29818130  0.74617657  1
  O  O178  1  0.41357848  0.51356773  0.74405286  1
  O  O179  1  0.92398700  0.53503480  0.74541866  1
  O  O180  1  0.34954363  0.51159712  0.23961789  1
  O  O181  1  0.85055127  0.54106923  0.24815314  1
  O  O182  1  0.42115856  0.31008374  0.24340646  1
  O  O183  1  0.91373231  0.31367590  0.24361661  1
  O  O184  1  0.23213911  0.16573949  0.24552678  1
  O  O185  1  0.74313742  0.17766195  0.24247891  1
  O  O186  1  0.31979476  0.49305099  0.92866808  1
  O  O187  1  0.81944129  0.49341885  0.92271568  1
  O  O188  1  0.42774694  0.35489657  0.92375871  1
  O  O189  1  0.92263185  0.34534975  0.92625453  1
  O  O190  1  0.24472367  0.13363339  0.92464680  1
  O  O191  1  0.74558487  0.13295428  0.92437938  1
  O  O192  1  0.31852647  0.14346328  0.42302845  1
  O  O193  1  0.82422654  0.14945779  0.43024481  1
  O  O194  1  0.24550484  0.35783429  0.42458471  1
  O  O195  1  0.74928693  0.35574599  0.42365296  1
  O  O196  1  0.42198703  0.49656278  0.42736392  1
  O  O197  1  0.92898212  0.50159224  0.42301529  1
  O  O198  1  0.17981662  0.49136669  0.07728147  1
  O  O199  1  0.68147960  0.51335978  0.07961669  1
  O  O200  1  0.07427972  0.65008143  0.07427315  1
  O  O201  1  0.56783701  0.64712700  0.07565561  1
  O  O202  1  0.24747943  0.85526834  0.07651779  1
  O  O203  1  0.75197664  0.86440921  0.07630909  1
  O  O204  1  0.18166198  0.84958285  0.58013385  1
  O  O205  1  0.67913962  0.86803135  0.57799369  1
  O  O206  1  0.25229553  0.64009678  0.57699483  1
  O  O207  1  0.74818720  0.64431037  0.57942835  1
  O  O208  1  0.06861266  0.48865648  0.57725151  1
  O  O209  1  0.57436490  0.50360433  0.57862050  1
  O  O210  1  0.15338559  0.84491829  0.25345921  1
  O  O211  1  0.65012454  0.81255586  0.25462461  1
  O  O212  1  0.25553629  0.68564489  0.25581563  1
  O  O213  1  0.76760845  0.69663904  0.25486696  1
  O  O214  1  0.08626491  0.48823442  0.25420465  1
  O  O215  1  0.57839033  0.46283092  0.25160344  1
  O  O216  1  0.14890146  0.48015036  0.75234707  1
  O  O217  1  0.65312336  0.46159256  0.75448477  1
  O  O218  1  0.08174257  0.69922420  0.75504673  1
  O  O219  1  0.58626385  0.68491085  0.75455535  1
  O  O220  1  0.26410098  0.83800219  0.75891025  1
  O  O221  1  0.75531172  0.82508381  0.75633727  1
