# generated using pymatgen
data_Na3HfSi2SnPO12
_symmetry_space_group_name_H-M   'P 1'
_cell_length_a   15.76762385
_cell_length_b   9.07510968
_cell_length_c   9.10158575
_cell_angle_alpha   90.04512158
_cell_angle_beta   124.97742589
_cell_angle_gamma   89.92527246
_symmetry_Int_Tables_number   1
_chemical_formula_structural   Na3HfSi2SnPO12
_chemical_formula_sum   'Na12 Hf4 Si8 Sn4 P4 O48'
_cell_volume   1067.13437377
_cell_formula_units_Z   4
loop_
 _symmetry_equiv_pos_site_id
 _symmetry_equiv_pos_as_xyz
  1  'x, y, z'
loop_
 _atom_site_type_symbol
 _atom_site_label
 _atom_site_symmetry_multiplicity
 _atom_site_fract_x
 _atom_site_fract_y
 _atom_site_fract_z
 _atom_site_occupancy
  Na  Na0  1  0.24353126  0.77367315  0.99734238  1
  Na  Na1  1  0.74598782  0.72460654  0.49894730  1
  Na  Na2  1  0.74600322  0.27439193  0.99858134  1
  Na  Na3  1  0.24382289  0.22908562  0.49663568  1
  Na  Na4  1  0.50375341  0.10312910  0.75204533  1
  Na  Na5  1  0.50129687  0.89910560  0.24919322  1
  Na  Na6  1  0.00330806  0.60423640  0.75048931  1
  Na  Na7  1  0.00154366  0.39272841  0.25048324  1
  Na  Na8  1  0.81018212  0.93264271  0.21411474  1
  Na  Na9  1  0.80883739  0.06736335  0.71357787  1
  Na  Na10  1  0.30846779  0.43431468  0.21298505  1
  Na  Na11  1  0.30791300  0.56711043  0.71109931  1
  Hf  Hf12  1  0.10531788  0.74978053  0.56134808  1
  Hf  Hf13  1  0.60474397  0.25025721  0.56198944  1
  Hf  Hf14  1  0.39575827  0.75538864  0.43785616  1
  Hf  Hf15  1  0.60633506  0.75018303  0.06390826  1
  Si  Si16  1  0.35538272  0.89920566  0.76069035  1
  Si  Si17  1  0.65084165  0.89268666  0.74755220  1
  Si  Si18  1  0.64999961  0.10781852  0.24601946  1
  Si  Si19  1  0.35224730  0.10463364  0.25122460  1
  Si  Si20  1  0.85614654  0.39677564  0.75844915  1
  Si  Si21  1  0.14951619  0.39211521  0.74699702  1
  Si  Si22  1  0.14724815  0.60436313  0.24176767  1
  Si  Si23  1  0.85544081  0.60155073  0.25728167  1
  Sn  Sn24  1  0.89731566  0.74550737  0.93803958  1
  Sn  Sn25  1  0.89814497  0.25390535  0.43917000  1
  Sn  Sn26  1  0.10391717  0.25062359  0.06090339  1
  Sn  Sn27  1  0.39744072  0.24651022  0.93678444  1
  P  P28  1  0.00159621  0.95991558  0.75122884  1
  P  P29  1  0.00001174  0.04200732  0.24438950  1
  P  P30  1  0.50036170  0.45774386  0.74917161  1
  P  P31  1  0.49913451  0.54109659  0.24429717  1
  O  O32  1  0.15269334  0.57457721  0.73759136  1
  O  O33  1  0.85361736  0.57728357  0.75491800  1
  O  O34  1  0.85258756  0.42100003  0.25384316  1
  O  O35  1  0.15035281  0.42140991  0.24597672  1
  O  O36  1  0.65287507  0.07507952  0.74123887  1
  O  O37  1  0.35256662  0.07904725  0.75024686  1
  O  O38  1  0.34956593  0.92503747  0.25730562  1
  O  O39  1  0.65313351  0.92532444  0.24262308  1
  O  O40  1  0.43637853  0.55109243  0.57787046  1
  O  O41  1  0.55956199  0.55793636  0.91449693  1
  O  O42  1  0.55802951  0.43728336  0.40605928  1
  O  O43  1  0.42952110  0.45242523  0.06882018  1
  O  O44  1  0.93255316  0.05198704  0.57814653  1
  O  O45  1  0.06592257  0.05512682  0.91979258  1
  O  O46  1  0.05827517  0.93907255  0.40698818  1
  O  O47  1  0.93074475  0.95345232  0.06860189  1
  O  O48  1  0.25683832  0.82318777  0.74339409  1
  O  O49  1  0.75179925  0.83510344  0.75443406  1
  O  O50  1  0.75283452  0.16348890  0.25739250  1
  O  O51  1  0.25577978  0.18441400  0.24067249  1
  O  O52  1  0.75595578  0.32340911  0.73901489  1
  O  O53  1  0.25121558  0.33461190  0.75651244  1
  O  O54  1  0.25012895  0.66064751  0.25619137  1
  O  O55  1  0.75743881  0.67765594  0.24340147  1
  O  O56  1  0.36113828  0.84709346  0.59365362  1
  O  O57  1  0.65176084  0.85496474  0.92409227  1
  O  O58  1  0.64823577  0.14549240  0.41970828  1
  O  O59  1  0.35670556  0.14045766  0.08000034  1
  O  O60  1  0.86319610  0.35639543  0.59160550  1
  O  O61  1  0.14884199  0.36654252  0.92418237  1
  O  O62  1  0.14606554  0.64590471  0.41538633  1
  O  O63  1  0.85832561  0.64410425  0.08599595  1
  O  O64  1  0.46043798  0.83748744  0.94299717  1
  O  O65  1  0.54485720  0.82979605  0.56739841  1
  O  O66  1  0.54720138  0.17347536  0.06038476  1
  O  O67  1  0.45731652  0.16898897  0.43309119  1
  O  O68  1  0.95642898  0.32628115  0.94457708  1
  O  O69  1  0.04728922  0.32396167  0.56289873  1
  O  O70  1  0.04495203  0.66964066  0.05569769  1
  O  O71  1  0.95951853  0.66581515  0.43886429  1
  O  O72  1  0.07606928  0.85664875  0.74235436  1
  O  O73  1  0.92183576  0.86361429  0.75748855  1
  O  O74  1  0.92175074  0.13918877  0.25422706  1
  O  O75  1  0.07898539  0.14220229  0.24541441  1
  O  O76  1  0.57700264  0.35442016  0.74666594  1
  O  O77  1  0.41952746  0.36267393  0.75296475  1
  O  O78  1  0.42333324  0.63934348  0.25726092  1
  O  O79  1  0.57730569  0.64139627  0.24299367  1
