# generated using pymatgen
data_Na10Ti8Si9(SO16)3
_symmetry_space_group_name_H-M   'P 1'
_cell_length_a   17.74588357
_cell_length_b   8.88825142
_cell_length_c   22.30716797
_cell_angle_alpha   90.04711850
_cell_angle_beta   89.94418167
_cell_angle_gamma   119.94271427
_symmetry_Int_Tables_number   1
_chemical_formula_structural   Na10Ti8Si9(SO16)3
_chemical_formula_sum   'Na30 Ti24 Si27 S9 O144'
_cell_volume   3048.87202889
_cell_formula_units_Z   3
loop_
 _symmetry_equiv_pos_site_id
 _symmetry_equiv_pos_as_xyz
  1  'x, y, z'
loop_
 _atom_site_type_symbol
 _atom_site_label
 _atom_site_symmetry_multiplicity
 _atom_site_fract_x
 _atom_site_fract_y
 _atom_site_fract_z
 _atom_site_occupancy
  Na  Na0  1  0.31798128  0.99916068  0.24987241  1
  Na  Na1  1  0.81802501  0.99984127  0.24991064  1
  Na  Na2  1  0.18377671  0.99425874  0.74865846  1
  Na  Na3  1  0.68376362  0.99969246  0.74816193  1
  Na  Na4  1  0.01809380  0.70181951  0.58133620  1
  Na  Na5  1  0.51801673  0.70221804  0.58124762  1
  Na  Na6  1  0.01815746  0.33473996  0.08118515  1
  Na  Na7  1  0.51637836  0.33091929  0.08189538  1
  Na  Na8  1  0.48306432  0.66481278  0.91575189  1
  Na  Na9  1  0.34960134  0.03295657  0.91629263  1
  Na  Na10  1  0.85169831  0.03807203  0.91516048  1
  Na  Na11  1  0.16460516  0.30252884  0.91777754  1
  Na  Na12  1  0.48375472  0.30255486  0.41628109  1
  Na  Na13  1  0.98381068  0.30274547  0.41630409  1
  Na  Na14  1  0.16561623  0.03023521  0.41704467  1
  Na  Na15  1  0.66563663  0.03041010  0.41702690  1
  Na  Na16  1  0.35032348  0.66664726  0.41650827  1
  Na  Na17  1  0.85039624  0.66656318  0.41649400  1
  Na  Na18  1  0.00166532  0.00500004  0.50162676  1
  Na  Na19  1  0.50167181  0.00487283  0.50160396  1
  Na  Na20  1  0.00285272  0.99352724  0.00135714  1
  Na  Na21  1  0.50492488  0.00504501  0.99989604  1
  Na  Na22  1  0.33916926  0.34075417  0.83152831  1
  Na  Na23  1  0.83997618  0.34548661  0.83276980  1
  Na  Na24  1  0.33692729  0.34386711  0.33132062  1
  Na  Na25  1  0.83684294  0.34361569  0.33122358  1
  Na  Na26  1  0.16930199  0.66412142  0.16613140  1
  Na  Na27  1  0.66958231  0.66389421  0.16772906  1
  Na  Na28  1  0.17217009  0.66747746  0.66711080  1
  Na  Na29  1  0.67269464  0.66612015  0.66555580  1
  Ti  Ti30  1  0.99227179  0.99339196  0.35313056  1
  Ti  Ti31  1  0.49234294  0.99325058  0.35308044  1
  Ti  Ti32  1  0.99609627  0.99246050  0.85180804  1
  Ti  Ti33  1  0.49415558  0.99547895  0.85497258  1
  Ti  Ti34  1  0.99344485  0.97751923  0.64653443  1
  Ti  Ti35  1  0.49376511  0.97941219  0.64636309  1
  Ti  Ti36  1  0.99480862  0.01106982  0.14639645  1
  Ti  Ti37  1  0.49450600  0.01181697  0.14658247  1
  Ti  Ti38  1  0.33268260  0.33270002  0.68646138  1
  Ti  Ti39  1  0.83248904  0.33424985  0.68682115  1
  Ti  Ti40  1  0.32947007  0.33510368  0.18681066  1
  Ti  Ti41  1  0.83102740  0.33905208  0.18618686  1
  Ti  Ti42  1  0.32576486  0.31469937  0.97839179  1
  Ti  Ti43  1  0.82865411  0.31509544  0.98076032  1
  Ti  Ti44  1  0.32722317  0.33565386  0.47969888  1
  Ti  Ti45  1  0.82732564  0.33550571  0.47973406  1
  Ti  Ti46  1  0.17409311  0.67230111  0.01803698  1
  Ti  Ti47  1  0.66689066  0.66683086  0.02063519  1
  Ti  Ti48  1  0.17471263  0.67864647  0.51862571  1
  Ti  Ti49  1  0.67466866  0.67876438  0.51846784  1
  Ti  Ti50  1  0.16463764  0.64966176  0.31453969  1
  Ti  Ti51  1  0.66470817  0.65005522  0.31467278  1
  Ti  Ti52  1  0.16569826  0.67174758  0.81597033  1
  Ti  Ti53  1  0.66146761  0.67679430  0.81187118  1
  Si  Si54  1  0.35437370  0.70585815  0.24899357  1
  Si  Si55  1  0.85440060  0.70621091  0.24901271  1
  Si  Si56  1  0.00080483  0.29645679  0.25036884  1
  Si  Si57  1  0.50088017  0.29684634  0.25059108  1
  Si  Si58  1  0.99758175  0.70196764  0.75035621  1
  Si  Si59  1  0.49512576  0.70466304  0.75068394  1
  Si  Si60  1  0.35469855  0.99885973  0.74964770  1
  Si  Si61  1  0.85521705  0.99950958  0.75004141  1
  Si  Si62  1  0.18775720  0.04426086  0.58443053  1
  Si  Si63  1  0.68794576  0.04452950  0.58457718  1
  Si  Si64  1  0.32877043  0.61816229  0.58391945  1
  Si  Si65  1  0.82874138  0.61821870  0.58367272  1
  Si  Si66  1  0.32830536  0.03891334  0.08427794  1
  Si  Si67  1  0.82879623  0.03859469  0.08492371  1
  Si  Si68  1  0.18750586  0.33204601  0.08353903  1
  Si  Si69  1  0.68831493  0.33152357  0.08298089  1
  Si  Si70  1  0.31075997  0.66328316  0.91514513  1
  Si  Si71  1  0.02132781  0.38215159  0.91737774  1
  Si  Si72  1  0.52471102  0.37807081  0.91702898  1
  Si  Si73  1  0.16084280  0.94703015  0.91750806  1
  Si  Si74  1  0.66527398  0.95768289  0.91739801  1
  Si  Si75  1  0.31020686  0.95763336  0.41446926  1
  Si  Si76  1  0.81023766  0.95770570  0.41446762  1
  Si  Si77  1  0.16443540  0.37614277  0.41813079  1
  Si  Si78  1  0.66447919  0.37611662  0.41814067  1
  Si  Si79  1  0.02324652  0.66639957  0.41731222  1
  Si  Si80  1  0.52320767  0.66636934  0.41730537  1
  S  S81  1  0.14285858  0.99865650  0.24960520  1
  S  S82  1  0.64319160  0.99930033  0.24954069  1
  S  S83  1  0.14295502  0.28944238  0.74891088  1
  S  S84  1  0.64302626  0.29024758  0.74988300  1
  S  S85  1  0.47769137  0.33064565  0.58333172  1
  S  S86  1  0.97760568  0.33048170  0.58342186  1
  S  S87  1  0.47714228  0.62431123  0.08319157  1
  S  S88  1  0.97678036  0.62344376  0.08314789  1
  S  S89  1  0.80952023  0.66240718  0.91607532  1
  O  O90  1  0.10517438  0.02748240  0.30526386  1
  O  O91  1  0.60503360  0.02717309  0.30523582  1
  O  O92  1  0.41488352  0.79894733  0.30961683  1
  O  O93  1  0.91487279  0.79888136  0.30963498  1
  O  O94  1  0.48418219  0.16608940  0.30849787  1
  O  O95  1  0.98415725  0.16592380  0.30843257  1
  O  O96  1  0.10537682  0.18107489  0.80481910  1
  O  O97  1  0.60458611  0.17799689  0.80371001  1
  O  O98  1  0.48626008  0.80359454  0.80970945  1
  O  O99  1  0.98637999  0.80993039  0.80716166  1
  O  O100  1  0.41604844  0.03077332  0.80943134  1
  O  O101  1  0.91522201  0.02921496  0.81046584  1
  O  O102  1  0.40741374  0.97611807  0.69250461  1
  O  O103  1  0.90649802  0.97487934  0.69279504  1
  O  O104  1  0.08981042  0.20566698  0.69593972  1
  O  O105  1  0.59069455  0.21115492  0.69544401  1
  O  O106  1  0.01737262  0.83176827  0.69140162  1
  O  O107  1  0.51879912  0.83334702  0.69140618  1
  O  O108  1  0.40605407  0.84045224  0.19311426  1
  O  O109  1  0.90581043  0.84030900  0.19310679  1
  O  O110  1  0.01540338  0.20145963  0.19082986  1
  O  O111  1  0.51555771  0.20254710  0.19084674  1
  O  O112  1  0.08939368  0.97548767  0.19597626  1
  O  O113  1  0.58937664  0.97548517  0.19590619  1
  O  O114  1  0.43597109  0.36132337  0.63667701  1
  O  O115  1  0.93578708  0.36138775  0.63673024  1
  O  O116  1  0.24929564  0.13651621  0.64326514  1
  O  O117  1  0.74926629  0.13635698  0.64350351  1
  O  O118  1  0.32096878  0.49557674  0.64096915  1
  O  O119  1  0.82078955  0.49553617  0.64076931  1
  O  O120  1  0.43747864  0.51040048  0.13643510  1
  O  O121  1  0.93608659  0.50939984  0.13734538  1
  O  O122  1  0.32080902  0.14036124  0.14333964  1
  O  O123  1  0.81874511  0.13631893  0.14361881  1
  O  O124  1  0.25236121  0.36273176  0.14062992  1
  O  O125  1  0.75205421  0.36416488  0.14100702  1
  O  O126  1  0.23577819  0.30582343  0.02395950  1
  O  O127  1  0.73934387  0.30785073  0.02522855  1
  O  O128  1  0.42587430  0.54752693  0.02787548  1
  O  O129  1  0.92273478  0.54283527  0.02913770  1
  O  O130  1  0.35161006  0.16828496  0.02493334  1
  O  O131  1  0.85137833  0.16623655  0.02519276  1
  O  O132  1  0.23617905  0.16608086  0.52460435  1
  O  O133  1  0.73621335  0.16596784  0.52464694  1
  O  O134  1  0.35159781  0.53583802  0.52433064  1
  O  O135  1  0.85152887  0.53581437  0.52419741  1
  O  O136  1  0.42508662  0.30334504  0.52801538  1
  O  O137  1  0.92498856  0.30332930  0.52801493  1
  O  O138  1  0.26813079  0.70596363  0.97374489  1
  O  O139  1  0.77141068  0.69841730  0.97043634  1
  O  O140  1  0.08377278  0.46394280  0.97668778  1
  O  O141  1  0.58333895  0.47005062  0.97718016  1
  O  O142  1  0.14932690  0.82783949  0.97547893  1
  O  O143  1  0.65120396  0.82584134  0.97334465  1
  O  O144  1  0.26772425  0.82891473  0.47292411  1
  O  O145  1  0.76773735  0.82895925  0.47291714  1
  O  O146  1  0.14620264  0.46854185  0.47487438  1
  O  O147  1  0.64625314  0.46867612  0.47488719  1
  O  O148  1  0.08390986  0.70357774  0.47719451  1
  O  O149  1  0.58392325  0.70356877  0.47719288  1
  O  O150  1  0.06973267  0.62995292  0.35972397  1
  O  O151  1  0.56970222  0.62985962  0.35974511  1
  O  O152  1  0.24912759  0.87315028  0.35589900  1
  O  O153  1  0.74913285  0.87300411  0.35590896  1
  O  O154  1  0.18743488  0.50448596  0.35946900  1
  O  O155  1  0.68738280  0.50455321  0.35948388  1
  O  O156  1  0.07006026  0.50399613  0.85858741  1
  O  O157  1  0.57316262  0.51029671  0.86003579  1
  O  O158  1  0.18573349  0.87247714  0.85751606  1
  O  O159  1  0.68614067  0.87135731  0.85779738  1
  O  O160  1  0.24670784  0.62674551  0.85827103  1
  O  O161  1  0.75709784  0.63740468  0.86220520  1
  O  O162  1  0.01350132  0.84021793  0.40928687  1
  O  O163  1  0.51352969  0.84019823  0.40933511  1
  O  O164  1  0.40732649  0.97516455  0.41066713  1
  O  O165  1  0.90728235  0.97512991  0.41069044  1
  O  O166  1  0.08117143  0.18227810  0.40895988  1
  O  O167  1  0.58117558  0.18234514  0.40899345  1
  O  O168  1  0.01017784  0.18519280  0.90925311  1
  O  O169  1  0.51089369  0.18356223  0.90961397  1
  O  O170  1  0.08073210  0.98598027  0.90881412  1
  O  O171  1  0.57848665  0.97089364  0.90944430  1
  O  O172  1  0.40696504  0.83892104  0.91067393  1
  O  O173  1  0.89784877  0.82637176  0.91149440  1
  O  O174  1  0.48789860  0.17575223  0.59021612  1
  O  O175  1  0.98780177  0.17586184  0.59033251  1
  O  O176  1  0.09081769  0.02494182  0.59061098  1
  O  O177  1  0.59091237  0.02508125  0.59056475  1
  O  O178  1  0.41919935  0.81024400  0.59012574  1
  O  O179  1  0.91899593  0.81007499  0.58983375  1
  O  O180  1  0.48888232  0.80045182  0.09056966  1
  O  O181  1  0.98697176  0.79838083  0.09064213  1
  O  O182  1  0.41926746  0.02730692  0.08986376  1
  O  O183  1  0.91937484  0.02703284  0.08954830  1
  O  O184  1  0.09142674  0.15669541  0.09077942  1
  O  O185  1  0.59163897  0.15875077  0.09047435  1
  O  O186  1  0.34153671  0.16911785  0.74278159  1
  O  O187  1  0.84053172  0.16714022  0.74328812  1
  O  O188  1  0.23092067  0.30223778  0.74499993  1
  O  O189  1  0.73149090  0.30381808  0.74467742  1
  O  O190  1  0.41187055  0.51289431  0.74213735  1
  O  O191  1  0.91119181  0.51349184  0.74221643  1
  O  O192  1  0.34560154  0.51533921  0.24222691  1
  O  O193  1  0.84538226  0.51523800  0.24246858  1
  O  O194  1  0.41056727  0.30170971  0.24320068  1
  O  O195  1  0.91048406  0.30135148  0.24296873  1
  O  O196  1  0.23280183  0.15729649  0.24498712  1
  O  O197  1  0.73282937  0.15733940  0.24496789  1
  O  O198  1  0.32351197  0.49494914  0.92397343  1
  O  O199  1  0.82210976  0.51135839  0.92354054  1
  O  O200  1  0.42812538  0.36177024  0.92355627  1
  O  O201  1  0.92357769  0.35755561  0.92425128  1
  O  O202  1  0.25073223  0.14305328  0.92321495  1
  O  O203  1  0.75479992  0.14697006  0.92339330  1
  O  O204  1  0.32382913  0.15180515  0.42433294  1
  O  O205  1  0.82378253  0.15172948  0.42428534  1
  O  O206  1  0.25290963  0.35918918  0.42323262  1
  O  O207  1  0.75292080  0.35919019  0.42325695  1
  O  O208  1  0.42645686  0.49304306  0.42386512  1
  O  O209  1  0.92644129  0.49302811  0.42385459  1
  O  O210  1  0.17296399  0.49928613  0.07781968  1
  O  O211  1  0.67454946  0.50079086  0.07589585  1
  O  O212  1  0.06303751  0.63491546  0.07869889  1
  O  O213  1  0.56506672  0.63664463  0.07853001  1
  O  O214  1  0.24345466  0.84821494  0.07786774  1
  O  O215  1  0.74507038  0.84681190  0.07463759  1
  O  O216  1  0.17353629  0.84727464  0.57748768  1
  O  O217  1  0.67349803  0.84716194  0.57763777  1
  O  O218  1  0.24335460  0.63770029  0.57738543  1
  O  O219  1  0.74328823  0.63772362  0.57742668  1
  O  O220  1  0.06365786  0.49149449  0.57886195  1
  O  O221  1  0.56372582  0.49150059  0.57893067  1
  O  O222  1  0.15524640  0.84591498  0.25422259  1
  O  O223  1  0.65517788  0.84574287  0.25414279  1
  O  O224  1  0.26183934  0.70283525  0.25586085  1
  O  O225  1  0.76173748  0.70282335  0.25575826  1
  O  O226  1  0.08757118  0.48646491  0.25615586  1
  O  O227  1  0.58768956  0.48691458  0.25605902  1
  O  O228  1  0.15357399  0.46493656  0.75490682  1
  O  O229  1  0.65526627  0.46667846  0.75715465  1
  O  O230  1  0.08739678  0.69426024  0.75629294  1
  O  O231  1  0.58630178  0.69449844  0.75660512  1
  O  O232  1  0.25820835  0.82718046  0.75566927  1
  O  O233  1  0.75861184  0.82497966  0.75761972  1
