# generated using pymatgen
data_Sr4As3
_symmetry_space_group_name_H-M   'P 1'
_cell_length_a   10.99894385
_cell_length_b   12.23233350
_cell_length_c   12.87201675
_cell_angle_alpha   90.00000000
_cell_angle_beta   90.00000000
_cell_angle_gamma   90.00000000
_symmetry_Int_Tables_number   1
_chemical_formula_structural   Sr4As3
_chemical_formula_sum   'Sr32 As24'
_cell_volume   1731.83652285
_cell_formula_units_Z   8
loop_
 _symmetry_equiv_pos_site_id
 _symmetry_equiv_pos_as_xyz
  1  'x, y, z'
loop_
 _atom_site_type_symbol
 _atom_site_label
 _atom_site_symmetry_multiplicity
 _atom_site_fract_x
 _atom_site_fract_y
 _atom_site_fract_z
 _atom_site_occupancy
  Sr  Sr0  1  -0.00000000  0.60287826  0.79346515  1
  Sr  Sr1  1  -0.00000000  0.39712174  0.20653485  1
  Sr  Sr2  1  -0.00000000  0.10287826  0.70653485  1
  Sr  Sr3  1  -0.00000000  0.89712174  0.29346515  1
  Sr  Sr4  1  0.72336214  0.40395796  0.76411636  1
  Sr  Sr5  1  0.72336214  0.59604204  0.23588364  1
  Sr  Sr6  1  0.27663786  0.90395796  0.73588364  1
  Sr  Sr7  1  0.27663786  0.09604204  0.26411636  1
  Sr  Sr8  1  0.27663786  0.59604204  0.23588364  1
  Sr  Sr9  1  0.27663786  0.40395796  0.76411636  1
  Sr  Sr10  1  0.72336214  0.09604204  0.26411636  1
  Sr  Sr11  1  0.72336214  0.90395796  0.73588364  1
  Sr  Sr12  1  -0.00000000  0.77416258  0.57745493  1
  Sr  Sr13  1  -0.00000000  0.22583742  0.42254507  1
  Sr  Sr14  1  -0.00000000  0.27416258  0.92254507  1
  Sr  Sr15  1  -0.00000000  0.72583742  0.07745493  1
  Sr  Sr16  1  0.67737467  0.67358920  0.93297952  1
  Sr  Sr17  1  0.67737467  0.32641080  0.06702048  1
  Sr  Sr18  1  0.32262533  0.17358920  0.56702048  1
  Sr  Sr19  1  0.32262533  0.82641080  0.43297952  1
  Sr  Sr20  1  0.32262533  0.32641080  0.06702048  1
  Sr  Sr21  1  0.32262533  0.67358920  0.93297952  1
  Sr  Sr22  1  0.67737467  0.82641080  0.43297952  1
  Sr  Sr23  1  0.67737467  0.17358920  0.56702048  1
  Sr  Sr24  1  0.50000000  0.12293895  0.86802781  1
  Sr  Sr25  1  0.50000000  0.87706105  0.13197219  1
  Sr  Sr26  1  0.50000000  0.62293895  0.63197219  1
  Sr  Sr27  1  0.50000000  0.37706105  0.36802781  1
  Sr  Sr28  1  0.81686303  0.00000000  0.00000000  1
  Sr  Sr29  1  0.18313697  0.50000000  0.50000000  1
  Sr  Sr30  1  0.18313697  0.00000000  0.00000000  1
  Sr  Sr31  1  0.81686303  0.50000000  0.50000000  1
  As  As32  1  0.88420563  0.50000000  0.00000000  1
  As  As33  1  0.11579437  0.00000000  0.50000000  1
  As  As34  1  0.11579437  0.50000000  0.00000000  1
  As  As35  1  0.88420563  0.00000000  0.50000000  1
  As  As36  1  0.50000000  0.86346774  0.88648761  1
  As  As37  1  0.50000000  0.13653226  0.11351239  1
  As  As38  1  0.50000000  0.36346774  0.61351239  1
  As  As39  1  0.50000000  0.63653226  0.38648761  1
  As  As40  1  0.23403255  0.83763483  0.17666624  1
  As  As41  1  0.23403255  0.16236517  0.82333376  1
  As  As42  1  0.76596745  0.33763483  0.32333376  1
  As  As43  1  0.76596745  0.66236517  0.67666624  1
  As  As44  1  0.76596745  0.16236517  0.82333376  1
  As  As45  1  0.76596745  0.83763483  0.17666624  1
  As  As46  1  0.23403255  0.66236517  0.67666624  1
  As  As47  1  0.23403255  0.33763483  0.32333376  1
  As  As48  1  0.50000000  0.46243696  0.90857837  1
  As  As49  1  0.50000000  0.53756304  0.09142163  1
  As  As50  1  0.50000000  0.96243696  0.59142163  1
  As  As51  1  0.50000000  0.03756304  0.40857837  1
  As  As52  1  -0.00000000  0.86084530  0.85887413  1
  As  As53  1  -0.00000000  0.13915470  0.14112587  1
  As  As54  1  -0.00000000  0.36084530  0.64112587  1
  As  As55  1  -0.00000000  0.63915470  0.35887413  1
