# generated using pymatgen
data_Na14Y6Nb2Si9(SO16)3
_symmetry_space_group_name_H-M   'P 1'
_cell_length_a   18.81850913
_cell_length_b   9.39267400
_cell_length_c   23.08591204
_cell_angle_alpha   90.09728403
_cell_angle_beta   89.56560151
_cell_angle_gamma   119.94054796
_symmetry_Int_Tables_number   1
_chemical_formula_structural   Na14Y6Nb2Si9(SO16)3
_chemical_formula_sum   'Na42 Y18 Nb6 Si27 S9 O144'
_cell_volume   3535.88600956
_cell_formula_units_Z   3
loop_
 _symmetry_equiv_pos_site_id
 _symmetry_equiv_pos_as_xyz
  1  'x, y, z'
loop_
 _atom_site_type_symbol
 _atom_site_label
 _atom_site_symmetry_multiplicity
 _atom_site_fract_x
 _atom_site_fract_y
 _atom_site_fract_z
 _atom_site_occupancy
  Na  Na0  1  0.81436977  0.00706983  0.24008372  1
  Na  Na1  1  0.68939718  0.36875617  0.24010747  1
  Na  Na2  1  0.50080947  0.62203281  0.24329558  1
  Na  Na3  1  0.31303892  0.61921483  0.73969978  1
  Na  Na4  1  0.99245982  0.36122073  0.74501644  1
  Na  Na5  1  0.18722179  0.01015496  0.73923655  1
  Na  Na6  1  0.15110642  0.33127083  0.58654357  1
  Na  Na7  1  0.66012393  0.34246613  0.59247656  1
  Na  Na8  1  0.01541092  0.69380101  0.58768570  1
  Na  Na9  1  0.51232348  0.67971054  0.58516367  1
  Na  Na10  1  0.32424104  0.97557772  0.58965942  1
  Na  Na11  1  0.83273214  0.97611262  0.59345364  1
  Na  Na12  1  0.15748032  0.97666665  0.08809301  1
  Na  Na13  1  0.65752670  0.96894198  0.08049658  1
  Na  Na14  1  0.33091640  0.68536550  0.08819496  1
  Na  Na15  1  0.82724654  0.68080210  0.08524316  1
  Na  Na16  1  0.01198106  0.34443207  0.08129052  1
  Na  Na17  1  0.51591541  0.34728135  0.07987915  1
  Na  Na18  1  0.49169471  0.67280512  0.91463578  1
  Na  Na19  1  0.98062771  0.64781465  0.90814557  1
  Na  Na20  1  0.36173505  0.05796960  0.91173296  1
  Na  Na21  1  0.85407614  0.05255690  0.91155314  1
  Na  Na22  1  0.15797981  0.29969426  0.91709826  1
  Na  Na23  1  0.66302061  0.28955314  0.92310558  1
  Na  Na24  1  0.48135756  0.31547386  0.41426805  1
  Na  Na25  1  0.98933323  0.30557730  0.42157244  1
  Na  Na26  1  0.16052407  0.03619023  0.42849084  1
  Na  Na27  1  0.65937627  0.01366257  0.42359637  1
  Na  Na28  1  0.35242840  0.65135726  0.42421469  1
  Na  Na29  1  0.86032171  0.66614083  0.41626290  1
  Na  Na30  1  0.00670331  0.00255230  0.50823591  1
  Na  Na31  1  0.50302135  0.98626832  0.50674948  1
  Na  Na32  1  0.00162161  0.01872455  0.00020081  1
  Na  Na33  1  0.50705669  0.01195186  0.99627675  1
  Na  Na34  1  0.34830014  0.33679924  0.81986178  1
  Na  Na35  1  0.83681866  0.32228011  0.82765381  1
  Na  Na36  1  0.33678863  0.33480130  0.33499309  1
  Na  Na37  1  0.84857734  0.36072700  0.32161968  1
  Na  Na38  1  0.16597543  0.66727048  0.16045815  1
  Na  Na39  1  0.66846284  0.66677947  0.16331626  1
  Na  Na40  1  0.16579782  0.66764095  0.66501448  1
  Na  Na41  1  0.67036779  0.67018820  0.66516047  1
  Y  Y42  1  0.00142225  0.99793473  0.34701340  1
  Y  Y43  1  0.50081242  0.00003540  0.34680952  1
  Y  Y44  1  0.99840639  0.00247032  0.84484471  1
  Y  Y45  1  0.50178591  0.00650885  0.84600034  1
  Y  Y46  1  0.33763133  0.33324756  0.68274411  1
  Y  Y47  1  0.83253582  0.33572948  0.68392436  1
  Y  Y48  1  0.33198594  0.32259840  0.18280480  1
  Y  Y49  1  0.83875341  0.34254401  0.18320926  1
  Y  Y50  1  0.33935784  0.33717863  0.98983737  1
  Y  Y51  1  0.83595774  0.33112667  0.98668176  1
  Y  Y52  1  0.33485291  0.33831467  0.48920467  1
  Y  Y53  1  0.83752203  0.33856090  0.49197472  1
  Y  Y54  1  0.16339879  0.65678284  0.01884671  1
  Y  Y55  1  0.66290240  0.66603102  0.01790682  1
  Y  Y56  1  0.16256546  0.65988897  0.52026377  1
  Y  Y57  1  0.66358391  0.67042607  0.51974561  1
  Y  Y58  1  0.66139452  0.66379425  0.30697188  1
  Y  Y59  1  0.16054520  0.65814099  0.80678970  1
  Nb  Nb60  1  0.99583062  0.99303447  0.65297185  1
  Nb  Nb61  1  0.49598511  0.98970444  0.64868623  1
  Nb  Nb62  1  0.99547985  0.00329891  0.14766095  1
  Nb  Nb63  1  0.50610657  0.01651833  0.14701816  1
  Nb  Nb64  1  0.15505996  0.63962324  0.31355576  1
  Nb  Nb65  1  0.65944044  0.68332186  0.81032936  1
  Si  Si66  1  0.64781033  0.00184702  0.24926168  1
  Si  Si67  1  0.85191099  0.70715379  0.25220874  1
  Si  Si68  1  0.00104098  0.29364220  0.25215848  1
  Si  Si69  1  0.49671215  0.29383863  0.25268865  1
  Si  Si70  1  0.14764529  0.29301895  0.75003366  1
  Si  Si71  1  0.99827943  0.70121066  0.75301510  1
  Si  Si72  1  0.49967402  0.70744737  0.75235976  1
  Si  Si73  1  0.35135327  0.99645299  0.75259749  1
  Si  Si74  1  0.84671525  0.99209472  0.75272988  1
  Si  Si75  1  0.48424524  0.32237476  0.58024820  1
  Si  Si76  1  0.98367000  0.32367310  0.58564917  1
  Si  Si77  1  0.17806858  0.03260959  0.58450357  1
  Si  Si78  1  0.68070270  0.03558885  0.58268680  1
  Si  Si79  1  0.33471223  0.63967096  0.58538968  1
  Si  Si80  1  0.83640020  0.64267847  0.58138931  1
  Si  Si81  1  0.48301428  0.64235997  0.08771662  1
  Si  Si82  1  0.98441839  0.64513914  0.08110166  1
  Si  Si83  1  0.33643606  0.02886667  0.08229596  1
  Si  Si84  1  0.83381611  0.03027848  0.08592046  1
  Si  Si85  1  0.18231166  0.32744110  0.08430332  1
  Si  Si86  1  0.68309597  0.33326747  0.08411921  1
  Si  Si87  1  0.01516107  0.36097305  0.91709599  1
  Si  Si88  1  0.51989371  0.37550631  0.91488089  1
  Si  Si89  1  0.66735009  0.97026200  0.91702827  1
  Si  Si90  1  0.16801636  0.36635648  0.41646469  1
  Si  Si91  1  0.01638021  0.66238036  0.41669999  1
  Si  Si92  1  0.51393572  0.66589835  0.41556292  1
  S  S93  1  0.14965163  0.98754279  0.25057088  1
  S  S94  1  0.34614903  0.70382199  0.25049331  1
  S  S95  1  0.64781920  0.30887411  0.74894325  1
  S  S96  1  0.31554687  0.66512229  0.91607103  1
  S  S97  1  0.81152136  0.66487116  0.91472575  1
  S  S98  1  0.16912948  0.96899305  0.91699232  1
  S  S99  1  0.30924356  0.95367949  0.41279042  1
  S  S100  1  0.81497160  0.96579131  0.41505737  1
  S  S101  1  0.66829773  0.36829911  0.41570299  1
  O  O102  1  0.10978067  0.00198593  0.30395857  1
  O  O103  1  0.60568740  0.01843876  0.30858359  1
  O  O104  1  0.39522709  0.78302962  0.30327813  1
  O  O105  1  0.89727106  0.78481905  0.31283732  1
  O  O106  1  0.48990094  0.20103710  0.31341130  1
  O  O107  1  0.99623508  0.20348976  0.31201661  1
  O  O108  1  0.10965936  0.19570898  0.81058106  1
  O  O109  1  0.60897039  0.21428642  0.80295780  1
  O  O110  1  0.49377068  0.78638672  0.81264039  1
  O  O111  1  0.99406853  0.78039488  0.81461674  1
  O  O112  1  0.39667750  0.01040880  0.81349452  1
  O  O113  1  0.89760780  0.01642598  0.81159239  1
  O  O114  1  0.41374396  0.99144228  0.69877263  1
  O  O115  1  0.89877972  0.97395475  0.69608419  1
  O  O116  1  0.08257191  0.17663562  0.69694944  1
  O  O117  1  0.59673814  0.21995806  0.69761087  1
  O  O118  1  0.00066533  0.82431683  0.69845756  1
  O  O119  1  0.51229368  0.83353744  0.69670347  1
  O  O120  1  0.38782224  0.80352153  0.19817618  1
  O  O121  1  0.91381041  0.83799300  0.19846798  1
  O  O122  1  0.01376569  0.19459008  0.19618524  1
  O  O123  1  0.49928418  0.17457181  0.19783098  1
  O  O124  1  0.09954315  0.96969401  0.19857468  1
  O  O125  1  0.58396709  0.99255715  0.19560239  1
  O  O126  1  0.44096902  0.37328332  0.62995871  1
  O  O127  1  0.94003352  0.36000695  0.63944322  1
  O  O128  1  0.23932812  0.11961277  0.63831196  1
  O  O129  1  0.74629448  0.12897635  0.63251482  1
  O  O130  1  0.31758057  0.52458143  0.64096991  1
  O  O131  1  0.81296555  0.50598384  0.63107067  1
  O  O132  1  0.44021896  0.52458897  0.14318395  1
  O  O133  1  0.94232236  0.51017637  0.13156429  1
  O  O134  1  0.31406004  0.11715628  0.13343497  1
  O  O135  1  0.81664825  0.10803795  0.14257819  1
  O  O136  1  0.24589206  0.36556248  0.13617514  1
  O  O137  1  0.73869938  0.35915116  0.13992189  1
  O  O138  1  0.21712377  0.28872803  0.02400509  1
  O  O139  1  0.71658355  0.28862652  0.02529787  1
  O  O140  1  0.42659206  0.56909126  0.02928084  1
  O  O141  1  0.92798747  0.58203461  0.02252711  1
  O  O142  1  0.36022259  0.14251560  0.02313799  1
  O  O143  1  0.85647725  0.14680644  0.02865234  1
  O  O144  1  0.21535947  0.14340517  0.52471293  1
  O  O145  1  0.71307641  0.13794137  0.52084469  1
  O  O146  1  0.35712527  0.56986734  0.52699812  1
  O  O147  1  0.85667351  0.57592769  0.52027052  1
  O  O148  1  0.42893453  0.27454271  0.52070933  1
  O  O149  1  0.92960344  0.28819925  0.52572391  1
  O  O150  1  0.27654648  0.68457986  0.96918963  1
  O  O151  1  0.77542071  0.68250332  0.96987120  1
  O  O152  1  0.06922919  0.44727877  0.97512800  1
  O  O153  1  0.56898796  0.45104628  0.97461313  1
  O  O154  1  0.16431456  0.87460807  0.96966171  1
  O  O155  1  0.65763665  0.86375166  0.97423609  1
  O  O156  1  0.27391755  0.86536807  0.46754085  1
  O  O157  1  0.77532798  0.86661322  0.46748218  1
  O  O158  1  0.15907237  0.45751633  0.47241522  1
  O  O159  1  0.66199589  0.45185421  0.46780780  1
  O  O160  1  0.07172636  0.68860674  0.47241927  1
  O  O161  1  0.57137929  0.69516536  0.47207323  1
  O  O162  1  0.07570967  0.65142117  0.35939689  1
  O  O163  1  0.56083864  0.64938785  0.35784632  1
  O  O164  1  0.25748965  0.85942124  0.36262978  1
  O  O165  1  0.76638521  0.88113823  0.36313761  1
  O  O166  1  0.17147213  0.49547607  0.35958559  1
  O  O167  1  0.67631124  0.46567414  0.36315708  1
  O  O168  1  0.06379480  0.47459704  0.86061125  1
  O  O169  1  0.57974596  0.50381827  0.86038976  1
  O  O170  1  0.17748631  0.88661046  0.86489977  1
  O  O171  1  0.67160688  0.85242350  0.86033133  1
  O  O172  1  0.26694586  0.65289288  0.86466961  1
  O  O173  1  0.76027829  0.65648316  0.86510198  1
  O  O174  1  0.00734250  0.82479619  0.41074228  1
  O  O175  1  0.49923205  0.82714363  0.41496451  1
  O  O176  1  0.39309299  0.97471239  0.40824335  1
  O  O177  1  0.89923781  0.98877435  0.41266202  1
  O  O178  1  0.08622055  0.18637370  0.41184196  1
  O  O179  1  0.59169107  0.20219478  0.41425661  1
  O  O180  1  0.00417151  0.17394619  0.91741624  1
  O  O181  1  0.50866444  0.19116996  0.91083747  1
  O  O182  1  0.09310733  0.98188536  0.91611648  1
  O  O183  1  0.58500873  0.98621876  0.91272309  1
  O  O184  1  0.40012723  0.81166805  0.91392517  1
  O  O185  1  0.89614955  0.80898452  0.91180680  1
  O  O186  1  0.49194939  0.15653460  0.59667232  1
  O  O187  1  0.98986610  0.15445481  0.59502089  1
  O  O188  1  0.08597868  0.01498811  0.59464242  1
  O  O189  1  0.59025520  0.02564107  0.59637994  1
  O  O190  1  0.42262926  0.82292822  0.59527563  1
  O  O191  1  0.92125306  0.82166468  0.59401359  1
  O  O192  1  0.48908834  0.82460883  0.09836927  1
  O  O193  1  0.99303250  0.82786894  0.09768298  1
  O  O194  1  0.42000463  0.01540951  0.09639875  1
  O  O195  1  0.92169127  0.02099628  0.09502308  1
  O  O196  1  0.09150789  0.15632150  0.09737199  1
  O  O197  1  0.58842262  0.16385412  0.09336089  1
  O  O198  1  0.33402048  0.14762023  0.74646840  1
  O  O199  1  0.83789806  0.15296950  0.74533572  1
  O  O200  1  0.23874829  0.31702956  0.74452138  1
  O  O201  1  0.72956550  0.32772383  0.74509212  1
  O  O202  1  0.41880971  0.53229594  0.74500720  1
  O  O203  1  0.92334334  0.51397101  0.74879867  1
  O  O204  1  0.33800441  0.53920672  0.24714084  1
  O  O205  1  0.83443077  0.52096689  0.24646829  1
  O  O206  1  0.42241802  0.33473510  0.24921862  1
  O  O207  1  0.92034326  0.30829795  0.24570977  1
  O  O208  1  0.23159360  0.13473286  0.24717110  1
  O  O209  1  0.73841497  0.16068479  0.24551576  1
  O  O210  1  0.32105232  0.51198492  0.91954946  1
  O  O211  1  0.81611467  0.51033364  0.91587143  1
  O  O212  1  0.43063961  0.36965454  0.91348672  1
  O  O213  1  0.92554507  0.35286726  0.91844601  1
  O  O214  1  0.24309008  0.13752251  0.91923196  1
  O  O215  1  0.75158266  0.14658496  0.91365215  1
  O  O216  1  0.31535335  0.11856964  0.41352259  1
  O  O217  1  0.82013702  0.12969875  0.41870635  1
  O  O218  1  0.25270349  0.35993961  0.41234830  1
  O  O219  1  0.74166392  0.34618624  0.41798396  1
  O  O220  1  0.42470907  0.49357607  0.41865317  1
  O  O221  1  0.92882112  0.48964109  0.41387631  1
  O  O222  1  0.16462889  0.48129830  0.08116147  1
  O  O223  1  0.66620276  0.48608713  0.08072604  1
  O  O224  1  0.07962274  0.68569690  0.07629197  1
  O  O225  1  0.57578110  0.67199011  0.08210212  1
  O  O226  1  0.26093861  0.84092638  0.07720763  1
  O  O227  1  0.76131218  0.84120918  0.07906042  1
  O  O228  1  0.16532896  0.84804347  0.58025772  1
  O  O229  1  0.66206096  0.84559140  0.58083766  1
  O  O230  1  0.26313910  0.68587248  0.57870754  1
  O  O231  1  0.76098086  0.68135267  0.57662981  1
  O  O232  1  0.07700503  0.47932124  0.58191103  1
  O  O233  1  0.57913504  0.47229168  0.57540845  1
  O  O234  1  0.15837510  0.83638925  0.25498763  1
  O  O235  1  0.64803859  0.82830780  0.24503679  1
  O  O236  1  0.26358460  0.69114538  0.25615042  1
  O  O237  1  0.76653208  0.71269564  0.24617834  1
  O  O238  1  0.08750159  0.48581922  0.25645882  1
  O  O239  1  0.58638528  0.46343994  0.24588356  1
  O  O240  1  0.14902506  0.46834309  0.74584543  1
  O  O241  1  0.65304215  0.47285776  0.75236517  1
  O  O242  1  0.08798686  0.71047612  0.74557272  1
  O  O243  1  0.58573375  0.69108958  0.75574688  1
  O  O244  1  0.26682349  0.81963895  0.74646460  1
  O  O245  1  0.75518868  0.81646081  0.75952597  1
