# generated using pymatgen
data_NaMg2Zr2PS5O24
_symmetry_space_group_name_H-M   'P 1'
_cell_length_a   8.85167801
_cell_length_b   8.86346512
_cell_length_c   22.92040176
_cell_angle_alpha   89.99416092
_cell_angle_beta   89.89422103
_cell_angle_gamma   120.07204504
_symmetry_Int_Tables_number   1
_chemical_formula_structural   NaMg2Zr2PS5O24
_chemical_formula_sum   'Na3 Mg6 Zr6 P3 S15 O72'
_cell_volume   1556.19929836
_cell_formula_units_Z   3
loop_
 _symmetry_equiv_pos_site_id
 _symmetry_equiv_pos_as_xyz
  1  'x, y, z'
loop_
 _atom_site_type_symbol
 _atom_site_label
 _atom_site_symmetry_multiplicity
 _atom_site_fract_x
 _atom_site_fract_y
 _atom_site_fract_z
 _atom_site_occupancy
  Na  Na0  1  0.66941781  0.33327571  0.82888018  1
  Na  Na1  1  0.66263186  0.33403764  0.33252320  1
  Na  Na2  1  0.33625808  0.66933488  0.16352781  1
  Mg  Mg3  1  0.99982944  0.00665568  0.85500781  1
  Mg  Mg4  1  0.66650852  0.33264595  0.68135081  1
  Mg  Mg5  1  0.65956271  0.33360391  0.18622688  1
  Mg  Mg6  1  0.66635688  0.33356247  0.48775086  1
  Mg  Mg7  1  0.32898895  0.66010269  0.01483090  1
  Mg  Mg8  1  0.33334056  0.66623425  0.52704407  1
  Zr  Zr9  1  0.00229091  0.99323183  0.35562797  1
  Zr  Zr10  1  0.99882192  0.99989185  0.64075194  1
  Zr  Zr11  1  0.99882670  0.99242782  0.14382307  1
  Zr  Zr12  1  0.67182439  0.33300827  0.97682754  1
  Zr  Zr13  1  0.33989633  0.67301900  0.31357053  1
  Zr  Zr14  1  0.32394998  0.65941697  0.81070635  1
  P  P15  1  0.29639087  0.00603398  0.24928485  1
  P  P16  1  0.71086643  0.70378239  0.24942415  1
  P  P17  1  0.04948042  0.37195855  0.91795997  1
  S  S18  1  0.99550173  0.28953811  0.24958511  1
  S  S19  1  0.29253973  0.28423929  0.75074781  1
  S  S20  1  0.99228471  0.70921694  0.75107153  1
  S  S21  1  0.71328620  0.00557921  0.75114000  1
  S  S22  1  0.95625074  0.34021830  0.58271290  1
  S  S23  1  0.38382105  0.04347714  0.58277560  1
  S  S24  1  0.65961580  0.61589113  0.58277570  1
  S  S25  1  0.95941561  0.61751067  0.08463384  1
  S  S26  1  0.66004662  0.04030246  0.08484899  1
  S  S27  1  0.38022440  0.34038199  0.08439943  1
  S  S28  1  0.62592889  0.67350969  0.91714944  1
  S  S29  1  0.32603673  0.95211289  0.91720491  1
  S  S30  1  0.62230919  0.96103533  0.41968525  1
  S  S31  1  0.33823060  0.37946019  0.41906616  1
  S  S32  1  0.04077054  0.65880032  0.41940908  1
  O  O33  1  0.20418218  0.02716340  0.30399316  1
  O  O34  1  0.82206472  0.79805763  0.30408358  1
  O  O35  1  0.97279164  0.18379149  0.30252322  1
  O  O36  1  0.21071348  0.17984219  0.80269114  1
  O  O37  1  0.97098105  0.79113443  0.80319767  1
  O  O38  1  0.81935449  0.02882424  0.80262543  1
  O  O39  1  0.79224707  0.97410821  0.69787822  1
  O  O40  1  0.18189869  0.20793393  0.69787799  1
  O  O41  1  0.02550956  0.81884126  0.69792374  1
  O  O42  1  0.79468470  0.82515109  0.19567251  1
  O  O43  1  0.02842387  0.21089804  0.19734661  1
  O  O44  1  0.17571084  0.97227102  0.19575899  1
  O  O45  1  0.87605855  0.36227601  0.63556642  1
  O  O46  1  0.48610567  0.12377620  0.63550120  1
  O  O47  1  0.63756658  0.51369075  0.63559706  1
  O  O48  1  0.87604657  0.51281076  0.13639663  1
  O  O49  1  0.63791757  0.12422617  0.13633406  1
  O  O50  1  0.48589177  0.36267652  0.13605118  1
  O  O51  1  0.45785307  0.30731649  0.03154035  1
  O  O52  1  0.84857476  0.54126842  0.03169068  1
  O  O53  1  0.69204004  0.15096180  0.03155195  1
  O  O54  1  0.45546330  0.15337776  0.53059400  1
  O  O55  1  0.69838994  0.54481186  0.53061478  1
  O  O56  1  0.84645344  0.30175510  0.53061349  1
  O  O57  1  0.54441593  0.69447676  0.96953065  1
  O  O58  1  0.15424598  0.46212430  0.97146470  1
  O  O59  1  0.30860604  0.85146335  0.96967105  1
  O  O60  1  0.54122237  0.84771497  0.46898717  1
  O  O61  1  0.30676796  0.45931994  0.46896556  1
  O  O62  1  0.15273882  0.69283950  0.46913377  1
  O  O63  1  0.12387075  0.63808896  0.36430536  1
  O  O64  1  0.51451771  0.87676648  0.36460281  1
  O  O65  1  0.36090292  0.48632507  0.36418154  1
  O  O66  1  0.12998201  0.49521441  0.86282519  1
  O  O67  1  0.36612511  0.87772443  0.86450304  1
  O  O68  1  0.51232317  0.63647434  0.86456400  1
  O  O69  1  0.02456336  0.81876143  0.40900888  1
  O  O70  1  0.79628891  0.97734150  0.40762431  1
  O  O71  1  0.17878245  0.20503441  0.40764962  1
  O  O72  1  0.02062909  0.19373605  0.90593833  1
  O  O73  1  0.17761658  0.97503564  0.90736562  1
  O  O74  1  0.79905472  0.81997278  0.90735153  1
  O  O75  1  0.97514761  0.17961730  0.59248955  1
  O  O76  1  0.20410642  0.02477930  0.59267746  1
  O  O77  1  0.82072689  0.79558836  0.59249164  1
  O  O78  1  0.97417585  0.79370896  0.09071422  1
  O  O79  1  0.82101639  0.02630460  0.09173911  1
  O  O80  1  0.20344927  0.18094852  0.09219813  1
  O  O81  1  0.68981173  0.15769560  0.74266702  1
  O  O82  1  0.46923171  0.31048241  0.74253296  1
  O  O83  1  0.84234596  0.53219777  0.74292473  1
  O  O84  1  0.69233802  0.52594947  0.24295157  1
  O  O85  1  0.84300543  0.30943191  0.24252260  1
  O  O86  1  0.47643871  0.16315408  0.24299028  1
  O  O87  1  0.63994216  0.50904816  0.92425265  1
  O  O88  1  0.86224364  0.35875243  0.92448184  1
  O  O89  1  0.48923052  0.13225496  0.92405772  1
  O  O90  1  0.64240822  0.13568085  0.42341592  1
  O  O91  1  0.49190414  0.35723438  0.42313919  1
  O  O92  1  0.86396245  0.50674552  0.42345934  1
  O  O93  1  0.35771355  0.49287032  0.07691929  1
  O  O94  1  0.13603457  0.64493096  0.07683492  1
  O  O95  1  0.50846415  0.86513516  0.07614231  1
  O  O96  1  0.35654399  0.86894076  0.57366123  1
  O  O97  1  0.51238128  0.64342517  0.57376793  1
  O  O98  1  0.13121113  0.48768513  0.57368205  1
  O  O99  1  0.30602562  0.83563947  0.25741008  1
  O  O100  1  0.52816565  0.68950969  0.25728469  1
  O  O101  1  0.15629319  0.46501162  0.25683509  1
  O  O102  1  0.31021288  0.46182788  0.75827973  1
  O  O103  1  0.15401238  0.69386868  0.75797935  1
  O  O104  1  0.53704071  0.84603699  0.75920859  1
