# generated using pymatgen
data_Na2La2Y2SiS5O24
_symmetry_space_group_name_H-M   'P 1'
_cell_length_a   9.28864262
_cell_length_b   9.28357301
_cell_length_c   25.18412652
_cell_angle_alpha   89.97169096
_cell_angle_beta   89.99194515
_cell_angle_gamma   119.90545460
_symmetry_Int_Tables_number   1
_chemical_formula_structural   Na2La2Y2SiS5O24
_chemical_formula_sum   'Na6 La6 Y6 Si3 S15 O72'
_cell_volume   1882.51222164
_cell_formula_units_Z   3
loop_
 _symmetry_equiv_pos_site_id
 _symmetry_equiv_pos_as_xyz
  1  'x, y, z'
loop_
 _atom_site_type_symbol
 _atom_site_label
 _atom_site_symmetry_multiplicity
 _atom_site_fract_x
 _atom_site_fract_y
 _atom_site_fract_z
 _atom_site_occupancy
  Na  Na0  1  0.98095909  0.97605723  0.51185331  1
  Na  Na1  1  0.00024213  0.00022168  0.99650936  1
  Na  Na2  1  0.66933864  0.31722299  0.81888607  1
  Na  Na3  1  0.64256792  0.31155069  0.33548328  1
  Na  Na4  1  0.32937771  0.68596577  0.17867582  1
  Na  Na5  1  0.37875894  0.68356259  0.66295714  1
  La  La6  1  0.01428914  0.00065964  0.34572948  1
  La  La7  1  0.97227859  0.98334142  0.65026244  1
  La  La8  1  0.66590594  0.33231947  0.68384729  1
  La  La9  1  0.66670099  0.34414211  0.48410406  1
  La  La10  1  0.35176830  0.66840246  0.52002806  1
  La  La11  1  0.35056301  0.68057567  0.81486433  1
  Y  Y12  1  0.98758070  0.00224614  0.84861670  1
  Y  Y13  1  0.01076579  0.99731521  0.15258696  1
  Y  Y14  1  0.65682306  0.32328278  0.18444771  1
  Y  Y15  1  0.66771719  0.33254463  0.98512709  1
  Y  Y16  1  0.33313844  0.66736476  0.01725469  1
  Y  Y17  1  0.33328390  0.67657962  0.31286761  1
  Si  Si18  1  0.30619564  0.99722590  0.24717717  1
  Si  Si19  1  0.69928595  0.00862295  0.75301909  1
  Si  Si20  1  0.66807114  0.63677128  0.58418271  1
  S  S21  1  0.69709517  0.69758647  0.24624030  1
  S  S22  1  0.00125748  0.30279014  0.24612246  1
  S  S23  1  0.29399566  0.29124314  0.75377651  1
  S  S24  1  0.99797193  0.70294468  0.75536871  1
  S  S25  1  0.97154676  0.33407702  0.58180951  1
  S  S26  1  0.35929917  0.03015582  0.58252491  1
  S  S27  1  0.96159309  0.62842429  0.08231401  1
  S  S28  1  0.66668259  0.03664225  0.08206419  1
  S  S29  1  0.37114541  0.33456701  0.08216925  1
  S  S30  1  0.63671322  0.66612784  0.92210791  1
  S  S31  1  0.03395505  0.36624254  0.92118002  1
  S  S32  1  0.33238727  0.96990623  0.92216650  1
  S  S33  1  0.63129178  0.96628867  0.41170804  1
  S  S34  1  0.33423417  0.37349120  0.41154847  1
  S  S35  1  0.03814031  0.66202362  0.41386034  1
  O  O36  1  0.22193480  0.02097501  0.30105115  1
  O  O37  1  0.79230742  0.77009446  0.29561550  1
  O  O38  1  0.97017662  0.20418482  0.29533520  1
  O  O39  1  0.19925289  0.19075560  0.80131932  1
  O  O40  1  0.99726007  0.80227731  0.80224958  1
  O  O41  1  0.80234415  0.00645634  0.80664149  1
  O  O42  1  0.78719280  0.99814264  0.69863778  1
  O  O43  1  0.20899341  0.20996260  0.70405684  1
  O  O44  1  0.01527544  0.79345326  0.70544876  1
  O  O45  1  0.78335631  0.80851928  0.19985272  1
  O  O46  1  0.01856847  0.21200085  0.19969420  1
  O  O47  1  0.18808957  0.97953702  0.19560043  1
  O  O48  1  0.88427069  0.33796949  0.63050089  1
  O  O49  1  0.45738345  0.11309128  0.63084121  1
  O  O50  1  0.66621747  0.53598595  0.63751740  1
  O  O51  1  0.88384238  0.52798938  0.13038965  1
  O  O52  1  0.64370774  0.11611559  0.12994473  1
  O  O53  1  0.47326508  0.35812249  0.13017447  1
  O  O54  1  0.45458452  0.31349318  0.03465601  1
  O  O55  1  0.85835980  0.54313160  0.03465374  1
  O  O56  1  0.68555714  0.14094631  0.03448650  1
  O  O57  1  0.45188198  0.12246072  0.53388278  1
  O  O58  1  0.66522438  0.53596183  0.52959992  1
  O  O59  1  0.87181215  0.32174016  0.53366829  1
  O  O60  1  0.54417655  0.68542467  0.96786458  1
  O  O61  1  0.14279524  0.45945672  0.96761063  1
  O  O62  1  0.31672107  0.85913909  0.96805628  1
  O  O63  1  0.55259847  0.87911616  0.46187435  1
  O  O64  1  0.32977646  0.45485864  0.46142869  1
  O  O65  1  0.12632356  0.66929829  0.46332216  1
  O  O66  1  0.13515305  0.66195728  0.36641934  1
  O  O67  1  0.52842788  0.86784550  0.36532580  1
  O  O68  1  0.33707498  0.47281162  0.36472222  1
  O  O69  1  0.10233345  0.45975994  0.87200219  1
  O  O70  1  0.35870867  0.90186162  0.87273670  1
  O  O71  1  0.54240921  0.63868590  0.87269087  1
  O  O72  1  0.01603512  0.81063847  0.41178999  1
  O  O73  1  0.79826637  0.98299625  0.40848919  1
  O  O74  1  0.18250909  0.20641631  0.41050746  1
  O  O75  1  0.02015182  0.19885566  0.91935588  1
  O  O76  1  0.18101267  0.98527323  0.92009227  1
  O  O77  1  0.80409812  0.81777540  0.91918924  1
  O  O78  1  0.99720579  0.18926705  0.58153915  1
  O  O79  1  0.19743131  0.02222456  0.58304545  1
  O  O80  1  0.83320242  0.82069949  0.58065417  1
  O  O81  1  0.97680133  0.79607591  0.08616275  1
  O  O82  1  0.81634326  0.01900214  0.08658182  1
  O  O83  1  0.20298175  0.18538054  0.08707313  1
  O  O84  1  0.68268577  0.17439137  0.75368158  1
  O  O85  1  0.46253036  0.31123895  0.75621470  1
  O  O86  1  0.84208883  0.54064095  0.75625970  1
  O  O87  1  0.68308999  0.53256856  0.23782202  1
  O  O88  1  0.85827050  0.32989511  0.23737189  1
  O  O89  1  0.49106255  0.16209373  0.24031473  1
  O  O90  1  0.65567364  0.51795415  0.93144587  1
  O  O91  1  0.86501317  0.34461311  0.93057035  1
  O  O92  1  0.48172681  0.13712818  0.93110248  1
  O  O93  1  0.64314610  0.13210962  0.41029599  1
  O  O94  1  0.48569288  0.35626624  0.40976470  1
  O  O95  1  0.87250277  0.50781438  0.41139153  1
  O  O96  1  0.35510562  0.48626038  0.07508624  1
  O  O97  1  0.13045519  0.64744300  0.07505924  1
  O  O98  1  0.51473643  0.86962639  0.07524515  1
  O  O99  1  0.33653025  0.85960186  0.58140164  1
  O  O100  1  0.50113057  0.65683080  0.58519227  1
  O  O101  1  0.13411585  0.49011543  0.58003154  1
  O  O102  1  0.32217819  0.82927072  0.25120905  1
  O  O103  1  0.52814824  0.67661320  0.25078886  1
  O  O104  1  0.15588244  0.46675471  0.25093762  1
  O  O105  1  0.30670005  0.45757781  0.75700496  1
  O  O106  1  0.14255950  0.67678641  0.75948544  1
  O  O107  1  0.51265664  0.83973139  0.75452806  1
