# generated using pymatgen
data_MgMn2FeWO6
_symmetry_space_group_name_H-M   'P 1'
_cell_length_a   5.46619134
_cell_length_b   5.40850982
_cell_length_c   6.03845426
_cell_angle_alpha   63.35863176
_cell_angle_beta   65.10376885
_cell_angle_gamma   60.45998480
_symmetry_Int_Tables_number   1
_chemical_formula_structural   MgMn2FeWO6
_chemical_formula_sum   'Mg1 Mn2 Fe1 W1 O6'
_cell_volume   134.16021993
_cell_formula_units_Z   1
loop_
 _symmetry_equiv_pos_site_id
 _symmetry_equiv_pos_as_xyz
  1  'x, y, z'
loop_
 _atom_site_type_symbol
 _atom_site_label
 _atom_site_symmetry_multiplicity
 _atom_site_fract_x
 _atom_site_fract_y
 _atom_site_fract_z
 _atom_site_occupancy
  Mg  Mg0  1  0.15577964  0.14703878  0.54949736  1
  Mn  Mn1  1  0.76332037  0.76790948  0.68776249  1
  Mn  Mn2  1  0.34585751  0.33060683  0.98759477  1
  Fe  Fe3  1  0.54694450  0.55019551  0.35473302  1
  W  W4  1  0.96952176  0.96797515  0.09125893  1
  O  O5  1  0.19626378  0.92670333  0.31944444  1
  O  O6  1  0.90749603  0.57188124  0.34009986  1
  O  O7  1  0.55718079  0.19401391  0.32995230  1
  O  O8  1  0.05877667  0.34305702  0.83387945  1
  O  O9  1  0.34664071  0.75911556  0.83104399  1
  O  O10  1  0.76606923  0.05535419  0.83080439  1
