# generated using pymatgen
data_Rb3MgNbO8
_symmetry_space_group_name_H-M   'P 1'
_cell_length_a   7.57164424
_cell_length_b   7.12735162
_cell_length_c   7.57164470
_cell_angle_alpha   78.61443960
_cell_angle_beta   123.14790308
_cell_angle_gamma   132.75452965
_symmetry_Int_Tables_number   1
_chemical_formula_structural   Rb3MgNbO8
_chemical_formula_sum   'Rb3 Mg1 Nb1 O8'
_cell_volume   240.95682712
_cell_formula_units_Z   1
loop_
 _symmetry_equiv_pos_site_id
 _symmetry_equiv_pos_as_xyz
  1  'x, y, z'
loop_
 _atom_site_type_symbol
 _atom_site_label
 _atom_site_symmetry_multiplicity
 _atom_site_fract_x
 _atom_site_fract_y
 _atom_site_fract_z
 _atom_site_occupancy
  Rb  Rb0  1  0.01547868  0.50000000  0.51547868  1
  Rb  Rb1  1  0.45441041  0.76656571  0.26395600  1
  Rb  Rb2  1  0.49739029  0.23343429  0.68784470  1
  Mg  Mg3  1  0.56358871  0.50000000  0.06358871  1
  Nb  Nb4  1  0.03946374  1.00000000  0.03946374  1
  O  O5  1  0.35080821  0.10334211  0.00613589  1
  O  O6  1  0.90279378  0.89665789  0.24746610  1
  O  O7  1  0.96464770  0.23911211  -0.01009631  1
  O  O8  1  0.75079158  0.76088789  0.72553559  1
  O  O9  1  0.54767557  0.65872587  0.78563273  1
  O  O10  1  0.12690687  0.34127413  0.88894971  1
  O  O11  1  0.97689203  0.69322735  0.15237978  1
  O  O12  1  0.45915243  0.30677265  0.28366469  1
