# generated using pymatgen
data_NaTa2Ga2P5SO24
_symmetry_space_group_name_H-M   'P 1'
_cell_length_a   8.64190314
_cell_length_b   8.61949979
_cell_length_c   22.35885853
_cell_angle_alpha   89.95607043
_cell_angle_beta   90.22078652
_cell_angle_gamma   119.96310079
_symmetry_Int_Tables_number   1
_chemical_formula_structural   NaTa2Ga2P5SO24
_chemical_formula_sum   'Na3 Ta6 Ga6 P15 S3 O72'
_cell_volume   1442.87751300
_cell_formula_units_Z   3
loop_
 _symmetry_equiv_pos_site_id
 _symmetry_equiv_pos_as_xyz
  1  'x, y, z'
loop_
 _atom_site_type_symbol
 _atom_site_label
 _atom_site_symmetry_multiplicity
 _atom_site_fract_x
 _atom_site_fract_y
 _atom_site_fract_z
 _atom_site_occupancy
  Na  Na0  1  0.00003036  0.99955445  0.00549366  1
  Na  Na1  1  0.66642927  0.33316334  0.83275971  1
  Na  Na2  1  0.66711027  0.33097185  0.33971831  1
  Ta  Ta3  1  0.00488897  0.00731227  0.36019988  1
  Ta  Ta4  1  0.99947700  0.00030639  0.85356172  1
  Ta  Ta5  1  0.66624996  0.32784358  0.18883783  1
  Ta  Ta6  1  0.33181538  0.66635343  0.02705608  1
  Ta  Ta7  1  0.33916885  0.66768099  0.52398379  1
  Ta  Ta8  1  0.33408582  0.66611032  0.80778662  1
  Ga  Ga9  1  0.99165385  0.99117523  0.64583694  1
  Ga  Ga10  1  0.01135557  0.00856908  0.14730958  1
  Ga  Ga11  1  0.66366027  0.33955838  0.68727930  1
  Ga  Ga12  1  0.66712393  0.33430141  0.98107019  1
  Ga  Ga13  1  0.67019585  0.34353042  0.47998508  1
  Ga  Ga14  1  0.32274188  0.66673027  0.31412161  1
  P  P15  1  0.28130568  0.99053203  0.24985115  1
  P  P16  1  0.01062239  0.29174156  0.24960972  1
  P  P17  1  0.28784678  0.28050424  0.74573466  1
  P  P18  1  0.99323572  0.70912226  0.74673931  1
  P  P19  1  0.71574098  0.00948256  0.74624531  1
  P  P20  1  0.67726333  0.62098897  0.58459314  1
  P  P21  1  0.94673630  0.62569664  0.08256874  1
  P  P22  1  0.67895000  0.05108834  0.08180215  1
  P  P23  1  0.37721142  0.32372890  0.08173490  1
  P  P24  1  0.61907916  0.66042136  0.91796785  1
  P  P25  1  0.04080345  0.38133219  0.91744501  1
  P  P26  1  0.34025242  0.95933257  0.91752285  1
  P  P27  1  0.61365542  0.95784337  0.41554875  1
  P  P28  1  0.34584542  0.39043142  0.41537912  1
  P  P29  1  0.04226919  0.65719907  0.41656947  1
  S  S30  1  0.70888199  0.71600982  0.24963943  1
  S  S31  1  0.94957017  0.32699902  0.58406604  1
  S  S32  1  0.37804354  0.05188669  0.58400472  1
  O  O33  1  0.19645389  0.02997622  0.30527439  1
  O  O34  1  0.82539522  0.79321145  0.30346535  1
  O  O35  1  0.96727444  0.16671380  0.30526521  1
  O  O36  1  0.19777267  0.16734906  0.80411270  1
  O  O37  1  0.96795261  0.79954284  0.80455873  1
  O  O38  1  0.83062209  0.03347706  0.80445840  1
  O  O39  1  0.79278189  0.96681536  0.69285781  1
  O  O40  1  0.16910756  0.20137459  0.69184493  1
  O  O41  1  0.03662128  0.82860773  0.69305246  1
  O  O42  1  0.78909999  0.81865761  0.19538027  1
  O  O43  1  0.02876659  0.20431924  0.19338873  1
  O  O44  1  0.17261118  0.96510264  0.19359346  1
  O  O45  1  0.87734920  0.36683846  0.63755758  1
  O  O46  1  0.49182739  0.12129582  0.63763534  1
  O  O47  1  0.62950353  0.50171329  0.63997831  1
  O  O48  1  0.86384742  0.50419369  0.13863191  1
  O  O49  1  0.63956074  0.13382199  0.13827499  1
  O  O50  1  0.49605898  0.36062365  0.13838118  1
  O  O51  1  0.45944549  0.29576037  0.02602584  1
  O  O52  1  0.83764337  0.54277680  0.02632573  1
  O  O53  1  0.70627918  0.16280051  0.02637490  1
  O  O54  1  0.45830638  0.15641230  0.52962242  1
  O  O55  1  0.70250257  0.53773174  0.52799655  1
  O  O56  1  0.84188655  0.29753021  0.52976909  1
  O  O57  1  0.53384581  0.69581571  0.97293322  1
  O  O58  1  0.16150837  0.46601370  0.97282209  1
  O  O59  1  0.30469543  0.83865716  0.97278803  1
  O  O60  1  0.53101304  0.83789803  0.47207542  1
  O  O61  1  0.30663334  0.46991513  0.47191092  1
  O  O62  1  0.16197572  0.69473532  0.47257818  1
  O  O63  1  0.12080817  0.62681542  0.36047668  1
  O  O64  1  0.50364706  0.87411398  0.35977428  1
  O  O65  1  0.37279878  0.49959013  0.35955816  1
  O  O66  1  0.13357264  0.49428009  0.86128951  1
  O  O67  1  0.36048184  0.86630819  0.86135756  1
  O  O68  1  0.50584046  0.63930345  0.86142119  1
  O  O69  1  0.02531709  0.82875763  0.40691633  1
  O  O70  1  0.80008631  0.97050321  0.40686479  1
  O  O71  1  0.17118624  0.20159837  0.40856758  1
  O  O72  1  0.02755570  0.19454622  0.90979010  1
  O  O73  1  0.16730729  0.97300269  0.90964016  1
  O  O74  1  0.80557657  0.83314619  0.90981960  1
  O  O75  1  0.97774480  0.17420224  0.59116385  1
  O  O76  1  0.19958890  0.02785677  0.59115422  1
  O  O77  1  0.83473310  0.80972471  0.59195455  1
  O  O78  1  0.97415555  0.81217253  0.09130622  1
  O  O79  1  0.83531529  0.02103022  0.09155089  1
  O  O80  1  0.18962718  0.16558188  0.08889989  1
  O  O81  1  0.69255710  0.17282419  0.74194059  1
  O  O82  1  0.47391439  0.30264279  0.74392347  1
  O  O83  1  0.83061609  0.52221140  0.74378318  1
  O  O84  1  0.69460712  0.53216308  0.24374572  1
  O  O85  1  0.83573271  0.30826831  0.24280150  1
  O  O86  1  0.47082513  0.16757960  0.24273325  1
  O  O87  1  0.64013900  0.49681515  0.92263414  1
  O  O88  1  0.85666410  0.35992256  0.92246938  1
  O  O89  1  0.50351211  0.14364408  0.92266304  1
  O  O90  1  0.64315178  0.14520135  0.42617444  1
  O  O91  1  0.50039258  0.35543548  0.42397718  1
  O  O92  1  0.85530228  0.49672451  0.42415716  1
  O  O93  1  0.36296247  0.49718902  0.07451975  1
  O  O94  1  0.13376777  0.63883753  0.07466237  1
  O  O95  1  0.50401433  0.86548630  0.07457006  1
  O  O96  1  0.35811368  0.86702735  0.57508059  1
  O  O97  1  0.50543691  0.64069245  0.57331126  1
  O  O98  1  0.13206933  0.49312854  0.57470328  1
  O  O99  1  0.31299310  0.83583322  0.25948788  1
  O  O100  1  0.53191167  0.69084910  0.25791696  1
  O  O101  1  0.16908838  0.47505482  0.25945454  1
  O  O102  1  0.30610183  0.46735788  0.75933261  1
  O  O103  1  0.16177500  0.69211422  0.76013427  1
  O  O104  1  0.53069970  0.83994524  0.76002700  1
