# generated using pymatgen
data_Ca11InSb9
_symmetry_space_group_name_H-M   'P 1'
_cell_length_a   12.08651199
_cell_length_b   12.08649832
_cell_length_c   12.08643750
_cell_angle_alpha   120.92150717
_cell_angle_beta   116.99302824
_cell_angle_gamma   91.84938767
_symmetry_Int_Tables_number   1
_chemical_formula_structural   Ca11InSb9
_chemical_formula_sum   'Ca22 In2 Sb18'
_cell_volume   1265.65049217
_cell_formula_units_Z   2
loop_
 _symmetry_equiv_pos_site_id
 _symmetry_equiv_pos_as_xyz
  1  'x, y, z'
loop_
 _atom_site_type_symbol
 _atom_site_label
 _atom_site_symmetry_multiplicity
 _atom_site_fract_x
 _atom_site_fract_y
 _atom_site_fract_z
 _atom_site_occupancy
  Ca  Ca0  1  0.43157446  0.22755855  0.35158426  1
  Ca  Ca1  1  0.87597901  0.07999089  0.64842379  1
  Ca  Ca2  1  0.93157117  0.57999269  0.20401879  1
  Ca  Ca3  1  0.37597743  0.72756045  0.79598935  1
  Ca  Ca4  1  0.57160578  0.94227419  0.26390537  1
  Ca  Ca5  1  0.67837910  0.30769354  0.73608469  1
  Ca  Ca6  1  0.07160672  0.80769271  0.62932558  1
  Ca  Ca7  1  0.17837984  0.44230637  0.37068585  1
  Ca  Ca8  1  0.10992427  0.92466457  0.36199402  1
  Ca  Ca9  1  0.56267503  0.74793206  0.63801622  1
  Ca  Ca10  1  0.60991105  0.24790759  0.18524760  1
  Ca  Ca11  1  0.06266354  0.42465711  0.81475613  1
  Ca  Ca12  1  0.31125240  0.68390759  0.26052188  1
  Ca  Ca13  1  0.42340025  0.05074910  0.73949389  1
  Ca  Ca14  1  0.81124907  0.55072258  0.62733632  1
  Ca  Ca15  1  0.92339942  0.18389832  0.37265678  1
  Ca  Ca16  1  0.81902027  0.15853833  0.98735951  1
  Ca  Ca17  1  0.17117728  0.83165056  0.01265211  1
  Ca  Ca18  1  0.31901889  0.33165494  0.66047602  1
  Ca  Ca19  1  0.67119238  0.65854148  0.33951957  1
  Ca  Ca20  1  0.67083802  0.67082998  0.00000178  1
  Ca  Ca21  1  0.17083053  0.17083009  0.00000575  1
  In  In22  1  0.38810279  0.38811574  0.00001124  1
  In  In23  1  0.88811835  0.88811332  -0.00000943  1
  Sb  Sb24  1  0.38145173  0.63565879  0.01677999  1
  Sb  Sb25  1  0.61885511  0.36468035  0.98316771  1
  Sb  Sb26  1  0.88146128  0.86468648  0.74577814  1
  Sb  Sb27  1  0.11886917  0.13566667  0.25417834  1
  Sb  Sb28  1  0.74691547  0.24690215  0.50001122  1
  Sb  Sb29  1  0.24691809  0.74693172  0.50000621  1
  Sb  Sb30  1  0.50066511  0.50275735  0.64849085  1
  Sb  Sb31  1  0.85426411  0.85218162  0.35150493  1
  Sb  Sb32  1  0.00069286  0.35219614  0.99795618  1
  Sb  Sb33  1  0.35424732  0.00274467  0.00206552  1
  Sb  Sb34  1  0.38460402  0.02839966  0.42727809  1
  Sb  Sb35  1  0.60110194  0.95730399  0.57268893  1
  Sb  Sb36  1  0.88460954  0.45730290  0.35618587  1
  Sb  Sb37  1  0.10108840  0.52839431  0.64379822  1
  Sb  Sb38  1  0.16259150  0.15471835  0.70721338  1
  Sb  Sb39  1  0.44755550  0.45542798  0.29284218  1
  Sb  Sb40  1  0.66260283  0.95539651  0.00788222  1
  Sb  Sb41  1  0.94749493  0.65470458  0.99211397  1
