# generated using pymatgen
data_MgMn4(Si4O11)2
_symmetry_space_group_name_H-M   'P 1'
_cell_length_a   8.76363636
_cell_length_b   8.25464949
_cell_length_c   7.16608520
_cell_angle_alpha   109.71296084
_cell_angle_beta   102.97704641
_cell_angle_gamma   98.99445721
_symmetry_Int_Tables_number   1
_chemical_formula_structural   MgMn4(Si4O11)2
_chemical_formula_sum   'Mg1 Mn4 Si8 O22'
_cell_volume   460.08387364
_cell_formula_units_Z   1
loop_
 _symmetry_equiv_pos_site_id
 _symmetry_equiv_pos_as_xyz
  1  'x, y, z'
loop_
 _atom_site_type_symbol
 _atom_site_label
 _atom_site_symmetry_multiplicity
 _atom_site_fract_x
 _atom_site_fract_y
 _atom_site_fract_z
 _atom_site_occupancy
  Mg  Mg0  1  0.50000000  0.00000000  0.50000000  1
  Mn  Mn1  1  0.38483300  0.65026300  0.87918600  1
  Mn  Mn2  1  0.38955300  0.58165900  0.38109700  1
  Mn  Mn3  1  0.61044700  0.41834100  0.61890300  1
  Mn  Mn4  1  0.61516700  0.34973700  0.12081400  1
  Si  Si5  1  0.02512400  0.38787100  0.22671600  1
  Si  Si6  1  0.21346500  0.24500100  0.94617800  1
  Si  Si7  1  0.21856200  0.24145000  0.50895200  1
  Si  Si8  1  0.62901100  0.94966200  0.80642700  1
  Si  Si9  1  0.37098900  0.05033800  0.19357200  1
  Si  Si10  1  0.78143800  0.75855000  0.49104800  1
  Si  Si11  1  0.78653500  0.75499900  0.05382200  1
  Si  Si12  1  0.97487600  0.61212900  0.77328400  1
  O  O13  1  0.14752400  0.57300400  0.79477200  1
  O  O14  1  0.06027400  0.26081100  0.36299500  1
  O  O15  1  0.17335600  0.57100400  0.33247400  1
  O  O16  1  0.04700100  0.26783200  0.99932700  1
  O  O17  1  0.19095200  0.19629100  0.70242300  1
  O  O18  1  0.27911100  0.06517100  0.37954500  1
  O  O19  1  0.37595000  0.41383300  0.57718500  1
  O  O20  1  0.45807200  0.79126100  0.66394100  1
  O  O21  1  0.42505400  0.86613100  0.17251000  1
  O  O22  1  0.26718900  0.07386500  0.99305400  1
  O  O23  1  0.37015100  0.41879900  0.09210000  1
  O  O24  1  0.62984900  0.58120100  0.90790000  1
  O  O25  1  0.73281100  0.92613500  0.00694600  1
  O  O26  1  0.57494600  0.13387000  0.82749000  1
  O  O27  1  0.54192800  0.20873900  0.33605900  1
  O  O28  1  0.62405000  0.58616700  0.42281500  1
  O  O29  1  0.72088900  0.93482900  0.62045500  1
  O  O30  1  0.80904800  0.80370900  0.29757700  1
  O  O31  1  0.95299900  0.73216800  0.00067300  1
  O  O32  1  0.82664400  0.42899600  0.66752600  1
  O  O33  1  0.93972600  0.73918900  0.63700500  1
  O  O34  1  0.85247600  0.42699600  0.20522800  1
