# generated using pymatgen
data_MgMn4Cr2O12
_symmetry_space_group_name_H-M   'P 1'
_cell_length_a   5.10500479
_cell_length_b   5.10501112
_cell_length_c   10.14432741
_cell_angle_alpha   90.49065850
_cell_angle_beta   89.50914341
_cell_angle_gamma   120.23629375
_symmetry_Int_Tables_number   1
_chemical_formula_structural   MgMn4Cr2O12
_chemical_formula_sum   'Mg1 Mn4 Cr2 O12'
_cell_volume   228.39496961
_cell_formula_units_Z   1
loop_
 _symmetry_equiv_pos_site_id
 _symmetry_equiv_pos_as_xyz
  1  'x, y, z'
loop_
 _atom_site_type_symbol
 _atom_site_label
 _atom_site_symmetry_multiplicity
 _atom_site_fract_x
 _atom_site_fract_y
 _atom_site_fract_z
 _atom_site_occupancy
  Mg  Mg0  1  0.16581300  0.66580800  0.75000300  1
  Mn  Mn1  1  0.16679900  0.83840000  0.48693100  1
  Mn  Mn2  1  0.33840000  0.66679500  0.01308500  1
  Mn  Mn3  1  0.66663600  0.33463800  0.00078900  1
  Mn  Mn4  1  0.83464500  0.16664200  0.49922400  1
  Cr  Cr5  1  0.99928000  0.99907500  0.00233400  1
  Cr  Cr6  1  0.49905500  0.49928500  0.49764200  1
  O  O7  1  0.99244800  0.65622000  0.09827600  1
  O  O8  1  0.01185300  0.35589400  0.89965300  1
  O  O9  1  0.15620700  0.49244900  0.40172700  1
  O  O10  1  0.47923300  0.83301200  0.59990300  1
  O  O11  1  0.15655400  0.15567200  0.59603600  1
  O  O12  1  0.34305500  0.33691400  0.09799800  1
  O  O13  1  0.65565000  0.65652800  0.90396200  1
  O  O14  1  0.33302700  0.97923300  0.90009400  1
  O  O15  1  0.83694000  0.84308600  0.40199800  1
  O  O16  1  0.50824000  0.16276200  0.40252800  1
  O  O17  1  0.85588900  0.51185800  0.60034900  1
  O  O18  1  0.66277900  0.00823100  0.09746800  1
