# generated using pymatgen
data_Na7TaTi3(SiO4)6
_symmetry_space_group_name_H-M   'P 1'
_cell_length_a   9.00313999
_cell_length_b   9.00201388
_cell_length_c   22.06699018
_cell_angle_alpha   90.06563308
_cell_angle_beta   89.83424535
_cell_angle_gamma   120.02234245
_symmetry_Int_Tables_number   1
_chemical_formula_structural   Na7TaTi3(SiO4)6
_chemical_formula_sum   'Na21 Ta3 Ti9 Si18 O72'
_cell_volume   1548.48766712
_cell_formula_units_Z   3
loop_
 _symmetry_equiv_pos_site_id
 _symmetry_equiv_pos_as_xyz
  1  'x, y, z'
loop_
 _atom_site_type_symbol
 _atom_site_label
 _atom_site_symmetry_multiplicity
 _atom_site_fract_x
 _atom_site_fract_y
 _atom_site_fract_z
 _atom_site_occupancy
  Na  Na0  1  0.37450706  0.36752989  0.24780286  1
  Na  Na1  1  0.63818233  0.62992071  0.74852499  1
  Na  Na2  1  0.99164283  0.36338338  0.74837013  1
  Na  Na3  1  0.37076220  0.00760611  0.74803347  1
  Na  Na4  1  0.29577715  0.33343701  0.58234753  1
  Na  Na5  1  0.03756733  0.70398898  0.58243095  1
  Na  Na6  1  0.66642457  0.96221728  0.58240521  1
  Na  Na7  1  0.30558253  0.96504877  0.08195872  1
  Na  Na8  1  0.65887124  0.69511808  0.08193562  1
  Na  Na9  1  0.03521262  0.34042312  0.08125727  1
  Na  Na10  1  0.95900572  0.66360331  0.91838915  1
  Na  Na11  1  0.70702152  0.03869902  0.91854339  1
  Na  Na12  1  0.96227771  0.29496206  0.41589407  1
  Na  Na13  1  0.33292847  0.03936552  0.41600560  1
  Na  Na14  1  0.70541840  0.66669242  0.41564502  1
  Na  Na15  1  0.00030747  0.00019096  0.49850571  1
  Na  Na16  1  0.01059467  0.00958424  0.99491142  1
  Na  Na17  1  0.65710590  0.33238665  0.83648519  1
  Na  Na18  1  0.67515882  0.33269984  0.32870047  1
  Na  Na19  1  0.33292674  0.67566469  0.16541758  1
  Na  Na20  1  0.33318415  0.66684966  0.66192038  1
  Ta  Ta21  1  0.99885153  0.99842732  0.14622130  1
  Ta  Ta22  1  0.33322720  0.67009999  0.31045426  1
  Ta  Ta23  1  0.33469468  0.66677273  0.81344060  1
  Ti  Ti24  1  0.99856248  0.99979358  0.35181506  1
  Ti  Ti25  1  0.00459668  0.00398179  0.85437900  1
  Ti  Ti26  1  0.00013618  0.99981787  0.64621108  1
  Ti  Ti27  1  0.66715632  0.33356174  0.68526934  1
  Ti  Ti28  1  0.67225287  0.33259347  0.18838949  1
  Ti  Ti29  1  0.66130428  0.33251253  0.97974364  1
  Ti  Ti30  1  0.66654782  0.33359656  0.48013542  1
  Ti  Ti31  1  0.33189435  0.66510635  0.01882620  1
  Ti  Ti32  1  0.33302964  0.66675398  0.51867132  1
  Si  Si33  1  0.29158925  0.00084453  0.25068235  1
  Si  Si34  1  0.71177391  0.70728980  0.25136311  1
  Si  Si35  1  0.99438038  0.28829113  0.25130978  1
  Si  Si36  1  0.28740569  0.28612232  0.74909432  1
  Si  Si37  1  0.99847326  0.71228875  0.75021531  1
  Si  Si38  1  0.71402106  0.00175760  0.75002636  1
  Si  Si39  1  0.95568877  0.33292203  0.58303769  1
  Si  Si40  1  0.37757560  0.04431036  0.58337464  1
  Si  Si41  1  0.66665270  0.62253474  0.58336813  1
  Si  Si42  1  0.95353897  0.61869052  0.08244255  1
  Si  Si43  1  0.66479502  0.04698149  0.08250960  1
  Si  Si44  1  0.38093373  0.33551217  0.08447190  1
  Si  Si45  1  0.62397121  0.66375260  0.91799890  1
  Si  Si46  1  0.04277815  0.37292130  0.91821249  1
  Si  Si47  1  0.33301545  0.96056513  0.91821542  1
  Si  Si48  1  0.62379524  0.95734158  0.41818658  1
  Si  Si49  1  0.33374647  0.37638015  0.41734162  1
  Si  Si50  1  0.04285402  0.66639805  0.41807453  1
  O  O51  1  0.19494054  0.02762309  0.30981872  1
  O  O52  1  0.82954483  0.80608637  0.31083988  1
  O  O53  1  0.97536785  0.17131040  0.31124472  1
  O  O54  1  0.19038900  0.15849448  0.80638572  1
  O  O55  1  0.96619141  0.80071061  0.80959164  1
  O  O56  1  0.83320819  0.03131670  0.80939126  1
  O  O57  1  0.80166985  0.96593491  0.69042933  1
  O  O58  1  0.16589751  0.20127040  0.68916930  1
  O  O59  1  0.03448604  0.83585327  0.69066366  1
  O  O60  1  0.80367539  0.82780059  0.19106766  1
  O  O61  1  0.02845601  0.19708067  0.19154753  1
  O  O62  1  0.17176051  0.97516461  0.19038982  1
  O  O63  1  0.86361619  0.36364913  0.64285003  1
  O  O64  1  0.50011223  0.13662909  0.64296437  1
  O  O65  1  0.63634803  0.49985534  0.64303925  1
  O  O66  1  0.85789570  0.49241195  0.13976899  1
  O  O67  1  0.63118960  0.14100425  0.13974855  1
  O  O68  1  0.49788239  0.36922416  0.14435782  1
  O  O69  1  0.47447981  0.29807617  0.02671307  1
  O  O70  1  0.83356112  0.53571987  0.02216175  1
  O  O71  1  0.70489693  0.16817736  0.02214739  1
  O  O72  1  0.46895878  0.16807425  0.52440450  1
  O  O73  1  0.69920261  0.53120002  0.52436638  1
  O  O74  1  0.83185611  0.30087907  0.52430636  1
  O  O75  1  0.52884837  0.69558007  0.97589499  1
  O  O76  1  0.16256104  0.47051646  0.97700035  1
  O  O77  1  0.30296597  0.83501442  0.97650217  1
  O  O78  1  0.53225232  0.83405269  0.47791062  1
  O  O79  1  0.30258626  0.47045491  0.47660643  1
  O  O80  1  0.16635345  0.69861073  0.47771683  1
  O  O81  1  0.13909512  0.63199636  0.36108027  1
  O  O82  1  0.49423277  0.85970882  0.36123377  1
  O  O83  1  0.36670361  0.49997334  0.35840913  1
  O  O84  1  0.13875434  0.49762902  0.85840102  1
  O  O85  1  0.36115775  0.86397379  0.85791505  1
  O  O86  1  0.50513022  0.64164413  0.85737570  1
  O  O87  1  0.02625619  0.83812002  0.41308027  1
  O  O88  1  0.81254277  0.97452710  0.41353910  1
  O  O89  1  0.16201111  0.18732797  0.41368050  1
  O  O90  1  0.01918689  0.18207165  0.91228008  1
  O  O91  1  0.15609200  0.96637320  0.91166039  1
  O  O92  1  0.81139128  0.83841771  0.91259911  1
  O  O93  1  0.97264670  0.16025529  0.58790276  1
  O  O94  1  0.18766743  0.02696162  0.58813860  1
  O  O95  1  0.83967881  0.81219308  0.58815788  1
  O  O96  1  0.97347246  0.81167629  0.08790825  1
  O  O97  1  0.83791620  0.02732565  0.08873637  1
  O  O98  1  0.18773402  0.16190702  0.08754459  1
  O  O99  1  0.69057282  0.16996406  0.74501147  1
  O  O100  1  0.47853758  0.30866997  0.74526449  1
  O  O101  1  0.82987893  0.52084019  0.74490665  1
  O  O102  1  0.68566036  0.51660564  0.24629413  1
  O  O103  1  0.82626479  0.30677293  0.24501523  1
  O  O104  1  0.47481861  0.17534415  0.24537568  1
  O  O105  1  0.64701635  0.49641470  0.92095064  1
  O  O106  1  0.85628425  0.36107660  0.92034558  1
  O  O107  1  0.51058650  0.14245047  0.92125721  1
  O  O108  1  0.63973696  0.14580386  0.42209150  1
  O  O109  1  0.50635238  0.36026692  0.42241714  1
  O  O110  1  0.85437761  0.49377335  0.42233917  1
  O  O111  1  0.35678721  0.50352415  0.07772586  1
  O  O112  1  0.14612851  0.64333732  0.07880200  1
  O  O113  1  0.49665364  0.85474655  0.07810470  1
  O  O114  1  0.35979612  0.85472785  0.57977104  1
  O  O115  1  0.49460804  0.63975302  0.57974603  1
  O  O116  1  0.14518734  0.50510993  0.57950026  1
  O  O117  1  0.30577573  0.82732108  0.25525472  1
  O  O118  1  0.51997438  0.68783104  0.25559323  1
  O  O119  1  0.17486797  0.47285554  0.25584552  1
  O  O120  1  0.30598669  0.47763393  0.75484592  1
  O  O121  1  0.17183344  0.69367271  0.75498679  1
  O  O122  1  0.52175476  0.82828508  0.75427935  1
