# generated using pymatgen
data_Na6Zn6SiGe2S11O48
_symmetry_space_group_name_H-M   'P 1'
_cell_length_a   17.35530001
_cell_length_b   8.70539370
_cell_length_c   22.17427758
_cell_angle_alpha   89.95084159
_cell_angle_beta   89.82996386
_cell_angle_gamma   119.99548470
_symmetry_Int_Tables_number   1
_chemical_formula_structural   Na6Zn6SiGe2S11O48
_chemical_formula_sum   'Na18 Zn18 Si3 Ge6 S33 O144'
_cell_volume   2901.46216982
_cell_formula_units_Z   3
loop_
 _symmetry_equiv_pos_site_id
 _symmetry_equiv_pos_as_xyz
  1  'x, y, z'
loop_
 _atom_site_type_symbol
 _atom_site_label
 _atom_site_symmetry_multiplicity
 _atom_site_fract_x
 _atom_site_fract_y
 _atom_site_fract_z
 _atom_site_occupancy
  Na  Na0  1  0.68360917  0.35975526  0.24298425  1
  Na  Na1  1  0.99267352  0.63271839  0.25531105  1
  Na  Na2  1  0.33400345  0.95906693  0.59199196  1
  Na  Na3  1  0.83507362  0.96097467  0.59191558  1
  Na  Na4  1  0.33168083  0.69088521  0.08016590  1
  Na  Na5  1  0.34737821  0.66387039  0.41302328  1
  Na  Na6  1  0.00995657  0.99816337  0.49747326  1
  Na  Na7  1  0.51713707  0.02249539  0.50103150  1
  Na  Na8  1  0.00000665  0.99927743  0.99930922  1
  Na  Na9  1  0.51191652  0.01955257  0.00067646  1
  Na  Na10  1  0.33389405  0.32522745  0.83667582  1
  Na  Na11  1  0.83312119  0.32510076  0.83675634  1
  Na  Na12  1  0.32756949  0.31454169  0.32865400  1
  Na  Na13  1  0.83714509  0.33576952  0.33365705  1
  Na  Na14  1  0.16774980  0.67088286  0.16536931  1
  Na  Na15  1  0.66782117  0.67939686  0.15918264  1
  Na  Na16  1  0.16614667  0.66508561  0.67661106  1
  Na  Na17  1  0.66730645  0.66620556  0.67737085  1
  Zn  Zn18  1  0.99786409  0.98884328  0.34931328  1
  Zn  Zn19  1  0.49772559  0.00211565  0.34666583  1
  Zn  Zn20  1  0.99718817  0.99678939  0.65649379  1
  Zn  Zn21  1  0.49789819  0.99672378  0.65665330  1
  Zn  Zn22  1  0.50429625  0.00710672  0.15163027  1
  Zn  Zn23  1  0.33464407  0.33501353  0.17951614  1
  Zn  Zn24  1  0.83414689  0.33971804  0.17970241  1
  Zn  Zn25  1  0.33102625  0.32626034  0.98374754  1
  Zn  Zn26  1  0.83505863  0.33404268  0.98500114  1
  Zn  Zn27  1  0.32953277  0.32201985  0.48248368  1
  Zn  Zn28  1  0.83378270  0.33581337  0.47867122  1
  Zn  Zn29  1  0.16060006  0.67250693  0.01009626  1
  Zn  Zn30  1  0.66695529  0.66675384  0.01116198  1
  Zn  Zn31  1  0.16059332  0.65384325  0.51659223  1
  Zn  Zn32  1  0.66338512  0.65863046  0.51996693  1
  Zn  Zn33  1  0.16870007  0.66669189  0.31705544  1
  Zn  Zn34  1  0.17417793  0.68155768  0.81622213  1
  Zn  Zn35  1  0.67481064  0.68238581  0.81656527  1
  Si  Si36  1  0.85266651  0.70612762  0.25189664  1
  Si  Si37  1  0.35170314  -0.00030695  0.74520093  1
  Si  Si38  1  0.85104331  0.00066450  0.74508183  1
  Ge  Ge39  1  0.99456848  0.00566208  0.84701646  1
  Ge  Ge40  1  0.49589004  0.00714473  0.84768124  1
  Ge  Ge41  1  0.99010923  0.99158951  0.15181791  1
  Ge  Ge42  1  0.33511292  0.32848199  0.68997502  1
  Ge  Ge43  1  0.83561902  0.33020353  0.68933985  1
  Ge  Ge44  1  0.67241897  0.67375116  0.31570707  1
  S  S45  1  0.14652931  0.00460696  0.24716376  1
  S  S46  1  0.64690373  0.98739191  0.25373189  1
  S  S47  1  0.34891502  0.69922165  0.25024626  1
  S  S48  1  0.00219012  0.29110094  0.24796332  1
  S  S49  1  0.50095363  0.30638912  0.25413350  1
  S  S50  1  0.14907870  0.28980329  0.74917687  1
  S  S51  1  0.64914505  0.28975072  0.74916781  1
  S  S52  1  0.99499796  0.70044588  0.74958253  1
  S  S53  1  0.49498681  0.70009345  0.74930279  1
  S  S54  1  0.48044502  0.34223051  0.58438193  1
  S  S55  1  0.98010511  0.34075851  0.58418459  1
  S  S56  1  0.18590776  0.04352722  0.58639313  1
  S  S57  1  0.68809579  0.04814471  0.58443879  1
  S  S58  1  0.33370859  0.61682753  0.58340451  1
  S  S59  1  0.83268921  0.61449463  0.58551135  1
  S  S60  1  0.48365113  0.63048854  0.08285883  1
  S  S61  1  0.98594011  0.64676628  0.08657816  1
  S  S62  1  0.33250848  0.03330665  0.08298057  1
  S  S63  1  0.83779128  0.03951128  0.08541668  1
  S  S64  1  0.17696684  0.32209363  0.08607782  1
  S  S65  1  0.68223762  0.33355559  0.08344976  1
  S  S66  1  0.32151393  0.67341585  0.91668659  1
  S  S67  1  0.82132973  0.67378123  0.91477676  1
  S  S68  1  0.01956200  0.36404508  0.91357996  1
  S  S69  1  0.51987937  0.36411762  0.91263106  1
  S  S70  1  0.15956023  0.96983202  0.91256108  1
  S  S71  1  0.66017739  0.96757685  0.91339040  1
  S  S72  1  0.31635002  0.96560651  0.41890223  1
  S  S73  1  0.81060182  0.95882614  0.41828784  1
  S  S74  1  0.16574856  0.36390741  0.41715699  1
  S  S75  1  0.66566200  0.37533464  0.41410227  1
  S  S76  1  0.01772873  0.66606007  0.41569677  1
  S  S77  1  0.52381420  0.66802987  0.41404290  1
  O  O78  1  0.11152746  0.03480070  0.30279321  1
  O  O79  1  0.60689258  0.02282494  0.30679670  1
  O  O80  1  0.39883611  0.78062722  0.30695615  1
  O  O81  1  0.91741400  0.78126990  0.30773065  1
  O  O82  1  0.48876203  0.20268049  0.30916628  1
  O  O83  1  0.99488971  0.19231736  0.30242556  1
  O  O84  1  0.10935320  0.16897347  0.80340400  1
  O  O85  1  0.60944395  0.16884205  0.80343260  1
  O  O86  1  0.48137956  0.78741137  0.80353572  1
  O  O87  1  0.98170490  0.78839825  0.80389520  1
  O  O88  1  0.42208932  0.04038911  0.80319754  1
  O  O89  1  0.92148492  0.04211116  0.80325488  1
  O  O90  1  0.39007121  0.97889510  0.68240133  1
  O  O91  1  0.88966024  0.97874478  0.68256338  1
  O  O92  1  0.10151016  0.21032110  0.69367807  1
  O  O93  1  0.60117144  0.21000651  0.69363194  1
  O  O94  1  0.01246412  0.80451245  0.69451702  1
  O  O95  1  0.51225144  0.80332672  0.69396029  1
  O  O96  1  0.39460587  0.80753529  0.19624932  1
  O  O97  1  0.89353734  0.83262778  0.19092989  1
  O  O98  1  0.01656938  0.20766240  0.19211926  1
  O  O99  1  0.52191865  0.23051138  0.20108592  1
  O  O100  1  0.08489021  0.97361346  0.19391210  1
  O  O101  1  0.59459404  0.95830717  0.19875508  1
  O  O102  1  0.43638223  0.36123476  0.64069071  1
  O  O103  1  0.93665747  0.36275919  0.64080359  1
  O  O104  1  0.24791092  0.13448727  0.63991743  1
  O  O105  1  0.74797922  0.13636755  0.63877431  1
  O  O106  1  0.32389851  0.50494850  0.63810008  1
  O  O107  1  0.82253931  0.50796506  0.64224079  1
  O  O108  1  0.44455171  0.52885742  0.13902847  1
  O  O109  1  0.94893854  0.55044741  0.14378280  1
  O  O110  1  0.32188352  0.11362202  0.13826905  1
  O  O111  1  0.82827376  0.12181569  0.14047528  1
  O  O112  1  0.23367393  0.35532537  0.13946575  1
  O  O113  1  0.72826908  0.34839788  0.14173681  1
  O  O114  1  0.21504482  0.29122476  0.03132416  1
  O  O115  1  0.72983240  0.31399560  0.03191336  1
  O  O116  1  0.42473682  0.54317196  0.03062654  1
  O  O117  1  0.93006724  0.56276828  0.03409731  1
  O  O118  1  0.34141771  0.13560674  0.02822344  1
  O  O119  1  0.85081945  0.14443694  0.03076286  1
  O  O120  1  0.22398892  0.14377691  0.53067804  1
  O  O121  1  0.72750720  0.14839826  0.52902080  1
  O  O122  1  0.33929875  0.53560610  0.52661908  1
  O  O123  1  0.83677545  0.52660259  0.53108014  1
  O  O124  1  0.42570182  0.31682143  0.53094967  1
  O  O125  1  0.92356007  0.31074163  0.53143707  1
  O  O126  1  0.28453631  0.70044229  0.97374738  1
  O  O127  1  0.78292739  0.70517914  0.96945769  1
  O  O128  1  0.07100476  0.43959182  0.96937070  1
  O  O129  1  0.56999900  0.43903255  0.96854460  1
  O  O130  1  0.14399196  0.86700165  0.96877141  1
  O  O131  1  0.64496559  0.86278858  0.96891644  1
  O  O132  1  0.27554449  0.86215058  0.47524268  1
  O  O133  1  0.76929405  0.85779243  0.47393377  1
  O  O134  1  0.15789877  0.44604126  0.47336611  1
  O  O135  1  0.65540307  0.46126210  0.46757084  1
  O  O136  1  0.07048042  0.67734170  0.46904770  1
  O  O137  1  0.57401675  0.68877726  0.46887647  1
  O  O138  1  0.05912855  0.65292396  0.35818670  1
  O  O139  1  0.56917240  0.64578659  0.35902477  1
  O  O140  1  0.26313719  0.87852268  0.36520120  1
  O  O141  1  0.75318122  0.86632055  0.36322494  1
  O  O142  1  0.18045480  0.47875662  0.36403757  1
  O  O143  1  0.67512160  0.48197377  0.35656083  1
  O  O144  1  0.06259349  0.46941422  0.86001632  1
  O  O145  1  0.56402648  0.46893361  0.85914507  1
  O  O146  1  0.17183602  0.88531153  0.85983429  1
  O  O147  1  0.67154195  0.88476189  0.85970701  1
  O  O148  1  0.26617069  0.65045269  0.86463433  1
  O  O149  1  0.76911722  0.64826957  0.86062766  1
  O  O150  1  0.00990359  0.82696575  0.41626810  1
  O  O151  1  0.51290821  0.82568112  0.40828424  1
  O  O152  1  0.40497188  0.97541585  0.41509306  1
  O  O153  1  0.89865761  0.97806370  0.41181662  1
  O  O154  1  0.08686561  0.18698155  0.41196002  1
  O  O155  1  0.58603032  0.19933772  0.40884972  1
  O  O156  1  0.01359906  0.18256981  0.90864649  1
  O  O157  1  0.51472722  0.18220387  0.90825608  1
  O  O158  1  0.07532438  0.98192252  0.90533219  1
  O  O159  1  0.57535475  0.97993359  0.90625767  1
  O  O160  1  0.41201975  0.84154550  0.90953172  1
  O  O161  1  0.91257959  0.84313819  0.90832532  1
  O  O162  1  0.49088444  0.18430838  0.58771623  1
  O  O163  1  0.99111375  0.18382753  0.58870617  1
  O  O164  1  0.09796533  0.02362645  0.59458755  1
  O  O165  1  0.59973585  0.02822545  0.59199337  1
  O  O166  1  0.41475581  0.79305453  0.58635495  1
  O  O167  1  0.91360198  0.79086664  0.58779085  1
  O  O168  1  0.48991176  0.80763670  0.08727618  1
  O  O169  1  0.99396702  0.82942227  0.09127038  1
  O  O170  1  0.41230005  0.01116383  0.08709990  1
  O  O171  1  0.92399855  0.02990825  0.08934447  1
  O  O172  1  0.08706738  0.15912615  0.09408756  1
  O  O173  1  0.59234469  0.17219300  0.08616185  1
  O  O174  1  0.34713721  0.19086159  0.74322460  1
  O  O175  1  0.84670317  0.19182629  0.74275345  1
  O  O176  1  0.24189636  0.31460738  0.74564593  1
  O  O177  1  0.74151668  0.31370097  0.74557597  1
  O  O178  1  0.40632435  0.52751162  0.74466746  1
  O  O179  1  0.90693814  0.52808854  0.74521625  1
  O  O180  1  0.33918294  0.52127181  0.24645432  1
  O  O181  1  0.83487387  0.50595052  0.24270309  1
  O  O182  1  0.42348609  0.32846784  0.24654707  1
  O  O183  1  0.92171036  0.30653238  0.24194998  1
  O  O184  1  0.23566716  0.15571837  0.23760309  1
  O  O185  1  0.73787740  0.13836803  0.24814330  1
  O  O186  1  0.33625459  0.52131383  0.92181587  1
  O  O187  1  0.83727018  0.52365058  0.92188871  1
  O  O188  1  0.42798282  0.33055064  0.91719602  1
  O  O189  1  0.92789876  0.33231674  0.91952689  1
  O  O190  1  0.23593967  0.15139822  0.91860742  1
  O  O191  1  0.73628262  0.14920005  0.91972582  1
  O  O192  1  0.32896661  0.14578291  0.42136537  1
  O  O193  1  0.81516986  0.13239049  0.41808111  1
  O  O194  1  0.24898744  0.35083474  0.41931160  1
  O  O195  1  0.74691111  0.36314631  0.41476689  1
  O  O196  1  0.43404411  0.50900529  0.41420433  1
  O  O197  1  0.92831428  0.50414770  0.41786437  1
  O  O198  1  0.16690569  0.48089810  0.07942244  1
  O  O199  1  0.67363331  0.49342278  0.07774778  1
  O  O200  1  0.07601026  0.67242928  0.07936766  1
  O  O201  1  0.57313441  0.65265622  0.07569336  1
  O  O202  1  0.25348156  0.84957059  0.07838343  1
  O  O203  1  0.76266520  0.85799883  0.07998406  1
  O  O204  1  0.18222521  0.86951256  0.58428870  1
  O  O205  1  0.68348071  0.87273865  0.58287886  1
  O  O206  1  0.25418213  0.63910695  0.58408998  1
  O  O207  1  0.75315918  0.63809786  0.58591031  1
  O  O208  1  0.06729099  0.50469045  0.58190357  1
  O  O209  1  0.56772841  0.50591884  0.58244667  1
  O  O210  1  0.14940042  0.83672029  0.24910823  1
  O  O211  1  0.65065134  0.81917738  0.26109138  1
  O  O212  1  0.26025734  0.68600270  0.25278962  1
  O  O213  1  0.75067329  0.68548838  0.26020313  1
  O  O214  1  0.08024004  0.47340427  0.24842371  1
  O  O215  1  0.58444469  0.48738480  0.25976635  1
  O  O216  1  0.15611445  0.46129074  0.75823857  1
  O  O217  1  0.65589806  0.46102297  0.75796633  1
  O  O218  1  0.06549189  0.65917632  0.75861777  1
  O  O219  1  0.56506977  0.65794452  0.75829268  1
  O  O220  1  0.25439545  0.83309035  0.75473072  1
  O  O221  1  0.75385058  0.83479559  0.75463997  1
