# generated using pymatgen
data_LaI3
_symmetry_space_group_name_H-M   'P 1'
_cell_length_a   4.45522596
_cell_length_b   7.64635909
_cell_length_c   10.16118872
_cell_angle_alpha   90.00000000
_cell_angle_beta   90.00000000
_cell_angle_gamma   106.93759988
_symmetry_Int_Tables_number   1
_chemical_formula_structural   LaI3
_chemical_formula_sum   'La2 I6'
_cell_volume   331.13842769
_cell_formula_units_Z   2
loop_
 _symmetry_equiv_pos_site_id
 _symmetry_equiv_pos_as_xyz
  1  'x, y, z'
loop_
 _atom_site_type_symbol
 _atom_site_label
 _atom_site_symmetry_multiplicity
 _atom_site_fract_x
 _atom_site_fract_y
 _atom_site_fract_z
 _atom_site_occupancy
  La  La0  1  0.74245380  0.48490860  0.25000000  1
  La  La1  1  0.25754620  0.51509140  0.75000000  1
  I  I2  1  0.35179359  0.70358817  0.43370428  1
  I  I3  1  0.64820641  0.29641183  0.56629672  1
  I  I4  1  0.91418297  0.82836594  0.75000000  1
  I  I5  1  0.08581703  0.17163406  0.25000000  1
  I  I6  1  0.35179359  0.70358817  0.06629672  1
  I  I7  1  0.64820641  0.29641183  0.93370328  1
