# generated using pymatgen
data_Na2ScGaP2SO12
_symmetry_space_group_name_H-M   'P 1'
_cell_length_a   8.76927574
_cell_length_b   8.78179026
_cell_length_c   22.38272091
_cell_angle_alpha   90.27533617
_cell_angle_beta   89.70777277
_cell_angle_gamma   119.92720070
_symmetry_Int_Tables_number   1
_chemical_formula_structural   Na2ScGaP2SO12
_chemical_formula_sum   'Na12 Sc6 Ga6 P12 S6 O72'
_cell_volume   1493.83039183
_cell_formula_units_Z   6
loop_
 _symmetry_equiv_pos_site_id
 _symmetry_equiv_pos_as_xyz
  1  'x, y, z'
loop_
 _atom_site_type_symbol
 _atom_site_label
 _atom_site_symmetry_multiplicity
 _atom_site_fract_x
 _atom_site_fract_y
 _atom_site_fract_z
 _atom_site_occupancy
  Na  Na0  1  0.99709781  0.63300099  0.25294380  1
  Na  Na1  1  0.36879564  0.00371508  0.75098484  1
  Na  Na2  1  0.66407488  0.96176877  0.58588080  1
  Na  Na3  1  0.03726786  0.33695624  0.08641223  1
  Na  Na4  1  0.32930439  0.29866958  0.91887030  1
  Na  Na5  1  0.69988453  0.66943688  0.41863935  1
  Na  Na6  1  0.02051967  0.00060097  0.49967386  1
  Na  Na7  1  0.00263755  0.98081386  0.00079911  1
  Na  Na8  1  0.68637598  0.33187469  0.83175443  1
  Na  Na9  1  0.66560656  0.31367920  0.33402969  1
  Na  Na10  1  0.35251814  0.66544740  0.16963771  1
  Na  Na11  1  0.33461911  0.64693425  0.66609319  1
  Sc  Sc12  1  0.99810223  0.00725826  0.84956125  1
  Sc  Sc13  1  0.99945695  0.99804518  0.15071837  1
  Sc  Sc14  1  0.66827496  0.33246485  0.98150045  1
  Sc  Sc15  1  0.32736105  0.66968098  0.02011533  1
  Sc  Sc16  1  0.33095442  0.67335728  0.51816085  1
  Sc  Sc17  1  0.33374260  0.66408478  0.81219100  1
  Ga  Ga18  1  0.98485377  0.99741923  0.34940850  1
  Ga  Ga19  1  0.00278500  0.99767785  0.64769712  1
  Ga  Ga20  1  0.65512767  0.33095082  0.68275922  1
  Ga  Ga21  1  0.66826435  0.34690233  0.18618830  1
  Ga  Ga22  1  0.66723936  0.33143842  0.48260318  1
  Ga  Ga23  1  0.33405830  0.66634575  0.31793773  1
  P  P24  1  0.69748255  0.70314413  0.25272210  1
  P  P25  1  -0.00032341  0.29665307  0.25114714  1
  P  P26  1  0.29360838  0.29140234  0.74638689  1
  P  P27  1  0.71102659  0.00801639  0.74394634  1
  P  P28  1  0.37324453  0.04949477  0.58394330  1
  P  P29  1  0.67297705  0.62328129  0.58303503  1
  P  P30  1  0.95564562  0.62565034  0.08622629  1
  P  P31  1  0.37721146  0.33414212  0.08492028  1
  P  P32  1  0.03837049  0.37386388  0.91702932  1
  P  P33  1  0.33212342  0.96078161  0.91440141  1
  P  P34  1  0.62685777  0.96569114  0.41616664  1
  P  P35  1  0.03744954  0.66823418  0.41370742  1
  S  S36  1  0.29788829  0.00368741  0.25255042  1
  S  S37  1  0.99147895  0.70170780  0.74703378  1
  S  S38  1  0.95427602  0.33189544  0.58451487  1
  S  S39  1  0.66378997  0.04294007  0.08692013  1
  S  S40  1  0.62897910  0.66982472  0.91701408  1
  S  S41  1  0.32906118  0.36805966  0.41554854  1
  O  O42  1  0.21317202  0.03001185  0.30609636  1
  O  O43  1  0.81863013  0.78192759  0.30858061  1
  O  O44  1  0.97379921  0.17771320  0.30524152  1
  O  O45  1  0.21823014  0.18149840  0.80435222  1
  O  O46  1  0.96792646  0.78223974  0.80184592  1
  O  O47  1  0.82019844  0.02880492  0.80006436  1
  O  O48  1  0.79411908  0.97820782  0.68707949  1
  O  O49  1  0.17530308  0.19555198  0.69278765  1
  O  O50  1  0.02512663  0.81589296  0.69404671  1
  O  O51  1  0.78721262  0.81765000  0.19789469  1
  O  O52  1  0.02942521  0.22018375  0.19293650  1
  O  O53  1  0.18632134  0.97095508  0.19872043  1
  O  O54  1  0.87275541  0.35769303  0.63872430  1
  O  O55  1  0.48819746  0.12243608  0.64100365  1
  O  O56  1  0.64863780  0.51055885  0.63831090  1
  O  O57  1  0.87693229  0.51162371  0.14338057  1
  O  O58  1  0.64222857  0.12805109  0.14073474  1
  O  O59  1  0.49007646  0.35222309  0.13973510  1
  O  O60  1  0.45445384  0.30971002  0.02595844  1
  O  O61  1  0.84595094  0.53335971  0.03084583  1
  O  O62  1  0.69081091  0.14812230  0.03217578  1
  O  O63  1  0.46413643  0.16421551  0.52881348  1
  O  O64  1  0.69929786  0.54329223  0.52437076  1
  O  O65  1  0.84390397  0.30058776  0.53012447  1
  O  O66  1  0.54626525  0.69045823  0.97124733  1
  O  O67  1  0.14877569  0.45281919  0.97452908  1
  O  O68  1  0.31564903  0.85017853  0.96954881  1
  O  O69  1  0.55174847  0.85028445  0.47294781  1
  O  O70  1  0.30267143  0.44908869  0.46982208  1
  O  O71  1  0.15202101  0.69325783  0.46863282  1
  O  O72  1  0.12004105  0.63828565  0.35641573  1
  O  O73  1  0.50812690  0.87289570  0.36187127  1
  O  O74  1  0.36440307  0.48404603  0.36244774  1
  O  O75  1  0.13577766  0.48636242  0.86250482  1
  O  O76  1  0.35529565  0.87876157  0.85640122  1
  O  O77  1  0.52070274  0.64421447  0.86341655  1
  O  O78  1  0.01579254  0.83383209  0.40786412  1
  O  O79  1  0.81103804  0.97982937  0.40893756  1
  O  O80  1  0.17317157  0.19119125  0.40812461  1
  O  O81  1  0.02412818  0.19096736  0.91186552  1
  O  O82  1  0.16626414  0.98028678  0.91160431  1
  O  O83  1  0.80527224  0.82415594  0.91157219  1
  O  O84  1  0.96914757  0.16950466  0.58851803  1
  O  O85  1  0.18871039  0.02938858  0.59028964  1
  O  O86  1  0.83639996  0.81297592  0.58875765  1
  O  O87  1  0.97467175  0.80810500  0.09081783  1
  O  O88  1  0.82661489  0.02972545  0.09037976  1
  O  O89  1  0.18860126  0.17323048  0.08990189  1
  O  O90  1  0.69096738  0.17433452  0.74003690  1
  O  O91  1  0.47820771  0.30692008  0.74144553  1
  O  O92  1  0.83610041  0.52497720  0.74095822  1
  O  O93  1  0.68461864  0.51974736  0.24614428  1
  O  O94  1  0.83297273  0.31759165  0.24581026  1
  O  O95  1  0.47534902  0.15968341  0.24551566  1
  O  O96  1  0.64118879  0.50716115  0.92034612  1
  O  O97  1  0.85562182  0.35458259  0.92061063  1
  O  O98  1  0.49290306  0.14873933  0.91922284  1
  O  O99  1  0.64614148  0.14968340  0.42410502  1
  O  O100  1  0.49336846  0.35600730  0.42108867  1
  O  O101  1  0.84856712  0.50459435  0.42116864  1
  O  O102  1  0.35669011  0.49943740  0.08174021  1
  O  O103  1  0.13930727  0.64091900  0.08143227  1
  O  O104  1  0.50929895  0.86616011  0.08173559  1
  O  O105  1  0.35760872  0.86552038  0.57766799  1
  O  O106  1  0.50877699  0.64685984  0.57846007  1
  O  O107  1  0.13166725  0.48768695  0.57849668  1
  O  O108  1  0.31102600  0.84020104  0.25748586  1
  O  O109  1  0.51431542  0.68438116  0.26060341  1
  O  O110  1  0.16223851  0.48535105  0.25855870  1
  O  O111  1  0.31369795  0.47482534  0.75174258  1
  O  O112  1  0.15468232  0.68862015  0.75176797  1
  O  O113  1  0.52237684  0.84676496  0.74983848  1
