# generated using pymatgen
data_Na18Ca20Ta4Si3(S11O48)3
_symmetry_space_group_name_H-M   'P 1'
_cell_length_a   18.41268734
_cell_length_b   9.21188393
_cell_length_c   23.75170871
_cell_angle_alpha   90.01310627
_cell_angle_beta   90.45921652
_cell_angle_gamma   119.85720682
_symmetry_Int_Tables_number   1
_chemical_formula_structural   Na18Ca20Ta4Si3(S11O48)3
_chemical_formula_sum   'Na18 Ca20 Ta4 Si3 S33 O144'
_cell_volume   3493.77665217
_cell_formula_units_Z   1
loop_
 _symmetry_equiv_pos_site_id
 _symmetry_equiv_pos_as_xyz
  1  'x, y, z'
loop_
 _atom_site_type_symbol
 _atom_site_label
 _atom_site_symmetry_multiplicity
 _atom_site_fract_x
 _atom_site_fract_y
 _atom_site_fract_z
 _atom_site_occupancy
  Na  Na0  1  0.31919789  0.99953479  0.25708319  1
  Na  Na1  1  0.81879584  -0.00003733  0.24933735  1
  Na  Na2  1  0.17936137  0.36094439  0.26557539  1
  Na  Na3  1  0.68162538  0.36401151  0.26175347  1
  Na  Na4  1  0.68009500  0.99686045  0.75132996  1
  Na  Na5  1  0.99025098  0.68693245  0.92638199  1
  Na  Na6  1  0.01300845  0.03183044  0.49290099  1
  Na  Na7  1  0.51357293  0.03264310  0.49312228  1
  Na  Na8  1  0.99797308  0.99698968  0.00172827  1
  Na  Na9  1  0.51384745  0.01317056  0.00095107  1
  Na  Na10  1  0.33685518  0.34714445  0.82568325  1
  Na  Na11  1  0.82660951  0.32558155  0.83629752  1
  Na  Na12  1  0.33588539  0.35746453  0.33921974  1
  Na  Na13  1  0.83578688  0.35776453  0.33589223  1
  Na  Na14  1  0.14802387  0.66256917  0.16853670  1
  Na  Na15  1  0.66554931  0.66630263  0.16179155  1
  Na  Na16  1  0.16502761  0.65585510  0.65491416  1
  Na  Na17  1  0.66449031  0.64513111  0.66531562  1
  Ca  Ca18  1  0.00297105  0.99964462  0.35418899  1
  Ca  Ca19  1  0.50459325  0.00044691  0.35430135  1
  Ca  Ca20  1  0.99911240  0.00556897  0.84834373  1
  Ca  Ca21  1  0.50152742  0.00123260  0.85163614  1
  Ca  Ca22  1  0.00185388  0.00873732  0.64596756  1
  Ca  Ca23  1  0.49649489  0.99789486  0.64379410  1
  Ca  Ca24  1  0.00075124  0.99306414  0.14759711  1
  Ca  Ca25  1  0.50049858  0.99325924  0.14616454  1
  Ca  Ca26  1  0.33349457  0.33355507  0.68535662  1
  Ca  Ca27  1  0.83825134  0.34116471  0.68428712  1
  Ca  Ca28  1  0.33944987  0.34769444  0.18325146  1
  Ca  Ca29  1  0.83514996  0.34168904  0.17820683  1
  Ca  Ca30  1  0.82813683  0.32545194  0.98616508  1
  Ca  Ca31  1  0.16520184  0.66819310  0.01963652  1
  Ca  Ca32  1  0.67284107  0.67298733  0.01610178  1
  Ca  Ca33  1  0.16567327  0.65823799  0.51411213  1
  Ca  Ca34  1  0.66536135  0.65751197  0.51550759  1
  Ca  Ca35  1  0.16323873  0.65204131  0.33060104  1
  Ca  Ca36  1  0.66443448  0.65297844  0.32980787  1
  Ca  Ca37  1  0.66330641  0.65388405  0.81946317  1
  Ta  Ta38  1  0.32812559  0.32238503  0.98010434  1
  Ta  Ta39  1  0.32985858  0.33262441  0.48252525  1
  Ta  Ta40  1  0.82978878  0.33292526  0.48277005  1
  Ta  Ta41  1  0.17104934  0.67855952  0.81881844  1
  Si  Si42  1  0.16648141  0.96159877  0.91905391  1
  Si  Si43  1  0.16503039  0.35582101  0.41557541  1
  Si  Si44  1  0.66481888  0.35647701  0.41569436  1
  S  S45  1  0.15302447  0.99981573  0.24903620  1
  S  S46  1  0.65211726  0.99792695  0.24877321  1
  S  S47  1  0.34682563  0.70320564  0.24966418  1
  S  S48  1  0.84746404  0.70080285  0.25055610  1
  S  S49  1  0.00055767  0.29841001  0.24892800  1
  S  S50  1  0.49974347  0.29460836  0.24948759  1
  S  S51  1  0.15231904  0.31736875  0.75391817  1
  S  S52  1  0.64853958  0.29553299  0.74903891  1
  S  S53  1  0.00733982  0.69982671  0.75587052  1
  S  S54  1  0.50100117  0.70297283  0.74992457  1
  S  S55  1  0.34480351  0.98987160  0.75448945  1
  S  S56  1  0.84616496  0.99583650  0.74881979  1
  S  S57  1  0.47686030  0.33149809  0.58217800  1
  S  S58  1  0.97891908  0.33347791  0.58144421  1
  S  S59  1  0.18950442  0.04577008  0.58129824  1
  S  S60  1  0.68913876  0.04555287  0.58211497  1
  S  S61  1  0.33488510  0.62258048  0.58132837  1
  S  S62  1  0.83667498  0.62630200  0.58142196  1
  S  S63  1  0.47639175  0.62371453  0.07615546  1
  S  S64  1  0.98681677  0.63825361  0.08044583  1
  S  S65  1  0.33589669  0.04911252  0.08067847  1
  S  S66  1  0.83406280  0.02846481  0.08606777  1
  S  S67  1  0.18932283  0.33019104  0.07981021  1
  S  S68  1  0.67874621  0.33357618  0.08533809  1
  S  S69  1  0.31068990  0.65375075  0.91763911  1
  S  S70  1  0.81962896  0.66399489  0.91652468  1
  S  S71  1  0.02352290  0.38533758  0.91276943  1
  S  S72  1  0.50969072  0.36288532  0.92177070  1
  S  S73  1  0.66701776  0.97046905  0.91422031  1
  S  S74  1  0.31844010  0.98176983  0.41918160  1
  S  S75  1  0.81808008  0.98128075  0.41975456  1
  S  S76  1  0.00804088  0.65443289  0.42196689  1
  S  S77  1  0.50837807  0.65438528  0.42180014  1
  O  O78  1  0.11024074  0.01545705  0.29870762  1
  O  O79  1  0.60945942  0.01440544  0.29847884  1
  O  O80  1  0.39593658  0.78527492  0.30049822  1
  O  O81  1  0.89551723  0.78161756  0.30196182  1
  O  O82  1  0.48985553  0.19217467  0.29973898  1
  O  O83  1  0.99155863  0.19628201  0.29912997  1
  O  O84  1  0.11046334  0.21191628  0.80239869  1
  O  O85  1  0.60695891  0.19995807  0.80043636  1
  O  O86  1  0.49376673  0.78537422  0.80110584  1
  O  O87  1  0.99733052  0.77693785  0.80678479  1
  O  O88  1  0.39660438  0.01151238  0.80377781  1
  O  O89  1  0.89305819  0.00840438  0.80065085  1
  O  O90  1  0.37653153  0.96013663  0.70201685  1
  O  O91  1  0.89063133  0.98618525  0.69861149  1
  O  O92  1  0.10394559  0.25330691  0.70123212  1
  O  O93  1  0.59884463  0.20880936  0.69814206  1
  O  O94  1  0.02451508  0.80232490  0.70519766  1
  O  O95  1  0.50629092  0.80156047  0.69919465  1
  O  O96  1  0.38928317  0.79663418  0.19822855  1
  O  O97  1  0.89067998  0.79815971  0.19990652  1
  O  O98  1  0.01132482  0.21809863  0.19788886  1
  O  O99  1  0.50677958  0.21106929  0.19822121  1
  O  O100  1  0.10637361  0.98612831  0.19677646  1
  O  O101  1  0.60394139  0.98077061  0.19677242  1
  O  O102  1  0.43543697  0.33550455  0.63411450  1
  O  O103  1  0.93811284  0.33928493  0.63337950  1
  O  O104  1  0.23435332  0.12553678  0.63342348  1
  O  O105  1  0.73187915  0.12162166  0.63573708  1
  O  O106  1  0.32956633  0.53191123  0.63293823  1
  O  O107  1  0.83061598  0.53548242  0.63331808  1
  O  O108  1  0.43908399  0.53598583  0.12871885  1
  O  O109  1  0.93793134  0.54165381  0.12929832  1
  O  O110  1  0.33086245  0.12757229  0.13295721  1
  O  O111  1  0.83096238  0.10848462  0.13981782  1
  O  O112  1  0.23348129  0.33777993  0.13191792  1
  O  O113  1  0.72196499  0.34086318  0.13926869  1
  O  O114  1  0.24333012  0.32793594  0.02937596  1
  O  O115  1  0.72679748  0.32799122  0.03664308  1
  O  O116  1  0.41934170  0.51620115  0.02702860  1
  O  O117  1  0.94478250  0.55538337  0.02644142  1
  O  O118  1  0.33551873  0.16084210  0.03070104  1
  O  O119  1  0.83708238  0.12978994  0.03701345  1
  O  O120  1  0.24236025  0.15485332  0.53152552  1
  O  O121  1  0.74474269  0.15958189  0.53392216  1
  O  O122  1  0.33586302  0.51607440  0.53138634  1
  O  O123  1  0.83834104  0.51939213  0.53176129  1
  O  O124  1  0.42391003  0.32902201  0.53208808  1
  O  O125  1  0.92616757  0.33004133  0.53148716  1
  O  O126  1  0.27246676  0.67362583  0.96774592  1
  O  O127  1  0.77717383  0.67141629  0.96758247  1
  O  O128  1  0.06923252  0.45485610  0.96520367  1
  O  O129  1  0.56344965  0.44734312  0.96991646  1
  O  O130  1  0.15126597  0.84278886  0.97054155  1
  O  O131  1  0.66366749  0.86808835  0.96272303  1
  O  O132  1  0.27179065  0.87516662  0.46581424  1
  O  O133  1  0.77192459  0.87462235  0.46651309  1
  O  O134  1  0.15912534  0.46764678  0.46425433  1
  O  O135  1  0.65902132  0.46804617  0.46457875  1
  O  O136  1  0.06249071  0.68431350  0.47024605  1
  O  O137  1  0.56258179  0.68409645  0.47020344  1
  O  O138  1  0.03913653  0.61891559  0.36960446  1
  O  O139  1  0.53919090  0.61846489  0.36947286  1
  O  O140  1  0.27169400  0.92640187  0.36467667  1
  O  O141  1  0.77138486  0.92644542  0.36544806  1
  O  O142  1  0.18810540  0.44711149  0.35402481  1
  O  O143  1  0.68755069  0.44562486  0.35377968  1
  O  O144  1  0.07919875  0.50122548  0.86414541  1
  O  O145  1  0.53881171  0.45677116  0.86891439  1
  O  O146  1  0.18482203  0.85885499  0.86315017  1
  O  O147  1  0.66854202  0.88975586  0.86008778  1
  O  O148  1  0.25579064  0.62971738  0.86578320  1
  O  O149  1  0.77063890  0.65027003  0.86541371  1
  O  O150  1  0.98822672  0.78891141  0.41533851  1
  O  O151  1  0.48803078  0.78808866  0.41516057  1
  O  O152  1  0.40248377  0.00380542  0.41522112  1
  O  O153  1  0.90249832  0.00439848  0.41563734  1
  O  O154  1  0.09162129  0.16362614  0.41640243  1
  O  O155  1  0.59148788  0.16409263  0.41701580  1
  O  O156  1  0.00904531  0.21710389  0.90378994  1
  O  O157  1  0.49232034  0.18952959  0.91708859  1
  O  O158  1  0.08762652  0.98318709  0.90603403  1
  O  O159  1  0.59163070  0.99164064  0.91609484  1
  O  O160  1  0.39461548  0.79378399  0.90847700  1
  O  O161  1  0.90504619  0.81720246  0.91527382  1
  O  O162  1  0.48188173  0.17586860  0.57865400  1
  O  O163  1  0.98476906  0.17853158  0.57862632  1
  O  O164  1  0.10803494  0.04047544  0.57800576  1
  O  O165  1  0.60794313  0.04033525  0.57731841  1
  O  O166  1  0.41330473  0.78409428  0.57800799  1
  O  O167  1  0.91567550  0.78773579  0.57932119  1
  O  O168  1  0.47846538  0.78600095  0.07333024  1
  O  O169  1  0.99626034  0.80820912  0.08064608  1
  O  O170  1  0.41390920  0.04520184  0.07569325  1
  O  O171  1  0.91034323  0.01126195  0.08479044  1
  O  O172  1  0.10830400  0.17608535  0.07456079  1
  O  O173  1  0.59474333  0.17893429  0.08318639  1
  O  O174  1  0.32577181  0.12729532  0.75060706  1
  O  O175  1  0.83387719  0.14551566  0.74682978  1
  O  O176  1  0.23827833  0.34391639  0.74982346  1
  O  O177  1  0.73208477  0.30325848  0.74742855  1
  O  O178  1  0.42843196  0.52987860  0.74748031  1
  O  O179  1  0.93720739  0.52875658  0.74935077  1
  O  O180  1  0.33060454  0.52655549  0.24715262  1
  O  O181  1  0.83219833  0.52525412  0.24729320  1
  O  O182  1  0.42218641  0.30928685  0.24603722  1
  O  O183  1  0.92298416  0.31127289  0.24440003  1
  O  O184  1  0.23857001  0.15704770  0.24729913  1
  O  O185  1  0.73718292  0.15596853  0.24653911  1
  O  O186  1  0.31612306  0.49254320  0.92259087  1
  O  O187  1  0.83358046  0.51662777  0.91797683  1
  O  O188  1  0.42252581  0.35016888  0.93207865  1
  O  O189  1  0.94549961  0.39378521  0.90908830  1
  O  O190  1  0.25404891  0.15141778  0.92962185  1
  O  O191  1  0.74395721  0.13911469  0.91654360  1
  O  O192  1  0.32934414  0.15703450  0.43071024  1
  O  O193  1  0.82911238  0.15675917  0.43171425  1
  O  O194  1  0.25502262  0.34333992  0.43372857  1
  O  O195  1  0.75466768  0.34314930  0.43449744  1
  O  O196  1  0.42298005  0.49278597  0.43243170  1
  O  O197  1  0.92296084  0.49320249  0.43243082  1
  O  O198  1  0.18300633  0.48152227  0.07425031  1
  O  O199  1  0.66882410  0.48413388  0.08284945  1
  O  O200  1  0.07066998  0.65105127  0.08535166  1
  O  O201  1  0.55972870  0.64286250  0.07021084  1
  O  O202  1  0.26184336  0.88349037  0.07464074  1
  O  O203  1  0.75763650  0.85987340  0.08363936  1
  O  O204  1  0.18095928  0.87964574  0.57564187  1
  O  O205  1  0.68137013  0.88084237  0.57539197  1
  O  O206  1  0.26125040  0.64388958  0.57641405  1
  O  O207  1  0.76307239  0.64656411  0.57578586  1
  O  O208  1  0.06262450  0.48439458  0.57911496  1
  O  O209  1  0.56039312  0.48181573  0.57975912  1
  O  O210  1  0.16739663  0.85402947  0.25316153  1
  O  O211  1  0.66724379  0.85336174  0.25353486  1
  O  O212  1  0.26285110  0.69467884  0.25172034  1
  O  O213  1  0.76315478  0.69161385  0.25207127  1
  O  O214  1  0.07670642  0.46849217  0.25400212  1
  O  O215  1  0.57593597  0.46325152  0.25396157  1
  O  O216  1  0.16152895  0.49106056  0.76468509  1
  O  O217  1  0.66037554  0.46695642  0.75131927  1
  O  O218  1  0.08728412  0.68220407  0.76586068  1
  O  O219  1  0.58082507  0.69593326  0.75235690  1
  O  O220  1  0.25939492  0.82581929  0.76449388  1
  O  O221  1  0.75962343  0.84557960  0.74991055  1
