# generated using pymatgen
data_NaTaSi2SnSO12
_symmetry_space_group_name_H-M   'P 1'
_cell_length_a   8.85523983
_cell_length_b   8.85014070
_cell_length_c   22.83638097
_cell_angle_alpha   91.08670434
_cell_angle_beta   90.00000000
_cell_angle_gamma   120.01906113
_symmetry_Int_Tables_number   1
_chemical_formula_structural   NaTaSi2SnSO12
_chemical_formula_sum   'Na6 Ta6 Si12 Sn6 S6 O72'
_cell_volume   1549.24734661
_cell_formula_units_Z   6
loop_
 _symmetry_equiv_pos_site_id
 _symmetry_equiv_pos_as_xyz
  1  'x, y, z'
loop_
 _atom_site_type_symbol
 _atom_site_label
 _atom_site_symmetry_multiplicity
 _atom_site_fract_x
 _atom_site_fract_y
 _atom_site_fract_z
 _atom_site_occupancy
  Na  Na0  1  0.02691797  0.01322938  0.49652602  1
  Na  Na1  1  0.98631141  0.01322938  0.99652602  1
  Na  Na2  1  0.69358497  0.34656238  0.82985902  1
  Na  Na3  1  0.65297841  0.34656238  0.32985902  1
  Na  Na4  1  0.36025097  0.67989638  0.16319302  1
  Na  Na5  1  0.31964441  0.67989638  0.66319302  1
  Ta  Ta6  1  0.99581349  0.99294665  0.64397608  1
  Ta  Ta7  1  0.99713316  0.99294665  0.14397608  1
  Ta  Ta8  1  0.66248049  0.32627965  0.97730908  1
  Ta  Ta9  1  0.66380016  0.32627965  0.47730908  1
  Ta  Ta10  1  0.32914649  0.65961365  0.31064308  1
  Ta  Ta11  1  0.33046616  0.65961365  0.81064308  1
  Si  Si12  1  0.29223011  0.99766101  0.25010062  1
  Si  Si13  1  0.71413999  0.71064946  0.25006019  1
  Si  Si14  1  0.99650947  0.71064946  0.75006019  1
  Si  Si15  1  0.70543091  0.99766101  0.75010062  1
  Si  Si16  1  0.95889711  0.33099401  0.58343362  1
  Si  Si17  1  0.38080699  0.04398246  0.58339319  1
  Si  Si18  1  0.66317647  0.04398246  0.08339319  1
  Si  Si19  1  0.37209791  0.33099401  0.08343362  1
  Si  Si20  1  0.62556311  0.66432801  0.91676762  1
  Si  Si21  1  0.04747299  0.37731646  0.91672719  1
  Si  Si22  1  0.32984247  0.37731646  0.41672719  1
  Si  Si23  1  0.03876391  0.66432801  0.41676762  1
  Sn  Sn24  1  0.01354156  0.99262909  0.35408942  1
  Sn  Sn25  1  0.97908753  0.99262909  0.85408942  1
  Sn  Sn26  1  0.68020856  0.32596209  0.68742242  1
  Sn  Sn27  1  0.64575453  0.32596209  0.18742242  1
  Sn  Sn28  1  0.34687456  0.65929609  0.02075642  1
  Sn  Sn29  1  0.31242053  0.65929609  0.52075642  1
  S  S30  1  0.99860546  0.28542205  0.24964049  1
  S  S31  1  0.28681659  0.28542205  0.74964049  1
  S  S32  1  0.66527246  0.61875505  0.58297349  1
  S  S33  1  0.95348359  0.61875505  0.08297349  1
  S  S34  1  0.33193846  0.95208905  0.91630749  1
  S  S35  1  0.62014959  0.95208905  0.41630749  1
  O  O36  1  0.22110256  0.04639171  0.30833583  1
  O  O37  1  0.81962355  0.80398419  0.30961483  1
  O  O38  1  0.97129408  0.18466525  0.30251796  1
  O  O39  1  0.21337118  0.18466525  0.80251796  1
  O  O40  1  0.98436064  0.80398419  0.80961483  1
  O  O41  1  0.82528916  0.04639171  0.80833583  1
  O  O42  1  0.80852924  0.97685984  0.69278301  1
  O  O43  1  0.17801109  0.20108669  0.69628826  1
  O  O44  1  0.02592963  0.83278936  0.69252954  1
  O  O45  1  0.80685972  0.83278936  0.19252954  1
  O  O46  1  0.02307560  0.20108669  0.19628826  1
  O  O47  1  0.16833060  0.97685984  0.19278301  1
  O  O48  1  0.88776956  0.37972471  0.64166883  1
  O  O49  1  0.48629055  0.13731719  0.64294783  1
  O  O50  1  0.63796108  0.51799825  0.63585096  1
  O  O51  1  0.88003818  0.51799825  0.13585096  1
  O  O52  1  0.65102764  0.13731719  0.14294783  1
  O  O53  1  0.49195616  0.37972471  0.14166883  1
  O  O54  1  0.47519624  0.31019284  0.02611601  1
  O  O55  1  0.84467809  0.53441969  0.02962126  1
  O  O56  1  0.69259663  0.16612236  0.02586254  1
  O  O57  1  0.47352672  0.16612236  0.52586254  1
  O  O58  1  0.68974260  0.53441969  0.52962126  1
  O  O59  1  0.83499760  0.31019284  0.52611601  1
  O  O60  1  0.55443556  0.71305871  0.97500283  1
  O  O61  1  0.15295655  0.47065119  0.97628183  1
  O  O62  1  0.30462708  0.85133225  0.96918496  1
  O  O63  1  0.54670418  0.85133225  0.46918496  1
  O  O64  1  0.31769364  0.47065119  0.47628183  1
  O  O65  1  0.15862216  0.71305871  0.47500283  1
  O  O66  1  0.14186224  0.64352684  0.35945001  1
  O  O67  1  0.51134409  0.86775369  0.36295526  1
  O  O68  1  0.35926263  0.49945636  0.35919654  1
  O  O69  1  0.14019272  0.49945636  0.85919654  1
  O  O70  1  0.35640860  0.86775369  0.86295526  1
  O  O71  1  0.50166360  0.64352684  0.85945001  1
  O  O72  1  0.00123057  0.82577573  0.41378878  1
  O  O73  1  0.79835620  0.98589296  0.40951031  1
  O  O74  1  0.14847402  0.19112070  0.41124402  1
  O  O75  1  0.04264668  0.19112070  0.91124402  1
  O  O76  1  0.18753676  0.98589296  0.90951031  1
  O  O77  1  0.82454517  0.82577573  0.91378878  1
  O  O78  1  0.96442660  0.14843275  0.59057754  1
  O  O79  1  0.18312059  0.01861553  0.59077944  1
  O  O80  1  0.83198410  0.79184763  0.58763767  1
  O  O81  1  0.95986353  0.79184763  0.08763767  1
  O  O82  1  0.83549494  0.01861553  0.09077944  1
  O  O83  1  0.18400615  0.14843275  0.09057754  1
  O  O84  1  0.66789757  0.15910873  0.74712178  1
  O  O85  1  0.46502320  0.31922596  0.74284331  1
  O  O86  1  0.81514102  0.52445370  0.74457702  1
  O  O87  1  0.70931368  0.52445370  0.24457702  1
  O  O88  1  0.85420376  0.31922596  0.24284331  1
  O  O89  1  0.49121217  0.15910873  0.24712178  1
  O  O90  1  0.63109360  0.48176575  0.92391054  1
  O  O91  1  0.84978759  0.35194853  0.92411244  1
  O  O92  1  0.49865110  0.12518063  0.92097067  1
  O  O93  1  0.62653053  0.12518063  0.42097067  1
  O  O94  1  0.50216194  0.35194853  0.42411244  1
  O  O95  1  0.85067315  0.48176575  0.42391054  1
  O  O96  1  0.33456357  0.49244273  0.08045578  1
  O  O97  1  0.13168920  0.65255996  0.07617731  1
  O  O98  1  0.48180702  0.85778770  0.07791102  1
  O  O99  1  0.37597968  0.85778770  0.57791102  1
  O  O100  1  0.52086976  0.65255996  0.57617731  1
  O  O101  1  0.15787817  0.49244273  0.58045578  1
  O  O102  1  0.29775960  0.81509975  0.25724454  1
  O  O103  1  0.51645359  0.68528253  0.25744644  1
  O  O104  1  0.16531710  0.45851463  0.25430467  1
  O  O105  1  0.29319653  0.45851463  0.75430467  1
  O  O106  1  0.16882794  0.68528253  0.75744644  1
  O  O107  1  0.51733915  0.81509975  0.75724454  1
