# generated using pymatgen
data_Na6NbAl3Si4(SO12)2
_symmetry_space_group_name_H-M   'P 1'
_cell_length_a   8.80267869
_cell_length_b   8.86464299
_cell_length_c   21.82977914
_cell_angle_alpha   89.49347477
_cell_angle_beta   89.67237457
_cell_angle_gamma   119.99555757
_symmetry_Int_Tables_number   1
_chemical_formula_structural   Na6NbAl3Si4(SO12)2
_chemical_formula_sum   'Na18 Nb3 Al9 Si12 S6 O72'
_cell_volume   1475.12486415
_cell_formula_units_Z   3
loop_
 _symmetry_equiv_pos_site_id
 _symmetry_equiv_pos_as_xyz
  1  'x, y, z'
loop_
 _atom_site_type_symbol
 _atom_site_label
 _atom_site_symmetry_multiplicity
 _atom_site_fract_x
 _atom_site_fract_y
 _atom_site_fract_z
 _atom_site_occupancy
  Na  Na0  1  0.62305201  0.99807536  0.25261900  1
  Na  Na1  1  0.63571898  0.62500657  0.75098265  1
  Na  Na2  1  0.00206445  0.36565505  0.74429033  1
  Na  Na3  1  0.29901402  0.33981760  0.58522674  1
  Na  Na4  1  0.02505226  0.69522617  0.58773857  1
  Na  Na5  1  0.67387321  0.96639574  0.57756974  1
  Na  Na6  1  0.29822354  0.95551000  0.08793574  1
  Na  Na7  1  0.66893577  0.70489620  0.07879725  1
  Na  Na8  1  0.02768121  0.33424600  0.08395392  1
  Na  Na9  1  0.97017532  0.67772208  0.91327261  1
  Na  Na10  1  0.33149969  0.29791054  0.91080182  1
  Na  Na11  1  0.68830993  0.66866439  0.41376397  1
  Na  Na12  1  0.00156659  0.01980813  0.49510897  1
  Na  Na13  1  0.98466296  0.99395539  0.99609828  1
  Na  Na14  1  0.65325635  0.32080557  0.82871285  1
  Na  Na15  1  0.64220114  0.31795157  0.32816578  1
  Na  Na16  1  0.31906374  0.67081329  0.17061305  1
  Na  Na17  1  0.32758838  0.66223047  0.66388780  1
  Nb  Nb18  1  0.68132231  0.33447940  0.97796977  1
  Nb  Nb19  1  0.67230080  0.33301411  0.47498620  1
  Nb  Nb20  1  0.32653094  0.66481016  0.81238257  1
  Al  Al21  1  0.02235157  0.03057485  0.35440808  1
  Al  Al22  1  0.01085958  0.99736857  0.85629953  1
  Al  Al23  1  0.00175957  0.00451689  0.64775540  1
  Al  Al24  1  0.99765758  0.97944846  0.14904108  1
  Al  Al25  1  0.67733774  0.36194169  0.68797725  1
  Al  Al26  1  0.66009469  0.31496119  0.18577965  1
  Al  Al27  1  0.33160830  0.67656382  0.01815096  1
  Al  Al28  1  0.34520731  0.64893446  0.51741398  1
  Al  Al29  1  0.34190085  0.68389514  0.31621428  1
  Si  Si30  1  0.28593690  0.99871341  0.25029065  1
  Si  Si31  1  0.29054339  0.27420285  0.74818504  1
  Si  Si32  1  0.00038541  0.72180735  0.74844539  1
  Si  Si33  1  0.96117728  0.33624758  0.58748022  1
  Si  Si34  1  0.67003646  0.63323442  0.58496562  1
  Si  Si35  1  0.95822162  0.62199911  0.08901591  1
  Si  Si36  1  0.66776467  0.03250539  0.08909407  1
  Si  Si37  1  0.62612259  0.68037124  0.91954876  1
  Si  Si38  1  0.04995677  0.36834985  0.92039696  1
  Si  Si39  1  0.33215445  0.95535849  0.91908395  1
  Si  Si40  1  0.62568931  0.94855596  0.41420892  1
  Si  Si41  1  0.32190208  0.38055464  0.41408617  1
  S  S42  1  0.70901694  0.70313590  0.24990498  1
  S  S43  1  0.00392637  0.29111163  0.24937625  1
  S  S44  1  0.71612125  0.00517953  0.74837752  1
  S  S45  1  0.37805715  0.04513235  0.58542600  1
  S  S46  1  0.37448069  0.33196893  0.08673300  1
  S  S47  1  0.05713981  0.67398966  0.41610624  1
  O  O48  1  0.18252662  0.02215378  0.30776350  1
  O  O49  1  0.81220837  0.78464003  0.30520233  1
  O  O50  1  0.96654804  0.17290884  0.30346891  1
  O  O51  1  0.19567341  0.16999067  0.81080979  1
  O  O52  1  0.96494384  0.80322298  0.80946709  1
  O  O53  1  0.82185250  0.02994028  0.80314908  1
  O  O54  1  0.79336239  0.97531552  0.69213193  1
  O  O55  1  0.16416527  0.19840783  0.68868014  1
  O  O56  1  0.02426759  0.83405598  0.68676786  1
  O  O57  1  0.79360609  0.82069755  0.19450338  1
  O  O58  1  0.02622989  0.20929595  0.19315325  1
  O  O59  1  0.17504724  0.97575485  0.18702394  1
  O  O60  1  0.86154703  0.36333038  0.64595650  1
  O  O61  1  0.49112553  0.12555766  0.63808209  1
  O  O62  1  0.62770139  0.50232023  0.64312204  1
  O  O63  1  0.84719581  0.48394690  0.14285424  1
  O  O64  1  0.62581548  0.12323798  0.14534056  1
  O  O65  1  0.49047148  0.35860312  0.13878976  1
  O  O66  1  0.44930332  0.30058792  0.02942577  1
  O  O67  1  0.83488736  0.53864993  0.02569372  1
  O  O68  1  0.70490430  0.16878964  0.02893441  1
  O  O69  1  0.45714696  0.15536276  0.52862005  1
  O  O70  1  0.70358756  0.53796778  0.52476098  1
  O  O71  1  0.82721685  0.29806878  0.52842761  1
  O  O72  1  0.52653428  0.69260074  0.97969329  1
  O  O73  1  0.16886316  0.46378936  0.97904822  1
  O  O74  1  0.29516678  0.83395950  0.97875391  1
  O  O75  1  0.53252626  0.83198335  0.47655652  1
  O  O76  1  0.30282515  0.45794072  0.47934634  1
  O  O77  1  0.15336384  0.69141342  0.47336617  1
  O  O78  1  0.13626190  0.64569507  0.36200163  1
  O  O79  1  0.50907441  0.87258340  0.35383969  1
  O  O80  1  0.36422967  0.51559562  0.35763712  1
  O  O81  1  0.12961333  0.49678083  0.85815635  1
  O  O82  1  0.36819644  0.86534100  0.85877283  1
  O  O83  1  0.50311638  0.63486263  0.85721760  1
  O  O84  1  0.02270221  0.82030255  0.41122408  1
  O  O85  1  0.81915401  0.96428748  0.40517336  1
  O  O86  1  0.15928133  0.18457602  0.40983812  1
  O  O87  1  0.02637671  0.18067149  0.90946965  1
  O  O88  1  0.16088883  0.97525138  0.91115893  1
  O  O89  1  0.82070793  0.84260021  0.90996984  1
  O  O90  1  0.98171328  0.16270482  0.59087889  1
  O  O91  1  0.20242321  0.03053335  0.58876948  1
  O  O92  1  0.84502155  0.82612995  0.59004334  1
  O  O93  1  0.97674165  0.81549811  0.09141607  1
  O  O94  1  0.84927865  0.02443354  0.09586513  1
  O  O95  1  0.19650468  0.17668618  0.09183511  1
  O  O96  1  0.69165159  0.15699371  0.74230613  1
  O  O97  1  0.48937268  0.30401862  0.74176707  1
  O  O98  1  0.83190852  0.51861806  0.74538855  1
  O  O99  1  0.69223932  0.53083691  0.24203082  1
  O  O100  1  0.84023755  0.30462319  0.24513575  1
  O  O101  1  0.48941368  0.17399856  0.24358759  1
  O  O102  1  0.63946208  0.49790372  0.92441630  1
  O  O103  1  0.85998515  0.36532008  0.92054806  1
  O  O104  1  0.50050942  0.15381480  0.92373436  1
  O  O105  1  0.64918608  0.14733610  0.42355175  1
  O  O106  1  0.50894348  0.36632848  0.42192076  1
  O  O107  1  0.87410657  0.51053843  0.41913925  1
  O  O108  1  0.35857576  0.48955336  0.08178429  1
  O  O109  1  0.14942844  0.63543982  0.07982593  1
  O  O110  1  0.49583609  0.84160634  0.07874934  1
  O  O111  1  0.35480259  0.86889046  0.57781243  1
  O  O112  1  0.49479188  0.65318340  0.57881676  1
  O  O113  1  0.15018168  0.51676697  0.57661142  1
  O  O114  1  0.31364506  0.82434535  0.25697289  1
  O  O115  1  0.53262323  0.68992291  0.25234462  1
  O  O116  1  0.15874709  0.46380683  0.25630893  1
  O  O117  1  0.31758728  0.48034244  0.75346911  1
  O  O118  1  0.17454304  0.69227192  0.75112585  1
  O  O119  1  0.54021886  0.84159335  0.75184690  1
