# generated using pymatgen
data_Na2In2Si(SO6)2
_symmetry_space_group_name_H-M   'P 1'
_cell_length_a   9.08122622
_cell_length_b   9.08122590
_cell_length_c   23.15174246
_cell_angle_alpha   90.29389087
_cell_angle_beta   89.70610912
_cell_angle_gamma   119.95482995
_symmetry_Int_Tables_number   1
_chemical_formula_structural   Na2In2Si(SO6)2
_chemical_formula_sum   'Na12 In12 Si6 S12 O72'
_cell_volume   1654.21959885
_cell_formula_units_Z   6
loop_
 _symmetry_equiv_pos_site_id
 _symmetry_equiv_pos_as_xyz
  1  'x, y, z'
loop_
 _atom_site_type_symbol
 _atom_site_label
 _atom_site_symmetry_multiplicity
 _atom_site_fract_x
 _atom_site_fract_y
 _atom_site_fract_z
 _atom_site_occupancy
  Na  Na0  1  0.00033312  0.62269578  0.25097947  1
  Na  Na1  1  0.37730422  0.99966688  0.75097947  1
  Na  Na2  1  0.65924430  0.96965466  0.59250834  1
  Na  Na3  1  0.03034534  0.34075570  0.09250834  1
  Na  Na4  1  0.98193122  0.67695267  0.92471192  1
  Na  Na5  1  0.32304733  0.01806878  0.42471192  1
  Na  Na6  1  0.01268311  0.98753184  0.50109354  1
  Na  Na7  1  0.01246816  0.98731689  0.00109354  1
  Na  Na8  1  0.65958521  0.30505411  0.83467423  1
  Na  Na9  1  0.69494589  0.34041479  0.33467423  1
  Na  Na10  1  0.32920913  0.66050568  0.16687913  1
  Na  Na11  1  0.33949432  0.67079087  0.66687913  1
  In  In12  1  0.99349293  0.00108373  0.34986199  1
  In  In13  1  0.99891627  0.00650707  0.84986199  1
  In  In14  1  0.00692660  0.00061995  0.64999851  1
  In  In15  1  0.99938005  0.99307340  0.14999851  1
  In  In16  1  0.66859220  0.32435129  0.68371708  1
  In  In17  1  0.67564871  0.33140780  0.18371708  1
  In  In18  1  0.66005201  0.33048552  0.98319713  1
  In  In19  1  0.66951448  0.33994799  0.48319713  1
  In  In20  1  0.32704722  0.68343064  0.01647283  1
  In  In21  1  0.31656936  0.67295278  0.51647283  1
  In  In22  1  0.31277588  0.64421442  0.31660689  1
  In  In23  1  0.35578558  0.68722412  0.81660689  1
  Si  Si24  1  0.99890076  0.29077504  0.24763373  1
  Si  Si25  1  0.70922496  0.00109924  0.74763373  1
  Si  Si26  1  0.36755666  0.03798170  0.58208185  1
  Si  Si27  1  0.96201830  0.63244334  0.08208185  1
  Si  Si28  1  0.33267955  0.97388784  0.91351063  1
  Si  Si29  1  0.02611216  0.66732045  0.41351063  1
  S  S30  1  0.30311628  0.00311232  0.25082469  1
  S  S31  1  0.69676452  0.70074627  0.25063409  1
  S  S32  1  0.29925373  0.30323548  0.75063409  1
  S  S33  1  0.99688768  0.69688372  0.75082469  1
  S  S34  1  0.96594824  0.33495745  0.58296755  1
  S  S35  1  0.66416617  0.62864353  0.58395357  1
  S  S36  1  0.66504255  0.03405176  0.08296755  1
  S  S37  1  0.37135647  0.33583383  0.08395357  1
  S  S38  1  0.62665098  0.66467484  0.91824098  1
  S  S39  1  0.04412251  0.37516843  0.91686861  1
  S  S40  1  0.62483157  0.95587749  0.41686861  1
  S  S41  1  0.33532516  0.37334902  0.41824098  1
  O  O42  1  0.22939653  0.02616220  0.30510127  1
  O  O43  1  0.80963747  0.77498360  0.30151379  1
  O  O44  1  0.97725405  0.17899135  0.30469879  1
  O  O45  1  0.22501640  0.19036253  0.80151379  1
  O  O46  1  0.97383780  0.77060347  0.80510127  1
  O  O47  1  0.82100865  0.02274595  0.80469879  1
  O  O48  1  0.79211208  0.98106854  0.68678333  1
  O  O49  1  0.19870015  0.22580075  0.69759536  1
  O  O50  1  0.03418793  0.81315023  0.70084125  1
  O  O51  1  0.77419925  0.80129985  0.19759536  1
  O  O52  1  0.01893146  0.20788792  0.18678333  1
  O  O53  1  0.18684977  0.96581207  0.20084125  1
  O  O54  1  0.89375766  0.36800601  0.63555147  1
  O  O55  1  0.48422976  0.12066170  0.64004026  1
  O  O56  1  0.64886379  0.53031723  0.63648397  1
  O  O57  1  0.87933830  0.51577024  0.14004026  1
  O  O58  1  0.63199399  0.10624234  0.13555147  1
  O  O59  1  0.46968277  0.35113621  0.13648397  1
  O  O60  1  0.44684177  0.30840619  0.03126469  1
  O  O61  1  0.85455692  0.54543576  0.02226156  1
  O  O62  1  0.68854856  0.13919112  0.03127175  1
  O  O63  1  0.45456424  0.14544308  0.52226156  1
  O  O64  1  0.69159381  0.55315823  0.53126469  1
  O  O65  1  0.86080888  0.31145144  0.53127175  1
  O  O66  1  0.54090521  0.67939952  0.97054725  1
  O  O67  1  0.14096413  0.44722560  0.97136546  1
  O  O68  1  0.28598100  0.84360817  0.96789985  1
  O  O69  1  0.55277440  0.85903587  0.47136546  1
  O  O70  1  0.32060048  0.45909479  0.47054725  1
  O  O71  1  0.15639183  0.71401900  0.46789985  1
  O  O72  1  0.10508120  0.64216308  0.35268876  1
  O  O73  1  0.51800129  0.86721505  0.36603168  1
  O  O74  1  0.36280467  0.47432522  0.36533347  1
  O  O75  1  0.13278495  0.48199871  0.86603168  1
  O  O76  1  0.35783692  0.89491880  0.85268876  1
  O  O77  1  0.52567478  0.63719533  0.86533347  1
  O  O78  1  0.02216115  0.84917268  0.40962683  1
  O  O79  1  0.79874487  0.98253630  0.41279285  1
  O  O80  1  0.17952090  0.20237329  0.41479480  1
  O  O81  1  0.01746370  0.20125513  0.91279285  1
  O  O82  1  0.15082732  0.97783885  0.90962683  1
  O  O83  1  0.79762671  0.82047910  0.91479480  1
  O  O84  1  0.96965382  0.17311078  0.58728981  1
  O  O85  1  0.17675236  0.01537461  0.58757824  1
  O  O86  1  0.81256306  0.80538370  0.58700133  1
  O  O87  1  0.98462539  0.82324764  0.08757824  1
  O  O88  1  0.82688922  0.03034618  0.08728981  1
  O  O89  1  0.19461630  0.18743694  0.08700133  1
  O  O90  1  0.67885248  0.16757931  0.74790332  1
  O  O91  1  0.47273128  0.32382537  0.74500263  1
  O  O92  1  0.84031282  0.53160253  0.74233936  1
  O  O93  1  0.67617463  0.52726872  0.24500263  1
  O  O94  1  0.83242069  0.32114752  0.24790332  1
  O  O95  1  0.46839747  0.15968718  0.24233936  1
  O  O96  1  0.65542161  0.51683411  0.92083413  1
  O  O97  1  0.87644569  0.36953406  0.91961207  1
  O  O98  1  0.50394070  0.15986253  0.92156652  1
  O  O99  1  0.63046594  0.12355431  0.41961207  1
  O  O100  1  0.48316589  0.34457839  0.42083413  1
  O  O101  1  0.84013747  0.49605930  0.42156652  1
  O  O102  1  0.35703375  0.49258326  0.07913865  1
  O  O103  1  0.14678782  0.63438299  0.08024930  1
  O  O104  1  0.52004160  0.85884598  0.07772443  1
  O  O105  1  0.36561701  0.85321218  0.58024930  1
  O  O106  1  0.50741674  0.64296625  0.57913865  1
  O  O107  1  0.14115402  0.47995840  0.57772443  1
  O  O108  1  0.32571819  0.85149072  0.25460473  1
  O  O109  1  0.53057061  0.69052298  0.25831113  1
  O  O110  1  0.16808881  0.48599007  0.24893912  1
  O  O111  1  0.30947702  0.46942939  0.75831113  1
  O  O112  1  0.14850928  0.67428181  0.75460473  1
  O  O113  1  0.51400993  0.83191119  0.74893912  1
