# generated using pymatgen
data_Na6Hf4Si7Sn4S5O48
_symmetry_space_group_name_H-M   'P 1'
_cell_length_a   17.92987757
_cell_length_b   8.92577776
_cell_length_c   23.09940966
_cell_angle_alpha   89.86928577
_cell_angle_beta   89.76235743
_cell_angle_gamma   119.86821271
_symmetry_Int_Tables_number   1
_chemical_formula_structural   Na6Hf4Si7Sn4S5O48
_chemical_formula_sum   'Na18 Hf12 Si21 Sn12 S15 O144'
_cell_volume   3205.68552596
_cell_formula_units_Z   3
loop_
 _symmetry_equiv_pos_site_id
 _symmetry_equiv_pos_as_xyz
  1  'x, y, z'
loop_
 _atom_site_type_symbol
 _atom_site_label
 _atom_site_symmetry_multiplicity
 _atom_site_fract_x
 _atom_site_fract_y
 _atom_site_fract_z
 _atom_site_occupancy
  Na  Na0  1  0.00063173  0.63407623  0.25232095  1
  Na  Na1  1  0.49846701  0.64661882  0.24508544  1
  Na  Na2  1  0.99969577  0.35044089  0.75345313  1
  Na  Na3  1  0.50023757  0.36822497  0.75526169  1
  Na  Na4  1  0.66622618  0.31187923  0.91698672  1
  Na  Na5  1  0.16739178  0.02435639  0.41323295  1
  Na  Na6  1  0.99941225  0.98489540  0.50273111  1
  Na  Na7  1  0.49327572  0.98790520  0.49356028  1
  Na  Na8  1  0.99350062  0.99835295  0.99575351  1
  Na  Na9  1  0.49825226  0.00394536  0.00697930  1
  Na  Na10  1  0.33383282  0.33503875  0.83115891  1
  Na  Na11  1  0.83074935  0.33316814  0.83525324  1
  Na  Na12  1  0.33189739  0.33203299  0.32973875  1
  Na  Na13  1  0.83257406  0.32921595  0.32624570  1
  Na  Na14  1  0.17737286  0.67923258  0.17272812  1
  Na  Na15  1  0.66834523  0.66539732  0.16333279  1
  Na  Na16  1  0.17627931  0.68240843  0.66877811  1
  Na  Na17  1  0.67426457  0.67312275  0.67458902  1
  Hf  Hf18  1  0.49529133  0.97577520  0.35230916  1
  Hf  Hf19  1  0.99535697  0.01572303  0.85470242  1
  Hf  Hf20  1  0.00013841  0.00017928  0.64613993  1
  Hf  Hf21  1  0.49712417  0.99500443  0.65388711  1
  Hf  Hf22  1  0.99782573  0.00127733  0.15328833  1
  Hf  Hf23  1  0.49843365  0.98806714  0.14200335  1
  Hf  Hf24  1  0.34358859  0.33495478  0.98175091  1
  Hf  Hf25  1  0.83892588  0.35311783  0.47902813  1
  Hf  Hf26  1  0.16810096  0.66937166  0.02115846  1
  Hf  Hf27  1  0.66268065  0.64260494  0.02075465  1
  Hf  Hf28  1  0.16917150  0.68936160  0.51775417  1
  Hf  Hf29  1  0.66730248  0.66665721  0.52060304  1
  Si  Si30  1  0.15015324  0.00860589  0.24967515  1
  Si  Si31  1  0.64390997  0.00194289  0.25092304  1
  Si  Si32  1  0.35165203  0.70315251  0.24796408  1
  Si  Si33  1  0.85002121  0.70502312  0.25106793  1
  Si  Si34  1  0.00029772  0.29288239  0.25150268  1
  Si  Si35  1  0.14389102  0.28820086  0.75066954  1
  Si  Si36  1  0.64726279  0.29164861  0.75086694  1
  Si  Si37  1  0.50063080  0.70832697  0.75159153  1
  Si  Si38  1  0.34996322  0.99366418  0.75136225  1
  Si  Si39  1  0.85239766  0.99928549  0.74754632  1
  Si  Si40  1  0.19050175  0.05076223  0.58333335  1
  Si  Si41  1  0.83345481  0.62749553  0.58478977  1
  Si  Si42  1  0.48032496  0.62246592  0.08466189  1
  Si  Si43  1  0.33243550  0.04086297  0.08526561  1
  Si  Si44  1  0.69133666  0.33059254  0.08357816  1
  Si  Si45  1  0.81302834  0.67068907  0.91694112  1
  Si  Si46  1  0.02130185  0.38194895  0.91830226  1
  Si  Si47  1  0.51901102  0.36834079  0.91287869  1
  Si  Si48  1  0.31523353  0.96010753  0.41525375  1
  Si  Si49  1  0.02088860  0.67126552  0.41323678  1
  Si  Si50  1  0.52162398  0.66376714  0.41807297  1
  Sn  Sn51  1  0.00031846  0.99407227  0.34511857  1
  Sn  Sn52  1  0.49926286  0.00337010  0.84757604  1
  Sn  Sn53  1  0.32625522  0.32550972  0.69136924  1
  Sn  Sn54  1  0.82495031  0.32956855  0.68737518  1
  Sn  Sn55  1  0.33189998  0.32920391  0.18459955  1
  Sn  Sn56  1  0.82596591  0.32492806  0.19086302  1
  Sn  Sn57  1  0.83446044  0.34029596  0.97954365  1
  Sn  Sn58  1  0.33470146  0.32920895  0.47898664  1
  Sn  Sn59  1  0.16839293  0.67670174  0.31050717  1
  Sn  Sn60  1  0.66525840  0.67261968  0.31254154  1
  Sn  Sn61  1  0.16726428  0.65975033  0.81473120  1
  Sn  Sn62  1  0.66825163  0.66151197  0.81206831  1
  S  S63  1  0.50058417  0.28832761  0.25117462  1
  S  S64  1  0.00059076  0.71035506  0.75024737  1
  S  S65  1  0.47993978  0.33218796  0.58351337  1
  S  S66  1  0.97803637  0.33424467  0.58328635  1
  S  S67  1  0.68684563  0.04169315  0.58152495  1
  S  S68  1  0.33390066  0.62391457  0.58236700  1
  S  S69  1  0.97998697  0.62746606  0.08362545  1
  S  S70  1  0.83504695  0.04530180  0.08242625  1
  S  S71  1  0.18572374  0.33015214  0.08151873  1
  S  S72  1  0.31287021  0.66665829  0.91735113  1
  S  S73  1  0.16666781  0.95659200  0.91607711  1
  S  S74  1  0.66550789  0.95517366  0.91683520  1
  S  S75  1  0.81307019  0.95863400  0.41785777  1
  S  S76  1  0.16516852  0.37625368  0.41767764  1
  S  S77  1  0.66689303  0.37719680  0.41696868  1
  O  O78  1  0.11250680  0.04085841  0.31129705  1
  O  O79  1  0.60173523  0.03235916  0.30907869  1
  O  O80  1  0.41334905  0.78652898  0.30568017  1
  O  O81  1  0.91059612  0.78024514  0.30875453  1
  O  O82  1  0.49026408  0.18619421  0.30404481  1
  O  O83  1  0.97897286  0.17264029  0.31018657  1
  O  O84  1  0.09949840  0.16846352  0.80721355  1
  O  O85  1  0.60937292  0.18106056  0.81065259  1
  O  O86  1  0.47927833  0.78684571  0.80913715  1
  O  O87  1  0.98745702  0.78840933  0.80224212  1
  O  O88  1  0.41119849  0.03852114  0.80776049  1
  O  O89  1  0.91505886  0.04378479  0.80418083  1
  O  O90  1  0.39390559  0.96119093  0.69375119  1
  O  O91  1  0.89889673  0.97117356  0.69154546  1
  O  O92  1  0.08287059  0.20307391  0.69411534  1
  O  O93  1  0.58444608  0.19662034  0.69495548  1
  O  O94  1  0.01238026  0.81386950  0.69728842  1
  O  O95  1  0.51507106  0.82730375  0.69390475  1
  O  O96  1  0.39820858  0.82738207  0.19327611  1
  O  O97  1  0.89513813  0.82760193  0.19437442  1
  O  O98  1  0.01494985  0.20241181  0.19471808  1
  O  O99  1  0.51273307  0.21271291  0.19873259  1
  O  O100  1  0.08376099  0.97289579  0.19577867  1
  O  O101  1  0.58321038  0.96524776  0.19540095  1
  O  O102  1  0.44398965  0.36418450  0.63640637  1
  O  O103  1  0.94036245  0.36199452  0.63673986  1
  O  O104  1  0.25433596  0.13756415  0.63805186  1
  O  O105  1  0.73870636  0.11241877  0.63491535  1
  O  O106  1  0.32228749  0.52061271  0.63517919  1
  O  O107  1  0.81638147  0.50186424  0.64063505  1
  O  O108  1  0.43962299  0.50867711  0.14436415  1
  O  O109  1  0.94429400  0.52404196  0.13667715  1
  O  O110  1  0.30958348  0.12021591  0.14151720  1
  O  O111  1  0.82401213  0.12613845  0.13525648  1
  O  O112  1  0.23632626  0.36168750  0.13478817  1
  O  O113  1  0.75596509  0.37217869  0.13815211  1
  O  O114  1  0.22759688  0.30886251  0.02947069  1
  O  O115  1  0.73054835  0.29505080  0.02310348  1
  O  O116  1  0.41793438  0.52774523  0.02887365  1
  O  O117  1  0.92721350  0.54734047  0.03139567  1
  O  O118  1  0.34203595  0.15509565  0.02714706  1
  O  O119  1  0.85148957  0.15511230  0.02976244  1
  O  O120  1  0.23054045  0.16347534  0.52307691  1
  O  O121  1  0.73097818  0.14826034  0.53023970  1
  O  O122  1  0.34944897  0.54704790  0.52975827  1
  O  O123  1  0.84461442  0.52879684  0.52806242  1
  O  O124  1  0.42694384  0.30700641  0.53137600  1
  O  O125  1  0.92257382  0.31020846  0.53231570  1
  O  O126  1  0.27002884  0.69234285  0.96842496  1
  O  O127  1  0.76891150  0.70239970  0.97330642  1
  O  O128  1  0.08326894  0.48060867  0.97226586  1
  O  O129  1  0.58131806  0.45839427  0.96885457  1
  O  O130  1  0.15677709  0.84819765  0.96765695  1
  O  O131  1  0.65510797  0.85222926  0.96905929  1
  O  O132  1  0.27012621  0.84076156  0.47331836  1
  O  O133  1  0.77019163  0.84720089  0.46948392  1
  O  O134  1  0.15473231  0.45880155  0.47052591  1
  O  O135  1  0.65831366  0.46625537  0.46891445  1
  O  O136  1  0.08148674  0.70046514  0.47034903  1
  O  O137  1  0.58301652  0.68669428  0.47307379  1
  O  O138  1  0.06068572  0.63538235  0.35569690  1
  O  O139  1  0.56184399  0.62447933  0.35943498  1
  O  O140  1  0.24893081  0.87353156  0.36158865  1
  O  O141  1  0.76153757  0.88298203  0.36513972  1
  O  O142  1  0.17841653  0.47788603  0.36513452  1
  O  O143  1  0.68547619  0.48657561  0.36466340  1
  O  O144  1  0.06008478  0.49579859  0.85757761  1
  O  O145  1  0.55954385  0.48303018  0.85416680  1
  O  O146  1  0.18341024  0.88058674  0.86334993  1
  O  O147  1  0.67913620  0.88103065  0.86341683  1
  O  O148  1  0.26184018  0.64243885  0.86374274  1
  O  O149  1  0.75061253  0.62554175  0.86017842  1
  O  O150  1  0.01500557  0.85161213  0.41128769  1
  O  O151  1  0.51562315  0.83943735  0.41345630  1
  O  O152  1  0.41188368  0.99193952  0.41044339  1
  O  O153  1  0.89958336  0.97664232  0.41378729  1
  O  O154  1  0.08780197  0.19900996  0.41441081  1
  O  O155  1  0.58908184  0.20908171  0.41279951  1
  O  O156  1  0.01524296  0.19345891  0.91302631  1
  O  O157  1  0.51482938  0.17711948  0.91084474  1
  O  O158  1  0.08703320  0.96483696  0.91082356  1
  O  O159  1  0.58820012  0.97744176  0.91262742  1
  O  O160  1  0.39901589  0.82168416  0.91290042  1
  O  O161  1  0.91084025  0.83105821  0.90915427  1
  O  O162  1  0.48991129  0.17721015  0.58801591  1
  O  O163  1  0.98452801  0.17565312  0.58719579  1
  O  O164  1  0.09516170  0.02825943  0.59019478  1
  O  O165  1  0.60082185  0.02540649  0.58679190  1
  O  O166  1  0.41085539  0.79982233  0.58723285  1
  O  O167  1  0.91870688  0.81566964  0.58889478  1
  O  O168  1  0.48653104  0.80961184  0.08662305  1
  O  O169  1  0.98989087  0.80251110  0.08812306  1
  O  O170  1  0.41810867  0.02696814  0.08946586  1
  O  O171  1  0.91316201  0.02618113  0.08758190  1
  O  O172  1  0.09865264  0.17525218  0.08692898  1
  O  O173  1  0.59622079  0.16693549  0.09051406  1
  O  O174  1  0.35023994  0.17589225  0.74417848  1
  O  O175  1  0.85440640  0.18795431  0.73940923  1
  O  O176  1  0.24094658  0.31993288  0.74722906  1
  O  O177  1  0.74245300  0.31015760  0.74729023  1
  O  O178  1  0.41796627  0.51364670  0.74040991  1
  O  O179  1  0.92533113  0.53183704  0.74392334  1
  O  O180  1  0.35048434  0.51691811  0.24337115  1
  O  O181  1  0.85053854  0.52379119  0.24433505  1
  O  O182  1  0.42455167  0.31435374  0.24821815  1
  O  O183  1  0.91786702  0.32237174  0.24087457  1
  O  O184  1  0.24435626  0.17841865  0.24464750  1
  O  O185  1  0.74181706  0.16376869  0.24871869  1
  O  O186  1  0.31754248  0.50712209  0.92384827  1
  O  O187  1  0.81592665  0.48719056  0.92135046  1
  O  O188  1  0.42352819  0.34874954  0.91956406  1
  O  O189  1  0.92373349  0.35253002  0.92478247  1
  O  O190  1  0.24180538  0.13126097  0.92298531  1
  O  O191  1  0.74321444  0.13374498  0.92089420  1
  O  O192  1  0.31562536  0.14551762  0.42143884  1
  O  O193  1  0.81960588  0.12940244  0.42669066  1
  O  O194  1  0.24286451  0.35370047  0.42264236  1
  O  O195  1  0.74340304  0.35357322  0.42523365  1
  O  O196  1  0.42428287  0.49646225  0.42549181  1
  O  O197  1  0.92568591  0.49838111  0.42270323  1
  O  O198  1  0.17609902  0.48701206  0.07463150  1
  O  O199  1  0.68477614  0.50723537  0.07836972  1
  O  O200  1  0.06704720  0.64642029  0.07528931  1
  O  O201  1  0.57622781  0.64761288  0.07629349  1
  O  O202  1  0.24666056  0.84860265  0.07519512  1
  O  O203  1  0.75717142  0.87537912  0.07634299  1
  O  O204  1  0.17963375  0.85525473  0.57803853  1
  O  O205  1  0.67755513  0.86665121  0.57524422  1
  O  O206  1  0.25449031  0.63615514  0.57624734  1
  O  O207  1  0.74710050  0.64295799  0.57549025  1
  O  O208  1  0.06489815  0.48609681  0.57533929  1
  O  O209  1  0.56707571  0.48744573  0.57518781  1
  O  O210  1  0.14961530  0.82535046  0.25176160  1
  O  O211  1  0.64671105  0.81811215  0.25548557  1
  O  O212  1  0.25659982  0.67885906  0.25629623  1
  O  O213  1  0.75377806  0.68004805  0.25863905  1
  O  O214  1  0.08374861  0.48454503  0.25681392  1
  O  O215  1  0.57872704  0.46710461  0.25599039  1
  O  O216  1  0.14646496  0.47713609  0.75524954  1
  O  O217  1  0.64994442  0.47644868  0.75149831  1
  O  O218  1  0.07838209  0.69044806  0.75425507  1
  O  O219  1  0.58456394  0.68467160  0.75641469  1
  O  O220  1  0.25305578  0.82656554  0.75792606  1
  O  O221  1  0.75721305  0.83681726  0.75553481  1
