# generated using pymatgen
data_Cs6Cl4O
_symmetry_space_group_name_H-M   'P 1'
_cell_length_a   9.51622142
_cell_length_b   9.51622142
_cell_length_c   9.51622116
_cell_angle_alpha   88.98237086
_cell_angle_beta   88.98237086
_cell_angle_gamma   88.98236961
_symmetry_Int_Tables_number   1
_chemical_formula_structural   Cs6Cl4O
_chemical_formula_sum   'Cs12 Cl8 O2'
_cell_volume   861.37143251
_cell_formula_units_Z   2
loop_
 _symmetry_equiv_pos_site_id
 _symmetry_equiv_pos_as_xyz
  1  'x, y, z'
loop_
 _atom_site_type_symbol
 _atom_site_label
 _atom_site_symmetry_multiplicity
 _atom_site_fract_x
 _atom_site_fract_y
 _atom_site_fract_z
 _atom_site_occupancy
  Cs  Cs0  1  0.05638339  0.93364721  0.71179216  1
  Cs  Cs1  1  0.93364721  0.71179216  0.05638339  1
  Cs  Cs2  1  0.71179216  0.05638339  0.93364721  1
  Cs  Cs3  1  0.56635279  0.44361661  0.78820784  1
  Cs  Cs4  1  0.78820784  0.56635279  0.44361661  1
  Cs  Cs5  1  0.44361661  0.78820784  0.56635279  1
  Cs  Cs6  1  0.06635279  0.28820784  0.94361661  1
  Cs  Cs7  1  0.94361661  0.06635279  0.28820784  1
  Cs  Cs8  1  0.28820784  0.94361661  0.06635279  1
  Cs  Cs9  1  0.43364721  0.55638339  0.21179216  1
  Cs  Cs10  1  0.21179216  0.43364721  0.55638339  1
  Cs  Cs11  1  0.55638339  0.21179216  0.43364721  1
  Cl  Cl12  1  0.75000000  0.75000000  0.75000000  1
  Cl  Cl13  1  0.25000000  0.25000000  0.25000000  1
  Cl  Cl14  1  0.75000000  0.36706040  0.13293960  1
  Cl  Cl15  1  0.13293960  0.75000000  0.36706040  1
  Cl  Cl16  1  0.36706040  0.13293960  0.75000000  1
  Cl  Cl17  1  0.25000000  0.63293960  0.86706040  1
  Cl  Cl18  1  0.86706040  0.25000000  0.63293960  1
  Cl  Cl19  1  0.63293960  0.86706040  0.25000000  1
  O  O20  1  0.50000000  0.50000000  0.50000000  1
  O  O21  1  0.00000000  0.00000000  -0.00000000  1
