# generated using pymatgen
data_Na30Nb8Zn16Si15(S7O48)3
_symmetry_space_group_name_H-M   'P 1'
_cell_length_a   18.10966302
_cell_length_b   9.07582413
_cell_length_c   22.34834033
_cell_angle_alpha   89.93593450
_cell_angle_beta   89.54477954
_cell_angle_gamma   119.98582450
_symmetry_Int_Tables_number   1
_chemical_formula_structural   Na30Nb8Zn16Si15(S7O48)3
_chemical_formula_sum   'Na30 Nb8 Zn16 Si15 S21 O144'
_cell_volume   3181.36253669
_cell_formula_units_Z   1
loop_
 _symmetry_equiv_pos_site_id
 _symmetry_equiv_pos_as_xyz
  1  'x, y, z'
loop_
 _atom_site_type_symbol
 _atom_site_label
 _atom_site_symmetry_multiplicity
 _atom_site_fract_x
 _atom_site_fract_y
 _atom_site_fract_z
 _atom_site_occupancy
  Na  Na0  1  0.32371466  0.02545774  0.24675131  1
  Na  Na1  1  0.82383829  0.02347232  0.24777235  1
  Na  Na2  1  0.18701685  0.34836242  0.24784317  1
  Na  Na3  1  0.68528983  0.34806984  0.24750638  1
  Na  Na4  1  0.98798537  0.62476349  0.24852419  1
  Na  Na5  1  0.48686911  0.61671811  0.24224335  1
  Na  Na6  1  0.32284419  0.62234935  0.74831234  1
  Na  Na7  1  0.82560902  0.62486071  0.74893743  1
  Na  Na8  1  0.98713087  0.35514141  0.74391394  1
  Na  Na9  1  0.48653506  0.35485192  0.74335025  1
  Na  Na10  1  0.18473584  0.02449912  0.74816410  1
  Na  Na11  1  0.68652827  0.02454950  0.74811752  1
  Na  Na12  1  0.01402544  0.68093760  0.58786325  1
  Na  Na13  1  0.51423861  0.68100838  0.58714507  1
  Na  Na14  1  0.51429153  0.34622360  0.08468737  1
  Na  Na15  1  0.47801370  0.66656637  0.91735815  1
  Na  Na16  1  0.47797054  0.28894705  0.41881310  1
  Na  Na17  1  0.97768270  0.28851404  0.42016490  1
  Na  Na18  1  0.99847506  0.00257884  0.49713090  1
  Na  Na19  1  0.49917381  0.00282420  0.49642245  1
  Na  Na20  1  0.00031248  0.00054272  0.98958628  1
  Na  Na21  1  0.49806702  0.99457982  0.99358269  1
  Na  Na22  1  0.32656256  0.31923014  0.82961842  1
  Na  Na23  1  0.83515305  0.33651123  0.83039187  1
  Na  Na24  1  0.32857903  0.33454029  0.32973079  1
  Na  Na25  1  0.82631500  0.33273159  0.33152238  1
  Na  Na26  1  0.16683845  0.66581048  0.15294785  1
  Na  Na27  1  0.66705592  0.68040441  0.15294769  1
  Na  Na28  1  0.16657840  0.65361502  0.65509857  1
  Na  Na29  1  0.66713138  0.65437594  0.65437025  1
  Nb  Nb30  1  0.99987179  0.01437401  0.65058080  1
  Nb  Nb31  1  0.49926977  0.01346863  0.65077845  1
  Nb  Nb32  1  0.00032184  0.00035732  0.15048707  1
  Nb  Nb33  1  0.49966883  0.98523539  0.14949068  1
  Nb  Nb34  1  0.16757278  0.66835191  0.31082474  1
  Nb  Nb35  1  0.66689216  0.66565017  0.31070809  1
  Nb  Nb36  1  0.16428524  0.66771689  0.81187336  1
  Nb  Nb37  1  0.66781891  0.66573531  0.81152298  1
  Zn  Zn38  1  0.99994034  0.99694906  0.33944699  1
  Zn  Zn39  1  0.50105148  0.99667790  0.33936155  1
  Zn  Zn40  1  0.00166066  0.00332437  0.84119861  1
  Zn  Zn41  1  0.50148577  0.00570963  0.83866251  1
  Zn  Zn42  1  0.33935749  0.33505091  0.68499455  1
  Zn  Zn43  1  0.83985136  0.33456050  0.68485153  1
  Zn  Zn44  1  0.33945288  0.34394570  0.18411884  1
  Zn  Zn45  1  0.83450503  0.33373362  0.18464506  1
  Zn  Zn46  1  0.33255704  0.34331332  0.99167836  1
  Zn  Zn47  1  0.83637920  0.33872512  0.98327227  1
  Zn  Zn48  1  0.33492823  0.32445646  0.49591871  1
  Zn  Zn49  1  0.83456351  0.32375288  0.49623882  1
  Zn  Zn50  1  0.16519798  0.66506935  0.01349432  1
  Zn  Zn51  1  0.66616398  0.67692679  0.01809344  1
  Zn  Zn52  1  0.16508758  0.65487899  0.51873220  1
  Zn  Zn53  1  0.66530557  0.65522987  0.51841062  1
  Si  Si54  1  0.14795147  0.00611331  0.25177906  1
  Si  Si55  1  0.64809546  0.00463258  0.25387216  1
  Si  Si56  1  0.35436925  0.70480232  0.25425645  1
  Si  Si57  1  0.85465501  0.70499168  0.25238345  1
  Si  Si58  1  0.99880906  0.29096338  0.25513654  1
  Si  Si59  1  0.49866988  0.28654919  0.25365152  1
  Si  Si60  1  0.14880776  0.29323289  0.75410335  1
  Si  Si61  1  0.64953327  0.29223612  0.75326948  1
  Si  Si62  1  0.99812847  0.71109515  0.75139945  1
  Si  Si63  1  0.49929801  0.71008187  0.75406329  1
  Si  Si64  1  0.35283039  0.00238392  0.75469912  1
  Si  Si65  1  0.85482592  0.00427993  0.75522515  1
  Si  Si66  1  0.48324441  0.33613820  0.58066072  1
  Si  Si67  1  0.98341054  0.33565408  0.58050874  1
  Si  Si68  1  0.48261309  0.62770545  0.08035599  1
  S  S69  1  0.18253687  0.03572420  0.58313679  1
  S  S70  1  0.68229677  0.03518668  0.58348190  1
  S  S71  1  0.33515676  0.63326094  0.58333148  1
  S  S72  1  0.83500357  0.63330178  0.58314694  1
  S  S73  1  0.98233607  0.63284352  0.08343551  1
  S  S74  1  0.33212355  0.03216426  0.08332239  1
  S  S75  1  0.83705973  0.04187499  0.08342138  1
  S  S76  1  0.18159104  0.33250754  0.08362375  1
  S  S77  1  0.68589601  0.33072342  0.08329684  1
  S  S78  1  0.31108986  0.66416345  0.91801139  1
  S  S79  1  0.81076288  0.66405855  0.92062495  1
  S  S80  1  0.01879265  0.37385818  0.91992600  1
  S  S81  1  0.51958692  0.36864090  0.91873447  1
  S  S82  1  0.16819231  0.96187542  0.91980505  1
  S  S83  1  0.66910886  0.96345304  0.91786281  1
  S  S84  1  0.30966595  0.95456897  0.41901609  1
  S  S85  1  0.80989273  0.95459548  0.41859774  1
  S  S86  1  0.16882471  0.37485567  0.41769519  1
  S  S87  1  0.66903906  0.37445903  0.41804018  1
  S  S88  1  0.01946452  0.67038539  0.41787817  1
  S  S89  1  0.51989508  0.67050377  0.41813289  1
  O  O90  1  0.11143764  0.05573758  0.30822943  1
  O  O91  1  0.61289556  0.05507956  0.31064728  1
  O  O92  1  0.41446706  0.78098531  0.31025934  1
  O  O93  1  0.91543244  0.77934831  0.30841112  1
  O  O94  1  0.48260170  0.18191991  0.31480302  1
  O  O95  1  0.97809668  0.18175778  0.31549574  1
  O  O96  1  0.11301658  0.17201026  0.81100256  1
  O  O97  1  0.61338608  0.17113717  0.81019291  1
  O  O98  1  0.48288777  0.78307188  0.81498222  1
  O  O99  1  0.97810412  0.78941756  0.80851742  1
  O  O100  1  0.41484424  0.04912451  0.81008450  1
  O  O101  1  0.91643255  0.05175738  0.81072294  1
  O  O102  1  0.39906660  0.96076197  0.69568100  1
  O  O103  1  0.90016333  0.96183853  0.69581856  1
  O  O104  1  0.07955361  0.20220441  0.69669167  1
  O  O105  1  0.57947981  0.20191929  0.69648781  1
  O  O106  1  0.02031534  0.83501812  0.69028951  1
  O  O107  1  0.51973721  0.83831098  0.69463214  1
  O  O108  1  0.40029846  0.83778606  0.19530842  1
  O  O109  1  0.90035455  0.84072516  0.19398338  1
  O  O110  1  0.01901882  0.19266029  0.19838976  1
  O  O111  1  0.51951281  0.20055898  0.19415758  1
  O  O112  1  0.07889669  0.95899887  0.19430011  1
  O  O113  1  0.57979393  0.95784055  0.19641103  1
  O  O114  1  0.43959926  0.36574978  0.63965392  1
  O  O115  1  0.93966510  0.36462985  0.63941401  1
  O  O116  1  0.22837472  0.11499264  0.63876725  1
  O  O117  1  0.72828483  0.11485083  0.63897927  1
  O  O118  1  0.32333468  0.53869984  0.63938909  1
  O  O119  1  0.82333256  0.53887973  0.63923415  1
  O  O120  1  0.44088461  0.51458858  0.14059112  1
  O  O121  1  0.94425022  0.53903074  0.13994205  1
  O  O122  1  0.32078576  0.10209274  0.13999202  1
  O  O123  1  0.82744586  0.11616949  0.13990305  1
  O  O124  1  0.22805986  0.34928306  0.13946509  1
  O  O125  1  0.73087973  0.34303158  0.13963216  1
  O  O126  1  0.22103581  0.30524965  0.03014195  1
  O  O127  1  0.72826090  0.30836907  0.03032111  1
  O  O128  1  0.42865557  0.55414814  0.01897794  1
  O  O129  1  0.92958837  0.55016245  0.03081677  1
  O  O130  1  0.34461885  0.14282633  0.03119631  1
  O  O131  1  0.84785162  0.14748275  0.03050791  1
  O  O132  1  0.22227966  0.14142081  0.52907361  1
  O  O133  1  0.72142695  0.14091086  0.52933205  1
  O  O134  1  0.34673846  0.54818585  0.53039178  1
  O  O135  1  0.84630043  0.54739193  0.53024695  1
  O  O136  1  0.43064670  0.30101135  0.51823113  1
  O  O137  1  0.93069048  0.30137327  0.51813596  1
  O  O138  1  0.26633825  0.67352799  0.97152897  1
  O  O139  1  0.76340897  0.67417264  0.97251998  1
  O  O140  1  0.06974770  0.46267212  0.97268866  1
  O  O141  1  0.56763598  0.45353124  0.97307826  1
  O  O142  1  0.16125393  0.85724995  0.97241163  1
  O  O143  1  0.66024461  0.85662794  0.96979081  1
  O  O144  1  0.26247058  0.85282660  0.47105335  1
  O  O145  1  0.76299334  0.85378277  0.47080452  1
  O  O146  1  0.15962875  0.46497073  0.46920594  1
  O  O147  1  0.66020580  0.46550282  0.46934711  1
  O  O148  1  0.06786883  0.68095362  0.47205903  1
  O  O149  1  0.56801804  0.68118406  0.47248828  1
  O  O150  1  0.07106640  0.65709897  0.36340309  1
  O  O151  1  0.57190311  0.65729502  0.36402455  1
  O  O152  1  0.25962136  0.85761314  0.36219568  1
  O  O153  1  0.76065870  0.85860414  0.36180923  1
  O  O154  1  0.17473285  0.48103276  0.36072908  1
  O  O155  1  0.67514376  0.47988217  0.36089389  1
  O  O156  1  0.06717314  0.48400371  0.86401394  1
  O  O157  1  0.57071755  0.48501566  0.86462728  1
  O  O158  1  0.17402534  0.86494663  0.86331347  1
  O  O159  1  0.67575747  0.87106408  0.86143050  1
  O  O160  1  0.26048788  0.65936953  0.86248902  1
  O  O161  1  0.75823395  0.65284506  0.86373889  1
  O  O162  1  0.01212116  0.82280359  0.41251589  1
  O  O163  1  0.51226747  0.82242560  0.41280306  1
  O  O164  1  0.39575466  0.97506973  0.41678264  1
  O  O165  1  0.89631613  0.97518682  0.41661728  1
  O  O166  1  0.08916973  0.20903226  0.41422290  1
  O  O167  1  0.58954796  0.20879643  0.41503773  1
  O  O168  1  0.01166264  0.20721365  0.91510625  1
  O  O169  1  0.51174577  0.20138181  0.91348027  1
  O  O170  1  0.09138392  0.97498765  0.91554251  1
  O  O171  1  0.59007408  0.97201169  0.91468034  1
  O  O172  1  0.39738428  0.81517614  0.91581795  1
  O  O173  1  0.89477920  0.81669828  0.91631824  1
  O  O174  1  0.49193746  0.15859204  0.59051814  1
  O  O175  1  0.99235046  0.15829932  0.58964151  1
  O  O176  1  0.09273617  0.01151417  0.58573419  1
  O  O177  1  0.59207806  0.00971834  0.58661897  1
  O  O178  1  0.41921673  0.80318953  0.58655649  1
  O  O179  1  0.91874962  0.80329593  0.58597340  1
  O  O180  1  0.49201086  0.82374710  0.09042008  1
  O  O181  1  0.98963292  0.80853411  0.08777901  1
  O  O182  1  0.41616149  0.02851428  0.08673357  1
  O  O183  1  0.91845558  0.02912156  0.08763644  1
  O  O184  1  0.09303416  0.17174521  0.08843155  1
  O  O185  1  0.59581116  0.17428448  0.08628331  1
  O  O186  1  0.33054198  0.14969774  0.74338234  1
  O  O187  1  0.83159477  0.15007584  0.74346130  1
  O  O188  1  0.24316092  0.33206329  0.73813220  1
  O  O189  1  0.74396635  0.33232034  0.73774597  1
  O  O190  1  0.42118560  0.51969360  0.74582558  1
  O  O191  1  0.92188658  0.51847499  0.74431415  1
  O  O192  1  0.33171638  0.51241388  0.24352537  1
  O  O193  1  0.83394050  0.51407389  0.23999807  1
  O  O194  1  0.42057087  0.32161757  0.24573562  1
  O  O195  1  0.92309732  0.32906692  0.24150788  1
  O  O196  1  0.24304511  0.15541139  0.23722760  1
  O  O197  1  0.74346027  0.15436999  0.24002716  1
  O  O198  1  0.31632592  0.50575246  0.91524703  1
  O  O199  1  0.81462140  0.50420842  0.91959155  1
  O  O200  1  0.43697454  0.36584552  0.91557375  1
  O  O201  1  0.93512973  0.36744768  0.91940386  1
  O  O202  1  0.24828862  0.12737160  0.91919187  1
  O  O203  1  0.74770361  0.13153444  0.91839036  1
  O  O204  1  0.31442627  0.12206578  0.41495058  1
  O  O205  1  0.81515305  0.12281748  0.41489027  1
  O  O206  1  0.24687557  0.36426605  0.41814566  1
  O  O207  1  0.74726169  0.36391538  0.41852095  1
  O  O208  1  0.43775946  0.50883982  0.41473793  1
  O  O209  1  0.93740023  0.50903752  0.41449275  1
  O  O210  1  0.16863374  0.48107161  0.07792055  1
  O  O211  1  0.67314649  0.47965504  0.07895536  1
  O  O212  1  0.07014697  0.65896908  0.07815713  1
  O  O213  1  0.57793521  0.64784565  0.07699695  1
  O  O214  1  0.25996859  0.85571978  0.07676286  1
  O  O215  1  0.76384232  0.86649348  0.07872220  1
  O  O216  1  0.17135089  0.86275815  0.57826957  1
  O  O217  1  0.67119561  0.86251207  0.57848263  1
  O  O218  1  0.26413262  0.66853689  0.57696276  1
  O  O219  1  0.76373893  0.66790348  0.57682167  1
  O  O220  1  0.07831976  0.50703584  0.57776754  1
  O  O221  1  0.57814952  0.50709018  0.57769892  1
  O  O222  1  0.14961707  0.82254353  0.25920136  1
  O  O223  1  0.65100643  0.82263423  0.25957685  1
  O  O224  1  0.26137288  0.70480567  0.25826234  1
  O  O225  1  0.76131883  0.70181488  0.25807504  1
  O  O226  1  0.09021104  0.47911036  0.25903216  1
  O  O227  1  0.58922915  0.47965941  0.25972851  1
  O  O228  1  0.15020711  0.47934602  0.76056361  1
  O  O229  1  0.65093147  0.47847322  0.75979584  1
  O  O230  1  0.08915712  0.70079578  0.75942114  1
  O  O231  1  0.59001871  0.69863732  0.76038938  1
  O  O232  1  0.26025385  0.81808017  0.75978378  1
  O  O233  1  0.76221703  0.81841475  0.75980984  1
