# generated using pymatgen
data_S(ClO)2
_symmetry_space_group_name_H-M   'P 1'
_cell_length_a   5.50989329
_cell_length_b   5.90444327
_cell_length_c   8.20834078
_cell_angle_alpha   80.99039316
_cell_angle_beta   70.38928063
_cell_angle_gamma   62.18690670
_symmetry_Int_Tables_number   1
_chemical_formula_structural   S(ClO)2
_chemical_formula_sum   'S2 Cl4 O4'
_cell_volume   222.49037260
_cell_formula_units_Z   2
loop_
 _symmetry_equiv_pos_site_id
 _symmetry_equiv_pos_as_xyz
  1  'x, y, z'
loop_
 _atom_site_type_symbol
 _atom_site_label
 _atom_site_symmetry_multiplicity
 _atom_site_fract_x
 _atom_site_fract_y
 _atom_site_fract_z
 _atom_site_occupancy
  S  S0  1  0.24927200  0.50000000  0.50000000  1
  S  S1  1  0.99927200  0.00000000  0.00000000  1
  Cl  Cl2  1  0.39624930  0.76229328  0.40542450  1
  Cl  Cl3  1  0.05167380  0.26229328  0.09457550  1
  Cl  Cl4  1  0.40854258  0.73770672  0.90542450  1
  Cl  Cl5  1  0.56396608  0.23770672  0.59457550  1
  O  O6  1  -0.00211663  0.61183768  0.64142620  1
  O  O7  1  0.88931057  0.11183768  0.85857380  1
  O  O8  1  0.25114825  0.38816232  0.35857380  1
  O  O9  1  0.85972205  0.88816232  0.14142620  1
