# generated using pymatgen
data_MgV3CrO10
_symmetry_space_group_name_H-M   'P 1'
_cell_length_a   6.62328626
_cell_length_b   6.65247091
_cell_length_c   4.90769961
_cell_angle_alpha   87.08037717
_cell_angle_beta   94.21372120
_cell_angle_gamma   89.82175833
_symmetry_Int_Tables_number   1
_chemical_formula_structural   MgV3CrO10
_chemical_formula_sum   'Mg1 V3 Cr1 O10'
_cell_volume   215.36968927
_cell_formula_units_Z   1
loop_
 _symmetry_equiv_pos_site_id
 _symmetry_equiv_pos_as_xyz
  1  'x, y, z'
loop_
 _atom_site_type_symbol
 _atom_site_label
 _atom_site_symmetry_multiplicity
 _atom_site_fract_x
 _atom_site_fract_y
 _atom_site_fract_z
 _atom_site_occupancy
  Mg  Mg0  1  0.98538800  0.49944500  0.99093000  1
  V  V1  1  0.22848100  0.26480100  0.58222900  1
  V  V2  1  0.73760800  0.72973900  0.39871400  1
  V  V3  1  0.73365900  0.24445600  0.49322600  1
  Cr  Cr4  1  0.23393400  0.75180500  0.48944600  1
  O  O5  1  0.01623300  0.73299000  0.26090700  1
  O  O6  1  0.18117400  0.31348200  0.24784500  1
  O  O7  1  0.21894800  0.54384200  0.72484300  1
  O  O8  1  0.23509000  0.97694300  0.64422700  1
  O  O9  1  0.44969700  0.72868200  0.31837900  1
  O  O10  1  0.51990600  0.26920400  0.66639100  1
  O  O11  1  0.73411900  0.02115800  0.33377400  1
  O  O12  1  0.74802500  0.45108700  0.25107200  1
  O  O13  1  0.78608800  0.68130300  0.73313200  1
  O  O14  1  0.95165400  0.26106300  0.72599500  1
