# generated using pymatgen
data_Th6CBr14
_symmetry_space_group_name_H-M   'P 1'
_cell_length_a   10.75742152
_cell_length_b   10.75742152
_cell_length_c   13.22438669
_cell_angle_alpha   90.00000000
_cell_angle_beta   90.00000000
_cell_angle_gamma   96.10835605
_symmetry_Int_Tables_number   1
_chemical_formula_structural   Th6CBr14
_chemical_formula_sum   'Th12 C2 Br28'
_cell_volume   1521.66535199
_cell_formula_units_Z   2
loop_
 _symmetry_equiv_pos_site_id
 _symmetry_equiv_pos_as_xyz
  1  'x, y, z'
loop_
 _atom_site_type_symbol
 _atom_site_label
 _atom_site_symmetry_multiplicity
 _atom_site_fract_x
 _atom_site_fract_y
 _atom_site_fract_z
 _atom_site_occupancy
  Th  Th0  1  0.64922407  0.64922407  0.39320709  1
  Th  Th1  1  0.85077593  0.85077593  0.89320709  1
  Th  Th2  1  0.14922407  0.14922407  0.10679291  1
  Th  Th3  1  0.35077593  0.35077593  0.60679291  1
  Th  Th4  1  0.45400956  0.68805023  0.61701783  1
  Th  Th5  1  0.04599044  0.81194977  0.11701783  1
  Th  Th6  1  0.18805023  0.95400956  0.88298217  1
  Th  Th7  1  0.31194977  0.54599044  0.38298217  1
  Th  Th8  1  0.54599044  0.31194977  0.38298217  1
  Th  Th9  1  0.95400956  0.18805023  0.88298217  1
  Th  Th10  1  0.81194977  0.04599044  0.11701783  1
  Th  Th11  1  0.68805023  0.45400956  0.61701783  1
  C  C12  1  0.50000000  0.50000000  0.50000000  1
  C  C13  1  -0.00000000  -0.00000000  -0.00000000  1
  Br  Br14  1  0.40527830  0.90527830  0.75000000  1
  Br  Br15  1  0.09472170  0.59472170  0.25000000  1
  Br  Br16  1  0.59472170  0.09472170  0.25000000  1
  Br  Br17  1  0.90527830  0.40527830  0.75000000  1
  Br  Br18  1  0.37924330  0.12512057  0.49056138  1
  Br  Br19  1  0.12075670  0.37487943  0.99056138  1
  Br  Br20  1  0.62512057  0.87924330  0.00943862  1
  Br  Br21  1  0.87487943  0.62075670  0.50943862  1
  Br  Br22  1  0.62075670  0.87487943  0.50943862  1
  Br  Br23  1  0.87924330  0.62512057  0.00943862  1
  Br  Br24  1  0.53734795  0.28402557  0.75121170  1
  Br  Br25  1  0.96265205  0.21597443  0.25121170  1
  Br  Br26  1  0.78402557  0.03734795  0.74878830  1
  Br  Br27  1  0.71597443  0.46265205  0.24878830  1
  Br  Br28  1  0.46265205  0.71597443  0.24878830  1
  Br  Br29  1  0.03734795  0.78402557  0.74878830  1
  Br  Br30  1  0.21597443  0.96265205  0.25121170  1
  Br  Br31  1  0.28402557  0.53734795  0.75121170  1
  Br  Br32  1  0.15804318  0.15804318  0.73345625  1
  Br  Br33  1  0.34195682  0.34195682  0.23345625  1
  Br  Br34  1  0.65804318  0.65804318  0.76654375  1
  Br  Br35  1  0.84195682  0.84195682  0.26654375  1
  Br  Br36  1  0.75635452  0.24364548  0.50000000  1
  Br  Br37  1  0.74364548  0.25635452  -0.00000000  1
  Br  Br38  1  0.24364548  0.75635452  0.50000000  1
  Br  Br39  1  0.25635452  0.74364548  -0.00000000  1
  Br  Br40  1  0.12512057  0.37924330  0.49056138  1
  Br  Br41  1  0.37487943  0.12075670  0.99056138  1
