# generated using pymatgen
data_Na2Zr2Ti2Si3(SO8)3
_symmetry_space_group_name_H-M   'P 1'
_cell_length_a   8.87890181
_cell_length_b   8.86444325
_cell_length_c   22.96257721
_cell_angle_alpha   90.07564375
_cell_angle_beta   90.20006306
_cell_angle_gamma   119.99008514
_symmetry_Int_Tables_number   1
_chemical_formula_structural   Na2Zr2Ti2Si3(SO8)3
_chemical_formula_sum   'Na6 Zr6 Ti6 Si9 S9 O72'
_cell_volume   1565.30867345
_cell_formula_units_Z   3
loop_
 _symmetry_equiv_pos_site_id
 _symmetry_equiv_pos_as_xyz
  1  'x, y, z'
loop_
 _atom_site_type_symbol
 _atom_site_label
 _atom_site_symmetry_multiplicity
 _atom_site_fract_x
 _atom_site_fract_y
 _atom_site_fract_z
 _atom_site_occupancy
  Na  Na0  1  0.97413269  0.96875740  0.49145342  1
  Na  Na1  1  0.00098430  0.98440920  0.99692916  1
  Na  Na2  1  0.65454146  0.31642408  0.83460040  1
  Na  Na3  1  0.67583133  0.32015133  0.33431371  1
  Na  Na4  1  0.31614331  0.66003458  0.17278637  1
  Na  Na5  1  0.35026951  0.65721073  0.66659038  1
  Zr  Zr6  1  0.98815321  0.99906786  0.64927732  1
  Zr  Zr7  1  0.00630950  0.99598582  0.14417321  1
  Zr  Zr8  1  0.65606820  0.33612391  0.69279132  1
  Zr  Zr9  1  0.67790403  0.34731097  0.47553174  1
  Zr  Zr10  1  0.35008624  0.68118735  0.51542534  1
  Zr  Zr11  1  0.32527934  0.67773512  0.31077516  1
  Ti  Ti12  1  0.00797941  0.00748667  0.35166786  1
  Ti  Ti13  1  0.01710944  0.01829042  0.85335742  1
  Ti  Ti14  1  0.68729599  0.33647215  0.19369252  1
  Ti  Ti15  1  0.65839409  0.33354568  0.97910809  1
  Ti  Ti16  1  0.31307015  0.67465172  0.02050575  1
  Ti  Ti17  1  0.35215631  0.68428327  0.81309235  1
  Si  Si18  1  0.29840651  0.01424524  0.24848727  1
  Si  Si19  1  0.00649717  0.28465046  0.24848092  1
  Si  Si20  1  0.28616389  0.30002579  0.75345892  1
  Si  Si21  1  0.71654135  0.00447365  0.75630059  1
  Si  Si22  1  0.66290464  0.62821657  0.58474736  1
  Si  Si23  1  0.94249566  0.61022047  0.08147325  1
  Si  Si24  1  0.33009823  0.95688508  0.91655781  1
  Si  Si25  1  0.64068635  0.96379753  0.41291277  1
  Si  Si26  1  0.04543114  0.68153226  0.41542560  1
  S  S27  1  0.71561486  0.70631660  0.24903977  1
  S  S28  1  0.01065311  0.71687227  0.75489885  1
  S  S29  1  0.95925323  0.33614269  0.58495821  1
  S  S30  1  0.37416568  0.04138576  0.58468747  1
  S  S31  1  0.65582901  0.04341593  0.08021960  1
  S  S32  1  0.38437820  0.34314677  0.07974634  1
  S  S33  1  0.61762200  0.66508015  0.91917215  1
  S  S34  1  0.04290513  0.37963772  0.91809005  1
  S  S35  1  0.32655483  0.37032397  0.41466253  1
  O  O36  1  0.19862317  0.03338986  0.30497325  1
  O  O37  1  0.82095786  0.78885605  0.30130629  1
  O  O38  1  0.97449489  0.16326805  0.30526068  1
  O  O39  1  0.19138185  0.17186506  0.81088830  1
  O  O40  1  0.98604428  0.80162885  0.80643434  1
  O  O41  1  0.83684086  0.01421635  0.81224132  1
  O  O42  1  0.78908631  0.96252257  0.69704249  1
  O  O43  1  0.17450921  0.20980940  0.69527889  1
  O  O44  1  0.03415471  0.81724800  0.70075544  1
  O  O45  1  0.79434159  0.80858883  0.19515339  1
  O  O46  1  0.00849258  0.18795956  0.18852361  1
  O  O47  1  0.17960422  0.97786364  0.18942890  1
  O  O48  1  0.86932485  0.34506021  0.63758091  1
  O  O49  1  0.47908132  0.12587173  0.63827037  1
  O  O50  1  0.65272995  0.51564979  0.64315814  1
  O  O51  1  0.85232165  0.49360448  0.13931268  1
  O  O52  1  0.63141486  0.11850380  0.13427240  1
  O  O53  1  0.48433295  0.36125580  0.13234973  1
  O  O54  1  0.46684840  0.31621332  0.02619336  1
  O  O55  1  0.82403104  0.50346708  0.02403972  1
  O  O56  1  0.66998052  0.14858356  0.02802048  1
  O  O57  1  0.46025903  0.13999943  0.53206127  1
  O  O58  1  0.67460464  0.52525645  0.52800593  1
  O  O59  1  0.85539486  0.31358447  0.53159060  1
  O  O60  1  0.52812111  0.68334525  0.97035497  1
  O  O61  1  0.15093919  0.46274993  0.97131774  1
  O  O62  1  0.30195921  0.83053111  0.97460676  1
  O  O63  1  0.55494799  0.84490943  0.47219647  1
  O  O64  1  0.30990472  0.45586017  0.46822148  1
  O  O65  1  0.15740899  0.69786530  0.47431794  1
  O  O66  1  0.12936173  0.64038551  0.35924412  1
  O  O67  1  0.51813953  0.86216176  0.35804110  1
  O  O68  1  0.35379764  0.47565366  0.36282560  1
  O  O69  1  0.12258080  0.48397995  0.86618888  1
  O  O70  1  0.35949105  0.85609996  0.86206824  1
  O  O71  1  0.51372233  0.63691234  0.86504609  1
  O  O72  1  0.03305771  0.85586610  0.40605801  1
  O  O73  1  0.83302890  0.98810515  0.40480412  1
  O  O74  1  0.16756365  0.19891698  0.41159681  1
  O  O75  1  0.02601718  0.20251493  0.91467674  1
  O  O76  1  0.15541400  0.97323660  0.90944004  1
  O  O77  1  0.79372090  0.81828251  0.91491824  1
  O  O78  1  0.98002125  0.17928274  0.58748113  1
  O  O79  1  0.20197219  0.02688586  0.58957948  1
  O  O80  1  0.83987553  0.81990760  0.58786367  1
  O  O81  1  0.96371577  0.80253226  0.08140753  1
  O  O82  1  0.81270588  0.02593296  0.08161222  1
  O  O83  1  0.20663151  0.18490837  0.08082887  1
  O  O84  1  0.70160567  0.17802532  0.75087880  1
  O  O85  1  0.47961183  0.32034950  0.75099241  1
  O  O86  1  0.85436181  0.54100766  0.74987847  1
  O  O87  1  0.70339092  0.53239821  0.24309436  1
  O  O88  1  0.82956712  0.30809997  0.24214326  1
  O  O89  1  0.48795525  0.19166585  0.23697218  1
  O  O90  1  0.63375174  0.50321758  0.92422983  1
  O  O91  1  0.86444631  0.35554781  0.92455031  1
  O  O92  1  0.50346745  0.14878325  0.92694954  1
  O  O93  1  0.64890172  0.14982031  0.42215116  1
  O  O94  1  0.47806633  0.34322785  0.42085902  1
  O  O95  1  0.84739607  0.51368606  0.41984852  1
  O  O96  1  0.36925960  0.50106396  0.07166714  1
  O  O97  1  0.14002684  0.63046854  0.07174417  1
  O  O98  1  0.49907050  0.86399627  0.07350107  1
  O  O99  1  0.35359337  0.86453990  0.58279106  1
  O  O100  1  0.48823723  0.64508368  0.58236741  1
  O  O101  1  0.13126434  0.49408190  0.58143764  1
  O  O102  1  0.33037603  0.84872335  0.25141880  1
  O  O103  1  0.53913003  0.67961694  0.25260946  1
  O  O104  1  0.17802956  0.47438552  0.25157651  1
  O  O105  1  0.30143381  0.48771654  0.76649143  1
  O  O106  1  0.16558615  0.69662447  0.76062438  1
  O  O107  1  0.52060649  0.83127961  0.76499334  1
