# generated using pymatgen
data_Na7Al2Si3Sn2(PO8)3
_symmetry_space_group_name_H-M   'P 1'
_cell_length_a   8.90400424
_cell_length_b   8.86708971
_cell_length_c   21.95215043
_cell_angle_alpha   89.60986994
_cell_angle_beta   89.95579322
_cell_angle_gamma   119.91800623
_symmetry_Int_Tables_number   1
_chemical_formula_structural   Na7Al2Si3Sn2(PO8)3
_chemical_formula_sum   'Na21 Al6 Si9 Sn6 P9 O72'
_cell_volume   1502.16384713
_cell_formula_units_Z   3
loop_
 _symmetry_equiv_pos_site_id
 _symmetry_equiv_pos_as_xyz
  1  'x, y, z'
loop_
 _atom_site_type_symbol
 _atom_site_label
 _atom_site_symmetry_multiplicity
 _atom_site_fract_x
 _atom_site_fract_y
 _atom_site_fract_z
 _atom_site_occupancy
  Na  Na0  1  0.63532094  0.00319558  0.25204025  1
  Na  Na1  1  0.36492277  0.36762924  0.24750926  1
  Na  Na2  1  0.99957395  0.62934664  0.24964083  1
  Na  Na3  1  0.63189112  0.63572208  0.74985451  1
  Na  Na4  1  0.99636193  0.36419004  0.74932156  1
  Na  Na5  1  0.37138108  0.00082487  0.74833090  1
  Na  Na6  1  0.03372858  0.69884331  0.58264248  1
  Na  Na7  1  0.66583255  0.97061375  0.58244272  1
  Na  Na8  1  0.66418752  0.69254635  0.08193960  1
  Na  Na9  1  0.03417083  0.33517752  0.08516951  1
  Na  Na10  1  0.96287906  0.66589777  0.91871013  1
  Na  Na11  1  0.70139033  0.03099874  0.91663841  1
  Na  Na12  1  0.33804381  0.30235605  0.91816090  1
  Na  Na13  1  0.96485712  0.29994055  0.41647246  1
  Na  Na14  1  0.33422965  0.02807387  0.41892776  1
  Na  Na15  1  0.99941689  0.99985895  0.50034906  1
  Na  Na16  1  0.00757237  0.99687574  0.99952931  1
  Na  Na17  1  0.66627148  0.33307477  0.83349279  1
  Na  Na18  1  0.67181314  0.33924961  0.33293658  1
  Na  Na19  1  0.32795737  0.66770541  0.16678142  1
  Na  Na20  1  0.33378229  0.66246086  0.66685393  1
  Al  Al21  1  0.99247281  0.99849602  0.85052179  1
  Al  Al22  1  0.66925450  0.32440093  0.68379145  1
  Al  Al23  1  0.67301528  0.33657474  0.18222750  1
  Al  Al24  1  0.66445921  0.34462078  0.98356188  1
  Al  Al25  1  0.32649731  0.66355388  0.31665087  1
  Al  Al26  1  0.34211727  0.66930360  0.81635961  1
  Si  Si27  1  0.99988583  0.30256160  0.24917828  1
  Si  Si28  1  0.70375041  0.00028334  0.75286628  1
  Si  Si29  1  0.95730511  0.33430573  0.58576143  1
  Si  Si30  1  0.37700623  0.04810349  0.58602447  1
  Si  Si31  1  0.95173717  0.61811808  0.08266755  1
  Si  Si32  1  0.38530064  0.32906369  0.08310886  1
  Si  Si33  1  0.63008315  0.66689593  0.91410566  1
  Si  Si34  1  0.61940451  0.94940474  0.41407672  1
  Si  Si35  1  0.04239950  0.66642819  0.41433769  1
  Sn  Sn36  1  0.99172101  0.99519700  0.35208947  1
  Sn  Sn37  1  0.00225071  0.00530888  0.64946378  1
  Sn  Sn38  1  0.00779937  0.00248721  0.14584879  1
  Sn  Sn39  1  0.66557273  0.33243811  0.47979032  1
  Sn  Sn40  1  0.33565626  0.67028530  0.01937296  1
  Sn  Sn41  1  0.33314848  0.66632103  0.52038759  1
  P  P42  1  0.29950293  -0.00018773  0.25040277  1
  P  P43  1  0.70033211  0.70042283  0.24892119  1
  P  P44  1  0.29234010  0.29439673  0.75403441  1
  P  P45  1  0.00087518  0.70678476  0.75344185  1
  P  P46  1  0.66383458  0.61472090  0.58751583  1
  P  P47  1  0.66294538  0.05331169  0.08286110  1
  P  P48  1  0.04191441  0.37315513  0.91383155  1
  P  P49  1  0.33224959  0.95896172  0.91321086  1
  P  P50  1  0.33690043  0.38293051  0.41346357  1
  O  O51  1  0.22137247  0.04179698  0.30705975  1
  O  O52  1  0.82680525  0.77990308  0.30315407  1
  O  O53  1  0.95487020  0.17291880  0.30853576  1
  O  O54  1  0.20431804  0.16991745  0.80867494  1
  O  O55  1  0.97214384  0.80031749  0.80734387  1
  O  O56  1  0.83756382  0.03865414  0.80893011  1
  O  O57  1  0.77905040  0.94947252  0.69209055  1
  O  O58  1  0.17661308  0.21992381  0.69662919  1
  O  O59  1  0.04421972  0.82125026  0.69441067  1
  O  O60  1  0.77917630  0.82145228  0.19190339  1
  O  O61  1  0.04465516  0.21669866  0.19043634  1
  O  O62  1  0.17251246  0.95297055  0.19629620  1
  O  O63  1  0.86819524  0.37032713  0.64420901  1
  O  O64  1  0.49970319  0.13941069  0.64414719  1
  O  O65  1  0.64290815  0.50552572  0.64451866  1
  O  O66  1  0.86831693  0.50075582  0.14361542  1
  O  O67  1  0.64208901  0.13476173  0.14142738  1
  O  O68  1  0.50208907  0.36124065  0.14368068  1
  O  O69  1  0.46920111  0.30493560  0.02131923  1
  O  O70  1  0.83698821  0.53259050  0.02187190  1
  O  O71  1  0.69315375  0.16421940  0.02496901  1
  O  O72  1  0.44803134  0.15456534  0.52169196  1
  O  O73  1  0.70186224  0.54405574  0.52883675  1
  O  O74  1  0.84366617  0.29508112  0.52318488  1
  O  O75  1  0.55513274  0.71775620  0.97536375  1
  O  O76  1  0.15390428  0.44689882  0.97263130  1
  O  O77  1  0.28554205  0.83950737  0.97078297  1
  O  O78  1  0.54799503  0.84402527  0.47851508  1
  O  O79  1  0.29628661  0.45336933  0.47155030  1
  O  O80  1  0.15539841  0.70597060  0.47708661  1
  O  O81  1  0.13260225  0.63195516  0.35619017  1
  O  O82  1  0.49696971  0.85635390  0.35601199  1
  O  O83  1  0.35893520  0.49176397  0.35644987  1
  O  O84  1  0.13103610  0.49832853  0.85944994  1
  O  O85  1  0.36217657  0.86860483  0.85831108  1
  O  O86  1  0.49642630  0.62914935  0.85812374  1
  O  O87  1  0.03534515  0.84758766  0.41041406  1
  O  O88  1  0.81959168  0.98699473  0.41331426  1
  O  O89  1  0.17384223  0.19667412  0.40960268  1
  O  O90  1  0.02780506  0.19170540  0.90719051  1
  O  O91  1  0.17155230  0.98308954  0.90589630  1
  O  O92  1  0.82508583  0.84058128  0.90674201  1
  O  O93  1  0.96682519  0.15481443  0.58858105  1
  O  O94  1  0.17604815  0.00814079  0.58951625  1
  O  O95  1  0.82881093  0.80009767  0.59053951  1
  O  O96  1  0.96081234  0.80880549  0.08704393  1
  O  O97  1  0.82761819  0.03062120  0.08663147  1
  O  O98  1  0.18326244  0.16620147  0.08456729  1
  O  O99  1  0.68782774  0.17720915  0.74475924  1
  O  O100  1  0.47451260  0.31524939  0.74614512  1
  O  O101  1  0.83350896  0.52825638  0.74661154  1
  O  O102  1  0.68151701  0.51842452  0.24247440  1
  O  O103  1  0.82257721  0.31437610  0.24211866  1
  O  O104  1  0.47846828  0.16436250  0.24165782  1
  O  O105  1  0.64725682  0.49062937  0.92150422  1
  O  O106  1  0.85881030  0.35103586  0.92118271  1
  O  O107  1  0.49971542  0.13722222  0.92065153  1
  O  O108  1  0.63391438  0.14358909  0.41628199  1
  O  O109  1  0.49706392  0.35948289  0.41770528  1
  O  O110  1  0.85101967  0.49213765  0.41847291  1
  O  O111  1  0.36449474  0.50739188  0.08029663  1
  O  O112  1  0.14535457  0.63653580  0.07872077  1
  O  O113  1  0.50441519  0.86569380  0.08024208  1
  O  O114  1  0.36451199  0.85510833  0.58342943  1
  O  O115  1  0.50432214  0.63996148  0.58293956  1
  O  O116  1  0.14876553  0.50872986  0.58172526  1
  O  O117  1  0.31814773  0.83656492  0.25735698  1
  O  O118  1  0.52232770  0.68719753  0.25741215  1
  O  O119  1  0.17681496  0.49180109  0.25677468  1
  O  O120  1  0.30686155  0.47625959  0.76041642  1
  O  O121  1  0.16178180  0.68314783  0.76070089  1
  O  O122  1  0.50881594  0.82662669  0.76002327  1
