# generated using pymatgen
data_NaLaTiSi(SO6)2
_symmetry_space_group_name_H-M   'P 1'
_cell_length_a   9.20945016
_cell_length_b   9.24478925
_cell_length_c   23.64456265
_cell_angle_alpha   91.11981601
_cell_angle_beta   90.00000000
_cell_angle_gamma   119.87362993
_symmetry_Int_Tables_number   1
_chemical_formula_structural   NaLaTiSi(SO6)2
_chemical_formula_sum   'Na6 La6 Ti6 Si6 S12 O72'
_cell_volume   1745.15466489
_cell_formula_units_Z   6
loop_
 _symmetry_equiv_pos_site_id
 _symmetry_equiv_pos_as_xyz
  1  'x, y, z'
loop_
 _atom_site_type_symbol
 _atom_site_label
 _atom_site_symmetry_multiplicity
 _atom_site_fract_x
 _atom_site_fract_y
 _atom_site_fract_z
 _atom_site_occupancy
  Na  Na0  1  0.01264827  0.99680313  0.49749871  1
  Na  Na1  1  0.98415486  0.99680313  0.99749871  1
  Na  Na2  1  0.69431932  0.34815330  0.82988467  1
  Na  Na3  1  0.65383498  0.34815330  0.32988467  1
  Na  Na4  1  0.33599929  0.68496040  0.16299216  1
  Na  Na5  1  0.34896011  0.68496040  0.66299216  1
  La  La6  1  0.00226851  0.99652278  0.64579106  1
  La  La7  1  0.99425426  0.99652278  0.14579106  1
  La  La8  1  0.67122645  0.32825041  0.97926992  1
  La  La9  1  0.65702497  0.32825041  0.47926992  1
  La  La10  1  0.33747814  0.66864917  0.31215437  1
  La  La11  1  0.33117003  0.66864917  0.81215437  1
  Ti  Ti12  1  0.03659364  0.01297974  0.35339160  1
  Ti  Ti13  1  0.97638611  0.01297974  0.85339160  1
  Ti  Ti14  1  0.65015200  0.29217218  0.68637827  1
  Ti  Ti15  1  0.64202118  0.29217218  0.18637827  1
  Ti  Ti16  1  0.32196137  0.66570485  0.01881138  1
  Ti  Ti17  1  0.34374248  0.66570485  0.51881138  1
  Si  Si18  1  0.30219321  0.01188530  0.24846769  1
  Si  Si19  1  0.70969209  0.01188530  0.74846769  1
  Si  Si20  1  0.37640915  0.01743664  0.58092542  1
  Si  Si21  1  0.64102849  0.01743664  0.08092542  1
  Si  Si22  1  0.05181249  0.37093577  0.91599091  1
  Si  Si23  1  0.31912228  0.37093577  0.41599091  1
  S  S24  1  0.71955278  0.69137810  0.25170627  1
  S  S25  1  0.97208068  0.28243781  0.25193572  1
  S  S26  1  0.31035713  0.28243781  0.75193572  1
  S  S27  1  0.97182533  0.69137810  0.75170627  1
  S  S28  1  0.97366079  0.35674990  0.58486026  1
  S  S29  1  0.64082240  0.61970605  0.58307534  1
  S  S30  1  0.97888465  0.61970605  0.08307534  1
  S  S31  1  0.38309010  0.35674990  0.08486026  1
  S  S32  1  0.64127184  0.69220072  0.91815448  1
  S  S33  1  0.30387871  0.94645404  0.92098689  1
  S  S34  1  0.64257434  0.94645404  0.42098689  1
  S  S35  1  0.05092788  0.69220072  0.41815448  1
  O  O36  1  0.20053645  0.03508326  0.30686661  1
  O  O37  1  0.82278833  0.78861330  0.30226725  1
  O  O38  1  0.96134519  0.18035987  0.30136920  1
  O  O39  1  0.21901469  0.18035987  0.80136920  1
  O  O40  1  0.96582497  0.78861330  0.80226725  1
  O  O41  1  0.83454682  0.03508326  0.80686661  1
  O  O42  1  0.79804067  0.99425093  0.69392408  1
  O  O43  1  0.21663859  0.21198338  0.69880682  1
  O  O44  1  0.99589521  0.78461156  0.69943840  1
  O  O45  1  0.78871635  0.78461156  0.19943840  1
  O  O46  1  0.99534480  0.21198338  0.19880682  1
  O  O47  1  0.19621027  0.99425093  0.19392408  1
  O  O48  1  0.87709676  0.36697931  0.63523265  1
  O  O49  1  0.50395815  0.12764618  0.64030880  1
  O  O50  1  0.62428585  0.52043076  0.63318848  1
  O  O51  1  0.89614591  0.52043076  0.13318848  1
  O  O52  1  0.62368903  0.12764618  0.14030880  1
  O  O53  1  0.48988354  0.36697931  0.13523265  1
  O  O54  1  0.45375796  0.33481699  0.03228857  1
  O  O55  1  0.88360011  0.55038592  0.03062200  1
  O  O56  1  0.66755423  0.13497093  0.02967599  1
  O  O57  1  0.46741770  0.13497093  0.52967599  1
  O  O58  1  0.66678680  0.55038592  0.53062200  1
  O  O59  1  0.88106004  0.33481699  0.53228857  1
  O  O60  1  0.55420334  0.71075874  0.96843926  1
  O  O61  1  0.17650124  0.48171500  0.97231354  1
  O  O62  1  0.30300432  0.84150972  0.97019971  1
  O  O63  1  0.53850440  0.84150972  0.47019971  1
  O  O64  1  0.30521276  0.48171500  0.47231354  1
  O  O65  1  0.15655440  0.71075874  0.46843926  1
  O  O66  1  0.12089031  0.66829865  0.36542155  1
  O  O67  1  0.54617962  0.87993021  0.36798928  1
  O  O68  1  0.33021903  0.46663225  0.35996384  1
  O  O69  1  0.13641222  0.46663225  0.85996384  1
  O  O70  1  0.33374958  0.87993021  0.86798928  1
  O  O71  1  0.54740735  0.66829865  0.86542155  1
  O  O72  1  0.04297573  0.85346684  0.41270334  1
  O  O73  1  0.80257790  0.94500576  0.41912258  1
  O  O74  1  0.13926954  0.17832706  0.40548877  1
  O  O75  1  0.03905753  0.17832706  0.90548877  1
  O  O76  1  0.14242787  0.94500576  0.91912258  1
  O  O77  1  0.81049111  0.85346684  0.91270334  1
  O  O78  1  0.00429363  0.21412520  0.58930655  1
  O  O79  1  0.18816270  0.98158437  0.58696028  1
  O  O80  1  0.77821573  0.79476961  0.58730013  1
  O  O81  1  0.01655387  0.79476961  0.08730013  1
  O  O82  1  0.79342168  0.98158437  0.08696028  1
  O  O83  1  0.20983157  0.21412520  0.08930655  1
  O  O84  1  0.70456329  0.19221731  0.73996852  1
  O  O85  1  0.47827380  0.28824564  0.74671793  1
  O  O86  1  0.81344525  0.52618253  0.74745374  1
  O  O87  1  0.71273828  0.52618253  0.24745374  1
  O  O88  1  0.80997284  0.28824564  0.24671793  1
  O  O89  1  0.48765503  0.19221731  0.23996852  1
  O  O90  1  0.67398483  0.55274241  0.92330423  1
  O  O91  1  0.86107943  0.33001482  0.91933452  1
  O  O92  1  0.44314085  0.11975007  0.92655855  1
  O  O93  1  0.67661022  0.11975007  0.42655855  1
  O  O94  1  0.46893640  0.33001482  0.41933452  1
  O  O95  1  0.87875857  0.55274241  0.42330423  1
  O  O96  1  0.37599620  0.51623815  0.08244851  1
  O  O97  1  0.14787962  0.62609419  0.07674914  1
  O  O98  1  0.46466759  0.83550274  0.07057612  1
  O  O99  1  0.37083416  0.83550274  0.57057612  1
  O  O100  1  0.47821357  0.62609419  0.57674914  1
  O  O101  1  0.14024095  0.51623815  0.58244851  1
  O  O102  1  0.34425464  0.86499939  0.25358954  1
  O  O103  1  0.54564655  0.66222491  0.25508869  1
  O  O104  1  0.11114803  0.45615172  0.25673770  1
  O  O105  1  0.34500269  0.45615172  0.75673770  1
  O  O106  1  0.11657735  0.66222491  0.75508869  1
  O  O107  1  0.52074375  0.86499939  0.75358954  1
