# generated using pymatgen
data_Na6MgNb5Si6(PO12)3
_symmetry_space_group_name_H-M   'P 1'
_cell_length_a   8.96932701
_cell_length_b   8.96932670
_cell_length_c   22.67297454
_cell_angle_alpha   89.94402275
_cell_angle_beta   90.05597726
_cell_angle_gamma   120.04382580
_symmetry_Int_Tables_number   1
_chemical_formula_structural   Na6MgNb5Si6(PO12)3
_chemical_formula_sum   'Na12 Mg2 Nb10 Si12 P6 O72'
_cell_volume   1578.94352118
_cell_formula_units_Z   2
loop_
 _symmetry_equiv_pos_site_id
 _symmetry_equiv_pos_as_xyz
  1  'x, y, z'
loop_
 _atom_site_type_symbol
 _atom_site_label
 _atom_site_symmetry_multiplicity
 _atom_site_fract_x
 _atom_site_fract_y
 _atom_site_fract_z
 _atom_site_occupancy
  Na  Na0  1  0.37816994  0.36996978  0.24011292  1
  Na  Na1  1  0.98510627  0.61767696  0.24140914  1
  Na  Na2  1  0.63003022  0.62183006  0.74011292  1
  Na  Na3  1  0.38232304  0.01489373  0.74140914  1
  Na  Na4  1  0.65979725  0.97522006  0.58626450  1
  Na  Na5  1  0.02477994  0.34020275  0.08626450  1
  Na  Na6  1  0.01283627  0.99835695  0.49868126  1
  Na  Na7  1  0.00164305  0.98716373  0.99868126  1
  Na  Na8  1  0.68122187  0.32907105  0.83087855  1
  Na  Na9  1  0.67092895  0.31877813  0.33087855  1
  Na  Na10  1  0.35454557  0.68873046  0.16364126  1
  Na  Na11  1  0.31126954  0.64545443  0.66364126  1
  Mg  Mg12  1  0.67281536  0.33153897  0.68516739  1
  Mg  Mg13  1  0.66846103  0.32718464  0.18516739  1
  Nb  Nb14  1  0.99715273  0.00430613  0.35768888  1
  Nb  Nb15  1  0.99569387  0.00284727  0.85768888  1
  Nb  Nb16  1  0.99910675  0.99817958  0.64316275  1
  Nb  Nb17  1  0.00182042  0.00089325  0.14316275  1
  Nb  Nb18  1  0.66320355  0.33750782  0.97851410  1
  Nb  Nb19  1  0.66249218  0.33679645  0.47851410  1
  Nb  Nb20  1  0.33348062  0.66770392  0.02055178  1
  Nb  Nb21  1  0.33229608  0.66651938  0.52055178  1
  Nb  Nb22  1  0.33225694  0.66614005  0.31388404  1
  Nb  Nb23  1  0.33385995  0.66774306  0.81388404  1
  Si  Si24  1  0.99326623  0.28911593  0.24977574  1
  Si  Si25  1  0.71088407  0.00673377  0.74977574  1
  Si  Si26  1  0.37880877  0.04636168  0.58638537  1
  Si  Si27  1  0.66197038  0.61551023  0.58770285  1
  Si  Si28  1  0.95363832  0.62119123  0.08638537  1
  Si  Si29  1  0.38448977  0.33802962  0.08770285  1
  Si  Si30  1  0.62086863  0.66456410  0.91651398  1
  Si  Si31  1  0.04190392  0.37935213  0.91760012  1
  Si  Si32  1  0.33524401  0.95739269  0.91622276  1
  Si  Si33  1  0.62064787  0.95809608  0.41760012  1
  Si  Si34  1  0.33543590  0.37913137  0.41651398  1
  Si  Si35  1  0.04260731  0.66475599  0.41622276  1
  P  P36  1  0.28677078  -0.00073729  0.25075128  1
  P  P37  1  0.71182888  0.71628110  0.25067884  1
  P  P38  1  0.28371890  0.28817112  0.75067884  1
  P  P39  1  0.00073729  0.71322922  0.75075128  1
  P  P40  1  0.95473596  0.33710842  0.58473199  1
  P  P41  1  0.66289158  0.04526404  0.08473199  1
  O  O42  1  0.19055299  0.01367830  0.30489924  1
  O  O43  1  0.82411250  0.80808166  0.30521252  1
  O  O44  1  0.98723416  0.16973105  0.30626673  1
  O  O45  1  0.19191834  0.17588750  0.80521252  1
  O  O46  1  0.98632170  0.80944701  0.80489924  1
  O  O47  1  0.83026895  0.01276584  0.80626673  1
  O  O48  1  0.80261511  0.97357581  0.69133561  1
  O  O49  1  0.17276873  0.19696296  0.69528853  1
  O  O50  1  0.02962289  0.83092943  0.69515340  1
  O  O51  1  0.80303704  0.82723127  0.19528853  1
  O  O52  1  0.02642419  0.19738489  0.19133561  1
  O  O53  1  0.16907057  0.97037711  0.19515340  1
  O  O54  1  0.88084514  0.36492015  0.64002446  1
  O  O55  1  0.49203280  0.11127229  0.64501023  1
  O  O56  1  0.63538923  0.51594505  0.64785776  1
  O  O57  1  0.88872771  0.50796720  0.14501023  1
  O  O58  1  0.63507985  0.11915486  0.14002446  1
  O  O59  1  0.48405495  0.36461077  0.14785776  1
  O  O60  1  0.47433181  0.30639108  0.02897305  1
  O  O61  1  0.83352465  0.52338106  0.02806857  1
  O  O62  1  0.69981779  0.15974306  0.02915027  1
  O  O63  1  0.47661894  0.16647535  0.52806857  1
  O  O64  1  0.69360892  0.52566819  0.52897305  1
  O  O65  1  0.84025694  0.30018221  0.52915027  1
  O  O66  1  0.52665149  0.69213302  0.97262459  1
  O  O67  1  0.15971482  0.46557347  0.97602680  1
  O  O68  1  0.30573256  0.83187486  0.97207882  1
  O  O69  1  0.53442653  0.84028518  0.47602680  1
  O  O70  1  0.30786698  0.47334851  0.47262459  1
  O  O71  1  0.16812514  0.69426744  0.47207882  1
  O  O72  1  0.13413862  0.63800802  0.35649424  1
  O  O73  1  0.49878959  0.85885124  0.35980640  1
  O  O74  1  0.35982632  0.49426032  0.35661123  1
  O  O75  1  0.14114876  0.50121041  0.85980640  1
  O  O76  1  0.36199198  0.86586138  0.85649424  1
  O  O77  1  0.50573968  0.64017368  0.85661123  1
  O  O78  1  0.02413668  0.83491808  0.40776921  1
  O  O79  1  0.80926598  0.97299652  0.40931654  1
  O  O80  1  0.16636657  0.18781517  0.40973085  1
  O  O81  1  0.02700348  0.19073402  0.90931654  1
  O  O82  1  0.16508192  0.97586332  0.90776921  1
  O  O83  1  0.81218483  0.83363343  0.90973085  1
  O  O84  1  0.97123507  0.16867643  0.59012766  1
  O  O85  1  0.18626799  0.02807678  0.59070058  1
  O  O86  1  0.83478303  0.81725358  0.59034707  1
  O  O87  1  0.97192322  0.81373201  0.09070058  1
  O  O88  1  0.83132357  0.02876493  0.09012766  1
  O  O89  1  0.18274642  0.16521697  0.09034707  1
  O  O90  1  0.68190388  0.16713336  0.74981301  1
  O  O91  1  0.46358018  0.30985513  0.74829725  1
  O  O92  1  0.83973691  0.53842833  0.74691859  1
  O  O93  1  0.69014487  0.53641982  0.24829725  1
  O  O94  1  0.83286664  0.31809612  0.24981301  1
  O  O95  1  0.46157167  0.16026309  0.24691859  1
  O  O96  1  0.63868044  0.49389610  0.92272158  1
  O  O97  1  0.85280955  0.35708773  0.92375676  1
  O  O98  1  0.50640430  0.14395719  0.92429803  1
  O  O99  1  0.64291227  0.14719045  0.42375676  1
  O  O100  1  0.50610390  0.36131956  0.42272158  1
  O  O101  1  0.85604281  0.49359570  0.42429803  1
  O  O102  1  0.34614052  0.49842755  0.07620742  1
  O  O103  1  0.14887431  0.64982644  0.07419213  1
  O  O104  1  0.50936301  0.86007642  0.07509727  1
  O  O105  1  0.35017356  0.85112569  0.57419213  1
  O  O106  1  0.50157245  0.65385948  0.57620742  1
  O  O107  1  0.13992358  0.49063699  0.57509727  1
  O  O108  1  0.29530792  0.82921343  0.25410147  1
  O  O109  1  0.52981561  0.70022609  0.25440060  1
  O  O110  1  0.17848852  0.47949044  0.25433503  1
  O  O111  1  0.29977391  0.47018439  0.75440060  1
  O  O112  1  0.17078657  0.70469208  0.75410147  1
  O  O113  1  0.52050956  0.82151148  0.75433503  1
