# generated using pymatgen
data_V2PbO6
_symmetry_space_group_name_H-M   'P 1'
_cell_length_a   3.66227477
_cell_length_b   8.16429695
_cell_length_c   9.45871869
_cell_angle_alpha   108.79443225
_cell_angle_beta   90.00502399
_cell_angle_gamma   102.96534809
_symmetry_Int_Tables_number   1
_chemical_formula_structural   V2PbO6
_chemical_formula_sum   'V4 Pb2 O12'
_cell_volume   260.10549946
_cell_formula_units_Z   2
loop_
 _symmetry_equiv_pos_site_id
 _symmetry_equiv_pos_as_xyz
  1  'x, y, z'
loop_
 _atom_site_type_symbol
 _atom_site_label
 _atom_site_symmetry_multiplicity
 _atom_site_fract_x
 _atom_site_fract_y
 _atom_site_fract_z
 _atom_site_occupancy
  V  V0  1  0.59886921  0.19789642  0.84204790  1
  V  V1  1  0.40113117  0.80210260  0.15795143  1
  V  V2  1  0.83442297  0.66880410  0.36321383  1
  V  V3  1  0.16557727  0.33119671  0.63678674  1
  Pb  Pb4  1  0.87470852  0.74917048  0.77648186  1
  Pb  Pb5  1  0.12529152  0.25082931  0.22351799  1
  O  O6  1  0.66505234  0.33019414  0.69696455  1
  O  O7  1  0.33494749  0.66980549  0.30303538  1
  O  O8  1  0.89261820  0.78514731  0.20841978  1
  O  O9  1  0.10738210  0.21485304  0.79158042  1
  O  O10  1  0.65435595  0.30872811  0.02309733  1
  O  O11  1  0.34564437  0.69127196  0.97690367  1
  O  O12  1  0.10017683  0.20051689  0.46119172  1
  O  O13  1  0.89982305  0.79948250  0.53880761  1
  O  O14  1  0.48907738  0.97818347  0.81861304  1
  O  O15  1  0.72715486  0.45430125  0.35752671  1
  O  O16  1  0.27284463  0.54569794  0.64247255  1
  O  O17  1  0.51092213  0.02181729  0.18138750  1
