# generated using pymatgen
data_Tm2S3
_symmetry_space_group_name_H-M   'P 1'
_cell_length_a   3.87066670
_cell_length_b   10.86108076
_cell_length_c   11.11103385
_cell_angle_alpha   108.92890190
_cell_angle_beta   90.00000000
_cell_angle_gamma   90.00000000
_symmetry_Int_Tables_number   1
_chemical_formula_structural   Tm2S3
_chemical_formula_sum   'Tm8 S12'
_cell_volume   441.84357555
_cell_formula_units_Z   4
loop_
 _symmetry_equiv_pos_site_id
 _symmetry_equiv_pos_as_xyz
  1  'x, y, z'
loop_
 _atom_site_type_symbol
 _atom_site_label
 _atom_site_symmetry_multiplicity
 _atom_site_fract_x
 _atom_site_fract_y
 _atom_site_fract_z
 _atom_site_occupancy
  Tm  Tm0  1  0.25000000  0.18240426  0.00295255  1
  Tm  Tm1  1  0.75000000  0.81759574  0.99704745  1
  Tm  Tm2  1  0.25000000  0.54330094  0.19013770  1
  Tm  Tm3  1  0.75000000  0.45669906  0.80986230  1
  Tm  Tm4  1  0.25000000  0.93250348  0.33191458  1
  Tm  Tm5  1  0.75000000  0.06749652  0.66808542  1
  Tm  Tm6  1  0.25000000  0.66100921  0.58368679  1
  Tm  Tm7  1  0.75000000  0.33899079  0.41631321  1
  S  S8  1  0.25000000  0.97700945  0.11347367  1
  S  S9  1  0.75000000  0.02299055  0.88652633  1
  S  S10  1  0.25000000  0.30844108  0.25049138  1
  S  S11  1  0.75000000  0.69155892  0.74950862  1
  S  S12  1  0.25000000  0.89759782  0.56325027  1
  S  S13  1  0.75000000  0.10240218  0.43674973  1
  S  S14  1  0.25000000  0.41883836  0.59798394  1
  S  S15  1  0.75000000  0.58116164  0.40201606  1
  S  S16  1  0.25000000  0.24549732  0.77676171  1
  S  S17  1  0.75000000  0.75450268  0.22323829  1
  S  S18  1  0.25000000  0.61025054  0.96258837  1
  S  S19  1  0.75000000  0.38974946  0.03741163  1
