# generated using pymatgen
data_MgV4(OF2)4
_symmetry_space_group_name_H-M   'P 1'
_cell_length_a   5.08811214
_cell_length_b   7.76431812
_cell_length_c   5.31929657
_cell_angle_alpha   85.37609019
_cell_angle_beta   89.71682896
_cell_angle_gamma   90.39023391
_symmetry_Int_Tables_number   1
_chemical_formula_structural   MgV4(OF2)4
_chemical_formula_sum   'Mg1 V4 O4 F8'
_cell_volume   209.45066444
_cell_formula_units_Z   1
loop_
 _symmetry_equiv_pos_site_id
 _symmetry_equiv_pos_as_xyz
  1  'x, y, z'
loop_
 _atom_site_type_symbol
 _atom_site_label
 _atom_site_symmetry_multiplicity
 _atom_site_fract_x
 _atom_site_fract_y
 _atom_site_fract_z
 _atom_site_occupancy
  Mg  Mg0  1  0.48873100  0.28562800  0.09868000  1
  V  V1  1  0.49960200  0.50721400  0.51106900  1
  V  V2  1  0.50300800  0.98480400  0.50942500  1
  V  V3  1  0.99941000  0.50998300  0.99704800  1
  V  V4  1  0.01080300  0.99377400  0.00243300  1
  O  O5  1  0.68314200  0.51990100  0.21616000  1
  O  O6  1  0.69963300  0.95762500  0.77369600  1
  O  O7  1  0.31774700  0.05703400  0.19675800  1
  O  O8  1  0.32536100  0.43548700  0.80677100  1
  F  F9  1  0.86322300  0.25400000  0.98867900  1
  F  F10  1  0.79853400  0.91980700  0.29438300  1
  F  F11  1  0.81056400  0.58002200  0.68450800  1
  F  F12  1  0.60740900  0.24350100  0.47831000  1
  F  F13  1  0.37071500  0.74221000  0.50109100  1
  F  F14  1  0.20136800  0.42056900  0.30564500  1
  F  F15  1  0.19509300  0.06206700  0.68836200  1
  F  F16  1  0.12565600  0.74304200  0.00948300  1
