# generated using pymatgen
data_Na10Ca4Nb4Si7S5O48
_symmetry_space_group_name_H-M   'P 1'
_cell_length_a   18.54149253
_cell_length_b   9.29334945
_cell_length_c   22.81752330
_cell_angle_alpha   89.82546412
_cell_angle_beta   90.89562194
_cell_angle_gamma   120.09423449
_symmetry_Int_Tables_number   1
_chemical_formula_structural   Na10Ca4Nb4Si7S5O48
_chemical_formula_sum   'Na30 Ca12 Nb12 Si21 S15 O144'
_cell_volume   3401.28633384
_cell_formula_units_Z   3
loop_
 _symmetry_equiv_pos_site_id
 _symmetry_equiv_pos_as_xyz
  1  'x, y, z'
loop_
 _atom_site_type_symbol
 _atom_site_label
 _atom_site_symmetry_multiplicity
 _atom_site_fract_x
 _atom_site_fract_y
 _atom_site_fract_z
 _atom_site_occupancy
  Na  Na0  1  0.32304332  0.02659997  0.25132817  1
  Na  Na1  1  0.82127118  0.02652270  0.24080344  1
  Na  Na2  1  0.17297824  0.32748964  0.25424058  1
  Na  Na3  1  0.67417566  0.33153645  0.25421776  1
  Na  Na4  1  0.82657581  0.62441204  0.74961657  1
  Na  Na5  1  0.49931732  0.36245978  0.73762669  1
  Na  Na6  1  0.17566204  0.01504806  0.75425859  1
  Na  Na7  1  0.67118436  0.02031529  0.75454539  1
  Na  Na8  1  0.66369562  0.96452175  0.07192905  1
  Na  Na9  1  0.83255280  0.69744496  0.07054497  1
  Na  Na10  1  0.00758201  0.34976564  0.08595816  1
  Na  Na11  1  0.49736238  0.70293050  0.90832628  1
  Na  Na12  1  0.99746578  0.69766650  0.91091947  1
  Na  Na13  1  0.16280122  0.30141368  0.90526609  1
  Na  Na14  1  0.50171350  0.29804717  0.41228382  1
  Na  Na15  1  0.00114636  0.29675423  0.41235402  1
  Na  Na16  1  0.16322160  0.02533393  0.40611267  1
  Na  Na17  1  0.66243036  0.02432368  0.40576714  1
  Na  Na18  1  0.98832936  0.00266788  0.49697010  1
  Na  Na19  1  0.48884711  0.00330517  0.49701936  1
  Na  Na20  1  0.99734198  0.97803503  0.99129350  1
  Na  Na21  1  0.49279006  0.99193416  0.99001726  1
  Na  Na22  1  0.33649425  0.36873552  0.81989938  1
  Na  Na23  1  0.83466354  0.34718824  0.82772775  1
  Na  Na24  1  0.34372631  0.34290115  0.32303140  1
  Na  Na25  1  0.84378100  0.34276255  0.32287088  1
  Na  Na26  1  0.15124071  0.68582995  0.16499488  1
  Na  Na27  1  0.64749468  0.66582896  0.16105954  1
  Na  Na28  1  0.14655502  0.61688794  0.66362854  1
  Na  Na29  1  0.65284020  0.64039569  0.65964925  1
  Ca  Ca30  1  0.99836100  0.99615557  0.35181180  1
  Ca  Ca31  1  0.49676768  0.99565777  0.35248113  1
  Ca  Ca32  1  0.99727455  0.99902785  0.85092389  1
  Ca  Ca33  1  0.49992263  0.99908955  0.85217904  1
  Ca  Ca34  1  0.33660763  0.34799894  0.68269837  1
  Ca  Ca35  1  0.83992878  0.33952045  0.68311747  1
  Ca  Ca36  1  0.33865832  0.33914598  0.18256184  1
  Ca  Ca37  1  0.83683482  0.33490703  0.18423476  1
  Ca  Ca38  1  0.17153089  0.68402356  0.01965394  1
  Ca  Ca39  1  0.66577079  0.66467284  0.01722801  1
  Ca  Ca40  1  0.16667909  0.65724464  0.52183401  1
  Ca  Ca41  1  0.66621127  0.65526387  0.52182311  1
  Nb  Nb42  1  0.01053037  0.01720909  0.64820289  1
  Nb  Nb43  1  0.50718669  0.01042396  0.64737357  1
  Nb  Nb44  1  0.00812526  0.00688342  0.14566725  1
  Nb  Nb45  1  0.50547879  0.99925758  0.14954766  1
  Nb  Nb46  1  0.33682113  0.34467792  0.97677650  1
  Nb  Nb47  1  0.83789453  0.33475777  0.97853218  1
  Nb  Nb48  1  0.33491179  0.32726043  0.48054955  1
  Nb  Nb49  1  0.83450038  0.32459452  0.48026746  1
  Nb  Nb50  1  0.16976479  0.66607854  0.31374315  1
  Nb  Nb51  1  0.67058384  0.66639345  0.31334841  1
  Nb  Nb52  1  0.17358996  0.67750473  0.81156952  1
  Nb  Nb53  1  0.67199441  0.67745311  0.81616335  1
  Si  Si54  1  0.14784495  0.98993067  0.25461571  1
  Si  Si55  1  0.64789000  0.98924518  0.25623512  1
  Si  Si56  1  0.00561830  0.30403446  0.25290745  1
  Si  Si57  1  0.50393222  0.30269345  0.25349272  1
  Si  Si58  1  0.14986155  0.30889631  0.75594950  1
  Si  Si59  1  0.64933101  0.30725092  0.75273766  1
  Si  Si60  1  0.00473643  0.70735420  0.75277752  1
  Si  Si61  1  0.50377870  0.70601432  0.75415589  1
  Si  Si62  1  0.48071803  0.32113252  0.59007650  1
  Si  Si63  1  0.98253899  0.32177526  0.58693670  1
  Si  Si64  1  0.48087424  0.63962755  0.08542502  1
  Si  Si65  1  0.98263611  0.63675739  0.08416012  1
  Si  Si66  1  0.83663501  0.03701847  0.08753454  1
  Si  Si67  1  0.31302894  0.66643436  0.92057414  1
  Si  Si68  1  0.81519739  0.65772099  0.92249411  1
  Si  Si69  1  0.16937381  0.96448706  0.91761475  1
  Si  Si70  1  0.67196085  0.97433650  0.92148475  1
  Si  Si71  1  0.31329692  0.96230933  0.42068257  1
  Si  Si72  1  0.81285828  0.96059347  0.42072078  1
  Si  Si73  1  0.17062757  0.37386531  0.41887312  1
  Si  Si74  1  0.67086176  0.37397655  0.41879050  1
  S  S75  1  0.34794457  0.70967046  0.24813676  1
  S  S76  1  0.84786168  0.71010465  0.24747405  1
  S  S77  1  0.34933411  0.98724273  0.74724626  1
  S  S78  1  0.84819912  0.98700118  0.74834498  1
  S  S79  1  0.18275670  0.04601096  0.58346973  1
  S  S80  1  0.68094393  0.04305977  0.58373169  1
  S  S81  1  0.34422323  0.63980903  0.58224984  1
  S  S82  1  0.84335242  0.63779071  0.58477348  1
  S  S83  1  0.34325024  0.04901696  0.08549832  1
  S  S84  1  0.18222695  0.32074749  0.08260470  1
  S  S85  1  0.68116881  0.31733443  0.08444264  1
  S  S86  1  0.01877347  0.38358167  0.91728999  1
  S  S87  1  0.51519922  0.37937823  0.91465056  1
  S  S88  1  0.01760104  0.64981161  0.41596371  1
  S  S89  1  0.51782643  0.64985791  0.41611653  1
  O  O90  1  0.11020773  0.01208985  0.31331067  1
  O  O91  1  0.60544357  0.00440091  0.31332491  1
  O  O92  1  0.39439099  0.77263658  0.30240097  1
  O  O93  1  0.89613551  0.77726843  0.30092445  1
  O  O94  1  0.49473230  0.20388068  0.31261024  1
  O  O95  1  0.99844792  0.20425096  0.31114305  1
  O  O96  1  0.10815018  0.21198520  0.81395975  1
  O  O97  1  0.60200179  0.18623332  0.80415515  1
  O  O98  1  0.49469671  0.77957798  0.81423862  1
  O  O99  1  0.99548130  0.78823023  0.81151817  1
  O  O100  1  0.39725711  0.01776215  0.80145605  1
  O  O101  1  0.89513478  0.02041947  0.80267393  1
  O  O102  1  0.39440648  0.96973746  0.69616125  1
  O  O103  1  0.89334434  0.96909520  0.69735543  1
  O  O104  1  0.08249356  0.19529693  0.69659370  1
  O  O105  1  0.58318461  0.19730899  0.69164801  1
  O  O106  1  0.01598041  0.84532925  0.69623152  1
  O  O107  1  0.51428688  0.84249371  0.69739408  1
  O  O108  1  0.39506562  0.81762995  0.19685723  1
  O  O109  1  0.89149604  0.81308575  0.19467393  1
  O  O110  1  0.01779197  0.19539356  0.19454528  1
  O  O111  1  0.51392846  0.18472271  0.19720272  1
  O  O112  1  0.08293356  0.97554567  0.19639499  1
  O  O113  1  0.58336056  0.97257244  0.19555419  1
  O  O114  1  0.43783020  0.32061074  0.64942887  1
  O  O115  1  0.93312068  0.31833615  0.64224254  1
  O  O116  1  0.22806081  0.12044029  0.63734346  1
  O  O117  1  0.72406578  0.11857168  0.63865152  1
  O  O118  1  0.33421881  0.55184119  0.63676931  1
  O  O119  1  0.83346109  0.55350173  0.64095476  1
  O  O120  1  0.43538000  0.54393811  0.14206829  1
  O  O121  1  0.93168903  0.53282192  0.13839270  1
  O  O122  1  0.33328827  0.11459056  0.14125585  1
  O  O123  1  0.81734726  0.10517318  0.14573507  1
  O  O124  1  0.22584138  0.33739620  0.13781582  1
  O  O125  1  0.72403944  0.33927812  0.14097966  1
  O  O126  1  0.22834698  0.30777756  0.03095599  1
  O  O127  1  0.72798475  0.29503076  0.03527740  1
  O  O128  1  0.41849406  0.52818231  0.02459405  1
  O  O129  1  0.92006905  0.53634275  0.02340848  1
  O  O130  1  0.34900359  0.15961064  0.03503193  1
  O  O131  1  0.85072831  0.17790148  0.03208067  1
  O  O132  1  0.22729602  0.15513198  0.53072922  1
  O  O133  1  0.72729949  0.15306431  0.53157828  1
  O  O134  1  0.34880642  0.53930134  0.53119283  1
  O  O135  1  0.84740892  0.53311804  0.53509534  1
  O  O136  1  0.41450518  0.30855854  0.53085785  1
  O  O137  1  0.91805204  0.30812093  0.52572806  1
  O  O138  1  0.26273210  0.64661233  0.97722709  1
  O  O139  1  0.77304917  0.65948791  0.98165043  1
  O  O140  1  0.06189021  0.44638274  0.97361965  1
  O  O141  1  0.56081310  0.44649909  0.96832706  1
  O  O142  1  0.13751752  0.82777438  0.96706241  1
  O  O143  1  0.65719705  0.86465835  0.97795461  1
  O  O144  1  0.26065442  0.87014780  0.47523272  1
  O  O145  1  0.76118276  0.86861201  0.47567905  1
  O  O146  1  0.13873742  0.45217237  0.46575345  1
  O  O147  1  0.63842651  0.45072724  0.46597249  1
  O  O148  1  0.06412982  0.67829938  0.47012059  1
  O  O149  1  0.56475719  0.67883037  0.47018580  1
  O  O150  1  0.06350006  0.62805530  0.36428102  1
  O  O151  1  0.56284115  0.62747486  0.36434725  1
  O  O152  1  0.25237207  0.86630536  0.35845230  1
  O  O153  1  0.75117898  0.86289911  0.35911111  1
  O  O154  1  0.18496775  0.50078406  0.35606394  1
  O  O155  1  0.68473570  0.49985115  0.35605572  1
  O  O156  1  0.06502617  0.49839336  0.86743245  1
  O  O157  1  0.55974173  0.48890715  0.86232126  1
  O  O158  1  0.18470066  0.87110229  0.85643938  1
  O  O159  1  0.68158868  0.86045415  0.86184739  1
  O  O160  1  0.25035876  0.64207657  0.86085853  1
  O  O161  1  0.75084682  0.64315354  0.86263348  1
  O  O162  1  0.00096888  0.78515186  0.40567955  1
  O  O163  1  0.50033386  0.78401527  0.40608576  1
  O  O164  1  0.40790311  0.00704262  0.41757252  1
  O  O165  1  0.90766308  0.00668882  0.41668272  1
  O  O166  1  0.09936366  0.18092622  0.41239277  1
  O  O167  1  0.59959130  0.18098768  0.41194419  1
  O  O168  1  0.00327435  0.21533076  0.90840735  1
  O  O169  1  0.49335013  0.20675979  0.90577780  1
  O  O170  1  0.09949155  0.01916253  0.91196065  1
  O  O171  1  0.59414170  0.00204583  0.91414814  1
  O  O172  1  0.40734732  0.81020982  0.91695270  1
  O  O173  1  0.90865151  0.80957535  0.91617242  1
  O  O174  1  0.48093689  0.13583610  0.59040445  1
  O  O175  1  0.98400128  0.13727747  0.58969683  1
  O  O176  1  0.09868301  0.04197019  0.58516737  1
  O  O177  1  0.59622503  0.03608587  0.58371244  1
  O  O178  1  0.42573234  0.80234728  0.58311726  1
  O  O179  1  0.92429571  0.80057205  0.58437893  1
  O  O180  1  0.48444934  0.82992696  0.09027353  1
  O  O181  1  0.98510298  0.82286444  0.08970079  1
  O  O182  1  0.42370447  0.04500665  0.08666525  1
  O  O183  1  0.92945639  0.04315994  0.09189202  1
  O  O184  1  0.09853267  0.15502386  0.08301618  1
  O  O185  1  0.59822105  0.15107933  0.08585951  1
  O  O186  1  0.32837419  0.11954842  0.73978598  1
  O  O187  1  0.81974879  0.10791443  0.74034869  1
  O  O188  1  0.23597464  0.31181600  0.74607570  1
  O  O189  1  0.74115701  0.33469006  0.74504263  1
  O  O190  1  0.43306944  0.51405356  0.74761880  1
  O  O191  1  0.92367799  0.52708867  0.74689297  1
  O  O192  1  0.32137655  0.53292536  0.24053479  1
  O  O193  1  0.82150893  0.53299922  0.24146770  1
  O  O194  1  0.42280385  0.32068122  0.24731150  1
  O  O195  1  0.92549756  0.32508626  0.24772408  1
  O  O196  1  0.23908551  0.15133939  0.24555843  1
  O  O197  1  0.73733816  0.15585655  0.24978575  1
  O  O198  1  0.31444818  0.47509207  0.92267949  1
  O  O199  1  0.81929634  0.47772938  0.92283265  1
  O  O200  1  0.43311393  0.38501507  0.91621955  1
  O  O201  1  0.93539461  0.38116532  0.91750222  1
  O  O202  1  0.26099371  0.14430560  0.93139045  1
  O  O203  1  0.76371637  0.15256539  0.92513953  1
  O  O204  1  0.31625696  0.15628136  0.42465594  1
  O  O205  1  0.81401978  0.15323889  0.42418018  1
  O  O206  1  0.26190862  0.37706237  0.42945757  1
  O  O207  1  0.76246362  0.37876336  0.42971156  1
  O  O208  1  0.43546025  0.48368422  0.41829811  1
  O  O209  1  0.93503120  0.48487429  0.41732705  1
  O  O210  1  0.16062277  0.45167651  0.07666719  1
  O  O211  1  0.66474509  0.45290916  0.07550202  1
  O  O212  1  0.07154923  0.64664384  0.08304341  1
  O  O213  1  0.57521952  0.68044160  0.08091680  1
  O  O214  1  0.27294005  0.87944386  0.07899600  1
  O  O215  1  0.76322305  0.84760190  0.07976464  1
  O  O216  1  0.16572719  0.87617026  0.57613712  1
  O  O217  1  0.66589197  0.87495734  0.57709486  1
  O  O218  1  0.27503174  0.67103249  0.57510421  1
  O  O219  1  0.77326903  0.66665521  0.57719729  1
  O  O220  1  0.07468796  0.47416222  0.58313585  1
  O  O221  1  0.57237148  0.47578102  0.58444098  1
  O  O222  1  0.15435752  0.81637812  0.25587010  1
  O  O223  1  0.65512397  0.81734810  0.25597935  1
  O  O224  1  0.26879502  0.72292139  0.24944509  1
  O  O225  1  0.76760162  0.72012966  0.25020085  1
  O  O226  1  0.09757575  0.48697334  0.25425840  1
  O  O227  1  0.59590195  0.48377347  0.25442184  1
  O  O228  1  0.15427079  0.49302865  0.75750480  1
  O  O229  1  0.64940793  0.48717914  0.75664774  1
  O  O230  1  0.09611782  0.70841497  0.75514352  1
  O  O231  1  0.59841744  0.71282537  0.75590306  1
  O  O232  1  0.26631306  0.82376433  0.75005904  1
  O  O233  1  0.76830632  0.81355122  0.75212394  1
