# generated using pymatgen
data_Na3TaInSi2PO12
_symmetry_space_group_name_H-M   'P 1'
_cell_length_a   15.86191136
_cell_length_b   27.35082249
_cell_length_c   9.03260769
_cell_angle_alpha   90.00000000
_cell_angle_beta   125.09287304
_cell_angle_gamma   90.00000000
_symmetry_Int_Tables_number   1
_chemical_formula_structural   Na3TaInSi2PO12
_chemical_formula_sum   'Na36 Ta12 In12 Si24 P12 O144'
_cell_volume   3206.34170611
_cell_formula_units_Z   12
loop_
 _symmetry_equiv_pos_site_id
 _symmetry_equiv_pos_as_xyz
  1  'x, y, z'
loop_
 _atom_site_type_symbol
 _atom_site_label
 _atom_site_symmetry_multiplicity
 _atom_site_fract_x
 _atom_site_fract_y
 _atom_site_fract_z
 _atom_site_occupancy
  Na  Na0  1  0.25369245  0.25501171  0.00793191  1
  Na  Na1  1  0.24670834  0.58744307  0.01784747  1
  Na  Na2  1  0.24876747  0.91883845  0.02022306  1
  Na  Na3  1  0.75369245  0.24498829  0.50793191  1
  Na  Na4  1  0.74876747  0.58116155  0.52022306  1
  Na  Na5  1  0.74670834  0.91255693  0.51784747  1
  Na  Na6  1  0.74670834  0.08744307  0.01784747  1
  Na  Na7  1  0.74876747  0.41883845  0.02022306  1
  Na  Na8  1  0.75369245  0.75501171  0.00793191  1
  Na  Na9  1  0.24876747  0.08116155  0.52022306  1
  Na  Na10  1  0.24670834  0.41255693  0.51784747  1
  Na  Na11  1  0.25369245  0.74498829  0.50793191  1
  Na  Na12  1  0.49453787  0.03342208  0.75472966  1
  Na  Na13  1  0.49664248  0.36773005  0.76092603  1
  Na  Na14  1  0.49536036  0.70037880  0.75431957  1
  Na  Na15  1  0.49536036  0.29962120  0.25431957  1
  Na  Na16  1  0.49664248  0.63226995  0.26092603  1
  Na  Na17  1  0.49453787  0.96657792  0.25472966  1
  Na  Na18  1  0.99536036  0.20037880  0.75431957  1
  Na  Na19  1  0.99453787  0.53342208  0.75472966  1
  Na  Na20  1  0.99664248  0.86773005  0.76092603  1
  Na  Na21  1  0.99664248  0.13226995  0.26092603  1
  Na  Na22  1  0.99453787  0.46657792  0.25472966  1
  Na  Na23  1  0.99536036  0.79962120  0.25431957  1
  Na  Na24  1  0.81866010  0.64420153  0.20485419  1
  Na  Na25  1  0.81855517  0.97781259  0.21083922  1
  Na  Na26  1  0.19376800  0.30678000  0.28743152  1
  Na  Na27  1  0.19376800  0.69322000  0.78743152  1
  Na  Na28  1  0.81855517  0.02218741  0.71083922  1
  Na  Na29  1  0.81866010  0.35579847  0.70485419  1
  Na  Na30  1  0.31866010  0.14420153  0.20485419  1
  Na  Na31  1  0.31855517  0.47781259  0.21083922  1
  Na  Na32  1  0.69376800  0.80678000  0.28743152  1
  Na  Na33  1  0.69376800  0.19322000  0.78743152  1
  Na  Na34  1  0.31855517  0.52218741  0.71083922  1
  Na  Na35  1  0.31866010  0.85579847  0.70485419  1
  Ta  Ta36  1  0.10631058  0.24782585  0.56604261  1
  Ta  Ta37  1  0.10453290  0.58259800  0.56605959  1
  Ta  Ta38  1  0.10601026  0.91689159  0.56573476  1
  Ta  Ta39  1  0.10601026  0.08310841  0.06573476  1
  Ta  Ta40  1  0.10453290  0.41740200  0.06605959  1
  Ta  Ta41  1  0.10631058  0.75217415  0.06604261  1
  Ta  Ta42  1  0.60453290  0.08259800  0.56605959  1
  Ta  Ta43  1  0.60601026  0.41689159  0.56573476  1
  Ta  Ta44  1  0.60631058  0.74782585  0.56604261  1
  Ta  Ta45  1  0.60631058  0.25217415  0.06604261  1
  Ta  Ta46  1  0.60601026  0.58310841  0.06573476  1
  Ta  Ta47  1  0.60453290  0.91740200  0.06605959  1
  In  In48  1  0.90068333  0.25078347  0.94810972  1
  In  In49  1  0.89607343  0.58320253  0.93653339  1
  In  In50  1  0.89579886  0.91468429  0.93933319  1
  In  In51  1  0.89579886  0.08531571  0.43933319  1
  In  In52  1  0.89607343  0.41679747  0.43653339  1
  In  In53  1  0.90068333  0.74921653  0.44810972  1
  In  In54  1  0.39607343  0.08320253  0.93653339  1
  In  In55  1  0.39579886  0.41468429  0.93933319  1
  In  In56  1  0.40068333  0.75078347  0.94810972  1
  In  In57  1  0.40068333  0.24921653  0.44810972  1
  In  In58  1  0.39579886  0.58531571  0.43933319  1
  In  In59  1  0.39607343  0.91679747  0.43653339  1
  Si  Si60  1  0.34840590  0.29685301  0.74816143  1
  Si  Si61  1  0.35127748  0.63044895  0.75775917  1
  Si  Si62  1  0.35043068  0.96385456  0.75344057  1
  Si  Si63  1  0.64666777  0.30128513  0.74190236  1
  Si  Si64  1  0.64623027  0.63271843  0.74012731  1
  Si  Si65  1  0.64672918  0.96680254  0.74181455  1
  Si  Si66  1  0.64672918  0.03319746  0.24181455  1
  Si  Si67  1  0.64623027  0.36728157  0.24012731  1
  Si  Si68  1  0.64666777  0.69871487  0.24190236  1
  Si  Si69  1  0.35043068  0.03614544  0.25344057  1
  Si  Si70  1  0.35127748  0.36955105  0.25775917  1
  Si  Si71  1  0.34840590  0.70314699  0.24816143  1
  Si  Si72  1  0.85127748  0.13044895  0.75775917  1
  Si  Si73  1  0.85043068  0.46385456  0.75344057  1
  Si  Si74  1  0.84840590  0.79685301  0.74816143  1
  Si  Si75  1  0.14623027  0.13271843  0.74012731  1
  Si  Si76  1  0.14672918  0.46680254  0.74181455  1
  Si  Si77  1  0.14666777  0.80128513  0.74190236  1
  Si  Si78  1  0.14666777  0.19871487  0.24190236  1
  Si  Si79  1  0.14672918  0.53319746  0.24181455  1
  Si  Si80  1  0.14623027  0.86728157  0.24012731  1
  Si  Si81  1  0.84840590  0.20314699  0.24816143  1
  Si  Si82  1  0.85043068  0.53614544  0.25344057  1
  Si  Si83  1  0.85127748  0.86955105  0.25775917  1
  P  P84  1  0.00701118  0.31927099  0.75240059  1
  P  P85  1  0.00241359  0.65230960  0.74658504  1
  P  P86  1  0.00422960  0.98648699  0.74588111  1
  P  P87  1  0.00422960  0.01351301  0.24588111  1
  P  P88  1  0.00241359  0.34769040  0.24658504  1
  P  P89  1  0.00701118  0.68072901  0.25240059  1
  P  P90  1  0.50241359  0.15230960  0.74658504  1
  P  P91  1  0.50422960  0.48648699  0.74588111  1
  P  P92  1  0.50701118  0.81927099  0.75240059  1
  P  P93  1  0.50701118  0.18072901  0.25240059  1
  P  P94  1  0.50422960  0.51351301  0.24588111  1
  P  P95  1  0.50241359  0.84769040  0.24658504  1
  O  O96  1  0.14252570  0.19456740  0.74111419  1
  O  O97  1  0.14434407  0.52874629  0.74453066  1
  O  O98  1  0.14459500  0.86209618  0.74201318  1
  O  O99  1  0.84091041  0.18969656  0.75414066  1
  O  O100  1  0.84610310  0.52253325  0.75239163  1
  O  O101  1  0.84232111  0.85614279  0.74960642  1
  O  O102  1  0.84232111  0.14385721  0.24960642  1
  O  O103  1  0.84610310  0.47746675  0.25239163  1
  O  O104  1  0.84091041  0.81030344  0.25414066  1
  O  O105  1  0.14459500  0.13790382  0.24201318  1
  O  O106  1  0.14434407  0.47125371  0.24453066  1
  O  O107  1  0.14252570  0.80543260  0.24111419  1
  O  O108  1  0.64434407  0.02874629  0.74453066  1
  O  O109  1  0.64459500  0.36209618  0.74201318  1
  O  O110  1  0.64252570  0.69456740  0.74111419  1
  O  O111  1  0.34610310  0.02253325  0.75239163  1
  O  O112  1  0.34232111  0.35614279  0.74960642  1
  O  O113  1  0.34091041  0.68969656  0.75414066  1
  O  O114  1  0.34091041  0.31030344  0.25414066  1
  O  O115  1  0.34232111  0.64385721  0.24960642  1
  O  O116  1  0.34610310  0.97746675  0.25239163  1
  O  O117  1  0.64252570  0.30543260  0.24111419  1
  O  O118  1  0.64459500  0.63790382  0.24201318  1
  O  O119  1  0.64434407  0.97125371  0.24453066  1
  O  O120  1  0.43815488  0.17866958  0.56544687  1
  O  O121  1  0.43688926  0.51490326  0.57121188  1
  O  O122  1  0.44143354  0.85044184  0.58687485  1
  O  O123  1  0.56257226  0.18932926  0.90779343  1
  O  O124  1  0.56296022  0.52247918  0.91240128  1
  O  O125  1  0.57008659  0.85266584  0.92752358  1
  O  O126  1  0.57008659  0.14733416  0.42752358  1
  O  O127  1  0.56296022  0.47752082  0.41240128  1
  O  O128  1  0.56257226  0.81067074  0.40779343  1
  O  O129  1  0.44143354  0.14955816  0.08687485  1
  O  O130  1  0.43688926  0.48509674  0.07121188  1
  O  O131  1  0.43815488  0.82133042  0.06544687  1
  O  O132  1  0.93688926  0.01490326  0.57121188  1
  O  O133  1  0.94143354  0.35044184  0.58687485  1
  O  O134  1  0.93815488  0.67866958  0.56544687  1
  O  O135  1  0.06296022  0.02247918  0.91240128  1
  O  O136  1  0.07008659  0.35266584  0.92752358  1
  O  O137  1  0.06257226  0.68932926  0.90779343  1
  O  O138  1  0.06257226  0.31067074  0.40779343  1
  O  O139  1  0.07008659  0.64733416  0.42752358  1
  O  O140  1  0.06296022  0.97752082  0.41240128  1
  O  O141  1  0.93815488  0.32133042  0.06544687  1
  O  O142  1  0.94143354  0.64955816  0.08687485  1
  O  O143  1  0.93688926  0.98509674  0.07121188  1
  O  O144  1  0.24902925  0.27180009  0.73499369  1
  O  O145  1  0.25307725  0.60488157  0.74964792  1
  O  O146  1  0.25283503  0.93677228  0.74294297  1
  O  O147  1  0.74757760  0.28287026  0.75481138  1
  O  O148  1  0.74669426  0.61501336  0.75635233  1
  O  O149  1  0.74985141  0.95281505  0.75579203  1
  O  O150  1  0.74985141  0.04718495  0.25579203  1
  O  O151  1  0.74669426  0.38498664  0.25635233  1
  O  O152  1  0.74757760  0.71712974  0.25481138  1
  O  O153  1  0.25283503  0.06322772  0.24294297  1
  O  O154  1  0.25307725  0.39511843  0.24964792  1
  O  O155  1  0.24902925  0.72819991  0.23499369  1
  O  O156  1  0.75307725  0.10488157  0.74964792  1
  O  O157  1  0.75283503  0.43677228  0.74294297  1
  O  O158  1  0.74902925  0.77180009  0.73499369  1
  O  O159  1  0.24669426  0.11501336  0.75635233  1
  O  O160  1  0.24985141  0.45281505  0.75579203  1
  O  O161  1  0.24757760  0.78287026  0.75481138  1
  O  O162  1  0.24757760  0.21712974  0.25481138  1
  O  O163  1  0.24985141  0.54718495  0.25579203  1
  O  O164  1  0.24669426  0.88498664  0.25635233  1
  O  O165  1  0.74902925  0.22819991  0.23499369  1
  O  O166  1  0.75283503  0.56322772  0.24294297  1
  O  O167  1  0.75307725  0.89511843  0.24964792  1
  O  O168  1  0.33903668  0.28499238  0.56477820  1
  O  O169  1  0.34492169  0.61230493  0.58488472  1
  O  O170  1  0.34895683  0.94443949  0.58711842  1
  O  O171  1  0.63641953  0.28458948  0.91127383  1
  O  O172  1  0.63788991  0.61847276  0.91680109  1
  O  O173  1  0.64149121  0.95115378  0.92063600  1
  O  O174  1  0.64149121  0.04884622  0.42063600  1
  O  O175  1  0.63788991  0.38152724  0.41680109  1
  O  O176  1  0.63641953  0.71541052  0.41127383  1
  O  O177  1  0.34895683  0.05556051  0.08711842  1
  O  O178  1  0.34492169  0.38769507  0.08488472  1
  O  O179  1  0.33903668  0.71500762  0.06477820  1
  O  O180  1  0.84492169  0.11230493  0.58488472  1
  O  O181  1  0.84895683  0.44443949  0.58711842  1
  O  O182  1  0.83903668  0.78499238  0.56477820  1
  O  O183  1  0.13788991  0.11847276  0.91680109  1
  O  O184  1  0.14149121  0.45115378  0.92063600  1
  O  O185  1  0.13641953  0.78458948  0.91127383  1
  O  O186  1  0.13641953  0.21541052  0.41127383  1
  O  O187  1  0.14149121  0.54884622  0.42063600  1
  O  O188  1  0.13788991  0.88152724  0.41680109  1
  O  O189  1  0.83903668  0.21500762  0.06477820  1
  O  O190  1  0.84895683  0.55556051  0.08711842  1
  O  O191  1  0.84492169  0.88769507  0.08488472  1
  O  O192  1  0.45998808  0.27454650  0.92691596  1
  O  O193  1  0.46169889  0.60786144  0.94075112  1
  O  O194  1  0.46202426  0.94001357  0.93922173  1
  O  O195  1  0.54667594  0.28000228  0.55784869  1
  O  O196  1  0.54196333  0.61581946  0.55474635  1
  O  O197  1  0.54459941  0.94863700  0.55758751  1
  O  O198  1  0.54459941  0.05136300  0.05758751  1
  O  O199  1  0.54196333  0.38418054  0.05474635  1
  O  O200  1  0.54667594  0.71999772  0.05784869  1
  O  O201  1  0.46202426  0.05998643  0.43922173  1
  O  O202  1  0.46169889  0.39213856  0.44075112  1
  O  O203  1  0.45998808  0.72545350  0.42691596  1
  O  O204  1  0.96169889  0.10786144  0.94075112  1
  O  O205  1  0.96202426  0.44001357  0.93922173  1
  O  O206  1  0.95998808  0.77454650  0.92691596  1
  O  O207  1  0.04196333  0.11581946  0.55474635  1
  O  O208  1  0.04459941  0.44863700  0.55758751  1
  O  O209  1  0.04667594  0.78000228  0.55784869  1
  O  O210  1  0.04667594  0.21999772  0.05784869  1
  O  O211  1  0.04459941  0.55136300  0.05758751  1
  O  O212  1  0.04196333  0.88418054  0.05474635  1
  O  O213  1  0.95998808  0.22545350  0.42691596  1
  O  O214  1  0.96202426  0.55998643  0.43922173  1
  O  O215  1  0.96169889  0.89213856  0.44075112  1
  O  O216  1  0.08565248  0.28710498  0.74554380  1
  O  O217  1  0.09018863  0.62336181  0.75005574  1
  O  O218  1  0.08674990  0.95545063  0.74567272  1
  O  O219  1  0.93238172  0.28476515  0.76058149  1
  O  O220  1  0.93557497  0.61485933  0.75836671  1
  O  O221  1  0.93232837  0.95195748  0.75863895  1
  O  O222  1  0.93232837  0.04804252  0.25863895  1
  O  O223  1  0.93557497  0.38514067  0.25836671  1
  O  O224  1  0.93238172  0.71523485  0.26058149  1
  O  O225  1  0.08674990  0.04454937  0.24567272  1
  O  O226  1  0.09018863  0.37663819  0.25005574  1
  O  O227  1  0.08565248  0.71289502  0.24554380  1
  O  O228  1  0.59018863  0.12336181  0.75005574  1
  O  O229  1  0.58674990  0.45545063  0.74567272  1
  O  O230  1  0.58565248  0.78710498  0.74554380  1
  O  O231  1  0.43557497  0.11485933  0.75836671  1
  O  O232  1  0.43232837  0.45195748  0.75863895  1
  O  O233  1  0.43238172  0.78476515  0.76058149  1
  O  O234  1  0.43238172  0.21523485  0.26058149  1
  O  O235  1  0.43232837  0.54804252  0.25863895  1
  O  O236  1  0.43557497  0.88514067  0.25836671  1
  O  O237  1  0.58565248  0.21289502  0.24554380  1
  O  O238  1  0.58674990  0.54454937  0.24567272  1
  O  O239  1  0.59018863  0.87663819  0.25005574  1
