# generated using pymatgen
data_MgMn2(SeO3)4
_symmetry_space_group_name_H-M   'P 1'
_cell_length_a   5.21149322
_cell_length_b   6.59257176
_cell_length_c   8.36845108
_cell_angle_alpha   97.76789019
_cell_angle_beta   94.29960029
_cell_angle_gamma   89.52111780
_symmetry_Int_Tables_number   1
_chemical_formula_structural   MgMn2(SeO3)4
_chemical_formula_sum   'Mg1 Mn2 Se4 O12'
_cell_volume   284.07554641
_cell_formula_units_Z   1
loop_
 _symmetry_equiv_pos_site_id
 _symmetry_equiv_pos_as_xyz
  1  'x, y, z'
loop_
 _atom_site_type_symbol
 _atom_site_label
 _atom_site_symmetry_multiplicity
 _atom_site_fract_x
 _atom_site_fract_y
 _atom_site_fract_z
 _atom_site_occupancy
  Mg  Mg0  1  0.49934352  0.99991288  0.49956090  1
  Mn  Mn1  1  0.49988152  0.49994241  0.50003108  1
  Mn  Mn2  1  0.00007558  0.00001831  0.00000144  1
  Se  Se3  1  0.52818547  0.18956610  0.17225327  1
  Se  Se4  1  0.01610194  0.71826563  0.32342947  1
  Se  Se5  1  0.98364851  0.28171241  0.67657895  1
  Se  Se6  1  0.47204060  0.81050471  0.82776445  1
  O  O7  1  0.55405610  0.56917846  0.73327389  1
  O  O8  1  0.89969679  0.06013211  0.74098936  1
  O  O9  1  0.44604848  0.43086605  0.26676873  1
  O  O10  1  0.10105355  0.93979534  0.25924744  1
  O  O11  1  0.19721976  0.75482123  0.91551801  1
  O  O12  1  0.24834860  0.22398988  0.56700026  1
  O  O13  1  0.26215093  0.73303241  0.49182580  1
  O  O14  1  0.30467388  0.17254032  0.00531139  1
  O  O15  1  0.73746669  0.26667172  0.50825826  1
  O  O16  1  0.69555327  0.82754323  -0.00530088  1
  O  O17  1  0.75138741  0.77624627  0.43290829  1
  O  O18  1  0.80306739  0.24526152  0.08457989  1
