# generated using pymatgen
data_Na2CaZr3Si2(SO6)4
_symmetry_space_group_name_H-M   'P 1'
_cell_length_a   9.07299729
_cell_length_b   9.05671939
_cell_length_c   23.74217846
_cell_angle_alpha   89.57926248
_cell_angle_beta   90.11767944
_cell_angle_gamma   120.05837941
_symmetry_Int_Tables_number   1
_chemical_formula_structural   Na2CaZr3Si2(SO6)4
_chemical_formula_sum   'Na6 Ca3 Zr9 Si6 S12 O72'
_cell_volume   1688.51387039
_cell_formula_units_Z   3
loop_
 _symmetry_equiv_pos_site_id
 _symmetry_equiv_pos_as_xyz
  1  'x, y, z'
loop_
 _atom_site_type_symbol
 _atom_site_label
 _atom_site_symmetry_multiplicity
 _atom_site_fract_x
 _atom_site_fract_y
 _atom_site_fract_z
 _atom_site_occupancy
  Na  Na0  1  0.97987672  0.98301972  0.50778792  1
  Na  Na1  1  0.02779588  0.02182018  0.00044610  1
  Na  Na2  1  0.67162469  0.31582910  0.83498904  1
  Na  Na3  1  0.66362731  0.31545208  0.33497478  1
  Na  Na4  1  0.33528704  0.65860651  0.16339872  1
  Na  Na5  1  0.35811228  0.67761257  0.67179396  1
  Ca  Ca6  1  0.98385199  0.98965714  0.64734517  1
  Ca  Ca7  1  0.00923492  0.00883666  0.14336434  1
  Ca  Ca8  1  0.34032272  0.67569182  0.31742476  1
  Zr  Zr9  1  0.98933211  0.99891001  0.35340841  1
  Zr  Zr10  1  0.99836452  0.01428372  0.85436709  1
  Zr  Zr11  1  0.66584249  0.33464355  0.68829913  1
  Zr  Zr12  1  0.65594969  0.33428146  0.18272210  1
  Zr  Zr13  1  0.65414593  0.32170837  0.97610810  1
  Zr  Zr14  1  0.66943499  0.33648059  0.48208095  1
  Zr  Zr15  1  0.32130610  0.65502494  0.01691211  1
  Zr  Zr16  1  0.35595437  0.67564034  0.52045115  1
  Zr  Zr17  1  0.33271281  0.67826751  0.81754700  1
  Si  Si18  1  0.70136251  0.99654101  0.74934464  1
  Si  Si19  1  0.67060436  0.62531906  0.58255960  1
  Si  Si20  1  0.37476565  0.34006913  0.07982570  1
  Si  Si21  1  0.03926066  0.37685476  0.91612712  1
  Si  Si22  1  0.32434157  0.95439875  0.91771460  1
  Si  Si23  1  0.62880970  0.96728245  0.41542080  1
  S  S24  1  0.29472474  0.00393618  0.24984258  1
  S  S25  1  0.71028963  0.70365596  0.24929219  1
  S  S26  1  0.99523264  0.29257225  0.24985091  1
  S  S27  1  0.29451120  0.29611342  0.75007045  1
  S  S28  1  0.00036591  0.70532466  0.75062692  1
  S  S29  1  0.96008395  0.34094783  0.58214796  1
  S  S30  1  0.37985514  0.04304030  0.58237535  1
  S  S31  1  0.95443592  0.61689637  0.08215579  1
  S  S32  1  0.66064419  0.04268940  0.08283248  1
  S  S33  1  0.62370029  0.66781290  0.91678340  1
  S  S34  1  0.33149494  0.36839418  0.41731705  1
  S  S35  1  0.03912328  0.66824191  0.41707884  1
  O  O36  1  0.21220027  0.02681019  0.30129396  1
  O  O37  1  0.81703198  0.79016685  0.30129566  1
  O  O38  1  0.97553900  0.18251718  0.30189187  1
  O  O39  1  0.21319815  0.18605210  0.80082909  1
  O  O40  1  0.97551943  0.78557843  0.80072971  1
  O  O41  1  0.82380955  0.02407294  0.80539786  1
  O  O42  1  0.77438779  0.96584895  0.69302657  1
  O  O43  1  0.19794377  0.22280692  0.69893234  1
  O  O44  1  0.03227760  0.80465319  0.69918183  1
  O  O45  1  0.79067703  0.80471212  0.19920254  1
  O  O46  1  0.01442185  0.21166748  0.20000603  1
  O  O47  1  0.19672813  0.98859755  0.19933445  1
  O  O48  1  0.87609839  0.35908256  0.63325188  1
  O  O49  1  0.48477444  0.11990867  0.63361859  1
  O  O50  1  0.64577712  0.50467163  0.63821739  1
  O  O51  1  0.87206853  0.51085103  0.13494917  1
  O  O52  1  0.64435685  0.13155585  0.13452455  1
  O  O53  1  0.49395652  0.35878724  0.13856105  1
  O  O54  1  0.48685675  0.32954899  0.02798747  1
  O  O55  1  0.85435749  0.52956286  0.03223752  1
  O  O56  1  0.68364235  0.14877714  0.03217533  1
  O  O57  1  0.46999569  0.14450378  0.53142068  1
  O  O58  1  0.67214603  0.51586453  0.52759829  1
  O  O59  1  0.85224075  0.31898693  0.53148428  1
  O  O60  1  0.54446819  0.69279012  0.96765543  1
  O  O61  1  0.15973039  0.46258247  0.97240375  1
  O  O62  1  0.30873457  0.84078022  0.97378060  1
  O  O63  1  0.53717966  0.84163758  0.47163631  1
  O  O64  1  0.30234171  0.44922754  0.46729678  1
  O  O65  1  0.14506512  0.69243841  0.46735402  1
  O  O66  1  0.10613026  0.63503584  0.36615931  1
  O  O67  1  0.52304911  0.89442109  0.35970259  1
  O  O68  1  0.36134230  0.46882892  0.36606606  1
  O  O69  1  0.13408504  0.49001359  0.86087986  1
  O  O70  1  0.36082692  0.86948099  0.86275762  1
  O  O71  1  0.51844477  0.64040568  0.86616316  1
  O  O72  1  0.02300705  0.82555326  0.40998486  1
  O  O73  1  0.82224965  0.98351893  0.40813920  1
  O  O74  1  0.17756545  0.19373967  0.41126791  1
  O  O75  1  0.01788691  0.18592144  0.91026537  1
  O  O76  1  0.15522030  0.96978837  0.90800994  1
  O  O77  1  0.79479325  0.81989997  0.91023683  1
  O  O78  1  0.98363214  0.19353220  0.58474427  1
  O  O79  1  0.21435744  0.03070640  0.58547122  1
  O  O80  1  0.83465189  0.80941213  0.57967771  1
  O  O81  1  0.96911855  0.78410030  0.08714232  1
  O  O82  1  0.80991804  0.02289467  0.08770034  1
  O  O83  1  0.19155475  0.17258971  0.08153238  1
  O  O84  1  0.68150528  0.17157377  0.74310512  1
  O  O85  1  0.46916421  0.31275532  0.74580234  1
  O  O86  1  0.84273352  0.53015132  0.74485203  1
  O  O87  1  0.70207287  0.53211000  0.24644164  1
  O  O88  1  0.83553444  0.30294804  0.24721985  1
  O  O89  1  0.47048565  0.16390452  0.24543513  1
  O  O90  1  0.64373813  0.51555674  0.92302848  1
  O  O91  1  0.85419403  0.36160940  0.92507915  1
  O  O92  1  0.49461516  0.14577175  0.92340087  1
  O  O93  1  0.66171549  0.15889279  0.42756840  1
  O  O94  1  0.48124399  0.34493371  0.42608317  1
  O  O95  1  0.86274030  0.52036819  0.42530077  1
  O  O96  1  0.36986936  0.51930323  0.07813442  1
  O  O97  1  0.12670753  0.63270594  0.07986404  1
  O  O98  1  0.50190581  0.87608896  0.07978642  1
  O  O99  1  0.36051437  0.86860725  0.57620620  1
  O  O100  1  0.48869945  0.63310918  0.57617435  1
  O  O101  1  0.12641905  0.50162129  0.57462611  1
  O  O102  1  0.31657399  0.85473779  0.25447234  1
  O  O103  1  0.53735952  0.67506596  0.25575844  1
  O  O104  1  0.14453715  0.46271707  0.25679655  1
  O  O105  1  0.31921359  0.46888641  0.75865968  1
  O  O106  1  0.14764312  0.67587304  0.75822142  1
  O  O107  1  0.50907224  0.82996690  0.76001994  1
