# generated using pymatgen
data_Na6NbIn3Si2(PO6)4
_symmetry_space_group_name_H-M   'P 1'
_cell_length_a   15.83335783
_cell_length_b   9.13275357
_cell_length_c   9.15501542
_cell_angle_alpha   90.04191374
_cell_angle_beta   125.15129524
_cell_angle_gamma   89.96524276
_symmetry_Int_Tables_number   1
_chemical_formula_structural   Na6NbIn3Si2(PO6)4
_chemical_formula_sum   'Na12 Nb2 In6 Si4 P8 O48'
_cell_volume   1082.41295679
_cell_formula_units_Z   2
loop_
 _symmetry_equiv_pos_site_id
 _symmetry_equiv_pos_as_xyz
  1  'x, y, z'
loop_
 _atom_site_type_symbol
 _atom_site_label
 _atom_site_symmetry_multiplicity
 _atom_site_fract_x
 _atom_site_fract_y
 _atom_site_fract_z
 _atom_site_occupancy
  Na  Na0  1  0.25021710  0.75149927  0.99617068  1
  Na  Na1  1  0.74499209  0.75470394  0.48606186  1
  Na  Na2  1  0.75021710  0.25149927  0.99617068  1
  Na  Na3  1  0.24499209  0.25470394  0.48606186  1
  Na  Na4  1  0.49816819  0.09004878  0.73583849  1
  Na  Na5  1  0.50519019  0.88352429  0.24969954  1
  Na  Na6  1  0.99816819  0.59004878  0.73583849  1
  Na  Na7  1  0.00519019  0.38352429  0.24969954  1
  Na  Na8  1  0.19020517  0.93076196  0.29011787  1
  Na  Na9  1  0.80859349  0.07807453  0.71167767  1
  Na  Na10  1  0.69020517  0.43076196  0.29011787  1
  Na  Na11  1  0.30859349  0.57807453  0.71167767  1
  Nb  Nb12  1  0.89659930  0.74639290  0.94361276  1
  Nb  Nb13  1  0.39659930  0.24639290  0.94361276  1
  In  In14  1  0.10107178  0.75564840  0.55690720  1
  In  In15  1  0.89759664  0.24497319  0.44005052  1
  In  In16  1  0.10313020  0.25041232  0.05159016  1
  In  In17  1  0.60107178  0.25564840  0.55690720  1
  In  In18  1  0.39759664  0.74497319  0.44005052  1
  In  In19  1  0.60313020  0.75041232  0.05159016  1
  Si  Si20  1  0.35100107  0.90003075  0.75363840  1
  Si  Si21  1  0.65277586  0.10132676  0.25347566  1
  Si  Si22  1  0.85100107  0.40003075  0.75363840  1
  Si  Si23  1  0.15277586  0.60132676  0.25347566  1
  P  P24  1  0.00111531  0.94907698  0.75982014  1
  P  P25  1  0.99763850  0.04622856  0.24646176  1
  P  P26  1  0.50111531  0.44907698  0.75982014  1
  P  P27  1  0.49763850  0.54622856  0.24646176  1
  P  P28  1  0.64769363  0.89459791  0.73876334  1
  P  P29  1  0.35456804  0.10282545  0.25769908  1
  P  P30  1  0.14769363  0.39459791  0.73876334  1
  P  P31  1  0.85456804  0.60282545  0.25769908  1
  O  O32  1  0.15555149  0.56435601  0.74206501  1
  O  O33  1  0.84583063  0.58405073  0.77365207  1
  O  O34  1  0.85217647  0.43448642  0.23618648  1
  O  O35  1  0.15540650  0.42389826  0.24494563  1
  O  O36  1  0.65555149  0.06435601  0.74206501  1
  O  O37  1  0.34583063  0.08405073  0.77365207  1
  O  O38  1  0.35217647  0.93448642  0.23618648  1
  O  O39  1  0.65540650  0.92389826  0.24494563  1
  O  O40  1  0.43259283  0.54956383  0.59725804  1
  O  O41  1  0.57099107  0.53358008  0.93536420  1
  O  O42  1  0.55696716  0.45251667  0.41483263  1
  O  O43  1  0.43734879  0.44515354  0.07615294  1
  O  O44  1  0.93259283  0.04956383  0.59725804  1
  O  O45  1  0.07099107  0.03358008  0.93536420  1
  O  O46  1  0.05696716  0.95251667  0.41483263  1
  O  O47  1  0.93734879  0.94515354  0.07615294  1
  O  O48  1  0.25610234  0.82377164  0.74594659  1
  O  O49  1  0.74761203  0.83441080  0.76131977  1
  O  O50  1  0.73616833  0.19436722  0.24016150  1
  O  O51  1  0.25846258  0.15597758  0.24626946  1
  O  O52  1  0.75610234  0.32377164  0.74594659  1
  O  O53  1  0.24761203  0.33441080  0.76131977  1
  O  O54  1  0.23616833  0.69436722  0.24016150  1
  O  O55  1  0.75846258  0.65597758  0.24626946  1
  O  O56  1  0.35368807  0.88487203  0.57663907  1
  O  O57  1  0.64401101  0.85333790  0.89646640  1
  O  O58  1  0.65764464  0.14195512  0.43054000  1
  O  O59  1  0.35906405  0.16819465  0.10099844  1
  O  O60  1  0.85368807  0.38487203  0.57663907  1
  O  O61  1  0.14401101  0.35333790  0.89646640  1
  O  O62  1  0.15764464  0.64195512  0.43054000  1
  O  O63  1  0.85906405  0.66819465  0.10099844  1
  O  O64  1  0.45656253  0.84136013  0.93391383  1
  O  O65  1  0.55330651  0.83591839  0.55839013  1
  O  O66  1  0.53389021  0.16782924  0.08148946  1
  O  O67  1  0.45174621  0.15235489  0.43705861  1
  O  O68  1  0.95656253  0.34136013  0.93391383  1
  O  O69  1  0.05330651  0.33591839  0.55839013  1
  O  O70  1  0.03389021  0.66782924  0.08148946  1
  O  O71  1  0.95174621  0.65235489  0.43705861  1
  O  O72  1  0.06576126  0.83246618  0.74347203  1
  O  O73  1  0.91833628  0.85608396  0.76841407  1
  O  O74  1  0.91952765  0.15193806  0.24097782  1
  O  O75  1  0.08069480  0.13743068  0.24590071  1
  O  O76  1  0.56576126  0.33246618  0.74347203  1
  O  O77  1  0.41833628  0.35608396  0.76841407  1
  O  O78  1  0.41952765  0.65193806  0.24097782  1
  O  O79  1  0.58069480  0.63743068  0.24590071  1
