# generated using pymatgen
data_Rb3TlCl6
_symmetry_space_group_name_H-M   'P 1'
_cell_length_a   7.96189573
_cell_length_b   12.61129966
_cell_length_c   13.31463385
_cell_angle_alpha   72.08653042
_cell_angle_beta   89.99997193
_cell_angle_gamma   90.00025638
_symmetry_Int_Tables_number   1
_chemical_formula_structural   Rb3TlCl6
_chemical_formula_sum   'Rb12 Tl4 Cl24'
_cell_volume   1272.10936056
_cell_formula_units_Z   4
loop_
 _symmetry_equiv_pos_site_id
 _symmetry_equiv_pos_as_xyz
  1  'x, y, z'
loop_
 _atom_site_type_symbol
 _atom_site_label
 _atom_site_symmetry_multiplicity
 _atom_site_fract_x
 _atom_site_fract_y
 _atom_site_fract_z
 _atom_site_occupancy
  Rb  Rb0  1  0.56430159  0.26260705  0.18431591  1
  Rb  Rb1  1  0.06430039  0.23739321  0.81568551  1
  Rb  Rb2  1  0.43569836  0.73739429  0.81568421  1
  Rb  Rb3  1  0.93570062  0.76260790  0.18431638  1
  Rb  Rb4  1  0.06845649  0.11577861  0.18090889  1
  Rb  Rb5  1  0.56845406  0.38422189  0.81909101  1
  Rb  Rb6  1  0.93154311  0.88422276  0.81909132  1
  Rb  Rb7  1  0.43154531  0.61577901  0.18090847  1
  Rb  Rb8  1  0.04722041  0.35810055  0.40473752  1
  Rb  Rb9  1  0.54722359  0.14190091  0.59526410  1
  Rb  Rb10  1  0.95277805  0.64189863  0.59526270  1
  Rb  Rb11  1  0.45277823  0.85809991  0.40473723  1
  Tl  Tl12  1  0.49999988  0.50000041  0.50000116  1
  Tl  Tl13  1  -0.00000175  0.00000001  0.50000006  1
  Tl  Tl14  1  0.50000196  0.00000085  -0.00000073  1
  Tl  Tl15  1  -0.00000191  0.49999961  -0.00000003  1
  Cl  Cl16  1  0.81285219  0.14962042  0.37144314  1
  Cl  Cl17  1  0.31284783  0.35038415  0.62855276  1
  Cl  Cl18  1  0.18714220  0.85036983  0.62855691  1
  Cl  Cl19  1  0.68715473  0.64961613  0.37144741  1
  Cl  Cl20  1  0.69953971  0.00653736  0.15173400  1
  Cl  Cl21  1  0.19953861  0.49346155  0.84826767  1
  Cl  Cl22  1  0.30046185  0.99346199  0.84826640  1
  Cl  Cl23  1  0.80046205  0.50653840  0.15173438  1
  Cl  Cl24  1  0.00047502  0.12316494  0.62133208  1
  Cl  Cl25  1  0.50046299  0.37683172  0.37867005  1
  Cl  Cl26  1  0.99953669  0.87683206  0.37866940  1
  Cl  Cl27  1  0.49953790  0.62316879  0.62132900  1
  Cl  Cl28  1  0.36142314  0.19031804  0.99886041  1
  Cl  Cl29  1  0.86140668  0.30968359  0.00113573  1
  Cl  Cl30  1  0.63857732  0.80968136  0.00114076  1
  Cl  Cl31  1  0.13857860  0.69031888  0.99886037  1
  Cl  Cl32  1  0.20836726  0.39383408  0.15008853  1
  Cl  Cl33  1  0.70837296  0.10616907  0.84990403  1
  Cl  Cl34  1  0.79163169  0.60616706  0.84991207  1
  Cl  Cl35  1  0.29163196  0.89383564  0.15008907  1
  Cl  Cl36  1  0.22528759  0.60407432  0.40114689  1
  Cl  Cl37  1  0.72528337  0.89592763  0.59885185  1
  Cl  Cl38  1  0.77471364  0.39592544  0.59885258  1
  Cl  Cl39  1  0.27471363  0.10407194  0.40114981  1
