# generated using pymatgen
data_P2PtO7
_symmetry_space_group_name_H-M   'P 1'
_cell_length_a   7.93751120
_cell_length_b   7.10402975
_cell_length_c   9.39894908
_cell_angle_alpha   67.02542230
_cell_angle_beta   90.00000000
_cell_angle_gamma   90.00000000
_symmetry_Int_Tables_number   1
_chemical_formula_structural   P2PtO7
_chemical_formula_sum   'P8 Pt4 O28'
_cell_volume   487.95103906
_cell_formula_units_Z   4
loop_
 _symmetry_equiv_pos_site_id
 _symmetry_equiv_pos_as_xyz
  1  'x, y, z'
loop_
 _atom_site_type_symbol
 _atom_site_label
 _atom_site_symmetry_multiplicity
 _atom_site_fract_x
 _atom_site_fract_y
 _atom_site_fract_z
 _atom_site_occupancy
  P  P0  1  0.25238276  0.34501110  0.79259784  1
  P  P1  1  0.75238276  0.65498890  0.70740216  1
  P  P2  1  0.74761724  0.65498890  0.20740216  1
  P  P3  1  0.24761724  0.34501110  0.29259784  1
  P  P4  1  0.31989198  0.93214689  0.81987952  1
  P  P5  1  0.81989198  0.06785311  0.68012048  1
  P  P6  1  0.68010802  0.06785311  0.18012048  1
  P  P7  1  0.18010802  0.93214689  0.31987952  1
  Pt  Pt8  1  0.00000000  0.50000000  0.50000000  1
  Pt  Pt9  1  0.50000000  0.50000000  0.00000000  1
  Pt  Pt10  1  0.50000000  0.00000000  0.50000000  1
  Pt  Pt11  1  0.00000000  0.00000000  0.00000000  1
  O  O12  1  0.36618790  0.14996436  0.81896865  1
  O  O13  1  0.86618790  0.85003564  0.68103135  1
  O  O14  1  0.63381210  0.85003564  0.18103135  1
  O  O15  1  0.13381210  0.14996436  0.31896865  1
  O  O16  1  0.14131186  0.87628298  0.88210427  1
  O  O17  1  0.64131186  0.12371702  0.61789573  1
  O  O18  1  0.85868814  0.12371702  0.11789573  1
  O  O19  1  0.35868814  0.87628298  0.38210427  1
  O  O20  1  0.31399051  0.94222954  0.65498367  1
  O  O21  1  0.81399051  0.05777046  0.84501633  1
  O  O22  1  0.68600949  0.05777046  0.34501633  1
  O  O23  1  0.18600949  0.94222954  0.15498367  1
  O  O24  1  0.39917569  0.27858181  0.39934645  1
  O  O25  1  0.89917569  0.72141819  0.10065355  1
  O  O26  1  0.60082431  0.72141819  0.60065355  1
  O  O27  1  0.10082431  0.27858181  0.89934645  1
  O  O28  1  0.28741430  0.44301067  0.12100909  1
  O  O29  1  0.78741430  0.55698933  0.37899091  1
  O  O30  1  0.71258570  0.55698933  0.87899091  1
  O  O31  1  0.21258570  0.44301067  0.62100909  1
  O  O32  1  0.13735492  0.49833517  0.32387046  1
  O  O33  1  0.63735492  0.50166483  0.17612954  1
  O  O34  1  0.86264508  0.50166483  0.67612954  1
  O  O35  1  0.36264508  0.49833517  0.82387046  1
  O  O36  1  0.03915612  0.80150215  0.42049223  1
  O  O37  1  0.53915612  0.19849785  0.07950777  1
  O  O38  1  0.96084388  0.19849785  0.57950777  1
  O  O39  1  0.46084388  0.80150215  0.92049223  1
