# generated using pymatgen
data_Na2AlGaP2SO12
_symmetry_space_group_name_H-M   'P 1'
_cell_length_a   8.55870502
_cell_length_b   8.56316648
_cell_length_c   21.80562692
_cell_angle_alpha   90.31219267
_cell_angle_beta   89.67450301
_cell_angle_gamma   119.95258572
_symmetry_Int_Tables_number   1
_chemical_formula_structural   Na2AlGaP2SO12
_chemical_formula_sum   'Na12 Al6 Ga6 P12 S6 O72'
_cell_volume   1384.64987488
_cell_formula_units_Z   6
loop_
 _symmetry_equiv_pos_site_id
 _symmetry_equiv_pos_as_xyz
  1  'x, y, z'
loop_
 _atom_site_type_symbol
 _atom_site_label
 _atom_site_symmetry_multiplicity
 _atom_site_fract_x
 _atom_site_fract_y
 _atom_site_fract_z
 _atom_site_occupancy
  Na  Na0  1  0.99645667  0.63049802  0.25200132  1
  Na  Na1  1  0.36793357  0.00281275  0.75215657  1
  Na  Na2  1  0.66461540  0.96764674  0.58505328  1
  Na  Na3  1  0.03357490  0.33729916  0.08516238  1
  Na  Na4  1  0.33038166  0.29868454  0.91850070  1
  Na  Na5  1  0.70213435  0.66863851  0.41817146  1
  Na  Na6  1  0.01678262  0.00055378  0.50039899  1
  Na  Na7  1  -0.00049147  0.98285781  0.00007104  1
  Na  Na8  1  0.68379822  0.33379116  0.83415635  1
  Na  Na9  1  0.66610724  0.31569214  0.33332098  1
  Na  Na10  1  0.35004436  0.66716645  0.16622743  1
  Na  Na11  1  0.33311139  0.64892628  0.66736242  1
  Al  Al12  1  0.00187492  0.01017778  0.85285720  1
  Al  Al13  1  0.00058751  0.99746866  0.14717867  1
  Al  Al14  1  0.66918802  0.33307753  0.98135478  1
  Al  Al15  1  0.32316632  0.66450471  0.01746604  1
  Al  Al16  1  0.33462493  0.67531137  0.51832125  1
  Al  Al17  1  0.33262086  0.66481341  0.81594287  1
  Ga  Ga18  1  0.98910823  0.99825514  0.35203165  1
  Ga  Ga19  1  0.00202811  0.99959560  0.64993826  1
  Ga  Ga20  1  0.65443372  0.33052868  0.68498192  1
  Ga  Ga21  1  0.66909665  0.34446715  0.18323849  1
  Ga  Ga22  1  0.66746451  0.33111337  0.48210107  1
  Ga  Ga23  1  0.33599711  0.66612520  0.31425684  1
  P  P24  1  0.70788762  0.71327791  0.24895493  1
  P  P25  1  0.99868437  0.28508344  0.24809334  1
  P  P26  1  0.28695981  0.29555615  0.75178407  1
  P  P27  1  0.71157299  0.99770812  0.75103114  1
  P  P28  1  0.37001480  0.03981086  0.58309884  1
  P  P29  1  0.66364980  0.62215370  0.58234771  1
  P  P30  1  0.95696398  0.62877880  0.08193385  1
  P  P31  1  0.37830505  0.33439054  0.08129785  1
  P  P32  1  0.04008502  0.37961130  0.91675716  1
  P  P33  1  0.33300029  0.95278995  0.91621576  1
  P  P34  1  0.61975699  0.95925656  0.41732553  1
  P  P35  1  0.04793407  0.66722641  0.41635875  1
  S  S36  1  0.29170005  0.00627089  0.24923523  1
  S  S37  1  0.99764773  0.70769631  0.75246171  1
  S  S38  1  0.96459397  0.34110299  0.58353689  1
  S  S39  1  0.66051369  0.03790690  0.08239051  1
  S  S40  1  0.62519090  0.67204592  0.91703119  1
  S  S41  1  0.32851709  0.37508267  0.41788759  1
  O  O42  1  0.21343986  0.03263726  0.30577137  1
  O  O43  1  0.82227393  0.78393668  0.30853843  1
  O  O44  1  0.97241223  0.17617390  0.30624909  1
  O  O45  1  0.20470875  0.17147929  0.80849814  1
  O  O46  1  0.97211302  0.79554624  0.80643215  1
  O  O47  1  0.83159489  0.02260085  0.80583818  1
  O  O48  1  0.78521424  0.96486954  0.69024878  1
  O  O49  1  0.17437258  0.21061916  0.69424032  1
  O  O50  1  0.03714713  0.81894714  0.69648496  1
  O  O51  1  0.80610896  0.83175877  0.19390475  1
  O  O52  1  0.02582401  0.19962981  0.18951728  1
  O  O53  1  0.17611664  0.97479835  0.19506759  1
  O  O54  1  0.88491396  0.37114380  0.63912462  1
  O  O55  1  0.49032146  0.11339913  0.64161993  1
  O  O56  1  0.63478139  0.50755205  0.63933412  1
  O  O57  1  0.88755728  0.50953741  0.14070855  1
  O  O58  1  0.62838924  0.11399517  0.13836147  1
  O  O59  1  0.49160736  0.36612470  0.13875003  1
  O  O60  1  0.46340486  0.30306106  0.02332024  1
  O  O61  1  0.83344276  0.53143774  0.02765477  1
  O  O62  1  0.69787602  0.15769652  0.02889599  1
  O  O63  1  0.46063775  0.16006502  0.52779199  1
  O  O64  1  0.69857287  0.54462156  0.52325017  1
  O  O65  1  0.84790957  0.30122485  0.52912149  1
  O  O66  1  0.54235487  0.69954328  0.97208398  1
  O  O67  1  0.16185469  0.45764556  0.97436005  1
  O  O68  1  0.30643032  0.83536826  0.97201694  1
  O  O69  1  0.53742180  0.83894445  0.47470949  1
  O  O70  1  0.30584602  0.46270759  0.47246756  1
  O  O71  1  0.16419006  0.68875977  0.47183277  1
  O  O72  1  0.12243653  0.63552929  0.35565948  1
  O  O73  1  0.50791497  0.87260200  0.35991296  1
  O  O74  1  0.36498538  0.48542827  0.36198295  1
  O  O75  1  0.13365968  0.49877412  0.86127530  1
  O  O76  1  0.36382399  0.87132449  0.85727338  1
  O  O77  1  0.50917598  0.63526880  0.86258084  1
  O  O78  1  0.02775366  0.83822978  0.41212324  1
  O  O79  1  0.80912100  0.97520605  0.41313113  1
  O  O80  1  0.16765544  0.19594633  0.41261587  1
  O  O81  1  0.02185511  0.18946370  0.90941776  1
  O  O82  1  0.16376790  0.97634516  0.90935377  1
  O  O83  1  0.80532994  0.83084224  0.90937547  1
  O  O84  1  0.98078343  0.17691546  0.58866949  1
  O  O85  1  0.18408614  0.02138751  0.59081405  1
  O  O86  1  0.82888856  0.81579463  0.58837825  1
  O  O87  1  0.97490693  0.81443667  0.09115377  1
  O  O88  1  0.82633267  0.02336787  0.08823906  1
  O  O89  1  0.18484234  0.16769671  0.08867952  1
  O  O90  1  0.69077357  0.16834773  0.74570019  1
  O  O91  1  0.47618585  0.31084130  0.74644913  1
  O  O92  1  0.83750916  0.52870743  0.74606256  1
  O  O93  1  0.68878230  0.52331493  0.24367028  1
  O  O94  1  0.82956149  0.30792118  0.24286697  1
  O  O95  1  0.47231277  0.16405522  0.24274210  1
  O  O96  1  0.64163809  0.50730904  0.92292624  1
  O  O97  1  0.85298362  0.35931645  0.92571140  1
  O  O98  1  0.49907896  0.14687635  0.92361845  1
  O  O99  1  0.64080657  0.14676749  0.42374019  1
  O  O100  1  0.49221878  0.35757942  0.42249170  1
  O  O101  1  0.85350643  0.50252015  0.42182251  1
  O  O102  1  0.35421154  0.50234189  0.07378447  1
  O  O103  1  0.14662285  0.64810003  0.07382192  1
  O  O104  1  0.50352846  0.85761719  0.07356570  1
  O  O105  1  0.35298314  0.85177016  0.57539322  1
  O  O106  1  0.49443147  0.64348213  0.57523732  1
  O  O107  1  0.14383957  0.49975591  0.57510099  1
  O  O108  1  0.30509693  0.83977257  0.25270632  1
  O  O109  1  0.52192435  0.69675019  0.25496097  1
  O  O110  1  0.16572592  0.47888623  0.25278921  1
  O  O111  1  0.30872882  0.48261870  0.76069239  1
  O  O112  1  0.16165701  0.69038507  0.75873082  1
  O  O113  1  0.51801613  0.83292389  0.75858941  1
