# generated using pymatgen
data_RbGaBP2HO9
_symmetry_space_group_name_H-M   'P 1'
_cell_length_a   8.36745458
_cell_length_b   9.34892185
_cell_length_c   9.55395225
_cell_angle_alpha   77.05441417
_cell_angle_beta   90.00000000
_cell_angle_gamma   90.00000000
_symmetry_Int_Tables_number   1
_chemical_formula_structural   RbGaBP2HO9
_chemical_formula_sum   'Rb4 Ga4 B4 P8 H4 O36'
_cell_volume   728.37814767
_cell_formula_units_Z   4
loop_
 _symmetry_equiv_pos_site_id
 _symmetry_equiv_pos_as_xyz
  1  'x, y, z'
loop_
 _atom_site_type_symbol
 _atom_site_label
 _atom_site_symmetry_multiplicity
 _atom_site_fract_x
 _atom_site_fract_y
 _atom_site_fract_z
 _atom_site_occupancy
  Rb  Rb0  1  0.89338036  0.31013055  0.06030132  1
  Rb  Rb1  1  0.39338036  0.68986945  0.43969868  1
  Rb  Rb2  1  0.10661964  0.68986945  0.93969868  1
  Rb  Rb3  1  0.60661964  0.31013055  0.56030132  1
  Ga  Ga4  1  0.84511232  0.70365398  0.56541703  1
  Ga  Ga5  1  0.15488768  0.29634602  0.43458297  1
  Ga  Ga6  1  0.65488768  0.70365398  0.06541703  1
  Ga  Ga7  1  0.34511232  0.29634602  0.93458297  1
  B  B8  1  0.55534218  0.16608994  0.19807426  1
  B  B9  1  0.05534218  0.83391006  0.30192574  1
  B  B10  1  0.44465782  0.83391006  0.80192574  1
  B  B11  1  0.94465782  0.16608994  0.69807426  1
  P  P12  1  0.43764715  0.42919464  0.20846374  1
  P  P13  1  0.06235285  0.42919464  0.70846374  1
  P  P14  1  0.56235285  0.57080536  0.79153626  1
  P  P15  1  0.93764715  0.57080536  0.29153626  1
  P  P16  1  0.23629815  0.08267281  0.22246979  1
  P  P17  1  0.26370185  0.08267281  0.72246979  1
  P  P18  1  0.76370185  0.91732719  0.77753021  1
  P  P19  1  0.73629815  0.91732719  0.27753021  1
  H  H20  1  0.56759470  0.10488972  0.00171522  1
  H  H21  1  0.06759470  0.89511028  0.49828478  1
  H  H22  1  0.43240530  0.89511028  -0.00171522  1
  H  H23  1  0.93240530  0.10488972  0.50171522  1
  O  O24  1  0.33980874  0.41933817  0.07682091  1
  O  O25  1  0.83980874  0.58066183  0.42317909  1
  O  O26  1  0.66019126  0.58066183  0.92317909  1
  O  O27  1  0.16019126  0.41933817  0.57682091  1
  O  O28  1  0.12778374  0.14977982  0.31728540  1
  O  O29  1  0.62778374  0.85022018  0.18271460  1
  O  O30  1  0.15852447  0.39787796  0.84751209  1
  O  O31  1  0.87221626  0.85022018  0.68271460  1
  O  O32  1  0.95488926  0.19076141  0.53896462  1
  O  O33  1  0.45488926  0.80923859  0.96103538  1
  O  O34  1  0.04511074  0.80923859  0.46103538  1
  O  O35  1  0.54511074  0.19076141  0.03896462  1
  O  O36  1  0.92483082  0.31114585  0.72892135  1
  O  O37  1  0.42483082  0.68885415  0.77107865  1
  O  O38  1  0.07516918  0.68885415  0.27107865  1
  O  O39  1  0.57516918  0.31114585  0.22892135  1
  O  O40  1  0.29979762  0.91537457  0.75013583  1
  O  O41  1  0.79979762  0.08462543  0.74986417  1
  O  O42  1  0.70020238  0.08462543  0.24986417  1
  O  O43  1  0.20020238  0.91537457  0.25013583  1
  O  O44  1  0.28608264  0.14975570  0.56443301  1
  O  O45  1  0.78608264  0.85024430  0.93556699  1
  O  O46  1  0.71391736  0.85024430  0.43556699  1
  O  O47  1  0.21391736  0.14975570  0.06443301  1
  O  O48  1  0.01448140  0.42202968  0.30242977  1
  O  O49  1  0.51448140  0.57797032  0.19757023  1
  O  O50  1  0.98551860  0.57797032  0.69757023  1
  O  O51  1  0.48551860  0.42202968  0.80242977  1
  O  O52  1  0.08632684  0.08849957  0.76805028  1
  O  O53  1  0.58632684  0.91150043  0.73194972  1
  O  O54  1  0.91367316  0.91150043  0.23194972  1
  O  O55  1  0.41367316  0.08849957  0.26805028  1
  O  O56  1  0.34147553  0.39787796  0.34751209  1
  O  O57  1  0.84147553  0.60212204  0.15248791  1
  O  O58  1  0.65852447  0.60212204  0.65248791  1
  O  O59  1  0.37221626  0.14977982  0.81728540  1
