# generated using pymatgen
data_MgScMo3O8
_symmetry_space_group_name_H-M   'P 1'
_cell_length_a   6.19656053
_cell_length_b   6.43371751
_cell_length_c   5.45971802
_cell_angle_alpha   67.09568645
_cell_angle_beta   90.67799214
_cell_angle_gamma   119.29941018
_symmetry_Int_Tables_number   1
_chemical_formula_structural   MgScMo3O8
_chemical_formula_sum   'Mg1 Sc1 Mo3 O8'
_cell_volume   170.47400862
_cell_formula_units_Z   1
loop_
 _symmetry_equiv_pos_site_id
 _symmetry_equiv_pos_as_xyz
  1  'x, y, z'
loop_
 _atom_site_type_symbol
 _atom_site_label
 _atom_site_symmetry_multiplicity
 _atom_site_fract_x
 _atom_site_fract_y
 _atom_site_fract_z
 _atom_site_occupancy
  Mg  Mg0  1  0.55564636  0.11065589  0.79843540  1
  Sc  Sc1  1  0.27310905  0.54357497  0.60893123  1
  Mo  Mo2  1  0.84755486  0.69635663  0.23926199  1
  Mo  Mo3  1  0.84044126  0.17384277  0.27409109  1
  Mo  Mo4  1  0.33335416  0.17283087  0.27004497  1
  O  O5  1  0.46030482  0.93702081  0.53412459  1
  O  O6  1  0.69870197  0.42072707  0.05186868  1
  O  O7  1  0.71321113  0.92995474  0.06579270  1
  O  O8  1  0.21907978  0.93125883  0.06457968  1
  O  O9  1  0.92627425  0.40328560  0.51127381  1
  O  O10  1  0.96943552  0.91187922  0.47771851  1
  O  O11  1  0.21111691  0.40102482  0.01118510  1
  O  O12  1  0.47468293  0.40091679  0.50680225  1
