# generated using pymatgen
data_K2Na2Nd2MgNb2O10
_symmetry_space_group_name_H-M   'P 1'
_cell_length_a   5.95361842
_cell_length_b   5.95214107
_cell_length_c   8.72299166
_cell_angle_alpha   89.66900006
_cell_angle_beta   89.90346211
_cell_angle_gamma   86.69533757
_symmetry_Int_Tables_number   1
_chemical_formula_structural   K2Na2Nd2MgNb2O10
_chemical_formula_sum   'K2 Na2 Nd2 Mg1 Nb2 O10'
_cell_volume   308.59525748
_cell_formula_units_Z   1
loop_
 _symmetry_equiv_pos_site_id
 _symmetry_equiv_pos_as_xyz
  1  'x, y, z'
loop_
 _atom_site_type_symbol
 _atom_site_label
 _atom_site_symmetry_multiplicity
 _atom_site_fract_x
 _atom_site_fract_y
 _atom_site_fract_z
 _atom_site_occupancy
  K  K0  1  0.14116557  0.74812921  0.04227787  1
  K  K1  1  0.75277708  0.36259390  0.04875074  1
  Na  Na2  1  0.21076351  0.28522320  0.73712428  1
  Na  Na3  1  0.74968451  0.75281179  0.28071687  1
  Nd  Nd4  1  0.28637272  0.77039489  0.51559688  1
  Nd  Nd5  1  0.72854579  0.21236438  0.51607926  1
  Mg  Mg6  1  0.50170151  0.00664465  0.90886396  1
  Nb  Nb7  1  0.25549806  0.24630678  0.26179890  1
  Nb  Nb8  1  0.79079000  0.70592514  0.71300887  1
  O  O9  1  0.98929100  0.95730249  0.67449517  1
  O  O10  1  0.53973563  0.50887315  0.67460695  1
  O  O11  1  0.72223876  0.77790467  0.95205358  1
  O  O12  1  0.48759276  0.01282340  0.35478603  1
  O  O13  1  0.46678083  0.46074670  0.34416252  1
  O  O14  1  0.31122015  0.19146051  0.04427505  1
  O  O15  1  0.50103563  0.99666635  0.69140067  1
  O  O16  1  0.98953342  0.50877810  0.58906145  1
  O  O17  1  0.03889773  0.03632048  0.34420778  1
  O  O18  1  0.02595833  0.47956320  0.25204516  1
