# generated using pymatgen
data_NaGa3Te5
_symmetry_space_group_name_H-M   'P 1'
_cell_length_a   10.43125090
_cell_length_b   10.43125090
_cell_length_c   10.43125110
_cell_angle_alpha   90.38524418
_cell_angle_beta   90.38524418
_cell_angle_gamma   90.38524085
_symmetry_Int_Tables_number   1
_chemical_formula_structural   NaGa3Te5
_chemical_formula_sum   'Na4 Ga12 Te20'
_cell_volume   1134.95749762
_cell_formula_units_Z   4
loop_
 _symmetry_equiv_pos_site_id
 _symmetry_equiv_pos_as_xyz
  1  'x, y, z'
loop_
 _atom_site_type_symbol
 _atom_site_label
 _atom_site_symmetry_multiplicity
 _atom_site_fract_x
 _atom_site_fract_y
 _atom_site_fract_z
 _atom_site_occupancy
  Na  Na0  1  0.25557868  -0.00000000  0.74442132  1
  Na  Na1  1  0.74442132  0.25557868  0.00000000  1
  Na  Na2  1  0.00000000  0.74442132  0.25557868  1
  Na  Na3  1  0.50000000  0.50000000  0.50000000  1
  Ga  Ga4  1  0.83861040  0.87751302  0.57296044  1
  Ga  Ga5  1  0.57296044  0.83861040  0.87751302  1
  Ga  Ga6  1  0.87751302  0.57296044  0.83861040  1
  Ga  Ga7  1  0.16138960  0.42703956  0.12248698  1
  Ga  Ga8  1  0.12248698  0.16138960  0.42703956  1
  Ga  Ga9  1  0.42703956  0.12248698  0.16138960  1
  Ga  Ga10  1  0.74723869  0.16584602  0.34296636  1
  Ga  Ga11  1  0.34296636  0.74723869  0.16584602  1
  Ga  Ga12  1  0.16584602  0.34296636  0.74723869  1
  Ga  Ga13  1  0.25276131  0.65703364  0.83415398  1
  Ga  Ga14  1  0.83415398  0.25276131  0.65703364  1
  Ga  Ga15  1  0.65703364  0.83415398  0.25276131  1
  Te  Te16  1  0.17416135  0.82583865  0.00000000  1
  Te  Te17  1  0.82583865  0.00000000  0.17416135  1
  Te  Te18  1  0.17395165  0.17395165  0.17395165  1
  Te  Te19  1  0.82604835  0.82604835  0.82604835  1
  Te  Te20  1  -0.00000000  0.17416135  0.82583865  1
  Te  Te21  1  0.92270132  0.50000000  0.07729868  1
  Te  Te22  1  0.07729868  0.92270132  0.50000000  1
  Te  Te23  1  0.50000000  0.07729868  0.92270132  1
  Te  Te24  1  0.74991475  0.68689157  0.43042262  1
  Te  Te25  1  0.43042262  0.74991475  0.68689157  1
  Te  Te26  1  0.68689157  0.43042262  0.74991475  1
  Te  Te27  1  0.25008525  0.56957738  0.31310843  1
  Te  Te28  1  0.31310843  0.25008525  0.56957738  1
  Te  Te29  1  0.56957738  0.31310843  0.25008525  1
  Te  Te30  1  0.67441658  0.07018487  0.57011278  1
  Te  Te31  1  0.57011278  0.67441658  0.07018487  1
  Te  Te32  1  0.07018487  0.57011278  0.67441658  1
  Te  Te33  1  0.32558342  0.42988722  0.92981513  1
  Te  Te34  1  0.92981513  0.32558342  0.42988722  1
  Te  Te35  1  0.42988722  0.92981513  0.32558342  1
