# generated using pymatgen
data_MgV2(FeO4)2
_symmetry_space_group_name_H-M   'P 1'
_cell_length_a   5.29216535
_cell_length_b   5.29321368
_cell_length_c   6.47234568
_cell_angle_alpha   90.02774679
_cell_angle_beta   90.02949645
_cell_angle_gamma   114.77548847
_symmetry_Int_Tables_number   1
_chemical_formula_structural   MgV2(FeO4)2
_chemical_formula_sum   'Mg1 V2 Fe2 O8'
_cell_volume   164.61884655
_cell_formula_units_Z   1
loop_
 _symmetry_equiv_pos_site_id
 _symmetry_equiv_pos_as_xyz
  1  'x, y, z'
loop_
 _atom_site_type_symbol
 _atom_site_label
 _atom_site_symmetry_multiplicity
 _atom_site_fract_x
 _atom_site_fract_y
 _atom_site_fract_z
 _atom_site_occupancy
  Mg  Mg0  1  0.34441900  0.66145200  0.25000000  1
  V  V1  1  0.65253100  0.34924500  0.24999600  1
  V  V2  1  0.35615400  0.64368900  0.75000300  1
  Fe  Fe3  1  0.99859200  0.00297500  0.50626000  1
  Fe  Fe4  1  0.99847800  0.00289400  0.99375300  1
  O  O5  1  0.72021300  0.77861200  0.75019900  1
  O  O6  1  0.27507200  0.23988500  0.24977500  1
  O  O7  1  0.76455700  0.72764400  0.25023200  1
  O  O8  1  0.22010900  0.27893100  0.74980200  1
  O  O9  1  0.24604900  0.75402100  0.97497900  1
  O  O10  1  0.76379700  0.23446900  0.45706400  1
  O  O11  1  0.24603100  0.75399800  0.52502100  1
  O  O12  1  0.76400300  0.23468500  0.04291800  1
