# generated using pymatgen
data_ScTa3Si3(SO8)3
_symmetry_space_group_name_H-M   'P 1'
_cell_length_a   8.89457280
_cell_length_b   8.90622017
_cell_length_c   22.90809769
_cell_angle_alpha   89.69173828
_cell_angle_beta   89.68886518
_cell_angle_gamma   119.99790699
_symmetry_Int_Tables_number   1
_chemical_formula_structural   ScTa3Si3(SO8)3
_chemical_formula_sum   'Sc3 Ta9 Si9 S9 O72'
_cell_volume   1571.52741364
_cell_formula_units_Z   3
loop_
 _symmetry_equiv_pos_site_id
 _symmetry_equiv_pos_as_xyz
  1  'x, y, z'
loop_
 _atom_site_type_symbol
 _atom_site_label
 _atom_site_symmetry_multiplicity
 _atom_site_fract_x
 _atom_site_fract_y
 _atom_site_fract_z
 _atom_site_occupancy
  Sc  Sc0  1  0.00247676  0.00994133  0.36053828  1
  Sc  Sc1  1  0.67943860  0.34618109  0.69417657  1
  Sc  Sc2  1  0.67509570  0.32880468  0.18454917  1
  Ta  Ta3  1  0.00768050  0.98635753  0.85698460  1
  Ta  Ta4  1  0.01268869  0.01479078  0.64736060  1
  Ta  Ta5  1  0.99798002  0.99494180  0.13970785  1
  Ta  Ta6  1  0.67728289  0.33869222  0.97456171  1
  Ta  Ta7  1  0.66857100  0.32233555  0.47580394  1
  Ta  Ta8  1  0.34380188  0.68767612  0.02239468  1
  Ta  Ta9  1  0.33707495  0.65527875  0.52292165  1
  Ta  Ta10  1  0.34442302  0.67033385  0.31199690  1
  Ta  Ta11  1  0.34052050  0.67078712  0.80837489  1
  Si  Si12  1  0.29081336  0.28926540  0.75237482  1
  Si  Si13  1  0.00235458  0.71213663  0.74905472  1
  Si  Si14  1  0.95100298  0.33099892  0.58466303  1
  Si  Si15  1  0.95338617  0.61289401  0.08291053  1
  Si  Si16  1  0.66709791  0.05193811  0.08371768  1
  Si  Si17  1  0.61749551  0.66711977  0.91587148  1
  Si  Si18  1  0.34071655  0.95689162  0.91525444  1
  Si  Si19  1  0.61916522  0.94995287  0.41702702  1
  Si  Si20  1  0.33792086  0.37909428  0.41692202  1
  S  S21  1  0.28628488  0.99908812  0.25063261  1
  S  S22  1  0.71461523  0.71239049  0.25025818  1
  S  S23  1  0.00227646  0.28968060  0.25042687  1
  S  S24  1  0.71641980  0.00010091  0.75093019  1
  S  S25  1  0.37821460  0.04312155  0.58321196  1
  S  S26  1  0.67074147  0.62260120  0.58311308  1
  S  S27  1  0.38026777  0.33584442  0.08335516  1
  S  S28  1  0.05074546  0.38038634  0.91634078  1
  S  S29  1  0.04907012  0.66555347  0.41722834  1
  O  O30  1  0.20223998  0.01885300  0.30246080  1
  O  O31  1  0.81722779  0.79231315  0.30174968  1
  O  O32  1  0.97652148  0.18217176  0.30214098  1
  O  O33  1  0.17963284  0.16560619  0.80754869  1
  O  O34  1  0.97578771  0.81097362  0.80643773  1
  O  O35  1  0.82146260  0.02385167  0.80277272  1
  O  O36  1  0.79643442  0.96811003  0.69711266  1
  O  O37  1  0.16030188  0.19631562  0.69368282  1
  O  O38  1  0.02917990  0.84050498  0.69222950  1
  O  O39  1  0.79591513  0.82717672  0.19726416  1
  O  O40  1  0.03457673  0.20954142  0.19778476  1
  O  O41  1  0.17491079  0.97100499  0.19772914  1
  O  O42  1  0.86452351  0.36322710  0.63954805  1
  O  O43  1  0.48227488  0.11599484  0.63419071  1
  O  O44  1  0.62859698  0.51442163  0.63460158  1
  O  O45  1  0.86881960  0.50807793  0.14190240  1
  O  O46  1  0.62919353  0.12504951  0.14172390  1
  O  O47  1  0.48098026  0.36440225  0.13600631  1
  O  O48  1  0.45316367  0.29776860  0.03128287  1
  O  O49  1  0.82930673  0.52843462  0.02625848  1
  O  O50  1  0.69907977  0.17235541  0.02611916  1
  O  O51  1  0.46002651  0.15741944  0.52948132  1
  O  O52  1  0.69379247  0.54097824  0.52999340  1
  O  O53  1  0.83073022  0.30903817  0.52577396  1
  O  O54  1  0.51886362  0.68649597  0.97332512  1
  O  O55  1  0.15343998  0.45672156  0.96902940  1
  O  O56  1  0.30302008  0.83233848  0.97331162  1
  O  O57  1  0.51498188  0.83213843  0.47346327  1
  O  O58  1  0.30942592  0.47863173  0.47263833  1
  O  O59  1  0.15682789  0.69097361  0.46915641  1
  O  O60  1  0.12785815  0.63243248  0.36371234  1
  O  O61  1  0.49024398  0.85826976  0.35919393  1
  O  O62  1  0.36339518  0.50855387  0.35960046  1
  O  O63  1  0.12621108  0.49114402  0.86391440  1
  O  O64  1  0.36469777  0.85907273  0.85985945  1
  O  O65  1  0.49466390  0.63614238  0.85958057  1
  O  O66  1  0.02845918  0.81512561  0.40840113  1
  O  O67  1  0.80252831  0.96806440  0.40655414  1
  O  O68  1  0.17383770  0.19423833  0.40716208  1
  O  O69  1  0.02221593  0.20469596  0.90797504  1
  O  O70  1  0.16819188  0.97713662  0.90812166  1
  O  O71  1  0.80541317  0.84108054  0.90540530  1
  O  O72  1  0.97388955  0.15871311  0.59245617  1
  O  O73  1  0.20204048  0.02553586  0.58916338  1
  O  O74  1  0.82099979  0.79818470  0.58994065  1
  O  O75  1  0.98224456  0.81329717  0.09638054  1
  O  O76  1  0.83974814  0.02737032  0.09673613  1
  O  O77  1  0.20112856  0.17478638  0.09411410  1
  O  O78  1  0.69115444  0.14593676  0.74264280  1
  O  O79  1  0.46846231  0.29870568  0.73914706  1
  O  O80  1  0.83553891  0.52954987  0.74407366  1
  O  O81  1  0.68211587  0.53817621  0.24121798  1
  O  O82  1  0.85204638  0.31181298  0.24318898  1
  O  O83  1  0.45806724  0.14861676  0.24213462  1
  O  O84  1  0.64169557  0.49918115  0.92895000  1
  O  O85  1  0.87390803  0.36431624  0.92395666  1
  O  O86  1  0.50538175  0.14656910  0.92962330  1
  O  O87  1  0.63296502  0.14015823  0.42695735  1
  O  O88  1  0.51413869  0.37266782  0.43087388  1
  O  O89  1  0.87346750  0.50755129  0.42563668  1
  O  O90  1  0.34826689  0.48057067  0.07302591  1
  O  O91  1  0.14366295  0.63636007  0.07004678  1
  O  O92  1  0.50597434  0.85450551  0.07269264  1
  O  O93  1  0.35270812  0.86786556  0.57078695  1
  O  O94  1  0.51262594  0.64547384  0.57281931  1
  O  O95  1  0.14397361  0.50088415  0.56940845  1
  O  O96  1  0.29984871  0.83629792  0.25832960  1
  O  O97  1  0.53585930  0.70084633  0.25731804  1
  O  O98  1  0.16151401  0.46745245  0.25890490  1
  O  O99  1  0.30119632  0.47621455  0.76196900  1
  O  O100  1  0.17792417  0.70218893  0.76202834  1
  O  O101  1  0.54287440  0.83818350  0.75661197  1
