# generated using pymatgen
data_Na2CaZrSi(SO6)2
_symmetry_space_group_name_H-M   'P 1'
_cell_length_a   9.20301638
_cell_length_b   9.23639702
_cell_length_c   23.48314170
_cell_angle_alpha   90.34333258
_cell_angle_beta   90.00000000
_cell_angle_gamma   119.88052059
_symmetry_Int_Tables_number   1
_chemical_formula_structural   Na2CaZrSi(SO6)2
_chemical_formula_sum   'Na12 Ca6 Zr6 Si6 S12 O72'
_cell_volume   1730.73612664
_cell_formula_units_Z   6
loop_
 _symmetry_equiv_pos_site_id
 _symmetry_equiv_pos_as_xyz
  1  'x, y, z'
loop_
 _atom_site_type_symbol
 _atom_site_label
 _atom_site_symmetry_multiplicity
 _atom_site_fract_x
 _atom_site_fract_y
 _atom_site_fract_z
 _atom_site_occupancy
  Na  Na0  1  0.99797438  0.63544791  0.23832878  1
  Na  Na1  1  0.63747353  0.63544791  0.73832878  1
  Na  Na2  1  0.65069965  0.95439282  0.57378284  1
  Na  Na3  1  0.30369417  0.95439282  0.07378284  1
  Na  Na4  1  0.69260828  0.02563685  0.90615705  1
  Na  Na5  1  0.33302757  0.02563685  0.40615705  1
  Na  Na6  1  0.96880358  0.98776661  0.49260287  1
  Na  Na7  1  0.01896303  0.98776661  0.99260287  1
  Na  Na8  1  0.65504905  0.29853746  0.82647358  1
  Na  Na9  1  0.64348941  0.29853746  0.32647358  1
  Na  Na10  1  0.31681663  0.65512168  0.15996499  1
  Na  Na11  1  0.33830405  0.65512168  0.65996499  1
  Ca  Ca12  1  0.99365771  0.00710106  0.35147798  1
  Ca  Ca13  1  0.01344336  0.00710106  0.85147798  1
  Ca  Ca14  1  0.66273448  0.32617243  0.68415286  1
  Ca  Ca15  1  0.66343896  0.32617243  0.18415286  1
  Ca  Ca16  1  0.32188263  0.66239107  0.01760402  1
  Ca  Ca17  1  0.34050744  0.66239107  0.51760402  1
  Zr  Zr18  1  0.98602614  0.98884252  0.64964588  1
  Zr  Zr19  1  0.00281638  0.98884252  0.14964588  1
  Zr  Zr20  1  0.67388154  0.34530248  0.98271171  1
  Zr  Zr21  1  0.67142195  0.34530248  0.48271171  1
  Zr  Zr22  1  0.34858622  0.68937195  0.31581746  1
  Zr  Zr23  1  0.34078473  0.68937195  0.81581746  1
  Si  Si24  1  0.29907263  0.99875134  0.25566154  1
  Si  Si25  1  0.69967871  0.99875134  0.75566154  1
  Si  Si26  1  0.66779070  0.63335055  0.58984245  1
  Si  Si27  1  0.96556085  0.63335055  0.08984245  1
  Si  Si28  1  0.34129035  0.97711410  0.92350759  1
  Si  Si29  1  0.63582275  0.97711410  0.42350759  1
  S  S30  1  0.70209481  0.70866869  0.25012504  1
  S  S31  1  0.00860061  0.30209972  0.24974348  1
  S  S32  1  0.29349911  0.30209972  0.74974348  1
  S  S33  1  0.00657389  0.70866869  0.75012504  1
  S  S34  1  0.95704306  0.32591971  0.58382033  1
  S  S35  1  0.36487367  0.04230706  0.58137022  1
  S  S36  1  0.67743439  0.04230706  0.08137022  1
  S  S37  1  0.36887765  0.32591971  0.08382033  1
  S  S38  1  0.62255809  0.65963156  0.91607647  1
  S  S39  1  0.03215346  0.37365336  0.91663711  1
  S  S40  1  0.34149890  0.37365336  0.41663711  1
  S  S41  1  0.03707247  0.65963156  0.41607647  1
  O  O42  1  0.20980255  0.00013930  0.31377991  1
  O  O43  1  0.80106445  0.78819582  0.30089762  1
  O  O44  1  0.98662296  0.20538537  0.30082573  1
  O  O45  1  0.21876241  0.20538537  0.80082573  1
  O  O46  1  0.98713137  0.78819582  0.80089762  1
  O  O47  1  0.79033674  0.00013930  0.81377991  1
  O  O48  1  0.80297298  0.97214357  0.69854300  1
  O  O49  1  0.19218923  0.21196325  0.69794432  1
  O  O50  1  0.03205417  0.81612903  0.69854992  1
  O  O51  1  0.78407485  0.81612903  0.19854992  1
  O  O52  1  0.01977402  0.21196325  0.19794432  1
  O  O53  1  0.16917059  0.97214357  0.19854300  1
  O  O54  1  0.88039676  0.34446506  0.63513825  1
  O  O55  1  0.47334764  0.11919423  0.63104042  1
  O  O56  1  0.66126167  0.54577139  0.64875117  1
  O  O57  1  0.88451072  0.54577139  0.14875117  1
  O  O58  1  0.64584759  0.11919423  0.13104042  1
  O  O59  1  0.46406930  0.34446506  0.13513825  1
  O  O60  1  0.45456584  0.29998041  0.03233158  1
  O  O61  1  0.84139855  0.52402425  0.03395690  1
  O  O62  1  0.69376213  0.14560808  0.02898212  1
  O  O63  1  0.45184695  0.14560808  0.52898212  1
  O  O64  1  0.68262670  0.52402425  0.53395690  1
  O  O65  1  0.84541557  0.29998041  0.53233158  1
  O  O66  1  0.53873760  0.67671484  0.96608011  1
  O  O67  1  0.12839754  0.44636219  0.96831146  1
  O  O68  1  0.33550007  0.88075987  0.98047291  1
  O  O69  1  0.54525880  0.88075987  0.48047291  1
  O  O70  1  0.31796366  0.44636219  0.46831146  1
  O  O71  1  0.13797624  0.67671484  0.46608011  1
  O  O72  1  0.11779140  0.63597958  0.36307233  1
  O  O73  1  0.50397588  0.86837791  0.36630535  1
  O  O74  1  0.35696497  0.47477970  0.36533366  1
  O  O75  1  0.11781373  0.47477970  0.86533366  1
  O  O76  1  0.36440102  0.86837791  0.86630535  1
  O  O77  1  0.51818718  0.63597958  0.86307233  1
  O  O78  1  0.02019257  0.80916940  0.41094646  1
  O  O79  1  0.82003057  0.00387921  0.41647173  1
  O  O80  1  0.20425756  0.19867536  0.41135990  1
  O  O81  1  0.99441779  0.19867536  0.91135990  1
  O  O82  1  0.18384864  0.00387921  0.91647173  1
  O  O83  1  0.78897683  0.80916940  0.91094646  1
  O  O84  1  0.96344827  0.16473494  0.58706667  1
  O  O85  1  0.20127568  0.03636735  0.58753068  1
  O  O86  1  0.84717954  0.82589167  0.58897108  1
  O  O87  1  0.97871212  0.82589167  0.08897108  1
  O  O88  1  0.83509167  0.03636735  0.08753068  1
  O  O89  1  0.20128666  0.16473494  0.08706667  1
  O  O90  1  0.66521566  0.15057610  0.74817344  1
  O  O91  1  0.46792084  0.33580480  0.74517580  1
  O  O92  1  0.85690162  0.54317578  0.74329325  1
  O  O93  1  0.68627515  0.54317578  0.24329325  1
  O  O94  1  0.86788497  0.33580480  0.24517580  1
  O  O95  1  0.48536143  0.15057610  0.24817344  1
  O  O96  1  0.63936422  0.50561180  0.92050239  1
  O  O97  1  0.86193727  0.36412410  0.92110234  1
  O  O98  1  0.52722526  0.15722234  0.92373848  1
  O  O99  1  0.62999807  0.15722234  0.42373848  1
  O  O100  1  0.50218782  0.36412410  0.42110234  1
  O  O101  1  0.86624859  0.50561180  0.42050239  1
  O  O102  1  0.34449841  0.46879986  0.07593038  1
  O  O103  1  0.15809121  0.67463866  0.08469819  1
  O  O104  1  0.53298012  0.87193798  0.07524150  1
  O  O105  1  0.33895686  0.87193798  0.57524150  1
  O  O106  1  0.51654644  0.67463866  0.58469819  1
  O  O107  1  0.12430046  0.46879986  0.57593038  1
  O  O108  1  0.29532696  0.81008829  0.25585803  1
  O  O109  1  0.53024552  0.69036437  0.25460843  1
  O  O110  1  0.16806061  0.47008323  0.25351025  1
  O  O111  1  0.30202162  0.47008323  0.75351025  1
  O  O112  1  0.16011786  0.69036437  0.75460843  1
  O  O113  1  0.51476033  0.81008829  0.75585803  1
