# generated using pymatgen
data_Na5Zn2Ga2P3(SO8)3
_symmetry_space_group_name_H-M   'P 1'
_cell_length_a   8.80228451
_cell_length_b   8.76620593
_cell_length_c   22.02642408
_cell_angle_alpha   90.77400503
_cell_angle_beta   90.11926996
_cell_angle_gamma   120.18439705
_symmetry_Int_Tables_number   1
_chemical_formula_structural   Na5Zn2Ga2P3(SO8)3
_chemical_formula_sum   'Na15 Zn6 Ga6 P9 S9 O72'
_cell_volume   1468.95744136
_cell_formula_units_Z   3
loop_
 _symmetry_equiv_pos_site_id
 _symmetry_equiv_pos_as_xyz
  1  'x, y, z'
loop_
 _atom_site_type_symbol
 _atom_site_label
 _atom_site_symmetry_multiplicity
 _atom_site_fract_x
 _atom_site_fract_y
 _atom_site_fract_z
 _atom_site_occupancy
  Na  Na0  1  0.63868553  0.01013148  0.25215872  1
  Na  Na1  1  -0.00039196  0.63220552  0.24555497  1
  Na  Na2  1  0.63457586  0.63224046  0.74622683  1
  Na  Na3  1  0.99612286  0.35854081  0.74769892  1
  Na  Na4  1  0.30476623  0.34220400  0.58497699  1
  Na  Na5  1  0.66645903  0.96506055  0.58014667  1
  Na  Na6  1  0.29921564  0.96148556  0.08117892  1
  Na  Na7  1  0.69564966  0.02814224  0.91307794  1
  Na  Na8  1  0.96587631  0.29453097  0.41475473  1
  Na  Na9  1  0.98965661  0.97917924  0.49723983  1
  Na  Na10  1  0.00532931  0.99320297  0.99797171  1
  Na  Na11  1  0.64416560  0.31925991  0.83174635  1
  Na  Na12  1  0.64626215  0.32505646  0.33270166  1
  Na  Na13  1  0.32231521  0.64531170  0.16390509  1
  Na  Na14  1  0.32781988  0.67125901  0.66478242  1
  Zn  Zn15  1  0.00224379  0.00425222  0.34883999  1
  Zn  Zn16  1  0.01838728  0.00915003  0.85034128  1
  Zn  Zn17  1  0.66334068  0.32952483  0.68267819  1
  Zn  Zn18  1  0.66892179  0.33433614  0.18267644  1
  Zn  Zn19  1  0.32030344  0.66532200  0.01688609  1
  Zn  Zn20  1  0.33734651  0.66791816  0.51603802  1
  Ga  Ga21  1  0.99026957  0.00139873  0.65074587  1
  Ga  Ga22  1  0.00596947  0.99930913  0.15142412  1
  Ga  Ga23  1  0.66467305  0.34137168  0.98358944  1
  Ga  Ga24  1  0.67056743  0.33205976  0.48466839  1
  Ga  Ga25  1  0.33261487  0.67157822  0.31643811  1
  Ga  Ga26  1  0.34224166  0.67882677  0.81646639  1
  P  P27  1  0.29466573  0.00156436  0.25077838  1
  P  P28  1  0.00686359  0.29489794  0.25131340  1
  P  P29  1  0.29442565  0.29543543  0.75035882  1
  P  P30  1  0.70302216  0.99805783  0.75256193  1
  P  P31  1  0.96287815  0.33566902  0.58439800  1
  P  P32  1  0.67417460  0.62734955  0.58448444  1
  P  P33  1  0.95540419  0.62779817  0.08518638  1
  P  P34  1  0.33517701  0.96506888  0.91959136  1
  P  P35  1  0.62615173  0.96275517  0.41807958  1
  S  S36  1  0.70385263  0.70702086  0.25050339  1
  S  S37  1  0.00603745  0.71306418  0.75046807  1
  S  S38  1  0.36865313  0.03896456  0.58320117  1
  S  S39  1  0.67406913  0.03907216  0.08308432  1
  S  S40  1  0.37318302  0.33446698  0.08365081  1
  S  S41  1  0.62431891  0.66123521  0.91724202  1
  S  S42  1  0.03779496  0.37526991  0.91604940  1
  S  S43  1  0.34016504  0.37521624  0.41701456  1
  S  S44  1  0.03785399  0.66709144  0.41710435  1
  O  O45  1  0.20845289  0.02453445  0.30614723  1
  O  O46  1  0.81235471  0.78413408  0.30466323  1
  O  O47  1  0.96750878  0.18589269  0.30853192  1
  O  O48  1  0.21243455  0.18611959  0.80512822  1
  O  O49  1  0.97256184  0.78786867  0.80437136  1
  O  O50  1  0.81483158  0.02591353  0.80900087  1
  O  O51  1  0.78207185  0.95769928  0.69443963  1
  O  O52  1  0.17745966  0.21422167  0.69117618  1
  O  O53  1  0.03398783  0.81956917  0.69545009  1
  O  O54  1  0.78258665  0.82065894  0.19622157  1
  O  O55  1  0.03231066  0.20420976  0.19453354  1
  O  O56  1  0.17798080  0.95929917  0.19182059  1
  O  O57  1  0.88238202  0.35911795  0.64209318  1
  O  O58  1  0.47831713  0.11507679  0.63739030  1
  O  O59  1  0.63698075  0.51781128  0.64153428  1
  O  O60  1  0.87883724  0.52620743  0.14322283  1
  O  O61  1  0.64001124  0.11635861  0.13762378  1
  O  O62  1  0.47637877  0.35915311  0.13824724  1
  O  O63  1  0.45080259  0.29527175  0.02897327  1
  O  O64  1  0.83837863  0.53809968  0.02816977  1
  O  O65  1  0.69784546  0.14628663  0.02799440  1
  O  O66  1  0.44821341  0.15312848  0.52907861  1
  O  O67  1  0.69735044  0.53617937  0.52740663  1
  O  O68  1  0.84240660  0.29475824  0.52692001  1
  O  O69  1  0.54010510  0.68995135  0.97004488  1
  O  O70  1  0.14673160  0.45580011  0.96998678  1
  O  O71  1  0.31437435  0.86356140  0.97758594  1
  O  O72  1  0.54500612  0.85848918  0.47518965  1
  O  O73  1  0.30829938  0.44984140  0.47272469  1
  O  O74  1  0.14445373  0.68961646  0.47053900  1
  O  O75  1  0.11374923  0.63002986  0.36071199  1
  O  O76  1  0.51288869  0.87637796  0.35918273  1
  O  O77  1  0.36382835  0.48587148  0.36329913  1
  O  O78  1  0.11745013  0.47946862  0.86006992  1
  O  O79  1  0.37644130  0.87795390  0.86383494  1
  O  O80  1  0.51847118  0.63108742  0.85998517  1
  O  O81  1  0.01732931  0.82059690  0.41089747  1
  O  O82  1  0.81241357  0.98998959  0.41241835  1
  O  O83  1  0.18135857  0.19905268  0.41132580  1
  O  O84  1  0.00857369  0.19434766  0.91187759  1
  O  O85  1  0.17480877  0.98458632  0.91222524  1
  O  O86  1  0.79845785  0.82105389  0.91196626  1
  O  O87  1  0.97718651  0.16222874  0.58765049  1
  O  O88  1  0.19431129  0.02742285  0.58876274  1
  O  O89  1  0.84202032  0.81537621  0.58940112  1
  O  O90  1  0.97749208  0.81899056  0.08888406  1
  O  O91  1  0.83479181  0.02618323  0.08886274  1
  O  O92  1  0.19567983  0.16861612  0.08729398  1
  O  O93  1  0.68942822  0.16406470  0.74545877  1
  O  O94  1  0.48185390  0.32943703  0.74427764  1
  O  O95  1  0.84950255  0.53302269  0.74450513  1
  O  O96  1  0.68330754  0.53106821  0.24353280  1
  O  O97  1  0.84545747  0.32038337  0.24469549  1
  O  O98  1  0.48113346  0.15844806  0.24387658  1
  O  O99  1  0.64044148  0.50070015  0.92173581  1
  O  O100  1  0.85951079  0.35858865  0.92088377  1
  O  O101  1  0.51335313  0.15099284  0.92433782  1
  O  O102  1  0.64544859  0.15294162  0.42222241  1
  O  O103  1  0.50071437  0.36068845  0.42185097  1
  O  O104  1  0.86139069  0.49997552  0.42075782  1
  O  O105  1  0.35408171  0.48963263  0.07604063  1
  O  O106  1  0.14268083  0.65512657  0.07965487  1
  O  O107  1  0.51571902  0.86162272  0.07726936  1
  O  O108  1  0.34927037  0.86344241  0.57613360  1
  O  O109  1  0.51260220  0.65326140  0.57860082  1
  O  O110  1  0.14850417  0.49311138  0.57734251  1
  O  O111  1  0.31052074  0.82846459  0.25496624  1
  O  O112  1  0.52816339  0.69470265  0.25542009  1
  O  O113  1  0.17451294  0.48358901  0.25727193  1
  O  O114  1  0.30424341  0.48210287  0.75599013  1
  O  O115  1  0.16345043  0.69027908  0.75559618  1
  O  O116  1  0.51942821  0.82486574  0.75606773  1
