# generated using pymatgen
data_In3(PO4)2
_symmetry_space_group_name_H-M   'P 1'
_cell_length_a   9.66534785
_cell_length_b   9.66533609
_cell_length_c   9.66536276
_cell_angle_alpha   109.47130781
_cell_angle_beta   109.47133285
_cell_angle_gamma   109.47120282
_symmetry_Int_Tables_number   1
_chemical_formula_structural   In3(PO4)2
_chemical_formula_sum   'In12 P8 O32'
_cell_volume   695.07191957
_cell_formula_units_Z   4
loop_
 _symmetry_equiv_pos_site_id
 _symmetry_equiv_pos_as_xyz
  1  'x, y, z'
loop_
 _atom_site_type_symbol
 _atom_site_label
 _atom_site_symmetry_multiplicity
 _atom_site_fract_x
 _atom_site_fract_y
 _atom_site_fract_z
 _atom_site_occupancy
  In  In0  1  0.99418636  0.24999932  0.24418569  1
  In  In1  1  0.75581287  0.25000037  0.00581379  1
  In  In2  1  0.74999925  0.49418737  0.74418690  1
  In  In3  1  0.00581333  0.75581277  0.25000010  1
  In  In4  1  0.25000018  0.00581403  0.75581325  1
  In  In5  1  0.49418663  0.74418607  0.74999896  1
  In  In6  1  0.50581404  0.74999993  0.25581354  1
  In  In7  1  0.24418561  0.99418548  0.24999921  1
  In  In8  1  0.25581398  0.50581450  0.75000050  1
  In  In9  1  0.24999965  0.24418674  0.99418672  1
  In  In10  1  0.75000037  0.25581381  0.50581468  1
  In  In11  1  0.74418586  0.74999917  0.49418606  1
  P  P12  1  0.50000081  -0.00000375  0.09004167  1
  P  P13  1  0.59004140  0.50000081  0.00000240  1
  P  P14  1  0.90995739  0.90995606  0.90995881  1
  P  P15  1  0.00000242  0.59004252  0.50000034  1
  P  P16  1  0.40995997  0.40995783  0.40995858  1
  P  P17  1  -0.00000148  0.09004375  0.50000650  1
  P  P18  1  0.09004324  0.50000231  -0.00000023  1
  P  P19  1  0.49999460  -0.00000435  0.59003801  1
  O  O20  1  0.50000046  0.00000057  0.92782700  1
  O  O21  1  0.42782840  0.49999990  0.00000034  1
  O  O22  1  0.07217263  0.07217294  0.07217297  1
  O  O23  1  0.00000027  0.42782796  0.49999990  1
  O  O24  1  0.57217253  0.57217273  0.57217296  1
  O  O25  1  0.00000026  0.92782713  0.49999953  1
  O  O26  1  0.92782654  0.49999994  0.00000025  1
  O  O27  1  0.50000005  -0.00000004  0.42782788  1
  O  O28  1  0.24452865  0.65665968  0.16325485  1
  O  O29  1  0.16325424  0.24452782  0.65665922  1
  O  O30  1  0.41872529  0.41213064  0.25547089  1
  O  O31  1  0.50659464  0.84334280  0.08786909  1
  O  O32  1  0.33674380  0.99340497  0.08127385  1
  O  O33  1  0.65666063  0.16325586  0.24452892  1
  O  O34  1  0.58786962  0.34333990  0.00659433  1
  O  O35  1  0.83674390  0.58127431  0.49340488  1
  O  O36  1  0.91213084  0.91872572  0.75547065  1
  O  O37  1  0.49340500  0.83674625  0.58127438  1
  O  O38  1  0.34334202  0.00659485  0.58786914  1
  O  O39  1  0.15665965  0.74452862  0.66325445  1
  O  O40  1  0.66325819  0.15666336  0.74453284  1
  O  O41  1  0.08127427  0.33674336  0.99340500  1
  O  O42  1  0.84334286  0.08786850  0.50659431  1
  O  O43  1  0.41213118  0.25547237  0.41872601  1
  O  O44  1  0.08786866  0.50659460  0.84334104  1
  O  O45  1  0.99340458  0.08127367  0.33673974  1
  O  O46  1  0.25546977  0.41872529  0.41213084  1
  O  O47  1  0.00659432  0.58786922  0.34333975  1
  O  O48  1  0.91872490  0.75547189  0.91213061  1
  O  O49  1  0.75547143  0.91213076  0.91872566  1
  O  O50  1  0.58127460  0.49340502  0.83674337  1
  O  O51  1  0.74452935  0.66325463  0.15665992  1
