# generated using pymatgen
data_Na6La2Al2Si3(SO8)3
_symmetry_space_group_name_H-M   'P 1'
_cell_length_a   9.26181926
_cell_length_b   9.09768221
_cell_length_c   22.92139185
_cell_angle_alpha   91.53368553
_cell_angle_beta   89.99830157
_cell_angle_gamma   119.41453230
_symmetry_Int_Tables_number   1
_chemical_formula_structural   Na6La2Al2Si3(SO8)3
_chemical_formula_sum   'Na18 La6 Al6 Si9 S9 O72'
_cell_volume   1681.61217062
_cell_formula_units_Z   3
loop_
 _symmetry_equiv_pos_site_id
 _symmetry_equiv_pos_as_xyz
  1  'x, y, z'
loop_
 _atom_site_type_symbol
 _atom_site_label
 _atom_site_symmetry_multiplicity
 _atom_site_fract_x
 _atom_site_fract_y
 _atom_site_fract_z
 _atom_site_occupancy
  Na  Na0  1  0.63666208  0.99127165  0.27248354  1
  Na  Na1  1  0.35016995  0.36085087  0.25806623  1
  Na  Na2  1  0.64251786  0.64242007  0.72648632  1
  Na  Na3  1  0.97319840  0.35680620  0.73401522  1
  Na  Na4  1  0.02949096  0.68610671  0.59586984  1
  Na  Na5  1  0.67404833  0.96241787  0.58227107  1
  Na  Na6  1  0.31422253  0.97471393  0.10172451  1
  Na  Na7  1  0.02154622  0.32406130  0.08949957  1
  Na  Na8  1  0.97207395  0.64695638  0.89256564  1
  Na  Na9  1  0.70300377  0.03949909  0.90614231  1
  Na  Na10  1  0.95027606  0.29517779  0.42314113  1
  Na  Na11  1  0.35059107  0.02720145  0.41418846  1
  Na  Na12  1  0.96953469  0.98627869  0.50737278  1
  Na  Na13  1  0.98337406  0.01615112  0.00059452  1
  Na  Na14  1  0.67038674  0.31986950  0.81495003  1
  Na  Na15  1  0.67894140  0.34990865  0.34231146  1
  Na  Na16  1  0.31866502  0.67311283  0.18093310  1
  Na  Na17  1  0.33211115  0.65842700  0.66048212  1
  La  La18  1  0.00245461  0.02316424  0.83123760  1
  La  La19  1  0.99545944  0.00893829  0.17384349  1
  La  La20  1  0.67588560  0.33426658  0.98940829  1
  La  La21  1  0.34529782  0.66096621  0.02160201  1
  La  La22  1  0.35294932  0.65388533  0.51616734  1
  La  La23  1  0.31787401  0.67128794  0.80348594  1
  Al  Al24  1  0.99639587  0.02167072  0.34091711  1
  Al  Al25  1  0.95553290  0.97240347  0.64676698  1
  Al  Al26  1  0.68637489  0.34489429  0.67962236  1
  Al  Al27  1  0.66201613  0.29067102  0.20324692  1
  Al  Al28  1  0.67612277  0.30087085  0.49937661  1
  Al  Al29  1  0.32000631  0.69702625  0.31856198  1
  Si  Si30  1  0.30046180  0.00123832  0.25310273  1
  Si  Si31  1  0.01532469  0.33252567  0.25351550  1
  Si  Si32  1  0.98410068  0.69506265  0.73933060  1
  Si  Si33  1  0.69031595  0.01365318  0.74011927  1
  Si  Si34  1  0.95744056  0.31416907  0.58714971  1
  Si  Si35  1  0.68050035  0.60863360  0.58398524  1
  Si  Si36  1  0.66560457  0.03299858  0.09275108  1
  Si  Si37  1  0.02545446  0.35603142  0.91914112  1
  Si  Si38  1  0.64373915  0.96861072  0.41481419  1
  S  S39  1  0.68427825  0.68698308  0.25606506  1
  S  S40  1  0.31498578  0.29142005  0.73767443  1
  S  S41  1  0.38512699  0.06199341  0.58203480  1
  S  S42  1  0.96884071  0.64077884  0.09101450  1
  S  S43  1  0.36847675  0.33219866  0.09617086  1
  S  S44  1  0.65165530  0.67373440  0.91002088  1
  S  S45  1  0.32093013  0.97560394  0.92174891  1
  S  S46  1  0.31561874  0.34088411  0.40571750  1
  S  S47  1  0.04179303  0.68399996  0.41254708  1
  O  O48  1  0.17502515  0.02804595  0.29787778  1
  O  O49  1  0.81090179  0.79222613  0.30108960  1
  O  O50  1  0.97325130  0.16875744  0.29497025  1
  O  O51  1  0.26763793  0.22886217  0.79801384  1
  O  O52  1  0.98293178  0.76916694  0.80578851  1
  O  O53  1  0.77980902  0.05598787  0.80587941  1
  O  O54  1  0.81754511  0.99618429  0.69420301  1
  O  O55  1  0.18873943  0.18001917  0.69448103  1
  O  O56  1  0.99430209  0.82890453  0.69059614  1
  O  O57  1  0.72797327  0.77254498  0.19944950  1
  O  O58  1  0.07515908  0.29031946  0.19087122  1
  O  O59  1  0.21823938  0.96856467  0.18863692  1
  O  O60  1  0.85762944  0.34524606  0.64006532  1
  O  O61  1  0.49319272  0.15868759  0.63120501  1
  O  O62  1  0.66336310  0.50583016  0.64225305  1
  O  O63  1  0.85258395  0.53416857  0.13510090  1
  O  O64  1  0.66249534  0.16251400  0.14480234  1
  O  O65  1  0.46868391  0.33009237  0.14580287  1
  O  O66  1  0.45040879  0.34531520  0.03910470  1
  O  O67  1  0.90270762  0.57922772  0.03039836  1
  O  O68  1  0.66910729  0.10892188  0.02750719  1
  O  O69  1  0.46764331  0.14286567  0.52491578  1
  O  O70  1  0.69203256  0.49590364  0.52698351  1
  O  O71  1  0.84260442  0.27659573  0.52593261  1
  O  O72  1  0.56529407  0.67933514  0.96421978  1
  O  O73  1  0.11075341  0.44388689  0.98335014  1
  O  O74  1  0.32614202  0.89782303  0.97766421  1
  O  O75  1  0.58944231  0.87112820  0.47622098  1
  O  O76  1  0.27579828  0.40663205  0.46014330  1
  O  O77  1  0.13358715  0.71747311  0.46922814  1
  O  O78  1  0.14555641  0.66133083  0.36657973  1
  O  O79  1  0.49513394  0.85862968  0.36452645  1
  O  O80  1  0.34033433  0.45279354  0.35731709  1
  O  O81  1  0.13188492  0.47126568  0.86458582  1
  O  O82  1  0.33872127  0.87684720  0.87250309  1
  O  O83  1  0.56218926  0.68059259  0.85794321  1
  O  O84  1  0.02402927  0.83352536  0.40015189  1
  O  O85  1  0.83008623  0.00526129  0.39348750  1
  O  O86  1  0.16139596  0.16951445  0.39756883  1
  O  O87  1  0.99471644  0.16360359  0.91698612  1
  O  O88  1  0.16053189  0.97203876  0.91770900  1
  O  O89  1  0.82001310  0.82501185  0.91376614  1
  O  O90  1  0.97145245  0.14006731  0.59513332  1
  O  O91  1  0.21894027  0.04290245  0.58195918  1
  O  O92  1  0.85066740  0.80295141  0.58719223  1
  O  O93  1  0.00813765  0.81914520  0.09406713  1
  O  O94  1  0.83797663  0.02523823  0.09664658  1
  O  O95  1  0.20493127  0.17290560  0.09171573  1
  O  O96  1  0.66640262  0.17532969  0.72778445  1
  O  O97  1  0.48339392  0.31700340  0.72960584  1
  O  O98  1  0.81383353  0.50846482  0.73798554  1
  O  O99  1  0.66863876  0.51496414  0.25128038  1
  O  O100  1  0.83378900  0.32823884  0.24922735  1
  O  O101  1  0.49107729  0.17501397  0.25259574  1
  O  O102  1  0.66803805  0.51977869  0.90756168  1
  O  O103  1  0.84022118  0.34386920  0.91301153  1
  O  O104  1  0.46304612  0.14861674  0.91774216  1
  O  O105  1  0.65317108  0.16185732  0.42628433  1
  O  O106  1  0.46024362  0.31697434  0.41347843  1
  O  O107  1  0.88281894  0.52446451  0.41303543  1
  O  O108  1  0.33761099  0.47812210  0.10268892  1
  O  O109  1  0.12901438  0.63558748  0.09695800  1
  O  O110  1  0.48941265  0.85487661  0.09788884  1
  O  O111  1  0.37012615  0.88885973  0.58155886  1
  O  O112  1  0.52815456  0.65444610  0.58393483  1
  O  O113  1  0.13396806  0.49063873  0.58031541  1
  O  O114  1  0.33824658  0.84751369  0.26672421  1
  O  O115  1  0.51662004  0.66467051  0.27028778  1
  O  O116  1  0.17638538  0.51080671  0.27512147  1
  O  O117  1  0.32639020  0.46258027  0.73555505  1
  O  O118  1  0.13892379  0.65609207  0.73103647  1
  O  O119  1  0.52165762  0.82987870  0.73750491  1
