# generated using pymatgen
data_Na21Mg8Ta4Si3(P5O24)3
_symmetry_space_group_name_H-M   'P 1'
_cell_length_a   9.02371993
_cell_length_b   9.02970556
_cell_length_c   21.94831191
_cell_angle_alpha   89.76258622
_cell_angle_beta   90.21000652
_cell_angle_gamma   119.92015457
_symmetry_Int_Tables_number   1
_chemical_formula_structural   Na21Mg8Ta4Si3(P5O24)3
_chemical_formula_sum   'Na21 Mg8 Ta4 Si3 P15 O72'
_cell_volume   1550.01301740
_cell_formula_units_Z   1
loop_
 _symmetry_equiv_pos_site_id
 _symmetry_equiv_pos_as_xyz
  1  'x, y, z'
loop_
 _atom_site_type_symbol
 _atom_site_label
 _atom_site_symmetry_multiplicity
 _atom_site_fract_x
 _atom_site_fract_y
 _atom_site_fract_z
 _atom_site_occupancy
  Na  Na0  1  0.65725652  0.01285392  0.23950407  1
  Na  Na1  1  0.98890400  0.63815645  0.23907599  1
  Na  Na2  1  0.65487109  0.64044644  0.74431383  1
  Na  Na3  1  0.98441040  0.34203910  0.74667201  1
  Na  Na4  1  0.36045813  0.01374256  0.74460507  1
  Na  Na5  1  0.29309907  0.33366112  0.58634458  1
  Na  Na6  1  0.04517478  0.70934650  0.58093857  1
  Na  Na7  1  0.66366711  0.95344606  0.58170187  1
  Na  Na8  1  0.29185503  0.95845031  0.08559833  1
  Na  Na9  1  0.66688226  0.70638957  0.08449576  1
  Na  Na10  1  0.04468139  0.33707922  0.08036704  1
  Na  Na11  1  0.97774577  0.67661992  0.91374760  1
  Na  Na12  1  0.97518915  0.29518628  0.40414312  1
  Na  Na13  1  0.31417024  0.01812353  0.40876453  1
  Na  Na14  1  0.71279912  0.69293343  0.40921887  1
  Na  Na15  1  0.99288164  0.99319682  0.49609911  1
  Na  Na16  1  0.00214687  0.02392127  0.99358471  1
  Na  Na17  1  0.65574500  0.31703388  0.83049142  1
  Na  Na18  1  0.65057089  0.33527932  0.32139794  1
  Na  Na19  1  0.33357014  0.64715928  0.16015024  1
  Na  Na20  1  0.33576201  0.66885823  0.66114085  1
  Mg  Mg21  1  0.99982563  0.99950868  0.34898785  1
  Mg  Mg22  1  0.00037972  0.00814019  0.85276999  1
  Mg  Mg23  1  0.99797211  0.00031313  0.64898615  1
  Mg  Mg24  1  0.00213316  0.00507132  0.14888353  1
  Mg  Mg25  1  0.66855882  0.33365846  0.68531046  1
  Mg  Mg26  1  0.66192382  0.33264627  0.18500542  1
  Mg  Mg27  1  0.33251421  0.66281647  0.01740256  1
  Mg  Mg28  1  0.33587496  0.66948226  0.51814240  1
  Ta  Ta29  1  0.66433490  0.32972306  0.97871112  1
  Ta  Ta30  1  0.66877286  0.33287474  0.47968323  1
  Ta  Ta31  1  0.33168764  0.66764923  0.31436835  1
  Ta  Ta32  1  0.33212408  0.66359517  0.81877058  1
  Si  Si33  1  0.03365092  0.36191357  0.92293816  1
  Si  Si34  1  0.63037788  0.96088078  0.42110438  1
  Si  Si35  1  0.03988158  0.66992343  0.42137903  1
  P  P36  1  0.29645072  0.00055730  0.25088241  1
  P  P37  1  0.70135382  0.70348737  0.25029643  1
  P  P38  1  0.00332964  0.29861568  0.24956271  1
  P  P39  1  0.29547495  0.29703405  0.74873569  1
  P  P40  1  0.00418155  0.70535254  0.75075426  1
  P  P41  1  0.70099898  0.99477499  0.74792454  1
  P  P42  1  0.96199125  0.33181234  0.58627261  1
  P  P43  1  0.37148023  0.03994864  0.58647495  1
  P  P44  1  0.66662730  0.62666695  0.58608198  1
  P  P45  1  0.95992162  0.62822744  0.08549556  1
  P  P46  1  0.66615498  0.03873877  0.08600920  1
  P  P47  1  0.37550371  0.33391063  0.08469293  1
  P  P48  1  0.63019642  0.66653408  0.92113373  1
  P  P49  1  0.33413819  0.96150775  0.92001770  1
  P  P50  1  0.33437222  0.37600209  0.42100878  1
  O  O51  1  0.21175260  0.01112263  0.30950962  1
  O  O52  1  0.80499657  0.79048091  0.30782357  1
  O  O53  1  0.98738034  0.19389391  0.30669006  1
  O  O54  1  0.20327917  0.17684448  0.80100232  1
  O  O55  1  0.98228180  0.78979801  0.80721130  1
  O  O56  1  0.81960125  0.01808685  0.80037061  1
  O  O57  1  0.76669742  0.95973847  0.68758913  1
  O  O58  1  0.19116950  0.23457456  0.68880879  1
  O  O59  1  0.03628353  0.81432737  0.69258815  1
  O  O60  1  0.77623048  0.81700666  0.19312753  1
  O  O61  1  0.02318397  0.21915755  0.19099893  1
  O  O62  1  0.18438698  0.96621993  0.19401950  1
  O  O63  1  0.87427461  0.34912259  0.64265700  1
  O  O64  1  0.47478079  0.13057027  0.64301173  1
  O  O65  1  0.65490769  0.52462414  0.64307090  1
  O  O66  1  0.87316690  0.51992239  0.14185847  1
  O  O67  1  0.64692429  0.12273043  0.14326111  1
  O  O68  1  0.48602724  0.35355163  0.13941813  1
  O  O69  1  0.47659504  0.32148710  0.02655968  1
  O  O70  1  0.84374151  0.52403111  0.02752629  1
  O  O71  1  0.67519860  0.15870379  0.02978501  1
  O  O72  1  0.47596186  0.15436712  0.52861604  1
  O  O73  1  0.67504757  0.52084139  0.52859888  1
  O  O74  1  0.84502890  0.32272283  0.52848955  1
  O  O75  1  0.54842835  0.68575652  0.97801722  1
  O  O76  1  0.13250064  0.45873442  0.98290024  1
  O  O77  1  0.31851962  0.85944890  0.97691602  1
  O  O78  1  0.55126829  0.84881261  0.48103093  1
  O  O79  1  0.30854914  0.44987477  0.47922870  1
  O  O80  1  0.14677556  0.69062346  0.48162452  1
  O  O81  1  0.13569470  0.63293301  0.36211977  1
  O  O82  1  0.49817978  0.86038203  0.36188778  1
  O  O83  1  0.36344860  0.49991332  0.36590452  1
  O  O84  1  0.14179860  0.50066966  0.86337229  1
  O  O85  1  0.36149382  0.86680829  0.86262304  1
  O  O86  1  0.51131787  0.64765495  0.86364928  1
  O  O87  1  0.01055415  0.82951791  0.41183938  1
  O  O88  1  0.82279238  0.00182396  0.41072516  1
  O  O89  1  0.18641263  0.19610357  0.41048422  1
  O  O90  1  0.00536955  0.17757685  0.91152015  1
  O  O91  1  0.17484693  0.97432816  0.90972505  1
  O  O92  1  0.81221645  0.80958515  0.91132675  1
  O  O93  1  0.96698649  0.16411968  0.58244424  1
  O  O94  1  0.19559458  0.02959035  0.58295538  1
  O  O95  1  0.83213733  0.80147559  0.58231882  1
  O  O96  1  0.96537693  0.80195082  0.08384038  1
  O  O97  1  0.83362974  0.03286881  0.08285028  1
  O  O98  1  0.19947441  0.16845353  0.08354394  1
  O  O99  1  0.67082939  0.14970212  0.74566470  1
  O  O100  1  0.48091615  0.32994854  0.74568762  1
  O  O101  1  0.85207100  0.52033000  0.74646595  1
  O  O102  1  0.68305938  0.52588144  0.24563209  1
  O  O103  1  0.84790653  0.32862131  0.24821341  1
  O  O104  1  0.48289796  0.14493149  0.24724398  1
  O  O105  1  0.63471191  0.49292748  0.92108120  1
  O  O106  1  0.84580003  0.36442124  0.92064261  1
  O  O107  1  0.49982041  0.14230694  0.92091627  1
  O  O108  1  0.62940964  0.14751432  0.42288934  1
  O  O109  1  0.50619642  0.36834066  0.42267167  1
  O  O110  1  0.84703249  0.48951897  0.42253364  1
  O  O111  1  0.35711745  0.49465488  0.07997602  1
  O  O112  1  0.14141648  0.65289344  0.08162042  1
  O  O113  1  0.50724046  0.86000039  0.07982083  1
  O  O114  1  0.35586955  0.86237915  0.58314861  1
  O  O115  1  0.50369938  0.64095232  0.58250307  1
  O  O116  1  0.14064267  0.49039996  0.58143504  1
  O  O117  1  0.30873868  0.82605330  0.25623044  1
  O  O118  1  0.51658081  0.68598720  0.25774884  1
  O  O119  1  0.16926757  0.48429935  0.25584801  1
  O  O120  1  0.31455833  0.48309044  0.75917815  1
  O  O121  1  0.17474269  0.69006231  0.75696476  1
  O  O122  1  0.51591496  0.82792571  0.75696678  1
