# generated using pymatgen
data_Na2NbZn(PO4)3
_symmetry_space_group_name_H-M   'P 1'
_cell_length_a   8.89806641
_cell_length_b   8.83915259
_cell_length_c   22.46598150
_cell_angle_alpha   89.99999999
_cell_angle_beta   90.29148510
_cell_angle_gamma   119.78122286
_symmetry_Int_Tables_number   1
_chemical_formula_structural   Na2NbZn(PO4)3
_chemical_formula_sum   'Na12 Nb6 Zn6 P18 O72'
_cell_volume   1533.58569222
_cell_formula_units_Z   6
loop_
 _symmetry_equiv_pos_site_id
 _symmetry_equiv_pos_as_xyz
  1  'x, y, z'
loop_
 _atom_site_type_symbol
 _atom_site_label
 _atom_site_symmetry_multiplicity
 _atom_site_fract_x
 _atom_site_fract_y
 _atom_site_fract_z
 _atom_site_occupancy
  Na  Na0  1  0.98686758  0.63067569  0.24692774  1
  Na  Na1  1  0.98686758  0.35619189  0.74692774  1
  Na  Na2  1  0.65353458  0.96400869  0.58026074  1
  Na  Na3  1  0.65353458  0.68952489  0.08026074  1
  Na  Na4  1  0.32020058  0.29734269  0.91359474  1
  Na  Na5  1  0.32020058  0.02285889  0.41359474  1
  Na  Na6  1  0.99766098  0.00062817  0.49164104  1
  Na  Na7  1  0.99766098  0.99703281  0.99164104  1
  Na  Na8  1  0.66432798  0.33396117  0.82497404  1
  Na  Na9  1  0.66432798  0.33036581  0.32497404  1
  Na  Na10  1  0.33099398  0.66729517  0.15830804  1
  Na  Na11  1  0.33099398  0.66369981  0.65830804  1
  Nb  Nb12  1  0.00565372  0.99812122  0.64634560  1
  Nb  Nb13  1  0.00565372  0.00753249  0.14634560  1
  Nb  Nb14  1  0.67232072  0.33145422  0.97967860  1
  Nb  Nb15  1  0.67232072  0.34086549  0.47967860  1
  Nb  Nb16  1  0.33898672  0.66478822  0.31301260  1
  Nb  Nb17  1  0.33898672  0.67419949  0.81301260  1
  Zn  Zn18  1  0.99241364  0.99990956  0.35052363  1
  Zn  Zn19  1  0.99241364  0.99250409  0.85052363  1
  Zn  Zn20  1  0.65908064  0.33324256  0.68385663  1
  Zn  Zn21  1  0.65908064  0.32583709  0.18385663  1
  Zn  Zn22  1  0.32574664  0.66657656  0.01719063  1
  Zn  Zn23  1  0.32574664  0.65917109  0.51719063  1
  P  P24  1  0.29559637  0.00530327  0.25363059  1
  P  P25  1  0.71108689  0.70966287  0.25053793  1
  P  P26  1  0.99747738  0.29047616  0.25281130  1
  P  P27  1  0.29559637  0.29029310  0.75363059  1
  P  P28  1  0.99747738  0.70700122  0.75281130  1
  P  P29  1  0.71108689  0.00142402  0.75053793  1
  P  P30  1  0.96226337  0.33863627  0.58696359  1
  P  P31  1  0.37775389  0.04299587  0.58387093  1
  P  P32  1  0.66414438  0.62380916  0.58614430  1
  P  P33  1  0.96226337  0.62362610  0.08696359  1
  P  P34  1  0.66414438  0.04033422  0.08614430  1
  P  P35  1  0.37775389  0.33475702  0.08387093  1
  P  P36  1  0.62892937  0.67197027  0.92029759  1
  P  P37  1  0.04441989  0.37632987  0.91720493  1
  P  P38  1  0.33081038  0.95714316  0.91947830  1
  P  P39  1  0.62892937  0.95696010  0.42029759  1
  P  P40  1  0.33081038  0.37366822  0.41947830  1
  P  P41  1  0.04441989  0.66809102  0.41720493  1
  O  O42  1  0.21372490  0.02160655  0.31005874  1
  O  O43  1  0.82442148  0.79193713  0.30414532  1
  O  O44  1  0.97651104  0.18506859  0.30686202  1
  O  O45  1  0.21372490  0.19211835  0.81005874  1
  O  O46  1  0.97651104  0.79144245  0.80686202  1
  O  O47  1  0.82442148  0.03248435  0.80414532  1
  O  O48  1  0.79576923  0.96938578  0.69283261  1
  O  O49  1  0.16740647  0.19628517  0.69798265  1
  O  O50  1  0.02637049  0.82667258  0.69568073  1
  O  O51  1  0.79576923  0.82638345  0.19283261  1
  O  O52  1  0.02637049  0.19969791  0.19568073  1
  O  O53  1  0.16740647  0.97112130  0.19798265  1
  O  O54  1  0.88039190  0.35493955  0.64339174  1
  O  O55  1  0.49108848  0.12527013  0.63747832  1
  O  O56  1  0.64317804  0.51840159  0.64019502  1
  O  O57  1  0.88039190  0.52545135  0.14339174  1
  O  O58  1  0.64317804  0.12477545  0.14019502  1
  O  O59  1  0.49108848  0.36581735  0.13747832  1
  O  O60  1  0.46243623  0.30271878  0.02616561  1
  O  O61  1  0.83407347  0.52961817  0.03131565  1
  O  O62  1  0.69303749  0.16000558  0.02901373  1
  O  O63  1  0.46243623  0.15971645  0.52616561  1
  O  O64  1  0.69303749  0.53303091  0.52901373  1
  O  O65  1  0.83407347  0.30445430  0.53131565  1
  O  O66  1  0.54705790  0.68827355  0.97672574  1
  O  O67  1  0.15775448  0.45860413  0.97081232  1
  O  O68  1  0.30984404  0.85173559  0.97352902  1
  O  O69  1  0.54705790  0.85878535  0.47672574  1
  O  O70  1  0.30984404  0.45810945  0.47352902  1
  O  O71  1  0.15775448  0.69915135  0.47081232  1
  O  O72  1  0.12910223  0.63605278  0.35949961  1
  O  O73  1  0.50073947  0.86295217  0.36464965  1
  O  O74  1  0.35970349  0.49333958  0.36234773  1
  O  O75  1  0.12910223  0.49305045  0.85949961  1
  O  O76  1  0.35970349  0.86636491  0.86234773  1
  O  O77  1  0.50073947  0.63778830  0.86464965  1
  O  O78  1  0.01997012  0.82527235  0.40933909  1
  O  O79  1  0.80834373  0.98523093  0.41106250  1
  O  O80  1  0.18398431  0.18779577  0.41098673  1
  O  O81  1  0.01997012  0.19469776  0.90933909  1
  O  O82  1  0.18398431  0.99618853  0.91098673  1
  O  O83  1  0.80834373  0.82311281  0.91106250  1
  O  O84  1  0.96395597  0.15819400  0.58904920  1
  O  O85  1  0.19489079  0.03216625  0.59024170  1
  O  O86  1  0.83789490  0.80943568  0.58934088  1
  O  O87  1  0.96395597  0.80576197  0.08904920  1
  O  O88  1  0.83789490  0.02845922  0.08934088  1
  O  O89  1  0.19489079  0.16272454  0.09024170  1
  O  O90  1  0.68663712  0.15860535  0.74267209  1
  O  O91  1  0.47501073  0.31856393  0.74439550  1
  O  O92  1  0.85065131  0.52112877  0.74431973  1
  O  O93  1  0.68663712  0.52803076  0.24267209  1
  O  O94  1  0.85065131  0.32952153  0.24431973  1
  O  O95  1  0.47501073  0.15644581  0.24439550  1
  O  O96  1  0.63062297  0.49152700  0.92238220  1
  O  O97  1  0.86155779  0.36549925  0.92357470  1
  O  O98  1  0.50456190  0.14276868  0.92267388  1
  O  O99  1  0.63062297  0.13909497  0.42238220  1
  O  O100  1  0.50456190  0.36179222  0.42267388  1
  O  O101  1  0.86155779  0.49605754  0.42357470  1
  O  O102  1  0.35330312  0.49193935  0.07600609  1
  O  O103  1  0.14167673  0.65189793  0.07772950  1
  O  O104  1  0.51731731  0.85446277  0.07765373  1
  O  O105  1  0.35330312  0.86136476  0.57600609  1
  O  O106  1  0.51731731  0.66285553  0.57765373  1
  O  O107  1  0.14167673  0.48977981  0.57772950  1
  O  O108  1  0.29728897  0.82486100  0.25571620  1
  O  O109  1  0.52822379  0.69883325  0.25690870  1
  O  O110  1  0.17122790  0.47610268  0.25600788  1
  O  O111  1  0.29728897  0.47242897  0.75571620  1
  O  O112  1  0.17122790  0.69512622  0.75600788  1
  O  O113  1  0.52822379  0.82939154  0.75690870  1
