# generated using pymatgen
data_Zr2Sc2SiS5O24
_symmetry_space_group_name_H-M   'P 1'
_cell_length_a   8.96575518
_cell_length_b   8.97381393
_cell_length_c   23.01923951
_cell_angle_alpha   90.03798663
_cell_angle_beta   89.95227577
_cell_angle_gamma   119.99946702
_symmetry_Int_Tables_number   1
_chemical_formula_structural   Zr2Sc2SiS5O24
_chemical_formula_sum   'Zr6 Sc6 Si3 S15 O72'
_cell_volume   1603.93846849
_cell_formula_units_Z   3
loop_
 _symmetry_equiv_pos_site_id
 _symmetry_equiv_pos_as_xyz
  1  'x, y, z'
loop_
 _atom_site_type_symbol
 _atom_site_label
 _atom_site_symmetry_multiplicity
 _atom_site_fract_x
 _atom_site_fract_y
 _atom_site_fract_z
 _atom_site_occupancy
  Zr  Zr0  1  0.99916469  0.00620700  0.64365459  1
  Zr  Zr1  1  0.00693039  0.00697015  0.14329855  1
  Zr  Zr2  1  0.67396450  0.32401411  0.47766578  1
  Zr  Zr3  1  0.33352625  0.66012493  0.02301035  1
  Zr  Zr4  1  0.33671633  0.66736878  0.52214400  1
  Zr  Zr5  1  0.34155901  0.67666170  0.31282368  1
  Sc  Sc6  1  0.99150730  -0.00018219  0.35671459  1
  Sc  Sc7  1  0.00106956  0.99976359  0.85427942  1
  Sc  Sc8  1  0.67879649  0.33717575  0.68661506  1
  Sc  Sc9  1  0.65800217  0.33609776  0.18602468  1
  Sc  Sc10  1  0.65456064  0.33009132  0.98016987  1
  Sc  Sc11  1  0.33225652  0.66688217  0.81211878  1
  Si  Si12  1  0.95804156  0.33686003  0.58455869  1
  Si  Si13  1  0.38183607  0.33367528  0.08332034  1
  Si  Si14  1  0.62801933  0.95718631  0.41709949  1
  S  S15  1  0.29102104  0.00257345  0.25071176  1
  S  S16  1  0.71182499  0.70871488  0.25028528  1
  S  S17  1  0.99745360  0.28999015  0.25056674  1
  S  S18  1  0.29200470  0.29147580  0.75095407  1
  S  S19  1  0.00026968  0.70924943  0.75075210  1
  S  S20  1  0.70834927  -0.00026458  0.75107279  1
  S  S21  1  0.37812296  0.04448314  0.58406613  1
  S  S22  1  0.66670685  0.62138294  0.58383281  1
  S  S23  1  0.95382541  0.62079492  0.08331621  1
  S  S24  1  0.66636285  0.04584067  0.08329719  1
  S  S25  1  0.62496764  0.66705220  0.91558236  1
  S  S26  1  0.04127591  0.37512292  0.91567040  1
  S  S27  1  0.33303426  0.95738435  0.91590223  1
  S  S28  1  0.33233344  0.37462015  0.41639492  1
  S  S29  1  0.04356836  0.66936440  0.41637365  1
  O  O30  1  0.21009363  0.02865923  0.30202604  1
  O  O31  1  0.81914771  0.78944013  0.30177985  1
  O  O32  1  0.97154387  0.18118175  0.30169124  1
  O  O33  1  0.20784611  0.17974743  0.80212149  1
  O  O34  1  0.97163325  0.79197003  0.80226629  1
  O  O35  1  0.82027857  0.02879553  0.80211980  1
  O  O36  1  0.78931680  0.96896847  0.69861698  1
  O  O37  1  0.18004944  0.20981304  0.69844440  1
  O  O38  1  0.03024643  0.81903323  0.69848130  1
  O  O39  1  0.78859857  0.81871144  0.19808670  1
  O  O40  1  0.02901083  0.20900904  0.19794682  1
  O  O41  1  0.17978244  0.96957582  0.19817313  1
  O  O42  1  0.86477291  0.36380134  0.64049340  1
  O  O43  1  0.48479117  0.12274777  0.63589353  1
  O  O44  1  0.63565849  0.51418929  0.63592326  1
  O  O45  1  0.87985066  0.51457255  0.13565270  1
  O  O46  1  0.63730267  0.12167059  0.13567926  1
  O  O47  1  0.49856661  0.36520662  0.14040077  1
  O  O48  1  0.46698622  0.30150861  0.02627384  1
  O  O49  1  0.84885355  0.54476235  0.03099023  1
  O  O50  1  0.69892270  0.15228630  0.03101831  1
  O  O51  1  0.45213747  0.15231540  0.53161315  1
  O  O52  1  0.69610932  0.54599733  0.53130866  1
  O  O53  1  0.83644010  0.30132106  0.52748804  1
  O  O54  1  0.54379085  0.69756891  0.96812639  1
  O  O55  1  0.15329984  0.45693840  0.96826707  1
  O  O56  1  0.30322308  0.84760576  0.96823696  1
  O  O57  1  0.53252545  0.83502014  0.47264200  1
  O  O58  1  0.30163351  0.45427467  0.46838134  1
  O  O59  1  0.15161426  0.69621131  0.46824108  1
  O  O60  1  0.12191979  0.63504463  0.36434087  1
  O  O61  1  0.50086597  0.86540939  0.36034975  1
  O  O62  1  0.36123848  0.48595666  0.36430752  1
  O  O63  1  0.12541787  0.48692759  0.86458209  1
  O  O64  1  0.36173389  0.87473046  0.86443056  1
  O  O65  1  0.51302976  0.63780954  0.86458233  1
  O  O66  1  0.02697742  0.82188744  0.40784621  1
  O  O67  1  0.81383665  0.97697271  0.40578741  1
  O  O68  1  0.18016457  0.20444545  0.40785990  1
  O  O69  1  0.02604589  0.20467470  0.90768687  1
  O  O70  1  0.17900225  0.97503827  0.90747920  1
  O  O71  1  0.79583797  0.82165572  0.90771642  1
  O  O72  1  0.97690050  0.16508719  0.59367195  1
  O  O73  1  0.20376311  0.02330647  0.59202160  1
  O  O74  1  0.82073221  0.79502032  0.59222888  1
  O  O75  1  0.97425681  0.79452854  0.09201526  1
  O  O76  1  0.81834072  0.02262118  0.09191680  1
  O  O77  1  0.18878818  0.16662102  0.09342066  1
  O  O78  1  0.68986027  0.15202843  0.74224591  1
  O  O79  1  0.46168664  0.30826093  0.74153690  1
  O  O80  1  0.84546921  0.53909769  0.74279490  1
  O  O81  1  0.69279790  0.53759757  0.24235139  1
  O  O82  1  0.84582418  0.30840780  0.24105274  1
  O  O83  1  0.46318815  0.15165334  0.24170275  1
  O  O84  1  0.64338951  0.51453873  0.92449665  1
  O  O85  1  0.87151645  0.35837418  0.92520957  1
  O  O86  1  0.48801353  0.12768211  0.92397707  1
  O  O87  1  0.63894787  0.14253982  0.42445951  1
  O  O88  1  0.48723128  0.36096737  0.42469418  1
  O  O89  1  0.87163091  0.51597440  0.42400201  1
  O  O90  1  0.35535446  0.50032576  0.07317032  1
  O  O91  1  0.12905037  0.64407682  0.07472562  1
  O  O92  1  0.51302252  0.87205052  0.07472018  1
  O  O93  1  0.35737112  0.87219620  0.57574297  1
  O  O94  1  0.51418451  0.64195959  0.57629774  1
  O  O95  1  0.14616015  0.50133534  0.57321086  1
  O  O96  1  0.30555538  0.84436299  0.25726017  1
  O  O97  1  0.53705189  0.68935079  0.25795367  1
  O  O98  1  0.15367627  0.46130950  0.25815042  1
  O  O99  1  0.30726636  0.46201528  0.75905834  1
  O  O100  1  0.15437572  0.69163291  0.75926388  1
  O  O101  1  0.53742504  0.84493960  0.75901745  1
