# generated using pymatgen
data_Y2SiGe2S5O24
_symmetry_space_group_name_H-M   'P 1'
_cell_length_a   8.83294688
_cell_length_b   8.86635181
_cell_length_c   22.87111482
_cell_angle_alpha   89.54032271
_cell_angle_beta   90.04639749
_cell_angle_gamma   120.16338952
_symmetry_Int_Tables_number   1
_chemical_formula_structural   Y2SiGe2S5O24
_chemical_formula_sum   'Y6 Si3 Ge6 S15 O72'
_cell_volume   1548.58184658
_cell_formula_units_Z   3
loop_
 _symmetry_equiv_pos_site_id
 _symmetry_equiv_pos_as_xyz
  1  'x, y, z'
loop_
 _atom_site_type_symbol
 _atom_site_label
 _atom_site_symmetry_multiplicity
 _atom_site_fract_x
 _atom_site_fract_y
 _atom_site_fract_z
 _atom_site_occupancy
  Y  Y0  1  0.99227947  0.00184248  0.36513838  1
  Y  Y1  1  0.00426077  0.00279802  0.86188328  1
  Y  Y2  1  0.67831955  0.33707467  0.68023950  1
  Y  Y3  1  0.65708459  0.33421949  0.18444715  1
  Y  Y4  1  0.65417906  0.33007946  0.98784344  1
  Y  Y5  1  0.32948438  0.66370906  0.80400439  1
  Si  Si6  1  0.97795161  0.33822913  0.58062886  1
  Si  Si7  1  0.35073976  0.33392999  0.08445278  1
  Si  Si8  1  0.59432056  0.94718715  0.42022925  1
  Ge  Ge9  1  0.00082599  0.00822815  0.63982375  1
  Ge  Ge10  1  0.00552196  0.00450964  0.14782896  1
  Ge  Ge11  1  0.68670123  0.30976985  0.47934425  1
  Ge  Ge12  1  0.33227205  0.65945340  0.02265019  1
  Ge  Ge13  1  0.33773671  0.66121202  0.52008244  1
  Ge  Ge14  1  0.33871690  0.67671357  0.31664423  1
  S  S15  1  0.27879446  0.97681443  0.25169839  1
  S  S16  1  0.70289408  0.72077224  0.25051174  1
  S  S17  1  0.02024973  0.30502558  0.25132711  1
  S  S18  1  0.27934383  0.27735268  0.74405293  1
  S  S19  1  0.99858763  0.72786284  0.74383792  1
  S  S20  1  0.72402205  -0.00080232  0.74491720  1
  S  S21  1  0.36290150  0.03072203  0.58021385  1
  S  S22  1  0.67051901  0.63760574  0.57961080  1
  S  S23  1  0.98050471  0.64845903  0.08414363  1
  S  S24  1  0.66645064  0.01846267  0.08428410  1
  S  S25  1  0.61084424  0.66649902  0.92064737  1
  S  S26  1  0.05051491  0.38796956  0.92129686  1
  S  S27  1  0.33666954  0.94146492  0.92184141  1
  S  S28  1  0.35660301  0.39955042  0.41910804  1
  S  S29  1  0.04360256  0.64563931  0.41920975  1
  O  O30  1  0.20013176  0.00695235  0.30289706  1
  O  O31  1  0.81343140  0.80328675  0.30115344  1
  O  O32  1  0.98884493  0.19446367  0.30292075  1
  O  O33  1  0.20165868  0.17894989  0.79841549  1
  O  O34  1  0.98181737  0.80733533  0.79768734  1
  O  O35  1  0.82321382  0.02018120  0.79867006  1
  O  O36  1  0.80890111  0.97498963  0.69163992  1
  O  O37  1  0.16815822  0.19155949  0.69136020  1
  O  O38  1  0.02438589  0.83767034  0.68966467  1
  O  O39  1  0.78277301  0.83244456  0.19522423  1
  O  O40  1  0.05246383  0.22525557  0.19793151  1
  O  O41  1  0.16912425  0.94847398  0.19728591  1
  O  O42  1  0.90301631  0.38504280  0.63655734  1
  O  O43  1  0.47048931  0.10463056  0.63281893  1
  O  O44  1  0.63162783  0.52984322  0.63285172  1
  O  O45  1  0.90629770  0.53059062  0.13483608  1
  O  O46  1  0.63152448  0.09681428  0.13512535  1
  O  O47  1  0.48027564  0.37706603  0.13919049  1
  O  O48  1  0.42588003  0.28588679  0.02780794  1
  O  O49  1  0.87042675  0.57419652  0.03201439  1
  O  O50  1  0.71126579  0.13299326  0.03245119  1
  O  O51  1  0.44386608  0.15277163  0.52883080  1
  O  O52  1  0.70714637  0.55930090  0.52850958  1
  O  O53  1  0.83730347  0.29071589  0.52448864  1
  O  O54  1  0.52471686  0.69152021  0.97334395  1
  O  O55  1  0.16209070  0.47594855  0.97361943  1
  O  O56  1  0.31167878  0.83111029  0.97571155  1
  O  O57  1  0.50267914  0.82542917  0.47771641  1
  O  O58  1  0.31350064  0.47209653  0.47082169  1
  O  O59  1  0.15345103  0.67477359  0.47076109  1
  O  O60  1  0.11347356  0.60629834  0.36450772  1
  O  O61  1  0.47402568  0.86297117  0.35957590  1
  O  O62  1  0.38529800  0.50899304  0.36392898  1
  O  O63  1  0.12912984  0.48660142  0.86689571  1
  O  O64  1  0.35307940  0.86124060  0.86806737  1
  O  O65  1  0.51135074  0.64523408  0.86684444  1
  O  O66  1  0.02832991  0.80084520  0.41122624  1
  O  O67  1  0.78370023  0.96828814  0.41501096  1
  O  O68  1  0.20187616  0.22672450  0.41131147  1
  O  O69  1  0.03994414  0.21710023  0.91867322  1
  O  O70  1  0.17847009  0.95668725  0.91965649  1
  O  O71  1  0.78333604  0.82613191  0.91774662  1
  O  O72  1  0.99342604  0.16155886  0.59160266  1
  O  O73  1  0.18426743  0.01142257  0.58911617  1
  O  O74  1  0.82890361  0.81594774  0.58943351  1
  O  O75  1  0.99168679  0.82044689  0.09573766  1
  O  O76  1  0.81855549  0.99103141  0.09554257  1
  O  O77  1  0.15801246  0.15596650  0.09869832  1
  O  O78  1  0.70313004  0.15237731  0.73970941  1
  O  O79  1  0.45241268  0.29605980  0.73801098  1
  O  O80  1  0.84022817  0.55636408  0.73991048  1
  O  O81  1  0.68445756  0.54891896  0.24290073  1
  O  O82  1  0.87001531  0.32840329  0.24135717  1
  O  O83  1  0.45643802  0.12376639  0.24283882  1
  O  O84  1  0.63189072  0.51390197  0.92661282  1
  O  O85  1  0.87770749  0.36868470  0.92787414  1
  O  O86  1  0.49481530  0.11227405  0.92658541  1
  O  O87  1  0.61276710  0.14273528  0.42775463  1
  O  O88  1  0.51601449  0.38843902  0.42770237  1
  O  O89  1  0.86177940  0.49010310  0.42680995  1
  O  O90  1  0.33001570  0.50657097  0.07155039  1
  O  O91  1  0.16064369  0.67898198  0.07323985  1
  O  O92  1  0.50680891  0.84582720  0.07312999  1
  O  O93  1  0.33906826  0.85532406  0.57104475  1
  O  O94  1  0.51389420  0.65875362  0.57148612  1
  O  O95  1  0.17024692  0.50831208  0.56539632  1
  O  O96  1  0.28624608  0.80960846  0.25830071  1
  O  O97  1  0.52509610  0.70375827  0.25789699  1
  O  O98  1  0.18528216  0.48231109  0.25995119  1
  O  O99  1  0.29188810  0.44903747  0.74723997  1
  O  O100  1  0.15618034  0.71140108  0.74665969  1
  O  O101  1  0.55106997  0.83994812  0.74821202  1
