# generated using pymatgen
data_Na7La3Zn(PO4)6
_symmetry_space_group_name_H-M   'P 1'
_cell_length_a   9.57667854
_cell_length_b   9.57905818
_cell_length_c   23.45623767
_cell_angle_alpha   89.28904609
_cell_angle_beta   90.09595913
_cell_angle_gamma   120.06304753
_symmetry_Int_Tables_number   1
_chemical_formula_structural   Na7La3Zn(PO4)6
_chemical_formula_sum   'Na21 La9 Zn3 P18 O72'
_cell_volume   1862.13443010
_cell_formula_units_Z   3
loop_
 _symmetry_equiv_pos_site_id
 _symmetry_equiv_pos_as_xyz
  1  'x, y, z'
loop_
 _atom_site_type_symbol
 _atom_site_label
 _atom_site_symmetry_multiplicity
 _atom_site_fract_x
 _atom_site_fract_y
 _atom_site_fract_z
 _atom_site_occupancy
  Na  Na0  1  0.63252439  0.02186176  0.24333839  1
  Na  Na1  1  0.39196612  0.36609298  0.24588943  1
  Na  Na2  1  0.97461863  0.61342175  0.24193357  1
  Na  Na3  1  0.64283458  0.61543215  0.73765066  1
  Na  Na4  1  0.96866816  0.35533647  0.74185690  1
  Na  Na5  1  0.39390477  0.03221528  0.73840359  1
  Na  Na6  1  0.02531092  0.69746671  0.58988703  1
  Na  Na7  1  0.66733638  0.96848429  0.58899570  1
  Na  Na8  1  0.30433991  0.97255451  0.09067988  1
  Na  Na9  1  0.66963159  0.69692138  0.09099687  1
  Na  Na10  1  0.69342018  0.02573057  0.91956414  1
  Na  Na11  1  0.33861037  0.30264085  0.91734724  1
  Na  Na12  1  0.96896626  0.27832572  0.40471657  1
  Na  Na13  1  0.30667161  0.02567222  0.40579213  1
  Na  Na14  1  0.72763645  0.69882857  0.40423227  1
  Na  Na15  1  0.01053601  0.00847705  0.48719090  1
  Na  Na16  1  0.99977178  0.99785886  0.99835176  1
  Na  Na17  1  0.67826117  0.34326572  0.82632986  1
  Na  Na18  1  0.66558249  0.33250993  0.31885369  1
  Na  Na19  1  0.31680006  0.65134876  0.16393013  1
  Na  Na20  1  0.33495744  0.65226696  0.66306969  1
  La  La21  1  0.00203438  0.98843065  0.84611809  1
  La  La22  1  0.01366901  0.01325023  0.65013984  1
  La  La23  1  0.00004106  0.01605956  0.15342649  1
  La  La24  1  0.68935154  0.34711930  0.98568681  1
  La  La25  1  0.65830589  0.33448163  0.48567778  1
  La  La26  1  0.31298054  0.65397848  0.01860476  1
  La  La27  1  0.33267619  0.65479218  0.51669699  1
  La  La28  1  0.33493776  0.66879086  0.32050924  1
  La  La29  1  0.32488283  0.66816710  0.81909305  1
  Zn  Zn30  1  0.00143171  0.00038827  0.34101058  1
  Zn  Zn31  1  0.65810316  0.33180169  0.67563387  1
  Zn  Zn32  1  0.67522668  0.32848757  0.17325611  1
  P  P33  1  0.30594542  0.01024580  0.25155204  1
  P  P34  1  0.70307249  0.69536011  0.25334848  1
  P  P35  1  0.98999808  0.30114374  0.25648073  1
  P  P36  1  0.32331962  0.31301414  0.75239117  1
  P  P37  1  0.98812448  0.67710459  0.74328869  1
  P  P38  1  0.69190507  0.00896156  0.74779935  1
  P  P39  1  0.95870379  0.33978977  0.58731134  1
  P  P40  1  0.36945933  0.02265191  0.58713333  1
  P  P41  1  0.66651796  0.63654106  0.58806924  1
  P  P42  1  0.96903936  0.63820359  0.09371403  1
  P  P43  1  0.65450484  0.02465481  0.08710304  1
  P  P44  1  0.38310391  0.33843631  0.08721410  1
  P  P45  1  0.63453008  0.66954774  0.91791303  1
  P  P46  1  0.02295857  0.34538500  0.91147177  1
  P  P47  1  0.33712458  0.98180548  0.91823979  1
  P  P48  1  0.65247051  0.97489019  0.41636824  1
  P  P49  1  0.31920388  0.34453432  0.41099366  1
  P  P50  1  0.02716887  0.67865796  0.41635729  1
  O  O51  1  0.21483385  0.02250391  0.30454518  1
  O  O52  1  0.80663107  0.78857372  0.30593460  1
  O  O53  1  0.97824322  0.20180550  0.31092376  1
  O  O54  1  0.24810389  0.21862487  0.80911876  1
  O  O55  1  0.97146386  0.76942441  0.79457884  1
  O  O56  1  0.79422248  0.02444005  0.80181165  1
  O  O57  1  0.77422234  0.98230588  0.69520829  1
  O  O58  1  0.20190566  0.22292211  0.70402179  1
  O  O59  1  0.01575827  0.78047471  0.68881381  1
  O  O60  1  0.77976527  0.79432741  0.19786274  1
  O  O61  1  0.02066695  0.22310191  0.20452347  1
  O  O62  1  0.20634157  0.98726711  0.19670627  1
  O  O63  1  0.86412792  0.34802526  0.63947531  1
  O  O64  1  0.46717491  0.11861179  0.63984210  1
  O  O65  1  0.65701671  0.53558003  0.64141820  1
  O  O66  1  0.88082770  0.54037515  0.14803714  1
  O  O67  1  0.65462823  0.12146757  0.14003579  1
  O  O68  1  0.48745658  0.34794505  0.13957677  1
  O  O69  1  0.46377430  0.33216192  0.03071771  1
  O  O70  1  0.87635079  0.55048335  0.03975985  1
  O  O71  1  0.66632426  0.11503833  0.03062314  1
  O  O72  1  0.44766787  0.11170372  0.53061465  1
  O  O73  1  0.67225704  0.55471953  0.53232899  1
  O  O74  1  0.87152491  0.33293997  0.53097459  1
  O  O75  1  0.54094761  0.67823229  0.97068356  1
  O  O76  1  0.13042499  0.44803476  0.96121601  1
  O  O77  1  0.32641398  0.87955150  0.97150832  1
  O  O78  1  0.56305535  0.86937403  0.46982553  1
  O  O79  1  0.30143246  0.43826518  0.46150701  1
  O  O80  1  0.12948829  0.69390789  0.47017644  1
  O  O81  1  0.10803213  0.65077146  0.36390221  1
  O  O82  1  0.54577885  0.89578395  0.36319948  1
  O  O83  1  0.34893410  0.44543075  0.35566834  1
  O  O84  1  0.09709515  0.42934464  0.85392532  1
  O  O85  1  0.34072311  0.89524220  0.86320692  1
  O  O86  1  0.53946623  0.66197696  0.86331567  1
  O  O87  1  0.02024783  0.83740725  0.41085490  1
  O  O88  1  0.81836741  0.98258518  0.41237363  1
  O  O89  1  0.16272246  0.17691557  0.40942966  1
  O  O90  1  0.01368905  0.17791111  0.91727829  1
  O  O91  1  0.19083733  0.01048246  0.91967030  1
  O  O92  1  0.80236367  0.82635460  0.91824475  1
  O  O93  1  0.97299833  0.18489213  0.58830796  1
  O  O94  1  0.19179489  0.98690841  0.58703354  1
  O  O95  1  0.82328615  0.80702572  0.58738640  1
  O  O96  1  0.98193983  0.80784575  0.09039349  1
  O  O97  1  0.79506736  0.98665609  0.08695477  1
  O  O98  1  0.21416492  0.18259160  0.08812026  1
  O  O99  1  0.68119273  0.16539209  0.74342964  1
  O  O100  1  0.48789471  0.31988228  0.74408256  1
  O  O101  1  0.83254538  0.50936631  0.74257529  1
  O  O102  1  0.68968430  0.52693500  0.25237453  1
  O  O103  1  0.83034556  0.30647316  0.25049310  1
  O  O104  1  0.47542064  0.16600902  0.24842281  1
  O  O105  1  0.64697568  0.51443840  0.91837747  1
  O  O106  1  0.84852748  0.31544857  0.91417760  1
  O  O107  1  0.49559230  0.14903432  0.91770441  1
  O  O108  1  0.67860517  0.14896851  0.41931275  1
  O  O109  1  0.46691658  0.31908931  0.41708450  1
  O  O110  1  0.85171042  0.53252711  0.41929688  1
  O  O111  1  0.36772638  0.49346542  0.08850739  1
  O  O112  1  0.14456273  0.66785718  0.09322029  1
  O  O113  1  0.49226607  0.85903761  0.08964890  1
  O  O114  1  0.36470250  0.85633900  0.58884894  1
  O  O115  1  0.52004900  0.66584154  0.58879697  1
  O  O116  1  0.12856006  0.49569276  0.58799837  1
  O  O117  1  0.33247788  0.86123413  0.25477389  1
  O  O118  1  0.52743501  0.66952060  0.25510527  1
  O  O119  1  0.13487794  0.47907062  0.25697756  1
  O  O120  1  0.35231230  0.48891689  0.75233789  1
  O  O121  1  0.13796082  0.65378226  0.74867894  1
  O  O122  1  0.51658930  0.86064206  0.75119159  1
