# generated using pymatgen
data_Na4NbAl3(PO4)6
_symmetry_space_group_name_H-M   'P 1'
_cell_length_a   8.58040521
_cell_length_b   8.57388257
_cell_length_c   21.88367252
_cell_angle_alpha   89.98689305
_cell_angle_beta   90.07914642
_cell_angle_gamma   119.96856008
_symmetry_Int_Tables_number   1
_chemical_formula_structural   Na4NbAl3(PO4)6
_chemical_formula_sum   'Na12 Nb3 Al9 P18 O72'
_cell_volume   1394.67556835
_cell_formula_units_Z   3
loop_
 _symmetry_equiv_pos_site_id
 _symmetry_equiv_pos_as_xyz
  1  'x, y, z'
loop_
 _atom_site_type_symbol
 _atom_site_label
 _atom_site_symmetry_multiplicity
 _atom_site_fract_x
 _atom_site_fract_y
 _atom_site_fract_z
 _atom_site_occupancy
  Na  Na0  1  0.63460765  0.99981708  0.25080251  1
  Na  Na1  1  0.36429177  0.36476546  0.25075808  1
  Na  Na2  1  0.00021976  0.63526101  0.25046363  1
  Na  Na3  1  0.30125720  0.33129145  0.58557632  1
  Na  Na4  1  0.03186401  0.69770489  0.58535333  1
  Na  Na5  1  0.66734324  0.69881856  0.08230030  1
  Na  Na6  1  0.99054554  0.99887766  0.49744483  1
  Na  Na7  1  0.00920036  0.00821258  0.99751603  1
  Na  Na8  1  0.66689492  0.33313361  0.82741140  1
  Na  Na9  1  0.66646232  0.33288314  0.33344910  1
  Na  Na10  1  0.32429024  0.66576675  0.16312727  1
  Na  Na11  1  0.34405379  0.67607029  0.66555721  1
  Nb  Nb12  1  0.66597093  0.33160008  0.97761095  1
  Nb  Nb13  1  0.66761001  0.33273970  0.47694142  1
  Nb  Nb14  1  0.33261513  0.66660839  0.80785548  1
  Al  Al15  1  0.00065953  0.00080503  0.35441340  1
  Al  Al16  1  0.99955815  0.00025989  0.85202153  1
  Al  Al17  1  0.99441970  0.99918378  0.64966692  1
  Al  Al18  1  0.00513157  0.00424293  0.14690357  1
  Al  Al19  1  0.66587274  0.33176162  0.68912997  1
  Al  Al20  1  0.66752174  0.33292268  0.18343035  1
  Al  Al21  1  0.32740283  0.66586664  0.01935685  1
  Al  Al22  1  0.33955523  0.67194747  0.51744145  1
  Al  Al23  1  0.33338056  0.66710981  0.31583411  1
  P  P24  1  0.28590618  0.00024551  0.25021737  1
  P  P25  1  0.71347167  0.71324526  0.24985753  1
  P  P26  1  0.99985875  0.28590355  0.25022081  1
  P  P27  1  0.28645039  0.27335173  0.74853623  1
  P  P28  1  0.98659809  0.71362542  0.74845359  1
  P  P29  1  0.72666960  0.01292662  0.74921094  1
  P  P30  1  0.95659912  0.32980061  0.58679821  1
  P  P31  1  0.37791391  0.03898674  0.58672423  1
  P  P32  1  0.66539693  0.62843811  0.58650659  1
  P  P33  1  0.96531620  0.62787335  0.08661006  1
  P  P34  1  0.66630620  0.03954603  0.08674689  1
  P  P35  1  0.36874989  0.33023751  0.08622817  1
  P  P36  1  0.62686190  0.68022795  0.91860272  1
  P  P37  1  0.05402846  0.37370111  0.91814491  1
  P  P38  1  0.31912503  0.94577898  0.91800267  1
  P  P39  1  0.62170197  0.94306331  0.41473533  1
  P  P40  1  0.32183672  0.37858529  0.41554371  1
  P  P41  1  0.05680743  0.67854965  0.41542336  1
  O  O42  1  0.20447929  0.03998821  0.30643846  1
  O  O43  1  0.83672342  0.79788841  0.30537934  1
  O  O44  1  0.96056622  0.16477450  0.30642801  1
  O  O45  1  0.19912448  0.16606196  0.80604347  1
  O  O46  1  0.96647777  0.80071829  0.80606979  1
  O  O47  1  0.83238323  0.03393933  0.80745216  1
  O  O48  1  0.80060399  0.97030988  0.69214203  1
  O  O49  1  0.17367904  0.20114588  0.68978742  1
  O  O50  1  0.02802427  0.82687946  0.68981295  1
  O  O51  1  0.79230565  0.83017566  0.19180261  1
  O  O52  1  0.03902797  0.20403156  0.19377575  1
  O  O53  1  0.16447467  0.96047736  0.19375715  1
  O  O54  1  0.86842286  0.37139718  0.63989237  1
  O  O55  1  0.49916865  0.13199785  0.64091826  1
  O  O56  1  0.62726021  0.49943781  0.63988682  1
  O  O57  1  0.87458751  0.50896054  0.14338045  1
  O  O58  1  0.63529000  0.12763273  0.14325599  1
  O  O59  1  0.49517062  0.36953035  0.14226371  1
  O  O60  1  0.46138960  0.30108753  0.02915940  1
  O  O61  1  0.83720241  0.53938194  0.03010235  1
  O  O62  1  0.69834248  0.16067545  0.02951697  1
  O  O63  1  0.46152664  0.16216225  0.52822795  1
  O  O64  1  0.70281452  0.54119103  0.52804870  1
  O  O65  1  0.83969266  0.30009438  0.52756603  1
  O  O66  1  0.53855505  0.69923029  0.97685588  1
  O  O67  1  0.16588528  0.46488186  0.97470067  1
  O  O68  1  0.30006536  0.83507841  0.97467803  1
  O  O69  1  0.53354036  0.83396787  0.47214361  1
  O  O70  1  0.30154544  0.46427317  0.47444205  1
  O  O71  1  0.16215717  0.69781216  0.47448139  1
  O  O72  1  0.13375671  0.63975636  0.35766601  1
  O  O73  1  0.50760471  0.86877188  0.35632944  1
  O  O74  1  0.36074299  0.49437821  0.35769502  1
  O  O75  1  0.13114341  0.49362744  0.86044683  1
  O  O76  1  0.36166169  0.86856481  0.86035163  1
  O  O77  1  0.50483619  0.63830337  0.86163710  1
  O  O78  1  0.02946041  0.84063020  0.40859184  1
  O  O79  1  0.81112576  0.97062828  0.40814719  1
  O  O80  1  0.15962995  0.18940712  0.40873589  1
  O  O81  1  0.02783298  0.18693607  0.90940875  1
  O  O82  1  0.15894479  0.97257257  0.90925723  1
  O  O83  1  0.81331511  0.84091071  0.90988825  1
  O  O84  1  0.98027552  0.16423793  0.59153899  1
  O  O85  1  0.18865204  0.02121350  0.59074372  1
  O  O86  1  0.83761517  0.81247340  0.59143417  1
  O  O87  1  0.97398552  0.81123860  0.09253500  1
  O  O88  1  0.83450026  0.01943709  0.09238944  1
  O  O89  1  0.18577023  0.16127494  0.09244634  1
  O  O90  1  0.69627141  0.17343137  0.74201662  1
  O  O91  1  0.47752588  0.30438264  0.74194309  1
  O  O92  1  0.82634926  0.52270172  0.74152182  1
  O  O93  1  0.68977793  0.52046887  0.24250431  1
  O  O94  1  0.83117191  0.30979516  0.24246729  1
  O  O95  1  0.47822728  0.16893031  0.24218860  1
  O  O96  1  0.64264967  0.50482311  0.92381226  1
  O  O97  1  0.86320285  0.35815014  0.92402946  1
  O  O98  1  0.49452164  0.13691481  0.92350192  1
  O  O99  1  0.64001917  0.13587087  0.42162559  1
  O  O100  1  0.49609969  0.35998176  0.42196083  1
  O  O101  1  0.86395316  0.50425647  0.42149517  1
  O  O102  1  0.35960026  0.50372985  0.07700051  1
  O  O103  1  0.14773269  0.64264952  0.07679840  1
  O  O104  1  0.49949317  0.85209150  0.07743484  1
  O  O105  1  0.35340282  0.85026638  0.57610082  1
  O  O106  1  0.49442398  0.64060416  0.57538619  1
  O  O107  1  0.14488693  0.50018821  0.57651268  1
  O  O108  1  0.31010188  0.83169101  0.25739708  1
  O  O109  1  0.52108405  0.68920681  0.25717690  1
  O  O110  1  0.16798732  0.47869264  0.25750248  1
  O  O111  1  0.30716637  0.46863867  0.75482957  1
  O  O112  1  0.16120030  0.69307402  0.75470113  1
  O  O113  1  0.53148378  0.83877597  0.75550950  1
