# generated using pymatgen
data_CsIO3
_symmetry_space_group_name_H-M   'P 1'
_cell_length_a   4.66904371
_cell_length_b   6.60177417
_cell_length_c   6.61473721
_cell_angle_alpha   90.00000000
_cell_angle_beta   90.00000000
_cell_angle_gamma   89.99353567
_symmetry_Int_Tables_number   1
_chemical_formula_structural   CsIO3
_chemical_formula_sum   'Cs2 I2 O6'
_cell_volume   203.89247464
_cell_formula_units_Z   2
loop_
 _symmetry_equiv_pos_site_id
 _symmetry_equiv_pos_as_xyz
  1  'x, y, z'
loop_
 _atom_site_type_symbol
 _atom_site_label
 _atom_site_symmetry_multiplicity
 _atom_site_fract_x
 _atom_site_fract_y
 _atom_site_fract_z
 _atom_site_occupancy
  Cs  Cs0  1  0.50426584  0.48584683  0.00000000  1
  Cs  Cs1  1  0.49574727  0.98583032  0.50000000  1
  I  I2  1  0.02144656  0.00296506  0.00000000  1
  I  I3  1  0.97850865  0.50293799  0.50000000  1
  O  O4  1  0.59326471  0.46939585  0.50000000  1
  O  O5  1  0.01440083  0.67735987  0.28998741  1
  O  O6  1  0.01440083  0.67735987  0.71001259  1
  O  O7  1  0.98568432  0.17740597  0.79002830  1
  O  O8  1  0.40659366  0.96949227  0.00000000  1
  O  O9  1  0.98568432  0.17740597  0.20997170  1
