# generated using pymatgen
data_NiH2SeO5
_symmetry_space_group_name_H-M   'P 1'
_cell_length_a   6.87914286
_cell_length_b   8.03799464
_cell_length_c   7.50520968
_cell_angle_alpha   89.99999851
_cell_angle_beta   117.38279182
_cell_angle_gamma   89.99999859
_symmetry_Int_Tables_number   1
_chemical_formula_structural   NiH2SeO5
_chemical_formula_sum   'Ni4 H8 Se4 O20'
_cell_volume   368.49799086
_cell_formula_units_Z   4
loop_
 _symmetry_equiv_pos_site_id
 _symmetry_equiv_pos_as_xyz
  1  'x, y, z'
loop_
 _atom_site_type_symbol
 _atom_site_label
 _atom_site_symmetry_multiplicity
 _atom_site_fract_x
 _atom_site_fract_y
 _atom_site_fract_z
 _atom_site_occupancy
  Ni  Ni0  1  -0.00000000  0.50000000  0.00000000  1
  Ni  Ni1  1  -0.00000000  -0.00000000  0.50000000  1
  Ni  Ni2  1  0.50000000  -0.00000000  0.00000000  1
  Ni  Ni3  1  0.50000000  0.50000000  0.50000000  1
  H  H4  1  0.33090374  0.69686358  0.19983688  1
  H  H5  1  0.83090374  0.19686358  0.19983688  1
  H  H6  1  0.66909626  0.19686358  0.30016312  1
  H  H7  1  0.16909626  0.69686358  0.30016312  1
  H  H8  1  0.66909626  0.30313642  0.80016312  1
  H  H9  1  0.16909626  0.80313642  0.80016312  1
  H  H10  1  0.33090374  0.80313642  0.69983688  1
  H  H11  1  0.83090374  0.30313642  0.69983688  1
  Se  Se12  1  0.75000000  0.83401080  0.75000000  1
  Se  Se13  1  0.25000000  0.33401080  0.75000000  1
  Se  Se14  1  0.25000000  0.16598920  0.25000000  1
  Se  Se15  1  0.75000000  0.66598920  0.25000000  1
  O  O16  1  0.25000000  0.87662472  0.75000000  1
  O  O17  1  0.75000000  0.37662472  0.75000000  1
  O  O18  1  0.75000000  0.12337528  0.25000000  1
  O  O19  1  0.25000000  0.62337528  0.25000000  1
  O  O20  1  0.75793980  0.94826985  0.57142738  1
  O  O21  1  0.25793980  0.44826985  0.57142738  1
  O  O22  1  0.74206020  0.94826985  0.92857262  1
  O  O23  1  0.24206020  0.44826985  0.92857262  1
  O  O24  1  0.24206020  0.05173015  0.42857262  1
  O  O25  1  0.74206020  0.55173015  0.42857262  1
  O  O26  1  0.25793980  0.05173015  0.07142738  1
  O  O27  1  0.75793980  0.55173015  0.07142738  1
  O  O28  1  0.47363620  0.21520672  0.84815737  1
  O  O29  1  0.97363620  0.71520672  0.84815737  1
  O  O30  1  0.52636380  0.71520672  0.65184263  1
  O  O31  1  0.02636380  0.21520672  0.65184263  1
  O  O32  1  0.52636380  0.78479328  0.15184263  1
  O  O33  1  0.02636380  0.28479328  0.15184263  1
  O  O34  1  0.47363620  0.28479328  0.34815737  1
  O  O35  1  0.97363620  0.78479328  0.34815737  1
