# generated using pymatgen
data_Na8Al2Zn2Si3(SO8)3
_symmetry_space_group_name_H-M   'P 1'
_cell_length_a   9.08106269
_cell_length_b   9.02133908
_cell_length_c   21.90009501
_cell_angle_alpha   93.29388603
_cell_angle_beta   88.79649140
_cell_angle_gamma   120.53160361
_symmetry_Int_Tables_number   1
_chemical_formula_structural   Na8Al2Zn2Si3(SO8)3
_chemical_formula_sum   'Na24 Al6 Zn6 Si9 S9 O72'
_cell_volume   1542.74848412
_cell_formula_units_Z   3
loop_
 _symmetry_equiv_pos_site_id
 _symmetry_equiv_pos_as_xyz
  1  'x, y, z'
loop_
 _atom_site_type_symbol
 _atom_site_label
 _atom_site_symmetry_multiplicity
 _atom_site_fract_x
 _atom_site_fract_y
 _atom_site_fract_z
 _atom_site_occupancy
  Na  Na0  1  0.64536980  0.02255520  0.26232312  1
  Na  Na1  1  0.35919328  0.34694656  0.25418931  1
  Na  Na2  1  0.99766350  0.63181439  0.24155181  1
  Na  Na3  1  0.63598298  0.63686310  0.73385966  1
  Na  Na4  1  0.98880196  0.34662844  0.73642780  1
  Na  Na5  1  0.37989588  0.02926764  0.74845771  1
  Na  Na6  1  0.31164395  0.35248832  0.59290014  1
  Na  Na7  1  0.02697140  0.68043007  0.58683205  1
  Na  Na8  1  0.66677501  0.96343024  0.57834899  1
  Na  Na9  1  0.28976619  0.95648373  0.08488922  1
  Na  Na10  1  0.66623326  0.69313360  0.07768769  1
  Na  Na11  1  0.03361005  0.34526766  0.09467649  1
  Na  Na12  1  0.98451568  0.68906942  0.91469405  1
  Na  Na13  1  0.68323276  0.01931716  0.90159832  1
  Na  Na14  1  0.32637789  0.28922528  0.90745001  1
  Na  Na15  1  0.95842503  0.28486892  0.41733294  1
  Na  Na16  1  0.33105442  0.02974739  0.40626504  1
  Na  Na17  1  0.69739118  0.67936066  0.43139012  1
  Na  Na18  1  0.98162746  0.99697135  0.49931772  1
  Na  Na19  1  0.01197856  0.99412452  0.99643484  1
  Na  Na20  1  0.64837159  0.32935262  0.82494705  1
  Na  Na21  1  0.66984605  0.31914837  0.33371171  1
  Na  Na22  1  0.31399783  0.66322570  0.16588625  1
  Na  Na23  1  0.34273535  0.65840474  0.66296597  1
  Al  Al24  1  0.97911808  0.02242885  0.64484462  1
  Al  Al25  1  0.01092975  0.98324134  0.15940235  1
  Al  Al26  1  0.66572167  0.33555426  0.98128099  1
  Al  Al27  1  0.67835973  0.31568078  0.49193360  1
  Al  Al28  1  0.32396777  0.68696375  0.30984748  1
  Al  Al29  1  0.35010256  0.69023623  0.80577517  1
  Zn  Zn30  1  0.00050482  0.01806680  0.34490811  1
  Zn  Zn31  1  0.01281773  0.02117130  0.83711919  1
  Zn  Zn32  1  0.67340202  0.33900375  0.68161409  1
  Zn  Zn33  1  0.67899663  0.32642488  0.18729784  1
  Zn  Zn34  1  0.30927067  0.68233976  0.01227545  1
  Zn  Zn35  1  0.35339346  0.66550420  0.52103711  1
  Si  Si36  1  0.29749593  0.99805940  0.25151657  1
  Si  Si37  1  0.01082109  0.29808472  0.25125290  1
  Si  Si38  1  0.29355021  0.30286664  0.75052066  1
  Si  Si39  1  0.70230888  0.99650050  0.75106510  1
  Si  Si40  1  0.96902882  0.33584517  0.58365216  1
  Si  Si41  1  0.68323362  0.62897677  0.58407968  1
  Si  Si42  1  0.95004538  0.62871503  0.08558196  1
  Si  Si43  1  0.33986793  0.97109006  0.91919011  1
  Si  Si44  1  0.62137598  0.96109971  0.41828884  1
  S  S45  1  0.70154368  0.71205291  0.24902591  1
  S  S46  1  0.01297420  0.70714526  0.75563328  1
  S  S47  1  0.36810910  0.04432382  0.58177716  1
  S  S48  1  0.66918678  0.03932458  0.07887501  1
  S  S49  1  0.37366098  0.32974705  0.08189939  1
  S  S50  1  0.61710330  0.65236668  0.92007844  1
  S  S51  1  0.02609927  0.36949922  0.92176620  1
  S  S52  1  0.33824514  0.37354253  0.41401436  1
  S  S53  1  0.03678185  0.65944617  0.41476408  1
  O  O54  1  0.20846789  0.02363043  0.31256347  1
  O  O55  1  0.80157025  0.78564626  0.30555139  1
  O  O56  1  0.96252132  0.18977223  0.31193674  1
  O  O57  1  0.23134807  0.19185031  0.81138072  1
  O  O58  1  0.99708620  0.79001937  0.81375117  1
  O  O59  1  0.80493475  0.00901356  0.81304172  1
  O  O60  1  0.79652848  0.96733863  0.69077374  1
  O  O61  1  0.15870599  0.19494445  0.69231767  1
  O  O62  1  0.03421924  0.80787456  0.70211188  1
  O  O63  1  0.79650552  0.81823713  0.19524555  1
  O  O64  1  0.03232387  0.18470445  0.19104476  1
  O  O65  1  0.17683764  0.96404906  0.19072068  1
  O  O66  1  0.88849171  0.37128796  0.64516603  1
  O  O67  1  0.46600773  0.11580783  0.63941412  1
  O  O68  1  0.64414427  0.51403865  0.64225725  1
  O  O69  1  0.86609450  0.51764900  0.14472073  1
  O  O70  1  0.63836578  0.10787119  0.13726183  1
  O  O71  1  0.46548385  0.34582633  0.13845128  1
  O  O72  1  0.46854575  0.31632846  0.02656676  1
  O  O73  1  0.82285333  0.53022929  0.02473768  1
  O  O74  1  0.67741094  0.14479070  0.02703077  1
  O  O75  1  0.46688309  0.15112785  0.52885761  1
  O  O76  1  0.70010500  0.51938425  0.52184098  1
  O  O77  1  0.84560526  0.29861046  0.52357051  1
  O  O78  1  0.52976051  0.66033376  0.97663821  1
  O  O79  1  0.12763448  0.44587147  0.97919358  1
  O  O80  1  0.30882038  0.87533139  0.98280363  1
  O  O81  1  0.54282750  0.85321577  0.47856056  1
  O  O82  1  0.32352912  0.45603105  0.47149929  1
  O  O83  1  0.13320760  0.67529778  0.46973768  1
  O  O84  1  0.12937785  0.64943079  0.35763030  1
  O  O85  1  0.49262188  0.86056761  0.35743726  1
  O  O86  1  0.34272806  0.46928158  0.35987581  1
  O  O87  1  0.11145920  0.47205833  0.86907721  1
  O  O88  1  0.36726267  0.85459657  0.86283851  1
  O  O89  1  0.51642506  0.63712186  0.86509422  1
  O  O90  1  0.01149137  0.80924304  0.41356247  1
  O  O91  1  0.81271866  0.98347321  0.41191305  1
  O  O92  1  0.18631632  0.19521400  0.41401018  1
  O  O93  1  0.99403819  0.19070495  0.91691771  1
  O  O94  1  0.17468733  0.99546205  0.91305881  1
  O  O95  1  0.79220731  0.80451768  0.92022353  1
  O  O96  1  0.97932836  0.15785242  0.58633112  1
  O  O97  1  0.20481083  0.04420040  0.58241755  1
  O  O98  1  0.86735615  0.81922671  0.59077616  1
  O  O99  1  0.96677650  0.82550672  0.09248900  1
  O  O100  1  0.83344556  0.03937552  0.07925547  1
  O  O101  1  0.20129806  0.16889051  0.07899995  1
  O  O102  1  0.67815015  0.16275020  0.74852658  1
  O  O103  1  0.48754105  0.33867220  0.74283413  1
  O  O104  1  0.86164652  0.53220822  0.75296470  1
  O  O105  1  0.66525111  0.53348258  0.24126517  1
  O  O106  1  0.85286251  0.33357178  0.24500235  1
  O  O107  1  0.48886104  0.16791647  0.24621435  1
  O  O108  1  0.63214806  0.49156126  0.91838310  1
  O  O109  1  0.85479252  0.36082463  0.92638227  1
  O  O110  1  0.52291689  0.16296580  0.92434320  1
  O  O111  1  0.63421420  0.15581437  0.42508524  1
  O  O112  1  0.49776573  0.36397195  0.41289194  1
  O  O113  1  0.86671982  0.49660998  0.41178405  1
  O  O114  1  0.35228150  0.48189722  0.07934364  1
  O  O115  1  0.14292411  0.65229562  0.08195329  1
  O  O116  1  0.52645386  0.85708968  0.07291034  1
  O  O117  1  0.33226447  0.86566089  0.57421611  1
  O  O118  1  0.52340653  0.66391698  0.58090046  1
  O  O119  1  0.16120651  0.50355586  0.57749890  1
  O  O120  1  0.31004559  0.82097569  0.25307028  1
  O  O121  1  0.53612149  0.71048705  0.24980858  1
  O  O122  1  0.19550827  0.48813707  0.25716530  1
  O  O123  1  0.29386929  0.48801882  0.76196097  1
  O  O124  1  0.17187797  0.69293295  0.75810390  1
  O  O125  1  0.51052331  0.81841794  0.75227902  1
