# generated using pymatgen
data_Na6Mg4Al4SiS11O48
_symmetry_space_group_name_H-M   'P 1'
_cell_length_a   17.10109068
_cell_length_b   8.55950742
_cell_length_c   22.02256027
_cell_angle_alpha   89.91146143
_cell_angle_beta   89.91905262
_cell_angle_gamma   120.07158213
_symmetry_Int_Tables_number   1
_chemical_formula_structural   Na6Mg4Al4SiS11O48
_chemical_formula_sum   'Na18 Mg12 Al12 Si3 S33 O144'
_cell_volume   2789.68651532
_cell_formula_units_Z   3
loop_
 _symmetry_equiv_pos_site_id
 _symmetry_equiv_pos_as_xyz
  1  'x, y, z'
loop_
 _atom_site_type_symbol
 _atom_site_label
 _atom_site_symmetry_multiplicity
 _atom_site_fract_x
 _atom_site_fract_y
 _atom_site_fract_z
 _atom_site_occupancy
  Na  Na0  1  0.81756852  0.99497767  0.24817026  1
  Na  Na1  1  0.99648201  0.63511483  0.25314633  1
  Na  Na2  1  0.31732921  0.64654728  0.74887482  1
  Na  Na3  1  0.81583744  0.64101079  0.74682914  1
  Na  Na4  1  0.99663504  0.36014869  0.75086657  1
  Na  Na5  1  0.68923250  0.99974727  0.74910522  1
  Na  Na6  1  0.99848990  0.99847367  0.49875628  1
  Na  Na7  1  0.50223867  0.00266527  0.49687675  1
  Na  Na8  1  0.00121342  0.00129723  0.00125743  1
  Na  Na9  1  0.49997296  0.99981104  0.00139978  1
  Na  Na10  1  0.33509206  0.31219656  0.83453540  1
  Na  Na11  1  0.83404242  0.32425298  0.83698452  1
  Na  Na12  1  0.33473852  0.33515533  0.33185241  1
  Na  Na13  1  0.82765274  0.34524769  0.33486458  1
  Na  Na14  1  0.17413244  0.66951636  0.16627983  1
  Na  Na15  1  0.66545105  0.65517391  0.16811448  1
  Na  Na16  1  0.17301285  0.68856233  0.66501901  1
  Na  Na17  1  0.66850727  0.66924654  0.66369908  1
  Mg  Mg18  1  0.49832353  0.99907356  0.35316244  1
  Mg  Mg19  1  0.83379814  0.32807548  0.68251971  1
  Mg  Mg20  1  0.33385038  0.33526962  0.18340604  1
  Mg  Mg21  1  0.82941857  0.34007837  0.18398575  1
  Mg  Mg22  1  0.33321074  0.33290547  0.98409251  1
  Mg  Mg23  1  0.83274767  0.33283598  0.98353763  1
  Mg  Mg24  1  0.83225214  0.33232354  0.48116582  1
  Mg  Mg25  1  0.16542089  0.66387521  0.51727783  1
  Mg  Mg26  1  0.66868371  0.66885411  0.51811396  1
  Mg  Mg27  1  0.17413360  0.67294405  0.31717517  1
  Mg  Mg28  1  0.17218421  0.68330754  0.81400768  1
  Mg  Mg29  1  0.66625809  0.66577715  0.81503817  1
  Al  Al30  1  0.99805253  0.98834515  0.35201669  1
  Al  Al31  1  0.99835544  0.00512556  0.85375598  1
  Al  Al32  1  0.49355171  0.00818009  0.85326615  1
  Al  Al33  1  0.99385730  0.99587408  0.64664516  1
  Al  Al34  1  0.49503668  0.99701294  0.64648909  1
  Al  Al35  1  0.99383727  0.99199151  0.15000247  1
  Al  Al36  1  0.49980642  0.00148504  0.15021033  1
  Al  Al37  1  0.33426795  0.31798884  0.68508347  1
  Al  Al38  1  0.33341448  0.33170923  0.48062144  1
  Al  Al39  1  0.16718005  0.66780697  0.01724703  1
  Al  Al40  1  0.66571855  0.66673320  0.01742439  1
  Al  Al41  1  0.66593106  0.65416972  0.31398700  1
  Si  Si42  1  0.85261369  0.70772770  0.25175270  1
  Si  Si43  1  0.35740827  0.00743893  0.74807997  1
  Si  Si44  1  0.85671568  0.00061603  0.75105191  1
  S  S45  1  0.14424313  0.00581838  0.25001558  1
  S  S46  1  0.64128319  0.99422119  0.25022388  1
  S  S47  1  0.35615229  0.71180874  0.24859886  1
  S  S48  1  0.00459926  0.28665616  0.24983388  1
  S  S49  1  0.49966517  0.28954173  0.25015016  1
  S  S50  1  0.14389989  0.27865842  0.74889530  1
  S  S51  1  0.63861958  0.28133031  0.75007691  1
  S  S52  1  0.00248301  0.72211325  0.74985370  1
  S  S53  1  0.49823723  0.71246787  0.74892708  1
  S  S54  1  0.47586353  0.33010096  0.58331381  1
  S  S55  1  0.98277010  0.33102854  0.58438849  1
  S  S56  1  0.18820323  0.04905384  0.58411302  1
  S  S57  1  0.68063714  0.03659602  0.58510507  1
  S  S58  1  0.33577259  0.61713279  0.58452136  1
  S  S59  1  0.83603500  0.63214983  0.58484186  1
  S  S60  1  0.48393352  0.63492550  0.08296490  1
  S  S61  1  0.98485737  0.63419145  0.08292624  1
  S  S62  1  0.33323692  0.03294122  0.08337136  1
  S  S63  1  0.83329357  0.03348899  0.08268943  1
  S  S64  1  0.18227059  0.33204032  0.08330027  1
  S  S65  1  0.68167142  0.33284390  0.08239899  1
  S  S66  1  0.31355842  0.66865095  0.91676099  1
  S  S67  1  0.81376395  0.66934235  0.91683314  1
  S  S68  1  0.02340499  0.37545878  0.91617733  1
  S  S69  1  0.52273588  0.37512859  0.91731113  1
  S  S70  1  0.16363504  0.95748821  0.91719793  1
  S  S71  1  0.66320425  0.95683062  0.91592616  1
  S  S72  1  0.31395171  0.96645763  0.41958653  1
  S  S73  1  0.81385164  0.95826183  0.41393743  1
  S  S74  1  0.16654929  0.36563241  0.41683722  1
  S  S75  1  0.66571611  0.37609303  0.41666666  1
  S  S76  1  0.02010740  0.67104038  0.41527480  1
  S  S77  1  0.52059242  0.66157179  0.41692814  1
  O  O78  1  0.10306986  0.03221122  0.30543632  1
  O  O79  1  0.60351190  0.02851455  0.30423194  1
  O  O80  1  0.40866219  0.79211012  0.30367512  1
  O  O81  1  0.92058820  0.80669432  0.30837440  1
  O  O82  1  0.48606085  0.18137576  0.30440311  1
  O  O83  1  0.99095387  0.17630756  0.30481521  1
  O  O84  1  0.10706403  0.16964188  0.80489623  1
  O  O85  1  0.60037887  0.16398912  0.80498832  1
  O  O86  1  0.48290022  0.79334068  0.80419457  1
  O  O87  1  0.98936603  0.80558528  0.80517276  1
  O  O88  1  0.41730420  0.03583601  0.80934576  1
  O  O89  1  0.92293248  0.03858696  0.80956905  1
  O  O90  1  0.40406671  0.96381682  0.69051230  1
  O  O91  1  0.90347796  0.96418097  0.69249639  1
  O  O92  1  0.08753478  0.19458561  0.69479394  1
  O  O93  1  0.58719437  0.19606825  0.69443244  1
  O  O94  1  0.01822631  0.83156763  0.69444135  1
  O  O95  1  0.51867123  0.83040853  0.69468301  1
  O  O96  1  0.40121028  0.82692868  0.19355008  1
  O  O97  1  0.89751109  0.84105494  0.19225633  1
  O  O98  1  0.01881605  0.20609437  0.19432042  1
  O  O99  1  0.51600720  0.20696160  0.19473836  1
  O  O100  1  0.08624790  0.97505144  0.19533339  1
  O  O101  1  0.58679900  0.97087327  0.19450321  1
  O  O102  1  0.43313269  0.35861006  0.63784949  1
  O  O103  1  0.94397399  0.35842237  0.64094590  1
  O  O104  1  0.24441093  0.13571744  0.63875952  1
  O  O105  1  0.73355248  0.11482802  0.64134954  1
  O  O106  1  0.32344784  0.50778552  0.64085467  1
  O  O107  1  0.82290060  0.52805091  0.64171122  1
  O  O108  1  0.44556990  0.52175920  0.13704178  1
  O  O109  1  0.94779365  0.52448827  0.13856625  1
  O  O110  1  0.31502770  0.10924879  0.13744417  1
  O  O111  1  0.81722025  0.10804777  0.13879236  1
  O  O112  1  0.23872831  0.36810312  0.13732514  1
  O  O113  1  0.73748207  0.36806238  0.13658880  1
  O  O114  1  0.22146103  0.29838493  0.02900258  1
  O  O115  1  0.72035305  0.29791082  0.02823765  1
  O  O116  1  0.42796420  0.55755010  0.02874350  1
  O  O117  1  0.92715311  0.55259872  0.02985836  1
  O  O118  1  0.35074538  0.14482442  0.02893706  1
  O  O119  1  0.84764720  0.14737410  0.02957356  1
  O  O120  1  0.23029419  0.16169369  0.52927626  1
  O  O121  1  0.72200433  0.14932154  0.53156984  1
  O  O122  1  0.34799164  0.52892631  0.53004058  1
  O  O123  1  0.84851955  0.54541558  0.53177775  1
  O  O124  1  0.41899663  0.30110330  0.52883570  1
  O  O125  1  0.92533828  0.29983984  0.53142322  1
  O  O126  1  0.26865449  0.69799527  0.97032728  1
  O  O127  1  0.76822489  0.69716743  0.97026724  1
  O  O128  1  0.08114781  0.46737399  0.96990853  1
  O  O129  1  0.57998123  0.46394710  0.97177159  1
  O  O130  1  0.14919636  0.84194508  0.97189490  1
  O  O131  1  0.64992663  0.83995350  0.96995583  1
  O  O132  1  0.27176674  0.85360725  0.47319220  1
  O  O133  1  0.77545941  0.84946561  0.46866860  1
  O  O134  1  0.14983392  0.44320566  0.47119761  1
  O  O135  1  0.65286554  0.45683906  0.47148993  1
  O  O136  1  0.07551781  0.69768145  0.46911913  1
  O  O137  1  0.57432141  0.68933070  0.47131222  1
  O  O138  1  0.06059366  0.64535525  0.35910672  1
  O  O139  1  0.56261532  0.63224721  0.36171040  1
  O  O140  1  0.26019794  0.89284617  0.36407605  1
  O  O141  1  0.75606646  0.87052061  0.35911505  1
  O  O142  1  0.18448782  0.47768416  0.36222757  1
  O  O143  1  0.67754655  0.48898797  0.36154753  1
  O  O144  1  0.06206474  0.47846880  0.85968820  1
  O  O145  1  0.56245301  0.48108412  0.86229460  1
  O  O146  1  0.17755364  0.87850704  0.86249568  1
  O  O147  1  0.67722777  0.87996404  0.86001961  1
  O  O148  1  0.26125364  0.64023851  0.86082642  1
  O  O149  1  0.76203860  0.64139340  0.86059641  1
  O  O150  1  0.01372677  0.83976317  0.41016899  1
  O  O151  1  0.50826555  0.81897216  0.40964184  1
  O  O152  1  0.40470358  0.98864017  0.41340978  1
  O  O153  1  0.90645418  0.98193422  0.40641610  1
  O  O154  1  0.08544884  0.18278027  0.40792750  1
  O  O155  1  0.58556435  0.19493923  0.41025018  1
  O  O156  1  0.01842535  0.19531123  0.91265956  1
  O  O157  1  0.51786826  0.19477992  0.91311625  1
  O  O158  1  0.07969831  0.97185409  0.91081580  1
  O  O159  1  0.57956799  0.97097769  0.91010103  1
  O  O160  1  0.40510006  0.83555392  0.91196178  1
  O  O161  1  0.90521213  0.83538284  0.91219389  1
  O  O162  1  0.48443133  0.16544814  0.58941991  1
  O  O163  1  0.99306508  0.16691896  0.59082791  1
  O  O164  1  0.09764436  0.03179349  0.59152696  1
  O  O165  1  0.58872966  0.02071364  0.59254175  1
  O  O166  1  0.41956318  0.79685207  0.58908381  1
  O  O167  1  0.92140444  0.81375776  0.58950181  1
  O  O168  1  0.49506082  0.81877805  0.09198704  1
  O  O169  1  0.99631737  0.81814804  0.09107074  1
  O  O170  1  0.41447767  0.01184019  0.09252575  1
  O  O171  1  0.91617211  0.01753236  0.08875366  1
  O  O172  1  0.09040087  0.17021483  0.09243300  1
  O  O173  1  0.58976468  0.17026847  0.09189817  1
  O  O174  1  0.34771854  0.18697432  0.74082541  1
  O  O175  1  0.84531902  0.17885790  0.74762343  1
  O  O176  1  0.23774240  0.31332851  0.74101316  1
  O  O177  1  0.73209630  0.31000340  0.74539751  1
  O  O178  1  0.41384525  0.53556258  0.74068281  1
  O  O179  1  0.91792656  0.54297783  0.74501786  1
  O  O180  1  0.34623872  0.53186649  0.24166655  1
  O  O181  1  0.84651024  0.51439650  0.24604424  1
  O  O182  1  0.41994719  0.30977706  0.24197060  1
  O  O183  1  0.92081527  0.29851058  0.24382824  1
  O  O184  1  0.23423598  0.16427741  0.24374278  1
  O  O185  1  0.73474160  0.14664369  0.24203177  1
  O  O186  1  0.32454556  0.51050204  0.92478032  1
  O  O187  1  0.82446055  0.51031766  0.92469567  1
  O  O188  1  0.43172904  0.34986513  0.92460791  1
  O  O189  1  0.93240231  0.35101512  0.92372320  1
  O  O190  1  0.24285963  0.13833108  0.92479729  1
  O  O191  1  0.74311189  0.13722668  0.92369181  1
  O  O192  1  0.32283998  0.15003425  0.42764371  1
  O  O193  1  0.82261814  0.13826412  0.41877534  1
  O  O194  1  0.24903659  0.34711501  0.42588322  1
  O  O195  1  0.74796809  0.36135648  0.42020477  1
  O  O196  1  0.42825876  0.49444197  0.42373436  1
  O  O197  1  0.92922494  0.51190796  0.42133733  1
  O  O198  1  0.17239270  0.49623808  0.07361093  1
  O  O199  1  0.67159353  0.49611285  0.07307411  1
  O  O200  1  0.07637720  0.65335491  0.07332061  1
  O  O201  1  0.57619787  0.65601111  0.07352133  1
  O  O202  1  0.25182490  0.84847431  0.07378844  1
  O  O203  1  0.75178180  0.84921715  0.07368680  1
  O  O204  1  0.17911541  0.86967143  0.57871348  1
  O  O205  1  0.66961276  0.85543598  0.57877529  1
  O  O206  1  0.25594326  0.63781637  0.57937612  1
  O  O207  1  0.75679770  0.65647743  0.57948605  1
  O  O208  1  0.07324710  0.49223898  0.57818366  1
  O  O209  1  0.56571793  0.48991627  0.57819490  1
  O  O210  1  0.15006242  0.83831480  0.25483243  1
  O  O211  1  0.64752303  0.82620862  0.25650309  1
  O  O212  1  0.26628847  0.69755318  0.25192720  1
  O  O213  1  0.75374445  0.69432430  0.25988750  1
  O  O214  1  0.08211688  0.47171422  0.25507466  1
  O  O215  1  0.58199469  0.47228331  0.25626818  1
  O  O216  1  0.14966649  0.45733867  0.75511617  1
  O  O217  1  0.64631457  0.45913181  0.75602787  1
  O  O218  1  0.07807377  0.68726498  0.75524527  1
  O  O219  1  0.57641887  0.68657166  0.75551966  1
  O  O220  1  0.25887549  0.82513264  0.75179808  1
  O  O221  1  0.75604262  0.82248962  0.75394148  1
