# generated using pymatgen
data_Bi4Br2O5
_symmetry_space_group_name_H-M   'P 1'
_cell_length_a   5.65025584
_cell_length_b   10.93906937
_cell_length_c   14.60015792
_cell_angle_alpha   81.97584392
_cell_angle_beta   90.00000000
_cell_angle_gamma   90.00000000
_symmetry_Int_Tables_number   1
_chemical_formula_structural   Bi4Br2O5
_chemical_formula_sum   'Bi16 Br8 O20'
_cell_volume   893.57918857
_cell_formula_units_Z   4
loop_
 _symmetry_equiv_pos_site_id
 _symmetry_equiv_pos_as_xyz
  1  'x, y, z'
loop_
 _atom_site_type_symbol
 _atom_site_label
 _atom_site_symmetry_multiplicity
 _atom_site_fract_x
 _atom_site_fract_y
 _atom_site_fract_z
 _atom_site_occupancy
  Bi  Bi0  1  0.26645006  0.79062568  0.15004410  1
  Bi  Bi1  1  0.76645006  0.20937432  0.84995590  1
  Bi  Bi2  1  0.76852423  0.64719008  0.30397924  1
  Bi  Bi3  1  0.26852423  0.35280992  0.69602076  1
  Bi  Bi4  1  0.21920422  0.73418898  0.88196270  1
  Bi  Bi5  1  0.71920422  0.26581102  0.11803730  1
  Bi  Bi6  1  0.66392828  0.59628850  0.04394606  1
  Bi  Bi7  1  0.16392828  0.40371150  0.95605394  1
  Bi  Bi8  1  0.18926009  0.43789137  0.21849151  1
  Bi  Bi9  1  0.68926009  0.56210863  0.78150849  1
  Bi  Bi10  1  0.75096894  0.27589583  0.37271609  1
  Bi  Bi11  1  0.25096894  0.72410417  0.62728391  1
  Bi  Bi12  1  0.26089372  0.07818669  0.54326783  1
  Bi  Bi13  1  0.76089372  0.92181331  0.45673217  1
  Bi  Bi14  1  0.75782589  0.90625478  0.70689439  1
  Bi  Bi15  1  0.25782589  0.09374522  0.29310561  1
  Br  Br16  1  0.26474875  0.78344320  0.38041848  1
  Br  Br17  1  0.76474875  0.21655680  0.61958152  1
  Br  Br18  1  0.78489202  0.61649604  0.55253693  1
  Br  Br19  1  0.28489202  0.38350396  0.44746307  1
  Br  Br20  1  0.76357172  0.94859018  0.22474696  1
  Br  Br21  1  0.78000130  0.87434187  0.94260259  1
  Br  Br22  1  0.28000130  0.12565813  0.05739741  1
  Br  Br23  1  0.26357172  0.05140982  0.77525304  1
  O  O24  1  0.30712041  0.69721321  0.03424105  1
  O  O25  1  0.80712041  0.30278679  0.96575895  1
  O  O26  1  0.01551828  0.65337684  0.19382789  1
  O  O27  1  0.51551828  0.34662316  0.80617211  1
  O  O28  1  0.51722681  0.65037968  0.19612251  1
  O  O29  1  0.01722681  0.34962032  0.80387749  1
  O  O30  1  0.81893056  0.45916530  0.29299557  1
  O  O31  1  0.31893056  0.54083470  0.70700443  1
  O  O32  1  0.97850574  0.42289356  0.09563173  1
  O  O33  1  0.47850574  0.57710644  0.90436827  1
  O  O34  1  0.47588323  0.42314820  0.09008436  1
  O  O35  1  0.97588323  0.57685180  0.90991564  1
  O  O36  1  0.00272958  0.92237674  0.57933764  1
  O  O37  1  0.50272958  0.07762326  0.42066236  1
  O  O38  1  0.51878156  0.92009614  0.58000697  1
  O  O39  1  0.01878156  0.07990386  0.41999303  1
  O  O40  1  0.49568185  0.25415062  0.26386267  1
  O  O41  1  0.50725075  0.75103028  0.74073590  1
  O  O42  1  0.00725075  0.24896972  0.25926410  1
  O  O43  1  0.99568185  0.74584938  0.73613733  1
