# generated using pymatgen
data_Na14Ca2Ti6Si9(SO16)3
_symmetry_space_group_name_H-M   'P 1'
_cell_length_a   18.20049967
_cell_length_b   9.12938548
_cell_length_c   22.34015899
_cell_angle_alpha   90.21086184
_cell_angle_beta   89.89773016
_cell_angle_gamma   120.12836779
_symmetry_Int_Tables_number   1
_chemical_formula_structural   Na14Ca2Ti6Si9(SO16)3
_chemical_formula_sum   'Na42 Ca6 Ti18 Si27 S9 O144'
_cell_volume   3210.52150085
_cell_formula_units_Z   3
loop_
 _symmetry_equiv_pos_site_id
 _symmetry_equiv_pos_as_xyz
  1  'x, y, z'
loop_
 _atom_site_type_symbol
 _atom_site_label
 _atom_site_symmetry_multiplicity
 _atom_site_fract_x
 _atom_site_fract_y
 _atom_site_fract_z
 _atom_site_occupancy
  Na  Na0  1  0.31254181  0.00626537  0.24612290  1
  Na  Na1  1  0.81373984  0.01103180  0.24733016  1
  Na  Na2  1  0.19007228  0.37246985  0.25613342  1
  Na  Na3  1  0.69178626  0.37098636  0.24999843  1
  Na  Na4  1  0.99262864  0.61811920  0.25457165  1
  Na  Na5  1  0.49669643  0.62973464  0.24887451  1
  Na  Na6  1  0.31368186  0.61660470  0.74415672  1
  Na  Na7  1  0.81320738  0.62166281  0.74270600  1
  Na  Na8  1  0.99544688  0.35430949  0.74331137  1
  Na  Na9  1  0.49397398  0.37157542  0.75139678  1
  Na  Na10  1  0.19180490  0.01712924  0.74601213  1
  Na  Na11  1  0.69178663  0.00705227  0.75270742  1
  Na  Na12  1  0.15660270  0.34313671  0.58361908  1
  Na  Na13  1  0.65791812  0.34970399  0.57826858  1
  Na  Na14  1  0.01319589  0.69383898  0.58150116  1
  Na  Na15  1  0.51270658  0.69386275  0.57317282  1
  Na  Na16  1  0.32900315  0.96749311  0.58330487  1
  Na  Na17  1  0.83121174  0.95814346  0.57442315  1
  Na  Na18  1  0.15780733  0.96669053  0.08325745  1
  Na  Na19  1  0.65752334  0.97006429  0.08571477  1
  Na  Na20  1  0.33370137  0.70256355  0.08382641  1
  Na  Na21  1  0.82882034  0.69182479  0.08593738  1
  Na  Na22  1  0.01252821  0.32767096  0.07695428  1
  Na  Na23  1  0.51586081  0.33482909  0.08565738  1
  Na  Na24  1  0.98326195  0.67230196  0.91863659  1
  Na  Na25  1  0.35103667  0.03536355  0.91291317  1
  Na  Na26  1  0.16285080  0.29652518  0.91566889  1
  Na  Na27  1  0.48585533  0.29842850  0.41826637  1
  Na  Na28  1  0.66743315  0.03142945  0.41561244  1
  Na  Na29  1  0.84944689  0.67464579  0.41930799  1
  Na  Na30  1  0.00128355  0.00149651  0.49469574  1
  Na  Na31  1  0.49441159  0.98751909  0.49422634  1
  Na  Na32  1  0.99219598  0.99982851  0.99521831  1
  Na  Na33  1  0.50867294  0.01259317  0.00005452  1
  Na  Na34  1  0.33614469  0.34039388  0.82914188  1
  Na  Na35  1  0.82615110  0.31780935  0.83488891  1
  Na  Na36  1  0.32625105  0.33423416  0.33509939  1
  Na  Na37  1  0.83531990  0.32887794  0.33142940  1
  Na  Na38  1  0.17313612  0.67799995  0.16999306  1
  Na  Na39  1  0.66872181  0.67534210  0.16848912  1
  Na  Na40  1  0.16853551  0.66117832  0.66191798  1
  Na  Na41  1  0.67456524  0.66897343  0.66620637  1
  Ca  Ca42  1  0.32842689  0.33279201  0.68490068  1
  Ca  Ca43  1  0.83716936  0.33265934  0.68323595  1
  Ca  Ca44  1  0.33671748  0.33946052  0.18487870  1
  Ca  Ca45  1  0.82802140  0.32359137  0.18585199  1
  Ca  Ca46  1  0.16485058  0.66887395  0.01008768  1
  Ca  Ca47  1  0.66898192  0.66644632  0.50820272  1
  Ti  Ti48  1  0.99753447  0.99550177  0.35148837  1
  Ti  Ti49  1  0.49675262  0.98142770  0.35654306  1
  Ti  Ti50  1  0.99546534  0.01041960  0.85618191  1
  Ti  Ti51  1  0.50413490  0.01123459  0.84929226  1
  Ti  Ti52  1  0.99684274  0.01718968  0.64013204  1
  Ti  Ti53  1  0.49423773  0.98315696  0.65451256  1
  Ti  Ti54  1  0.99432651  0.00335104  0.15558766  1
  Ti  Ti55  1  0.49871157  0.97932048  0.14333600  1
  Ti  Ti56  1  0.34721956  0.32502053  0.98029982  1
  Ti  Ti57  1  0.82516461  0.31553853  0.97817464  1
  Ti  Ti58  1  0.32545568  0.33556267  0.47774052  1
  Ti  Ti59  1  0.84775740  0.35727955  0.47483308  1
  Ti  Ti60  1  0.66913984  0.65343603  0.01798650  1
  Ti  Ti61  1  0.16899851  0.68387286  0.51699280  1
  Ti  Ti62  1  0.16608200  0.68605030  0.31119429  1
  Ti  Ti63  1  0.67201209  0.68141382  0.32194883  1
  Ti  Ti64  1  0.16303229  0.66674263  0.81593689  1
  Ti  Ti65  1  0.66648250  0.64714404  0.81086873  1
  Si  Si66  1  0.14130480  0.99816458  0.25122509  1
  Si  Si67  1  0.63943862  0.98742688  0.25267856  1
  Si  Si68  1  0.35400731  0.71868904  0.25058212  1
  Si  Si69  1  0.85079472  0.71197185  0.25386173  1
  Si  Si70  1  0.00572107  0.29576229  0.25453395  1
  Si  Si71  1  0.13881078  0.28884591  0.75273985  1
  Si  Si72  1  0.64282771  0.28826971  0.74891161  1
  Si  Si73  1  0.50548378  0.71628549  0.75517127  1
  Si  Si74  1  0.35201430  0.98975514  0.75451641  1
  Si  Si75  1  0.85396962  0.98939892  0.75040904  1
  Si  Si76  1  0.98471725  0.34282219  0.58121312  1
  Si  Si77  1  0.18539935  0.03805884  0.58391577  1
  Si  Si78  1  0.33413590  0.63516057  0.58201053  1
  Si  Si79  1  0.83344352  0.63182001  0.58619962  1
  Si  Si80  1  0.48458142  0.62780035  0.08124208  1
  Si  Si81  1  0.33458499  0.02984327  0.08689540  1
  Si  Si82  1  0.83441757  0.03333106  0.08103504  1
  Si  Si83  1  0.68587582  0.33347714  0.08371089  1
  Si  Si84  1  0.81073474  0.65890065  0.91582313  1
  Si  Si85  1  0.01317712  0.36669551  0.91811062  1
  Si  Si86  1  0.52521657  0.37398549  0.91530645  1
  Si  Si87  1  0.16648506  0.97096924  0.91634278  1
  Si  Si88  1  0.31124902  0.96285070  0.41605095  1
  Si  Si89  1  0.82332644  0.97969649  0.41876767  1
  Si  Si90  1  0.66585264  0.36541475  0.41608608  1
  Si  Si91  1  0.02593410  0.67711858  0.41512424  1
  Si  Si92  1  0.51351180  0.65964604  0.41790708  1
  S  S93  1  0.50448576  0.28847234  0.25134610  1
  S  S94  1  0.00490791  0.71791452  0.75275362  1
  S  S95  1  0.48061376  0.32700006  0.58365805  1
  S  S96  1  0.67995864  0.03555359  0.58348008  1
  S  S97  1  0.97987251  0.63302549  0.08308391  1
  S  S98  1  0.18253806  0.32586447  0.08166272  1
  S  S99  1  0.31860199  0.66609151  0.91423110  1
  S  S100  1  0.66547637  0.95578994  0.91628556  1
  S  S101  1  0.16697577  0.37819304  0.41640944  1
  O  O102  1  0.08959300  0.01168724  0.30787732  1
  O  O103  1  0.58795594  0.00635618  0.30873980  1
  O  O104  1  0.41490809  0.83129820  0.30505283  1
  O  O105  1  0.91156275  0.81136053  0.31116580  1
  O  O106  1  0.49533418  0.18904704  0.30526689  1
  O  O107  1  0.99575261  0.16762875  0.30777947  1
  O  O108  1  0.08867796  0.16825266  0.80969523  1
  O  O109  1  0.59026362  0.17220514  0.80714526  1
  O  O110  1  0.49601963  0.82533617  0.80983044  1
  O  O111  1  0.99665013  0.80023554  0.80689723  1
  O  O112  1  0.41181073  0.00957747  0.81287694  1
  O  O113  1  0.91480952  -0.00130028  0.80542730  1
  O  O114  1  0.39960305  0.96196417  0.69424961  1
  O  O115  1  0.90058199  0.97102896  0.68858513  1
  O  O116  1  0.08115760  0.19782626  0.69147675  1
  O  O117  1  0.58205165  0.19275305  0.68972585  1
  O  O118  1  0.01535761  0.81418061  0.69767370  1
  O  O119  1  0.51534259  0.83236111  0.69304266  1
  O  O120  1  0.40035197  0.82886317  0.18761665  1
  O  O121  1  0.89959584  0.83640159  0.19320893  1
  O  O122  1  0.01612194  0.20050223  0.19125924  1
  O  O123  1  0.51140487  0.20550393  0.19566713  1
  O  O124  1  0.08222978  0.97209725  0.18944730  1
  O  O125  1  0.58143831  0.96919737  0.19081259  1
  O  O126  1  0.44257347  0.34565820  0.63924182  1
  O  O127  1  0.96059657  0.39136447  0.64434991  1
  O  O128  1  0.23950024  0.08451569  0.64451638  1
  O  O129  1  0.72859797  0.10812820  0.63909830  1
  O  O130  1  0.31099899  0.53262072  0.64382432  1
  O  O131  1  0.81747533  0.52644162  0.64676653  1
  O  O132  1  0.45847523  0.52593464  0.14292578  1
  O  O133  1  0.94163492  0.53781582  0.13809032  1
  O  O134  1  0.31291107  0.10412121  0.14449807  1
  O  O135  1  0.81075416  0.09033233  0.14250924  1
  O  O136  1  0.23162359  0.35133305  0.13672590  1
  O  O137  1  0.74097440  0.39633203  0.14349424  1
  O  O138  1  0.22692336  0.31138197  0.02787206  1
  O  O139  1  0.74002875  0.30377163  0.02856230  1
  O  O140  1  0.41306385  0.51771060  0.02745680  1
  O  O141  1  0.92799856  0.54666118  0.02908831  1
  O  O142  1  0.34678606  0.15941032  0.02634990  1
  O  O143  1  0.84919448  0.17221375  0.02604941  1
  O  O144  1  0.23962145  0.17724549  0.52976596  1
  O  O145  1  0.72334154  0.13860257  0.53041324  1
  O  O146  1  0.34958138  0.52673432  0.52742445  1
  O  O147  1  0.84640305  0.52938040  0.52708963  1
  O  O148  1  0.42758717  0.30750014  0.53031365  1
  O  O149  1  0.91458763  0.30965235  0.52806893  1
  O  O150  1  0.28449213  0.69558889  0.97037497  1
  O  O151  1  0.76443983  0.68781219  0.97373558  1
  O  O152  1  0.06736823  0.41976043  0.97864436  1
  O  O153  1  0.58199907  0.47270887  0.97322295  1
  O  O154  1  0.14439510  0.86681393  0.97750968  1
  O  O155  1  0.65647710  0.85752118  0.97046639  1
  O  O156  1  0.26502091  0.84162123  0.47407309  1
  O  O157  1  0.79189932  0.86786778  0.47803557  1
  O  O158  1  0.15905567  0.46121717  0.47072556  1
  O  O159  1  0.63774259  0.41609247  0.47713835  1
  O  O160  1  0.08272335  0.68848751  0.47296080  1
  O  O161  1  0.56605922  0.71129910  0.47906540  1
  O  O162  1  0.06968858  0.64457009  0.35540808  1
  O  O163  1  0.56892552  0.63546659  0.36216114  1
  O  O164  1  0.25000589  0.86441139  0.35682456  1
  O  O165  1  0.75199392  0.86959411  0.36246003  1
  O  O166  1  0.17923852  0.47924895  0.36168604  1
  O  O167  1  0.68265395  0.50611230  0.36100890  1
  O  O168  1  0.07217837  0.50724026  0.86339526  1
  O  O169  1  0.56828803  0.49056078  0.85525518  1
  O  O170  1  0.18308869  0.86372716  0.86042083  1
  O  O171  1  0.67725533  0.87831585  0.86154196  1
  O  O172  1  0.26035928  0.64405399  0.86286953  1
  O  O173  1  0.74929129  0.63551599  0.85683744  1
  O  O174  1  0.00947389  0.83666007  0.41230400  1
  O  O175  1  0.50206895  0.82541208  0.40582886  1
  O  O176  1  0.40841046  0.99644152  0.40958249  1
  O  O177  1  0.91566132  0.99660061  0.40628738  1
  O  O178  1  0.09266118  0.20620922  0.41300336  1
  O  O179  1  0.58392379  0.17615110  0.40242119  1
  O  O180  1  0.00189701  0.17892169  0.90549615  1
  O  O181  1  0.50662702  0.17722714  0.91247884  1
  O  O182  1  0.08339198  0.99115242  0.90421859  1
  O  O183  1  0.59040752  0.97963809  0.91266275  1
  O  O184  1  0.40348238  0.81801168  0.90751328  1
  O  O185  1  0.90803088  0.82069954  0.90919011  1
  O  O186  1  0.48749346  0.16957732  0.58575553  1
  O  O187  1  0.98674992  0.16101803  0.58520443  1
  O  O188  1  0.09267315  0.02777209  0.58953743  1
  O  O189  1  0.59506531  0.02776374  0.58674561  1
  O  O190  1  0.42382741  0.82563658  0.58725080  1
  O  O191  1  0.92500126  0.81883840  0.58966966  1
  O  O192  1  0.48645311  0.81267663  0.08525593  1
  O  O193  1  0.98753804  0.80452535  0.08495688  1
  O  O194  1  0.42601252  0.03260784  0.08790262  1
  O  O195  1  0.92346370  0.02149289  0.08567955  1
  O  O196  1  0.09807294  0.16491540  0.08426141  1
  O  O197  1  0.59349902  0.15839158  0.08833671  1
  O  O198  1  0.34557850  0.15808640  0.75396109  1
  O  O199  1  0.84584913  0.15723438  0.75305596  1
  O  O200  1  0.23247258  0.31228281  0.75431973  1
  O  O201  1  0.73527422  0.30850568  0.75258247  1
  O  O202  1  0.42284274  0.53192204  0.75273818  1
  O  O203  1  0.93049899  0.54422970  0.75177352  1
  O  O204  1  0.34572099  0.53440916  0.25267600  1
  O  O205  1  0.84491563  0.53136773  0.25244813  1
  O  O206  1  0.42850039  0.30969336  0.25012944  1
  O  O207  1  0.92364134  0.31660621  0.25143681  1
  O  O208  1  0.23516058  0.16158588  0.25230781  1
  O  O209  1  0.73225238  0.15324308  0.25375813  1
  O  O210  1  0.32123898  0.50685905  0.91708509  1
  O  O211  1  0.82147755  0.49039578  0.92557351  1
  O  O212  1  0.42749500  0.35051860  0.92341470  1
  O  O213  1  0.92304749  0.36562617  0.92082059  1
  O  O214  1  0.25469351  0.16040608  0.92168030  1
  O  O215  1  0.74440881  0.13078011  0.92086921  1
  O  O216  1  0.32086655  0.15215238  0.42632114  1
  O  O217  1  0.82096081  0.15694823  0.42255887  1
  O  O218  1  0.24635785  0.36214544  0.42131480  1
  O  O219  1  0.75437554  0.35721203  0.42172823  1
  O  O220  1  0.42187641  0.48041786  0.42192516  1
  O  O221  1  0.92944430  0.50576927  0.42223588  1
  O  O222  1  0.16942327  0.47367534  0.07824754  1
  O  O223  1  0.66935893  0.49446062  0.07066236  1
  O  O224  1  0.06604094  0.65218138  0.07992967  1
  O  O225  1  0.58089597  0.66775327  0.06654926  1
  O  O226  1  0.25624691  0.83859426  0.07884691  1
  O  O227  1  0.75210250  0.84404630  0.06817692  1
  O  O228  1  0.16908000  0.84422966  0.57071440  1
  O  O229  1  0.66600066  0.86091475  0.58016387  1
  O  O230  1  0.25270962  0.66214498  0.56969717  1
  O  O231  1  0.75302620  0.66167810  0.58163166  1
  O  O232  1  0.08176847  0.49514001  0.56754895  1
  O  O233  1  0.56630893  0.47978711  0.58028220  1
  O  O234  1  0.14738202  0.82092681  0.25350693  1
  O  O235  1  0.64499233  0.81162684  0.25627936  1
  O  O236  1  0.26019391  0.70385739  0.25472241  1
  O  O237  1  0.75752503  0.70031874  0.25655845  1
  O  O238  1  0.09441380  0.47949869  0.25726347  1
  O  O239  1  0.58283421  0.45956665  0.25356074  1
  O  O240  1  0.14636026  0.47976296  0.75984102  1
  O  O241  1  0.64815513  0.47559381  0.75302930  1
  O  O242  1  0.08490577  0.70331578  0.75646403  1
  O  O243  1  0.59365921  0.70891672  0.75814114  1
  O  O244  1  0.25819493  0.81396218  0.75884985  1
  O  O245  1  0.75964851  0.81721585  0.75602028  1
