# generated using pymatgen
data_Na4CaLa(PO4)3
_symmetry_space_group_name_H-M   'P 1'
_cell_length_a   9.59539269
_cell_length_b   9.59539232
_cell_length_c   23.61222715
_cell_angle_alpha   90.00000000
_cell_angle_beta   90.00000000
_cell_angle_gamma   120.00000131
_symmetry_Int_Tables_number   1
_chemical_formula_structural   Na4CaLa(PO4)3
_chemical_formula_sum   'Na24 Ca6 La6 P18 O72'
_cell_volume   1882.75178282
_cell_formula_units_Z   6
loop_
 _symmetry_equiv_pos_site_id
 _symmetry_equiv_pos_as_xyz
  1  'x, y, z'
loop_
 _atom_site_type_symbol
 _atom_site_label
 _atom_site_symmetry_multiplicity
 _atom_site_fract_x
 _atom_site_fract_y
 _atom_site_fract_z
 _atom_site_occupancy
  Na  Na0  1  0.63841113  0.01176308  0.24780202  1
  Na  Na1  1  0.37335195  0.36158887  0.24780202  1
  Na  Na2  1  0.98823692  0.62664805  0.24780202  1
  Na  Na3  1  0.63841113  0.62664805  0.74780202  1
  Na  Na4  1  0.98823692  0.36158887  0.74780202  1
  Na  Na5  1  0.37335195  0.01176308  0.74780202  1
  Na  Na6  1  0.30507813  0.34509608  0.58113502  1
  Na  Na7  1  0.04001895  0.69492187  0.58113502  1
  Na  Na8  1  0.65490392  0.95998105  0.58113502  1
  Na  Na9  1  0.30507813  0.95998105  0.08113502  1
  Na  Na10  1  0.65490392  0.69492187  0.08113502  1
  Na  Na11  1  0.04001895  0.34509608  0.08113502  1
  Na  Na12  1  0.97174413  0.67843008  0.91446902  1
  Na  Na13  1  0.70668495  0.02825587  0.91446902  1
  Na  Na14  1  0.32156992  0.29331505  0.91446902  1
  Na  Na15  1  0.97174413  0.29331505  0.41446902  1
  Na  Na16  1  0.32156992  0.02825587  0.41446902  1
  Na  Na17  1  0.70668495  0.67843008  0.41446902  1
  Na  Na18  1  -0.00000000  -0.00000000  0.49426637  1
  Na  Na19  1  -0.00000000  -0.00000000  0.99426637  1
  Na  Na20  1  0.66666700  0.33333300  0.82759937  1
  Na  Na21  1  0.66666700  0.33333300  0.32759937  1
  Na  Na22  1  0.33333300  0.66666700  0.16093337  1
  Na  Na23  1  0.33333300  0.66666700  0.66093337  1
  Ca  Ca24  1  -0.00000000  -0.00000000  0.34667936  1
  Ca  Ca25  1  -0.00000000  -0.00000000  0.84667936  1
  Ca  Ca26  1  0.66666700  0.33333300  0.68001236  1
  Ca  Ca27  1  0.66666700  0.33333300  0.18001236  1
  Ca  Ca28  1  0.33333300  0.66666700  0.01334636  1
  Ca  Ca29  1  0.33333300  0.66666700  0.51334636  1
  La  La30  1  -0.00000000  -0.00000000  0.65446598  1
  La  La31  1  -0.00000000  -0.00000000  0.15446598  1
  La  La32  1  0.66666700  0.33333300  0.98779898  1
  La  La33  1  0.66666700  0.33333300  0.48779898  1
  La  La34  1  0.33333300  0.66666700  0.32113298  1
  La  La35  1  0.33333300  0.66666700  0.82113298  1
  P  P36  1  0.30960305  0.00420640  0.25147300  1
  P  P37  1  0.69460336  0.69039695  0.25147300  1
  P  P38  1  0.99579360  0.30539664  0.25147300  1
  P  P39  1  0.30960305  0.30539664  0.75147300  1
  P  P40  1  0.99579360  0.69039695  0.75147300  1
  P  P41  1  0.69460336  0.00420640  0.75147300  1
  P  P42  1  0.97627005  0.33753940  0.58480600  1
  P  P43  1  0.36127036  0.02372995  0.58480600  1
  P  P44  1  0.66246060  0.63872964  0.58480600  1
  P  P45  1  0.97627005  0.63872964  0.08480600  1
  P  P46  1  0.66246060  0.02372995  0.08480600  1
  P  P47  1  0.36127036  0.33753940  0.08480600  1
  P  P48  1  0.64293605  0.67087340  0.91814000  1
  P  P49  1  0.02793636  0.35706395  0.91814000  1
  P  P50  1  0.32912660  0.97206364  0.91814000  1
  P  P51  1  0.64293605  0.97206364  0.41814000  1
  P  P52  1  0.32912660  0.35706395  0.41814000  1
  P  P53  1  0.02793636  0.67087340  0.41814000  1
  O  O54  1  0.22223163  0.01930475  0.30369542  1
  O  O55  1  0.79707312  0.77776837  0.30369542  1
  O  O56  1  0.98069525  0.20292688  0.30369542  1
  O  O57  1  0.22223163  0.20292688  0.80369542  1
  O  O58  1  0.98069525  0.77776837  0.80369542  1
  O  O59  1  0.79707312  0.01930475  0.80369542  1
  O  O60  1  0.77374792  0.98272244  0.69713469  1
  O  O61  1  0.20897451  0.22625208  0.69713469  1
  O  O62  1  0.01727756  0.79102549  0.69713469  1
  O  O63  1  0.77374792  0.79102549  0.19713469  1
  O  O64  1  0.01727756  0.22625208  0.19713469  1
  O  O65  1  0.20897451  0.98272244  0.19713469  1
  O  O66  1  0.88889863  0.35263775  0.63702842  1
  O  O67  1  0.46374012  0.11110137  0.63702842  1
  O  O68  1  0.64736225  0.53625988  0.63702842  1
  O  O69  1  0.88889863  0.53625988  0.13702842  1
  O  O70  1  0.64736225  0.11110137  0.13702842  1
  O  O71  1  0.46374012  0.35263775  0.13702842  1
  O  O72  1  0.44041492  0.31605544  0.03046769  1
  O  O73  1  0.87564151  0.55958508  0.03046769  1
  O  O74  1  0.68394456  0.12435849  0.03046769  1
  O  O75  1  0.44041492  0.12435849  0.53046769  1
  O  O76  1  0.68394456  0.55958508  0.53046769  1
  O  O77  1  0.87564151  0.31605544  0.53046769  1
  O  O78  1  0.55556463  0.68597175  0.97036242  1
  O  O79  1  0.13040612  0.44443537  0.97036242  1
  O  O80  1  0.31402825  0.86959388  0.97036242  1
  O  O81  1  0.55556463  0.86959388  0.47036242  1
  O  O82  1  0.31402825  0.44443537  0.47036242  1
  O  O83  1  0.13040612  0.68597175  0.47036242  1
  O  O84  1  0.10708092  0.64938944  0.36380169  1
  O  O85  1  0.54230751  0.89291908  0.36380169  1
  O  O86  1  0.35061056  0.45769249  0.36380169  1
  O  O87  1  0.10708092  0.45769249  0.86380169  1
  O  O88  1  0.35061056  0.89291908  0.86380169  1
  O  O89  1  0.54230751  0.64938944  0.86380169  1
  O  O90  1  0.01294958  0.82485036  0.41470961  1
  O  O91  1  0.81190078  0.98705042  0.41470961  1
  O  O92  1  0.17514964  0.18809922  0.41470961  1
  O  O93  1  0.01294958  0.18809922  0.91470961  1
  O  O94  1  0.17514964  0.98705042  0.91470961  1
  O  O95  1  0.81190078  0.82485036  0.91470961  1
  O  O96  1  0.99592642  0.18577546  0.58671469  1
  O  O97  1  0.18984905  0.00407358  0.58671469  1
  O  O98  1  0.81422454  0.81015095  0.58671469  1
  O  O99  1  0.99592642  0.81015095  0.08671469  1
  O  O100  1  0.81422454  0.00407358  0.08671469  1
  O  O101  1  0.18984905  0.18577546  0.08671469  1
  O  O102  1  0.67961658  0.15818336  0.74804261  1
  O  O103  1  0.47856778  0.32038342  0.74804261  1
  O  O104  1  0.84181664  0.52143222  0.74804261  1
  O  O105  1  0.67961658  0.52143222  0.24804261  1
  O  O106  1  0.84181664  0.32038342  0.24804261  1
  O  O107  1  0.47856778  0.15818336  0.24804261  1
  O  O108  1  0.66259342  0.51910846  0.92004769  1
  O  O109  1  0.85651605  0.33740658  0.92004769  1
  O  O110  1  0.48089154  0.14348395  0.92004769  1
  O  O111  1  0.66259342  0.14348395  0.42004769  1
  O  O112  1  0.48089154  0.33740658  0.42004769  1
  O  O113  1  0.85651605  0.51910846  0.42004769  1
  O  O114  1  0.34628258  0.49151736  0.08137661  1
  O  O115  1  0.14523378  0.65371742  0.08137661  1
  O  O116  1  0.50848264  0.85476622  0.08137661  1
  O  O117  1  0.34628258  0.85476622  0.58137661  1
  O  O118  1  0.50848264  0.65371742  0.58137661  1
  O  O119  1  0.14523378  0.49151736  0.58137661  1
  O  O120  1  0.32925942  0.85244246  0.25338169  1
  O  O121  1  0.52318205  0.67074058  0.25338169  1
  O  O122  1  0.14755754  0.47681795  0.25338169  1
  O  O123  1  0.32925942  0.47681795  0.75338169  1
  O  O124  1  0.14755754  0.67074058  0.75338169  1
  O  O125  1  0.52318205  0.85244246  0.75338169  1
