# generated using pymatgen
data_TmCl3
_symmetry_space_group_name_H-M   'P 1'
_cell_length_a   7.04421223
_cell_length_b   7.04421274
_cell_length_c   7.04421242
_cell_angle_alpha   54.70384460
_cell_angle_beta   54.70384186
_cell_angle_gamma   54.70384784
_symmetry_Int_Tables_number   1
_chemical_formula_structural   TmCl3
_chemical_formula_sum   'Tm2 Cl6'
_cell_volume   216.66925624
_cell_formula_units_Z   2
loop_
 _symmetry_equiv_pos_site_id
 _symmetry_equiv_pos_as_xyz
  1  'x, y, z'
loop_
 _atom_site_type_symbol
 _atom_site_label
 _atom_site_symmetry_multiplicity
 _atom_site_fract_x
 _atom_site_fract_y
 _atom_site_fract_z
 _atom_site_occupancy
  Tm  Tm0  1  0.50000000  0.50000000  0.50000000  1
  Tm  Tm1  1  -0.00000000  0.00000000  -0.00000000  1
  Cl  Cl2  1  0.40840199  0.75000000  0.09159801  1
  Cl  Cl3  1  0.75000000  0.09159801  0.40840199  1
  Cl  Cl4  1  0.90840199  0.59159801  0.25000000  1
  Cl  Cl5  1  0.25000000  0.90840199  0.59159801  1
  Cl  Cl6  1  0.59159801  0.25000000  0.90840199  1
  Cl  Cl7  1  0.09159801  0.40840199  0.75000000  1
