# generated using pymatgen
data_Na3Ca3In(SO4)6
_symmetry_space_group_name_H-M   'P 1'
_cell_length_a   9.14615861
_cell_length_b   9.15140866
_cell_length_c   24.03998589
_cell_angle_alpha   89.90504721
_cell_angle_beta   90.22938277
_cell_angle_gamma   120.18151742
_symmetry_Int_Tables_number   1
_chemical_formula_structural   Na3Ca3In(SO4)6
_chemical_formula_sum   'Na9 Ca9 In3 S18 O72'
_cell_volume   1739.36500267
_cell_formula_units_Z   3
loop_
 _symmetry_equiv_pos_site_id
 _symmetry_equiv_pos_as_xyz
  1  'x, y, z'
loop_
 _atom_site_type_symbol
 _atom_site_label
 _atom_site_symmetry_multiplicity
 _atom_site_fract_x
 _atom_site_fract_y
 _atom_site_fract_z
 _atom_site_occupancy
  Na  Na0  1  0.63843113  0.99933644  0.24864474  1
  Na  Na1  1  0.36063918  0.36030131  0.24837828  1
  Na  Na2  1  0.03432430  0.69949968  0.58719277  1
  Na  Na3  1  0.99929715  0.01709674  0.49983705  1
  Na  Na4  1  0.99986106  0.99896701  0.99764651  1
  Na  Na5  1  0.66587839  0.33240709  0.83200301  1
  Na  Na6  1  0.68507888  0.35098315  0.34143145  1
  Na  Na7  1  0.31366776  0.66562583  0.15385533  1
  Na  Na8  1  0.35212252  0.66565496  0.67639508  1
  Ca  Ca9  1  0.00035213  0.99240856  0.35325389  1
  Ca  Ca10  1  0.00007222  0.99889990  0.84967387  1
  Ca  Ca11  1  0.99884143  0.01065058  0.65579111  1
  Ca  Ca12  1  0.99943796  0.99344628  0.14473189  1
  Ca  Ca13  1  0.66035359  0.32643313  0.68740318  1
  Ca  Ca14  1  0.67587751  0.34251698  0.17893715  1
  Ca  Ca15  1  0.33580738  0.66680959  0.01515730  1
  Ca  Ca16  1  0.34226386  0.66605379  0.51447321  1
  Ca  Ca17  1  0.32353916  0.66634498  0.32563231  1
  In  In18  1  0.66615065  0.33264639  0.98228490  1
  In  In19  1  0.65870371  0.32620305  0.48580022  1
  In  In20  1  0.33211955  0.66675424  0.82178601  1
  S  S21  1  0.30572508  0.00270500  0.24974600  1
  S  S22  1  0.69241849  0.69803135  0.25095697  1
  S  S23  1  0.00125965  0.29530590  0.25039003  1
  S  S24  1  0.30376568  0.31709974  0.75381031  1
  S  S25  1  0.01308055  0.69710969  0.75028497  1
  S  S26  1  0.68356991  0.98679066  0.75359157  1
  S  S27  1  0.95796318  0.33373610  0.58034244  1
  S  S28  1  0.36366282  0.03392708  0.58087721  1
  S  S29  1  0.67401429  0.62797519  0.58173514  1
  S  S30  1  0.96451603  0.63122630  0.07890821  1
  S  S31  1  0.66660087  0.03731515  0.08283454  1
  S  S32  1  0.37024774  0.33336890  0.08244812  1
  S  S33  1  0.62838035  0.65486909  0.91710545  1
  S  S34  1  0.02665480  0.37144297  0.91693954  1
  S  S35  1  0.34482279  0.97267818  0.91710781  1
  S  S36  1  0.64051343  0.98554526  0.41664092  1
  S  S37  1  0.34445863  0.35980356  0.41658551  1
  S  S38  1  0.01424639  0.65482721  0.42286855  1
  O  O39  1  0.22140470  0.01870396  0.29982930  1
  O  O40  1  0.79126311  0.77890194  0.30167380  1
  O  O41  1  0.98157927  0.19231980  0.30045143  1
  O  O42  1  0.21536411  0.21496937  0.80254197  1
  O  O43  1  0.00042747  0.79225603  0.79724656  1
  O  O44  1  0.78596044  0.00113768  0.80247591  1
  O  O45  1  0.75948578  0.96773456  0.70153411  1
  O  O46  1  0.20811702  0.24082113  0.70162904  1
  O  O47  1  0.03086854  0.78685179  0.69639331  1
  O  O48  1  0.77700963  0.79845324  0.20106188  1
  O  O49  1  0.02032112  0.21256772  0.20035199  1
  O  O50  1  0.20816901  0.98674500  0.19920667  1
  O  O51  1  0.87099187  0.34975350  0.62916415  1
  O  O52  1  0.46373260  0.12005428  0.63007604  1
  O  O53  1  0.65863935  0.52793121  0.63120787  1
  O  O54  1  0.88417782  0.54006296  0.13082088  1
  O  O55  1  0.65766372  0.11367986  0.13652379  1
  O  O56  1  0.45580204  0.34242133  0.13626399  1
  O  O57  1  0.46902313  0.32455210  0.03454230  1
  O  O58  1  0.86178309  0.53888153  0.02904707  1
  O  O59  1  0.67644462  0.14530295  0.03469757  1
  O  O60  1  0.44502216  0.13035468  0.52857233  1
  O  O61  1  0.69230875  0.54409794  0.53023384  1
  O  O62  1  0.85811205  0.31355321  0.52814597  1
  O  O63  1  0.54569554  0.67055657  0.96681959  1
  O  O64  1  0.12596554  0.45501790  0.96672244  1
  O  O65  1  0.32989178  0.87432563  0.96686646  1
  O  O66  1  0.54506593  0.87876313  0.46388527  1
  O  O67  1  0.33292601  0.45438906  0.46399003  1
  O  O68  1  0.11085001  0.66742647  0.47366624  1
  O  O69  1  0.09713780  0.63732921  0.37248129  1
  O  O70  1  0.55073808  0.91209888  0.36305606  1
  O  O71  1  0.36146741  0.44983108  0.36311742  1
  O  O72  1  0.10818664  0.47463332  0.86561753  1
  O  O73  1  0.36595152  0.89183402  0.86570725  1
  O  O74  1  0.52547370  0.63394295  0.86573551  1
  O  O75  1  0.99382830  0.80515081  0.41911436  1
  O  O76  1  0.81268749  0.00817045  0.41638367  1
  O  O77  1  0.19415621  0.18784203  0.41611064  1
  O  O78  1  0.00485944  0.20091551  0.91211888  1
  O  O79  1  0.19591541  0.99414497  0.91222428  1
  O  O80  1  0.79967666  0.80387961  0.91258723  1
  O  O81  1  0.98187569  0.18565295  0.58346440  1
  O  O82  1  0.19068853  0.01303541  0.58309115  1
  O  O83  1  0.83467555  0.79554852  0.58423534  1
  O  O84  1  0.97927156  0.80008909  0.07866810  1
  O  O85  1  0.82069445  0.02265594  0.08129614  1
  O  O86  1  0.20081801  0.17898247  0.08059475  1
  O  O87  1  0.66099780  0.13621952  0.75062562  1
  O  O88  1  0.47616757  0.34008258  0.75099678  1
  O  O89  1  0.86287726  0.52459554  0.74908705  1
  O  O90  1  0.66233550  0.52190185  0.24759974  1
  O  O91  1  0.84573150  0.30946730  0.24655122  1
  O  O92  1  0.47745792  0.16148995  0.24717184  1
  O  O93  1  0.64093377  0.49632891  0.92005871  1
  O  O94  1  0.85472923  0.35745897  0.91961763  1
  O  O95  1  0.50351091  0.14496172  0.92000341  1
  O  O96  1  0.65426595  0.15646657  0.42097369  1
  O  O97  1  0.50179298  0.34643525  0.42117626  1
  O  O98  1  0.84180519  0.49823925  0.42419683  1
  O  O99  1  0.35560814  0.48717241  0.07897801  1
  O  O100  1  0.13408972  0.64798753  0.07673133  1
  O  O101  1  0.51227765  0.86852549  0.07927143  1
  O  O102  1  0.34236133  0.86126788  0.57740130  1
  O  O103  1  0.52586593  0.65054965  0.57704558  1
  O  O104  1  0.12436889  0.49430152  0.57639420  1
  O  O105  1  0.33466413  0.85614898  0.25385129  1
  O  O106  1  0.52150736  0.68554070  0.25438982  1
  O  O107  1  0.15697037  0.46549811  0.25491599  1
  O  O108  1  0.31910010  0.48952168  0.75782876  1
  O  O109  1  0.17065847  0.68353422  0.75609583  1
  O  O110  1  0.51100048  0.82911659  0.75764237  1
