# generated using pymatgen
data_MgMn2(SiO3)4
_symmetry_space_group_name_H-M   'P 1'
_cell_length_a   5.27493728
_cell_length_b   6.92077886
_cell_length_c   6.91993729
_cell_angle_alpha   78.75600651
_cell_angle_beta   73.91113864
_cell_angle_gamma   73.91000980
_symmetry_Int_Tables_number   1
_chemical_formula_structural   MgMn2(SiO3)4
_chemical_formula_sum   'Mg1 Mn2 Si4 O12'
_cell_volume   231.30221729
_cell_formula_units_Z   1
loop_
 _symmetry_equiv_pos_site_id
 _symmetry_equiv_pos_as_xyz
  1  'x, y, z'
loop_
 _atom_site_type_symbol
 _atom_site_label
 _atom_site_symmetry_multiplicity
 _atom_site_fract_x
 _atom_site_fract_y
 _atom_site_fract_z
 _atom_site_occupancy
  Mg  Mg0  1  0.75005080  0.58571537  0.41427208  1
  Mn  Mn1  1  0.25000945  0.12264803  0.87736704  1
  Mn  Mn2  1  0.75000327  0.91536855  0.08465746  1
  Si  Si3  1  0.26239500  0.17733300  0.36911950  1
  Si  Si4  1  0.23759202  0.63087984  0.82267241  1
  Si  Si5  1  0.75496118  0.36500794  0.16667743  1
  Si  Si6  1  0.74501140  0.83332019  0.63499780  1
  O  O7  1  0.46337651  0.33541506  0.31739722  1
  O  O8  1  0.03661146  0.68261009  0.66455578  1
  O  O9  1  0.54601707  0.66246756  0.68653106  1
  O  O10  1  0.95396690  0.31345991  0.33755851  1
  O  O11  1  0.22093670  0.08665662  0.60414590  1
  O  O12  1  0.27909080  0.39587480  0.91331954  1
  O  O13  1  0.78918647  0.87198819  0.38926025  1
  O  O14  1  0.71079325  0.61070928  0.12801730  1
  O  O15  1  0.86663116  0.20123057  0.00480109  1
  O  O16  1  0.63338909  0.99518428  0.79878385  1
  O  O17  1  0.36999954  0.02771483  0.18855524  1
  O  O18  1  0.12997393  0.81141790  0.97231354  1
