# generated using pymatgen
data_Na10LaNb7(SiO4)12
_symmetry_space_group_name_H-M   'P 1'
_cell_length_a   18.25023374
_cell_length_b   9.13818908
_cell_length_c   22.62565882
_cell_angle_alpha   89.98398932
_cell_angle_beta   90.00049707
_cell_angle_gamma   120.14339915
_symmetry_Int_Tables_number   1
_chemical_formula_structural   Na10LaNb7(SiO4)12
_chemical_formula_sum   'Na30 La3 Nb21 Si36 O144'
_cell_volume   3263.10501186
_cell_formula_units_Z   3
loop_
 _symmetry_equiv_pos_site_id
 _symmetry_equiv_pos_as_xyz
  1  'x, y, z'
loop_
 _atom_site_type_symbol
 _atom_site_label
 _atom_site_symmetry_multiplicity
 _atom_site_fract_x
 _atom_site_fract_y
 _atom_site_fract_z
 _atom_site_occupancy
  Na  Na0  1  0.81331977  0.00619455  0.24909042  1
  Na  Na1  1  0.18670830  0.36971904  0.24835039  1
  Na  Na2  1  0.68619806  0.36760121  0.24852480  1
  Na  Na3  1  0.99780117  0.62329753  0.24917827  1
  Na  Na4  1  0.31399997  0.62063645  0.75007119  1
  Na  Na5  1  0.81433330  0.62114023  0.74925686  1
  Na  Na6  1  0.99571739  0.36936454  0.74913008  1
  Na  Na7  1  0.49576877  0.36855807  0.74933926  1
  Na  Na8  1  0.19025949  0.00981036  0.75030438  1
  Na  Na9  1  0.69029938  0.01040183  0.74934704  1
  Na  Na10  1  0.15460539  0.33913663  0.58265373  1
  Na  Na11  1  0.65601200  0.33901571  0.58156610  1
  Na  Na12  1  0.33146545  0.97148030  0.58134322  1
  Na  Na13  1  0.83195088  0.97319696  0.58110705  1
  Na  Na14  1  0.65007573  0.96412575  0.08398761  1
  Na  Na15  1  0.82992513  0.68931050  0.08160435  1
  Na  Na16  1  0.01942585  0.34146206  0.08079805  1
  Na  Na17  1  0.48393864  0.29952585  0.41650009  1
  Na  Na18  1  0.99988893  0.98972756  0.49757348  1
  Na  Na19  1  0.50176711  0.98180075  0.49839877  1
  Na  Na20  1  0.00686427  0.00037582  0.99855548  1
  Na  Na21  1  0.49322221  0.99977402  0.00013874  1
  Na  Na22  1  0.33274843  0.33278760  0.83628213  1
  Na  Na23  1  0.83361249  0.33324185  0.83504541  1
  Na  Na24  1  0.33337843  0.33279912  0.33175994  1
  Na  Na25  1  0.83261690  0.33189909  0.33427373  1
  Na  Na26  1  0.17665742  0.69011646  0.16367810  1
  Na  Na27  1  0.65541596  0.65109739  0.16562072  1
  Na  Na28  1  0.15896004  0.66577267  0.66468619  1
  Na  Na29  1  0.65949971  0.66648449  0.66426269  1
  La  La30  1  0.33515931  0.33580785  0.67858182  1
  La  La31  1  0.83543342  0.33653377  0.67745125  1
  La  La32  1  0.83201334  0.33272257  0.17888920  1
  Nb  Nb33  1  0.00263147  0.00311523  0.35730823  1
  Nb  Nb34  1  0.49637474  0.99321005  0.35472067  1
  Nb  Nb35  1  0.00007034  0.00093285  0.86010054  1
  Nb  Nb36  1  0.50020589  0.00024148  0.85952405  1
  Nb  Nb37  1  0.99957316  0.99622309  0.64564637  1
  Nb  Nb38  1  0.50014056  0.99719395  0.64570934  1
  Nb  Nb39  1  0.00389962  0.00164402  0.14513195  1
  Nb  Nb40  1  0.49558612  0.99652199  0.14437341  1
  Nb  Nb41  1  0.33713098  0.33411228  0.18708459  1
  Nb  Nb42  1  0.33254942  0.33285498  0.97761809  1
  Nb  Nb43  1  0.83390709  0.33474351  0.97947274  1
  Nb  Nb44  1  0.33073591  0.33527928  0.48016977  1
  Nb  Nb45  1  0.83419093  0.33377250  0.47908062  1
  Nb  Nb46  1  0.17330489  0.67633203  0.02007732  1
  Nb  Nb47  1  0.66086112  0.65857778  0.01705070  1
  Nb  Nb48  1  0.16420800  0.66602187  0.51443119  1
  Nb  Nb49  1  0.66556446  0.66855642  0.51427632  1
  Nb  Nb50  1  0.17001650  0.67167785  0.31188740  1
  Nb  Nb51  1  0.66393807  0.66600956  0.31185504  1
  Nb  Nb52  1  0.16678270  0.66643366  0.81533042  1
  Nb  Nb53  1  0.66689558  0.66680963  0.81482068  1
  Si  Si54  1  0.14624058  0.99981750  0.25129620  1
  Si  Si55  1  0.63893485  0.99025639  0.25016762  1
  Si  Si56  1  0.35517479  0.70929804  0.25010252  1
  Si  Si57  1  0.85575030  0.71892036  0.25152068  1
  Si  Si58  1  0.00390027  0.29102706  0.25194492  1
  Si  Si59  1  0.49855165  0.28513269  0.25085973  1
  Si  Si60  1  0.14019329  0.28963792  0.75240951  1
  Si  Si61  1  0.64087951  0.29037735  0.75220901  1
  Si  Si62  1  0.00437619  0.71925551  0.75401676  1
  Si  Si63  1  0.50459661  0.71935279  0.75374478  1
  Si  Si64  1  0.35494679  0.99124385  0.75247053  1
  Si  Si65  1  0.85523619  0.99209220  0.75279588  1
  Si  Si66  1  0.48615851  0.33648751  0.58269024  1
  Si  Si67  1  0.98563560  0.33636830  0.58382006  1
  Si  Si68  1  0.18133232  0.02679430  0.58338994  1
  Si  Si69  1  0.68244484  0.02912391  0.58307176  1
  Si  Si70  1  0.33259506  0.63648582  0.58268413  1
  Si  Si71  1  0.83295356  0.63455313  0.58184238  1
  Si  Si72  1  0.47654355  0.62218125  0.08206868  1
  Si  Si73  1  0.98603957  0.63606562  0.08316856  1
  Si  Si74  1  0.33366262  0.04820228  0.08255675  1
  Si  Si75  1  0.83244136  0.02986053  0.08285809  1
  Si  Si76  1  0.19212828  0.33892642  0.08445064  1
  Si  Si77  1  0.68041063  0.33096128  0.08275728  1
  Si  Si78  1  0.31263064  0.66273818  0.91636579  1
  Si  Si79  1  0.81120465  0.66331659  0.91726825  1
  Si  Si80  1  0.02231559  0.37888368  0.91965350  1
  Si  Si81  1  0.51679295  0.37329427  0.91421682  1
  Si  Si82  1  0.16849523  0.95951607  0.91644858  1
  Si  Si83  1  0.66809850  0.96102339  0.91764089  1
  Si  Si84  1  0.31192661  0.96176036  0.41640453  1
  Si  Si85  1  0.81306315  0.96112641  0.41437328  1
  Si  Si86  1  0.16852125  0.37639619  0.41498069  1
  Si  Si87  1  0.66920198  0.37480161  0.41376173  1
  Si  Si88  1  0.01931856  0.66152357  0.41259399  1
  Si  Si89  1  0.51857875  0.66681419  0.41508410  1
  O  O90  1  0.09942518  0.02425450  0.30845436  1
  O  O91  1  0.58522093  0.00878430  0.30546666  1
  O  O92  1  0.41035011  0.80596237  0.30902198  1
  O  O93  1  0.91802811  0.82619137  0.30630848  1
  O  O94  1  0.48583153  0.17363000  0.31080736  1
  O  O95  1  0.00022907  0.17583461  0.30804206  1
  O  O96  1  0.08832477  0.17210217  0.80849792  1
  O  O97  1  0.58868114  0.17243309  0.80801492  1
  O  O98  1  0.49793342  0.82122105  0.80996319  1
  O  O99  1  0.99777245  0.82187230  0.81013314  1
  O  O100  1  0.41383661  0.00334994  0.80810472  1
  O  O101  1  0.91355905  0.00361531  0.80870312  1
  O  O102  1  0.40203922  0.97627338  0.69110364  1
  O  O103  1  0.90206065  0.97623944  0.69149380  1
  O  O104  1  0.08560854  0.19632122  0.69109560  1
  O  O105  1  0.58574150  0.19708699  0.69096161  1
  O  O106  1  0.01174825  0.83396537  0.69407296  1
  O  O107  1  0.51183161  0.83412460  0.69401068  1
  O  O108  1  0.40413070  0.82871726  0.19299929  1
  O  O109  1  0.90185525  0.82912788  0.19048819  1
  O  O110  1  0.01234849  0.19589202  0.19163594  1
  O  O111  1  0.51370651  0.18816505  0.19500058  1
  O  O112  1  0.08281283  0.97210094  0.19420020  1
  O  O113  1  0.58789865  0.97793120  0.18892048  1
  O  O114  1  0.46203587  0.37592961  0.64659951  1
  O  O115  1  0.96367364  0.37665955  0.64841885  1
  O  O116  1  0.23224005  0.07353198  0.64514963  1
  O  O117  1  0.73212511  0.07266347  0.64550899  1
  O  O118  1  0.30391382  0.53385079  0.64420540  1
  O  O119  1  0.80370597  0.53517651  0.64416062  1
  O  O120  1  0.42952583  0.50305985  0.14043140  1
  O  O121  1  0.96189637  0.53878903  0.14587065  1
  O  O122  1  0.32118236  0.14299270  0.14061322  1
  O  O123  1  0.80559153  0.07414225  0.14531089  1
  O  O124  1  0.24767317  0.35974326  0.14426568  1
  O  O125  1  0.73040544  0.39007153  0.14490957  1
  O  O126  1  0.23835490  0.31068310  0.02723233  1
  O  O127  1  0.73869365  0.30587066  0.03222627  1
  O  O128  1  0.41782748  0.52565760  0.02493464  1
  O  O129  1  0.91423335  0.52549843  0.03226458  1
  O  O130  1  0.34633254  0.16693431  0.02532702  1
  O  O131  1  0.84771130  0.17202489  0.03216823  1
  O  O132  1  0.23892794  0.16888183  0.53169796  1
  O  O133  1  0.73823497  0.17034275  0.53203294  1
  O  O134  1  0.34393021  0.52208558  0.53041646  1
  O  O135  1  0.84437809  0.52139828  0.53031240  1
  O  O136  1  0.41761034  0.30834767  0.52959442  1
  O  O137  1  0.91428056  0.30647850  0.53332358  1
  O  O138  1  0.26399714  0.68710458  0.97263163  1
  O  O139  1  0.76071367  0.68447034  0.97292363  1
  O  O140  1  0.08241058  0.47027226  0.97666568  1
  O  O141  1  0.57842061  0.47909476  0.96927081  1
  O  O142  1  0.16017363  0.83584644  0.97109349  1
  O  O143  1  0.65426112  0.84234020  0.97528079  1
  O  O144  1  0.26606031  0.84683487  0.47402497  1
  O  O145  1  0.76482914  0.84091057  0.47133903  1
  O  O146  1  0.15953786  0.47329530  0.47234314  1
  O  O147  1  0.65362729  0.46970923  0.46977336  1
  O  O148  1  0.08171654  0.68311228  0.46783657  1
  O  O149  1  0.57935961  0.68680464  0.47089768  1
  O  O150  1  0.06615034  0.63823807  0.35366303  1
  O  O151  1  0.56723324  0.63600257  0.35883631  1
  O  O152  1  0.25141687  0.86068277  0.35900927  1
  O  O153  1  0.75217403  0.86403095  0.35645117  1
  O  O154  1  0.17989993  0.49406909  0.35644056  1
  O  O155  1  0.67963438  0.49252357  0.35526185  1
  O  O156  1  0.06910810  0.49732436  0.85976598  1
  O  O157  1  0.56624141  0.49190968  0.85527796  1
  O  O158  1  0.17941947  0.86501519  0.85652238  1
  O  O159  1  0.67944660  0.86262020  0.85900786  1
  O  O160  1  0.25332450  0.64171277  0.85713416  1
  O  O161  1  0.75222582  0.63943126  0.85754576  1
  O  O162  1  0.01107916  0.83056132  0.40884337  1
  O  O163  1  0.50797944  0.83233524  0.41084574  1
  O  O164  1  0.40730041  0.98809802  0.41185791  1
  O  O165  1  0.90716283  0.98182217  0.40922212  1
  O  O166  1  0.08547227  0.18786369  0.41196782  1
  O  O167  1  0.58158863  0.19029911  0.40869187  1
  O  O168  1  0.01030998  0.18984074  0.91213674  1
  O  O169  1  0.50982469  0.18909909  0.91133622  1
  O  O170  1  0.08398935  0.97726530  0.91240275  1
  O  O171  1  0.58527055  0.98294882  0.91129169  1
  O  O172  1  0.40581884  0.83197838  0.91160852  1
  O  O173  1  0.90496568  0.83102840  0.91234565  1
  O  O174  1  0.48855850  0.15791185  0.58517494  1
  O  O175  1  0.98841159  0.15815730  0.58587102  1
  O  O176  1  0.09325092  0.03152497  0.58711748  1
  O  O177  1  0.59299729  0.02956365  0.58758811  1
  O  O178  1  0.41894926  0.82106279  0.58676087  1
  O  O179  1  0.91853372  0.82127913  0.58701798  1
  O  O180  1  0.48784587  0.81109594  0.08954824  1
  O  O181  1  0.98694856  0.81707278  0.08681769  1
  O  O182  1  0.41763247  0.02852561  0.09158221  1
  O  O183  1  0.92128975  0.02463260  0.08644418  1
  O  O184  1  0.09566393  0.17092522  0.09160746  1
  O  O185  1  0.59123907  0.15081555  0.08603172  1
  O  O186  1  0.34504484  0.15651818  0.75329389  1
  O  O187  1  0.84502596  0.15694951  0.75344298  1
  O  O188  1  0.23312280  0.31023037  0.75272003  1
  O  O189  1  0.73365110  0.31043273  0.75239387  1
  O  O190  1  0.42176628  0.53424547  0.75312204  1
  O  O191  1  0.92117234  0.53437807  0.75329975  1
  O  O192  1  0.34216549  0.51902568  0.24558771  1
  O  O193  1  0.84588104  0.53400994  0.25346868  1
  O  O194  1  0.41644364  0.31036846  0.24344917  1
  O  O195  1  0.92005235  0.30623597  0.25365507  1
  O  O196  1  0.23772400  0.17222838  0.24407040  1
  O  O197  1  0.73171904  0.15668934  0.25434950  1
  O  O198  1  0.31933729  0.49295318  0.92169492  1
  O  O199  1  0.81935146  0.49403044  0.92520995  1
  O  O200  1  0.42499981  0.35803634  0.92044029  1
  O  O201  1  0.92913576  0.36365751  0.92652731  1
  O  O202  1  0.25233972  0.14565056  0.92237797  1
  O  O203  1  0.75382178  0.14563720  0.92501069  1
  O  O204  1  0.32388830  0.15139935  0.42322450  1
  O  O205  1  0.82088610  0.14580958  0.42490192  1
  O  O206  1  0.25365731  0.35927548  0.42364185  1
  O  O207  1  0.75216549  0.35530985  0.42395454  1
  O  O208  1  0.42805635  0.49093426  0.42346930  1
  O  O209  1  0.92697438  0.49334841  0.42426241  1
  O  O210  1  0.17636626  0.50049356  0.07871128  1
  O  O211  1  0.66814967  0.49257301  0.06805129  1
  O  O212  1  0.07774221  0.65409697  0.06951074  1
  O  O213  1  0.57375261  0.65377440  0.07758685  1
  O  O214  1  0.25104621  0.85828114  0.07706491  1
  O  O215  1  0.75195042  0.83974203  0.07001692  1
  O  O216  1  0.16856681  0.84180144  0.56857794  1
  O  O217  1  0.67032246  0.84338873  0.56842704  1
  O  O218  1  0.25338019  0.66701509  0.56931825  1
  O  O219  1  0.75352984  0.66550336  0.56778609  1
  O  O220  1  0.08185276  0.49063133  0.57049942  1
  O  O221  1  0.58277380  0.49040477  0.57029930  1
  O  O222  1  0.15112983  0.82538369  0.25479368  1
  O  O223  1  0.64887010  0.82087905  0.25616882  1
  O  O224  1  0.26020146  0.68871986  0.25494716  1
  O  O225  1  0.76175920  0.70469587  0.25484019  1
  O  O226  1  0.09064089  0.47904385  0.25379975  1
  O  O227  1  0.58706240  0.47015650  0.25576502  1
  O  O228  1  0.14548208  0.47559651  0.75498872  1
  O  O229  1  0.64684962  0.47709438  0.75449069  1
  O  O230  1  0.09145037  0.70693765  0.75464497  1
  O  O231  1  0.59236394  0.70921226  0.75447656  1
  O  O232  1  0.26158338  0.81609582  0.75447781  1
  O  O233  1  0.76167989  0.81664928  0.75489162  1
