# generated using pymatgen
data_Na3LaTaSi2PO12
_symmetry_space_group_name_H-M   'P 1'
_cell_length_a   9.43696612
_cell_length_b   9.43696577
_cell_length_c   22.56097807
_cell_angle_alpha   90.56418547
_cell_angle_beta   89.43581454
_cell_angle_gamma   119.89248251
_symmetry_Int_Tables_number   1
_chemical_formula_structural   Na3LaTaSi2PO12
_chemical_formula_sum   'Na18 La6 Ta6 Si12 P6 O72'
_cell_volume   1741.78573743
_cell_formula_units_Z   6
loop_
 _symmetry_equiv_pos_site_id
 _symmetry_equiv_pos_as_xyz
  1  'x, y, z'
loop_
 _atom_site_type_symbol
 _atom_site_label
 _atom_site_symmetry_multiplicity
 _atom_site_fract_x
 _atom_site_fract_y
 _atom_site_fract_z
 _atom_site_occupancy
  Na  Na0  1  0.98779247  0.98731993  0.49948225  1
  Na  Na1  1  0.01268007  0.01220753  0.99948225  1
  Na  Na2  1  0.65445947  0.32065293  0.83281525  1
  Na  Na3  1  0.67934707  0.34554053  0.33281525  1
  Na  Na4  1  0.32112547  0.65398693  0.16614925  1
  Na  Na5  1  0.34601307  0.67887453  0.66614925  1
  Na  Na6  1  0.66714347  0.01690747  0.24919268  1
  Na  Na7  1  0.97660898  0.62834076  0.24485542  1
  Na  Na8  1  0.98309253  0.33285653  0.74919268  1
  Na  Na9  1  0.37165924  0.02339102  0.74485542  1
  Na  Na10  1  0.33381047  0.35024047  0.58252568  1
  Na  Na11  1  0.64327598  0.96167376  0.57818842  1
  Na  Na12  1  0.64975953  0.66618953  0.08252568  1
  Na  Na13  1  0.03832624  0.35672402  0.07818842  1
  Na  Na14  1  0.00047647  0.68357447  0.91585968  1
  Na  Na15  1  0.30994198  0.29500776  0.91152242  1
  Na  Na16  1  0.31642553  0.99952353  0.41585968  1
  Na  Na17  1  0.70499224  0.69005802  0.41152242  1
  La  La18  1  0.00302420  0.01598132  0.34882281  1
  La  La19  1  0.98401868  0.99697580  0.84882281  1
  La  La20  1  0.66969120  0.34931432  0.68215581  1
  La  La21  1  0.65068568  0.33030880  0.18215581  1
  La  La22  1  0.33635720  0.68264832  0.01548981  1
  La  La23  1  0.31735168  0.66364280  0.51548981  1
  Ta  Ta24  1  0.99611831  0.99063967  0.64866046  1
  Ta  Ta25  1  0.00936033  0.00388169  0.14866046  1
  Ta  Ta26  1  0.66278531  0.32397267  0.98199346  1
  Ta  Ta27  1  0.67602733  0.33721469  0.48199346  1
  Ta  Ta28  1  0.32945131  0.65730667  0.31532746  1
  Ta  Ta29  1  0.34269333  0.67054869  0.81532746  1
  Si  Si30  1  0.69232841  0.71191119  0.25211634  1
  Si  Si31  1  0.01487020  0.30992511  0.24751808  1
  Si  Si32  1  0.28808881  0.30767159  0.75211634  1
  Si  Si33  1  0.69007489  0.98512980  0.74751808  1
  Si  Si34  1  0.35899541  0.04524419  0.58544934  1
  Si  Si35  1  0.68153720  0.64325811  0.58085108  1
  Si  Si36  1  0.95475581  0.64100459  0.08544934  1
  Si  Si37  1  0.35674189  0.31846280  0.08085108  1
  Si  Si38  1  0.02566141  0.37857819  0.91878334  1
  Si  Si39  1  0.34820320  0.97659211  0.91418508  1
  Si  Si40  1  0.62142181  0.97433859  0.41878334  1
  Si  Si41  1  0.02340789  0.65179680  0.41418508  1
  P  P42  1  0.28587361  0.96888388  0.25147333  1
  P  P43  1  0.03111612  0.71412639  0.75147333  1
  P  P44  1  0.95254061  0.30221688  0.58480633  1
  P  P45  1  0.69778312  0.04745939  0.08480633  1
  P  P46  1  0.61920661  0.63555088  0.91814033  1
  P  P47  1  0.36444912  0.38079339  0.41814033  1
  O  O48  1  0.22931734  0.99462784  0.31132857  1
  O  O49  1  0.78664062  0.78799477  0.31272750  1
  O  O50  1  0.96110827  0.19537652  0.30404252  1
  O  O51  1  0.21200523  0.21335938  0.81272750  1
  O  O52  1  0.00537216  0.77068266  0.81132857  1
  O  O53  1  0.80462348  0.03889173  0.80404252  1
  O  O54  1  0.80116353  0.96577130  0.69043097  1
  O  O55  1  0.15215478  0.18896823  0.69636634  1
  O  O56  1  0.03185405  0.83557120  0.70098655  1
  O  O57  1  0.81103177  0.84784522  0.19636634  1
  O  O58  1  0.03422870  0.19883647  0.19043097  1
  O  O59  1  0.16442880  0.96814595  0.20098655  1
  O  O60  1  0.89598434  0.32796084  0.64466157  1
  O  O61  1  0.45330762  0.12132777  0.64606050  1
  O  O62  1  0.62777527  0.52870952  0.63737552  1
  O  O63  1  0.87867223  0.54669238  0.14606050  1
  O  O64  1  0.67203916  0.10401566  0.14466157  1
  O  O65  1  0.47129048  0.37222473  0.13737552  1
  O  O66  1  0.46783053  0.29910430  0.02376397  1
  O  O67  1  0.81882178  0.52230123  0.02969934  1
  O  O68  1  0.69852105  0.16890420  0.03431955  1
  O  O69  1  0.47769877  0.18117822  0.52969934  1
  O  O70  1  0.70089570  0.53216947  0.52376397  1
  O  O71  1  0.83109580  0.30147895  0.53431955  1
  O  O72  1  0.56265034  0.66129484  0.97799557  1
  O  O73  1  0.11997362  0.45466177  0.97939450  1
  O  O74  1  0.29444127  0.86204352  0.97070952  1
  O  O75  1  0.54533823  0.88002638  0.47939450  1
  O  O76  1  0.33870516  0.43734966  0.47799557  1
  O  O77  1  0.13795648  0.70555873  0.47070952  1
  O  O78  1  0.13449653  0.63243830  0.35709797  1
  O  O79  1  0.48548778  0.85563523  0.36303334  1
  O  O80  1  0.36518705  0.50223820  0.36765355  1
  O  O81  1  0.14436477  0.51451222  0.86303334  1
  O  O82  1  0.36756170  0.86550347  0.85709797  1
  O  O83  1  0.49776180  0.63481295  0.86765355  1
  O  O84  1  0.98218269  0.79763601  0.40746524  1
  O  O85  1  0.80138936  0.99615718  0.41413302  1
  O  O86  1  0.23598605  0.20196088  0.40820415  1
  O  O87  1  0.00384282  0.19861064  0.91413302  1
  O  O88  1  0.20236399  0.01781731  0.90746524  1
  O  O89  1  0.79803912  0.76401395  0.90820415  1
  O  O90  1  0.93780832  0.12799016  0.58289728  1
  O  O91  1  0.18180611  0.04821241  0.58900828  1
  O  O92  1  0.86048235  0.81547726  0.59028822  1
  O  O93  1  0.95178759  0.81819389  0.08900828  1
  O  O94  1  0.87200984  0.06219168  0.08289728  1
  O  O95  1  0.18452273  0.13951765  0.09028822  1
  O  O96  1  0.64884969  0.13096901  0.74079824  1
  O  O97  1  0.46805636  0.32949018  0.74746602  1
  O  O98  1  0.90265305  0.53529388  0.74153715  1
  O  O99  1  0.67050982  0.53194364  0.24746602  1
  O  O100  1  0.86903099  0.35115031  0.24079824  1
  O  O101  1  0.46470612  0.09734695  0.24153715  1
  O  O102  1  0.60447532  0.46132316  0.91623028  1
  O  O103  1  0.84847311  0.38154541  0.92234128  1
  O  O104  1  0.52714935  0.14881026  0.92362122  1
  O  O105  1  0.61845459  0.15152689  0.42234128  1
  O  O106  1  0.53867684  0.39552468  0.41623028  1
  O  O107  1  0.85118973  0.47285065  0.42362122  1
  O  O108  1  0.31551569  0.46430301  0.07413224  1
  O  O109  1  0.13472236  0.66282418  0.08080002  1
  O  O110  1  0.56931905  0.86862788  0.07487115  1
  O  O111  1  0.33717582  0.86527764  0.58080002  1
  O  O112  1  0.53569699  0.68448431  0.57413224  1
  O  O113  1  0.13137212  0.43068095  0.57487115  1
  O  O114  1  0.27114132  0.79465716  0.24956428  1
  O  O115  1  0.51513911  0.71487941  0.25567528  1
  O  O116  1  0.19381535  0.48214426  0.25695522  1
  O  O117  1  0.28512059  0.48486089  0.75567528  1
  O  O118  1  0.20534284  0.72885868  0.74956428  1
  O  O119  1  0.51785573  0.80618465  0.75695522  1
