# generated using pymatgen
data_Na6NbZn5P3(SO6)6
_symmetry_space_group_name_H-M   'P 1'
_cell_length_a   8.90225434
_cell_length_b   8.86996808
_cell_length_c   22.34170568
_cell_angle_alpha   90.16283883
_cell_angle_beta   90.00000000
_cell_angle_gamma   120.12048189
_symmetry_Int_Tables_number   1
_chemical_formula_structural   Na6NbZn5P3(SO6)6
_chemical_formula_sum   'Na12 Nb2 Zn10 P6 S12 O72'
_cell_volume   1525.94236152
_cell_formula_units_Z   2
loop_
 _symmetry_equiv_pos_site_id
 _symmetry_equiv_pos_as_xyz
  1  'x, y, z'
loop_
 _atom_site_type_symbol
 _atom_site_label
 _atom_site_symmetry_multiplicity
 _atom_site_fract_x
 _atom_site_fract_y
 _atom_site_fract_z
 _atom_site_occupancy
  Na  Na0  1  0.30234523  0.33379292  0.58136820  1
  Na  Na1  1  0.67028792  0.97144837  0.58955366  1
  Na  Na2  1  0.30116145  0.97144837  0.08955366  1
  Na  Na3  1  0.03144869  0.33379292  0.08136820  1
  Na  Na4  1  0.96226194  0.66592965  0.91108373  1
  Na  Na5  1  0.70366670  0.66592965  0.41108373  1
  Na  Na6  1  0.02409450  0.00962701  0.49525332  1
  Na  Na7  1  0.98553250  0.00962701  0.99525332  1
  Na  Na8  1  0.67057934  0.31893559  0.82770946  1
  Na  Na9  1  0.64835725  0.31893559  0.32770946  1
  Na  Na10  1  0.35805071  0.67625250  0.16315552  1
  Na  Na11  1  0.31820079  0.67625250  0.66315552  1
  Nb  Nb12  1  0.33480338  0.66436040  0.31245590  1
  Nb  Nb13  1  0.32955602  0.66436040  0.81245590  1
  Zn  Zn14  1  0.01893505  0.00961832  0.34504542  1
  Zn  Zn15  1  0.99068327  0.00961832  0.84504542  1
  Zn  Zn16  1  0.98430874  0.97892642  0.66206242  1
  Zn  Zn17  1  0.99461768  0.97892642  0.16206242  1
  Zn  Zn18  1  0.68338315  0.33802127  0.68758515  1
  Zn  Zn19  1  0.65463911  0.33802127  0.18758515  1
  Zn  Zn20  1  0.67183148  0.32856145  0.98129538  1
  Zn  Zn21  1  0.65673096  0.32856145  0.48129538  1
  Zn  Zn22  1  0.33623274  0.65574236  0.01136935  1
  Zn  Zn23  1  0.31950862  0.65574236  0.51136935  1
  P  P24  1  0.30320803  0.00420679  0.24882532  1
  P  P25  1  0.71152575  0.70461791  0.25459062  1
  P  P26  1  0.99309217  0.70461791  0.75459062  1
  P  P27  1  0.70099876  0.00420679  0.74882532  1
  P  P28  1  0.03639573  0.36413964  0.91975334  1
  P  P29  1  0.32774292  0.36413964  0.41975334  1
  S  S30  1  0.99657069  0.29521430  0.24934153  1
  S  S31  1  0.29864360  0.29521430  0.74934153  1
  S  S32  1  0.96242492  0.33473458  0.58224743  1
  S  S33  1  0.36999923  0.03764092  0.58308874  1
  S  S34  1  0.66983382  0.63087720  0.58182769  1
  S  S35  1  0.96104438  0.63087720  0.08182769  1
  S  S36  1  0.66764269  0.03764092  0.08308874  1
  S  S37  1  0.37231066  0.33473458  0.08224743  1
  S  S38  1  0.62864531  0.66614437  0.91773839  1
  S  S39  1  0.33460217  0.96302702  0.91858284  1
  S  S40  1  0.62842385  0.96302702  0.41858284  1
  S  S41  1  0.03749806  0.66614437  0.41773839  1
  O  O42  1  0.21460317  0.02914097  0.30216670  1
  O  O43  1  0.80860698  0.78913357  0.31254564  1
  O  O44  1  0.97598117  0.19054829  0.30181088  1
  O  O45  1  0.21456712  0.19054829  0.80181088  1
  O  O46  1  0.98052659  0.78913357  0.81254564  1
  O  O47  1  0.81453779  0.02914097  0.80216670  1
  O  O48  1  0.76221616  0.96381318  0.68920832  1
  O  O49  1  0.19606121  0.22966074  0.69320662  1
  O  O50  1  0.04113772  0.81761388  0.69865316  1
  O  O51  1  0.77647616  0.81761388  0.19865316  1
  O  O52  1  0.03359953  0.22966074  0.19320662  1
  O  O53  1  0.20159703  0.96381318  0.18920832  1
  O  O54  1  0.88162594  0.35281823  0.63693860  1
  O  O55  1  0.48023375  0.12069254  0.63610950  1
  O  O56  1  0.64595036  0.51774277  0.63317427  1
  O  O57  1  0.87179341  0.51774277  0.13317427  1
  O  O58  1  0.64045979  0.12069254  0.13610950  1
  O  O59  1  0.47119328  0.35281823  0.13693860  1
  O  O60  1  0.45466481  0.31155329  0.02811162  1
  O  O61  1  0.86911895  0.55473655  0.02422089  1
  O  O62  1  0.69480509  0.14390654  0.02806546  1
  O  O63  1  0.44910245  0.14390654  0.52806546  1
  O  O64  1  0.68561861  0.55473655  0.52422089  1
  O  O65  1  0.85688948  0.31155329  0.52811162  1
  O  O66  1  0.55226389  0.69069404  0.97260856  1
  O  O67  1  0.13097009  0.44387507  0.97945422  1
  O  O68  1  0.31332842  0.86099878  0.97385004  1
  O  O69  1  0.54766936  0.86099878  0.47385004  1
  O  O70  1  0.31290398  0.44387507  0.47945422  1
  O  O71  1  0.13842915  0.69069404  0.47260856  1
  O  O72  1  0.13556548  0.65683239  0.36425495  1
  O  O73  1  0.51274718  0.86273504  0.36573416  1
  O  O74  1  0.34216203  0.49496230  0.36747583  1
  O  O75  1  0.15279926  0.49496230  0.86747583  1
  O  O76  1  0.34998686  0.86273504  0.86573416  1
  O  O77  1  0.52126591  0.65683239  0.86425495  1
  O  O78  1  0.01073721  0.81690497  0.41243178  1
  O  O79  1  0.79667218  0.97226108  0.41143556  1
  O  O80  1  0.16700256  0.18738329  0.41057836  1
  O  O81  1  0.02038073  0.18738329  0.91057836  1
  O  O82  1  0.17558890  0.97226108  0.91143556  1
  O  O83  1  0.80616777  0.81690497  0.91243178  1
  O  O84  1  0.98303356  0.17627923  0.58593503  1
  O  O85  1  0.19629244  0.02277601  0.58871384  1
  O  O86  1  0.82402476  0.80972129  0.58684481  1
  O  O87  1  0.98569653  0.80972129  0.08684481  1
  O  O88  1  0.82648357  0.02277601  0.08871384  1
  O  O89  1  0.19324566  0.17627923  0.08593503  1
  O  O90  1  0.65998525  0.15110052  0.74476042  1
  O  O91  1  0.47597186  0.32877489  0.74380106  1
  O  O92  1  0.83850904  0.52091327  0.74867610  1
  O  O93  1  0.68240523  0.52091327  0.24867610  1
  O  O94  1  0.85280403  0.32877489  0.24380106  1
  O  O95  1  0.49111627  0.15110052  0.24476042  1
  O  O96  1  0.63585089  0.50264839  0.91743966  1
  O  O97  1  0.86445998  0.36893674  0.91592858  1
  O  O98  1  0.49386711  0.13450794  0.91822614  1
  O  O99  1  0.64064184  0.13450794  0.41822614  1
  O  O100  1  0.50447776  0.36893674  0.41592858  1
  O  O101  1  0.86679850  0.50264839  0.41743966  1
  O  O102  1  0.34851629  0.49066246  0.07881488  1
  O  O103  1  0.14064747  0.65092314  0.08012519  1
  O  O104  1  0.50707573  0.86203247  0.07693128  1
  O  O105  1  0.35495574  0.86203247  0.57693128  1
  O  O106  1  0.51027467  0.65092314  0.58012519  1
  O  O107  1  0.14214516  0.49066246  0.57881488  1
  O  O108  1  0.31504170  0.83039036  0.26087498  1
  O  O109  1  0.51776416  0.68127221  0.26252945  1
  O  O110  1  0.16206476  0.47726760  0.25776306  1
  O  O111  1  0.31520185  0.47726760  0.75776306  1
  O  O112  1  0.16350705  0.68127221  0.76252945  1
  O  O113  1  0.51534766  0.83039036  0.76087498  1
