# generated using pymatgen
data_Na6TiZn3P4(SO12)2
_symmetry_space_group_name_H-M   'P 1'
_cell_length_a   8.96532892
_cell_length_b   8.95527283
_cell_length_c   21.89672683
_cell_angle_alpha   90.13446097
_cell_angle_beta   89.69432367
_cell_angle_gamma   119.96668638
_symmetry_Int_Tables_number   1
_chemical_formula_structural   Na6TiZn3P4(SO12)2
_chemical_formula_sum   'Na18 Ti3 Zn9 P12 S6 O72'
_cell_volume   1522.98056708
_cell_formula_units_Z   3
loop_
 _symmetry_equiv_pos_site_id
 _symmetry_equiv_pos_as_xyz
  1  'x, y, z'
loop_
 _atom_site_type_symbol
 _atom_site_label
 _atom_site_symmetry_multiplicity
 _atom_site_fract_x
 _atom_site_fract_y
 _atom_site_fract_z
 _atom_site_occupancy
  Na  Na0  1  0.36499644  0.36623955  0.25242474  1
  Na  Na1  1  0.64135579  0.63638714  0.74498524  1
  Na  Na2  1  0.99506901  0.35183241  0.74869724  1
  Na  Na3  1  0.29555843  0.34075848  0.58391161  1
  Na  Na4  1  0.03332537  0.69746302  0.58105685  1
  Na  Na5  1  0.66963607  0.95820574  0.58152328  1
  Na  Na6  1  0.29168557  0.96023460  0.07996136  1
  Na  Na7  1  0.66081634  0.69714639  0.08244212  1
  Na  Na8  1  0.04469565  0.34114784  0.08256999  1
  Na  Na9  1  0.31990896  0.29364722  0.91199385  1
  Na  Na10  1  0.98064458  0.30374633  0.41302535  1
  Na  Na11  1  0.69371468  0.67741020  0.41326822  1
  Na  Na12  1  0.00750824  0.00076784  0.49536854  1
  Na  Na13  1  0.99219327  0.98789477  0.99179828  1
  Na  Na14  1  0.65675908  0.30874551  0.82947894  1
  Na  Na15  1  0.66387051  0.31587611  0.32846754  1
  Na  Na16  1  0.32568527  0.67249454  0.17082824  1
  Na  Na17  1  0.33744594  0.67083698  0.66521454  1
  Ti  Ti18  1  0.67121436  0.34500797  0.97666205  1
  Ti  Ti19  1  0.67180139  0.33785327  0.47930567  1
  Ti  Ti20  1  0.33925353  0.67348017  0.82069029  1
  Zn  Zn21  1  0.00632845  0.99746677  0.35115410  1
  Zn  Zn22  1  0.99663040  0.00498224  0.85017528  1
  Zn  Zn23  1  0.98928927  0.00929397  0.65638386  1
  Zn  Zn24  1  0.00636287  0.99557570  0.15270916  1
  Zn  Zn25  1  0.65698266  0.32495785  0.68302470  1
  Zn  Zn26  1  0.67235426  0.34070283  0.18078222  1
  Zn  Zn27  1  0.32855293  0.66425283  0.00988908  1
  Zn  Zn28  1  0.33217178  0.66236448  0.50731231  1
  Zn  Zn29  1  0.33472348  0.67793476  0.32604667  1
  P  P30  1  0.29957449  0.30200502  0.75224185  1
  P  P31  1  0.69650195  0.99668717  0.75077583  1
  P  P32  1  0.96097825  0.33635811  0.58428755  1
  P  P33  1  0.66759875  0.62715149  0.58453407  1
  P  P34  1  0.95903131  0.62386930  0.08313186  1
  P  P35  1  0.37427877  0.33403562  0.08399487  1
  P  P36  1  0.63200955  0.67106907  0.91940989  1
  P  P37  1  0.03449207  0.37219412  0.91839043  1
  P  P38  1  0.33681522  0.96456101  0.92094963  1
  P  P39  1  0.63051524  0.96818097  0.41889224  1
  P  P40  1  0.33660710  0.36489757  0.41682670  1
  P  P41  1  0.03655322  0.66740501  0.41955385  1
  S  S42  1  0.30042988  0.99851555  0.24833173  1
  S  S43  1  0.69951387  0.70207208  0.24977917  1
  S  S44  1  0.99897948  0.29791504  0.24948061  1
  S  S45  1  0.00900032  0.70750689  0.75028796  1
  S  S46  1  0.37482051  0.04104998  0.58257250  1
  S  S47  1  0.66672551  0.04505136  0.08294113  1
  O  O48  1  0.20957259  0.02347085  0.30039815  1
  O  O49  1  0.80003880  0.79000505  0.30491215  1
  O  O50  1  0.98329768  0.19624842  0.30509511  1
  O  O51  1  0.21543577  0.19465028  0.80891497  1
  O  O52  1  0.98434604  0.79507384  0.80263021  1
  O  O53  1  0.81869326  0.02706016  0.80288678  1
  O  O54  1  0.75596326  0.94719210  0.69032598  1
  O  O55  1  0.18952117  0.22763821  0.69323005  1
  O  O56  1  0.03194245  0.80249542  0.69186033  1
  O  O57  1  0.78385545  0.79935066  0.19253060  1
  O  O58  1  0.01952048  0.21323746  0.19285986  1
  O  O59  1  0.20685200  0.97879564  0.18944416  1
  O  O60  1  0.87800165  0.35809588  0.64267212  1
  O  O61  1  0.47484043  0.11534332  0.63850162  1
  O  O62  1  0.64082523  0.51975957  0.64245741  1
  O  O63  1  0.88063145  0.50997761  0.13898114  1
  O  O64  1  0.63998297  0.12058487  0.13881354  1
  O  O65  1  0.47820425  0.35702547  0.14216129  1
  O  O66  1  0.47433532  0.31451079  0.02683705  1
  O  O67  1  0.83648054  0.52120851  0.02647702  1
  O  O68  1  0.68803029  0.15459792  0.02851265  1
  O  O69  1  0.46541829  0.15090399  0.52880635  1
  O  O70  1  0.68085820  0.52318279  0.52788891  1
  O  O71  1  0.84274692  0.31900635  0.52803280  1
  O  O72  1  0.55296823  0.69116240  0.97850384  1
  O  O73  1  0.13982479  0.44690795  0.97671435  1
  O  O74  1  0.31503291  0.86808655  0.98021982  1
  O  O75  1  0.55588965  0.85965772  0.47766055  1
  O  O76  1  0.30271647  0.44238073  0.47490248  1
  O  O77  1  0.13540429  0.69415930  0.47886985  1
  O  O78  1  0.11221086  0.61963041  0.36530364  1
  O  O79  1  0.51823762  0.88947371  0.36317901  1
  O  O80  1  0.37999789  0.48275574  0.36023673  1
  O  O81  1  0.13149774  0.49229799  0.86189266  1
  O  O82  1  0.35750405  0.85783963  0.86649572  1
  O  O83  1  0.50540115  0.63970884  0.86383375  1
  O  O84  1  0.99649778  0.81439460  0.41171562  1
  O  O85  1  0.81543065  0.99568035  0.41249536  1
  O  O86  1  0.17527089  0.18628413  0.40983294  1
  O  O87  1  0.01595860  0.19383732  0.91069010  1
  O  O88  1  0.18490729  0.99442925  0.91119706  1
  O  O89  1  0.81229400  0.81930702  0.90940173  1
  O  O90  1  0.97338841  0.16909710  0.58305006  1
  O  O91  1  0.20174938  0.02786243  0.58506784  1
  O  O92  1  0.83785905  0.80256492  0.58358560  1
  O  O93  1  0.96251883  0.79927416  0.08369349  1
  O  O94  1  0.82622559  0.03057708  0.08535642  1
  O  O95  1  0.19412373  0.16734913  0.08383321  1
  O  O96  1  0.68051144  0.15956504  0.74482532  1
  O  O97  1  0.48725700  0.33891776  0.74739594  1
  O  O98  1  0.85460727  0.52998135  0.74783181  1
  O  O99  1  0.67896569  0.52507659  0.24857675  1
  O  O100  1  0.84341495  0.31563026  0.24617098  1
  O  O101  1  0.47293399  0.15942462  0.24590301  1
  O  O102  1  0.63153613  0.49193325  0.92114365  1
  O  O103  1  0.85411591  0.36071186  0.92247529  1
  O  O104  1  0.50659206  0.14720818  0.92152195  1
  O  O105  1  0.65557638  0.15555573  0.42678540  1
  O  O106  1  0.50327737  0.35010059  0.42623000  1
  O  O107  1  0.84784445  0.49656597  0.42566059  1
  O  O108  1  0.35537429  0.49601363  0.07880556  1
  O  O109  1  0.14226339  0.65172468  0.07686330  1
  O  O110  1  0.51424159  0.86866194  0.07810594  1
  O  O111  1  0.35278630  0.86505887  0.57706258  1
  O  O112  1  0.50856124  0.65036704  0.57886707  1
  O  O113  1  0.14154697  0.49781846  0.57854351  1
  O  O114  1  0.31743980  0.84266018  0.25455302  1
  O  O115  1  0.52301640  0.68040636  0.25185856  1
  O  O116  1  0.16008371  0.46955063  0.25242615  1
  O  O117  1  0.31356089  0.48796430  0.75907215  1
  O  O118  1  0.16373156  0.68448189  0.75658349  1
  O  O119  1  0.51349781  0.82995330  0.76224173  1
