# generated using pymatgen
data_Na3Sc2Sn2P5SO24
_symmetry_space_group_name_H-M   'P 1'
_cell_length_a   8.84314793
_cell_length_b   8.82802673
_cell_length_c   22.89263041
_cell_angle_alpha   90.15161491
_cell_angle_beta   89.97345277
_cell_angle_gamma   119.89874275
_symmetry_Int_Tables_number   1
_chemical_formula_structural   Na3Sc2Sn2P5SO24
_chemical_formula_sum   'Na9 Sc6 Sn6 P15 S3 O72'
_cell_volume   1549.30651913
_cell_formula_units_Z   3
loop_
 _symmetry_equiv_pos_site_id
 _symmetry_equiv_pos_as_xyz
  1  'x, y, z'
loop_
 _atom_site_type_symbol
 _atom_site_label
 _atom_site_symmetry_multiplicity
 _atom_site_fract_x
 _atom_site_fract_y
 _atom_site_fract_z
 _atom_site_occupancy
  Na  Na0  1  0.00338822  0.36438917  0.75074563  1
  Na  Na1  1  0.66814504  0.96573175  0.58323418  1
  Na  Na2  1  0.03570391  0.33327140  0.08333604  1
  Na  Na3  1  0.00498848  0.99513743  0.50127452  1
  Na  Na4  1  0.00517010  0.99521036  0.00077299  1
  Na  Na5  1  0.65847901  0.32813626  0.83393818  1
  Na  Na6  1  0.67636724  0.33694659  0.33329620  1
  Na  Na7  1  0.34319065  0.66991284  0.16712973  1
  Na  Na8  1  0.33406725  0.66622516  0.66652502  1
  Sc  Sc9  1  0.00584752  0.99810490  0.64718888  1
  Sc  Sc10  1  0.99341852  0.99491801  0.14691469  1
  Sc  Sc11  1  0.33130973  0.67138799  0.01877726  1
  Sc  Sc12  1  0.32685907  0.66894071  0.51869241  1
  Sc  Sc13  1  0.33164494  0.66694166  0.31465897  1
  Sc  Sc14  1  0.33363443  0.67510592  0.81480612  1
  Sn  Sn15  1  0.98652523  0.99214759  0.35101783  1
  Sn  Sn16  1  0.00629770  0.00425211  0.85062839  1
  Sn  Sn17  1  0.66246362  0.33553225  0.68507054  1
  Sn  Sn18  1  0.67076531  0.33793537  0.18516170  1
  Sn  Sn19  1  0.66525690  0.32847730  0.98152832  1
  Sn  Sn20  1  0.67263663  0.33538808  0.48125932  1
  P  P21  1  0.70485032  0.70443574  0.24911239  1
  P  P22  1  -0.00083964  0.29236196  0.24897233  1
  P  P23  1  0.29475546  0.29289421  0.74956468  1
  P  P24  1  0.99788561  0.70821963  0.74976116  1
  P  P25  1  0.70747925  0.99859549  0.74830196  1
  P  P26  1  0.96089683  0.33488435  0.58458022  1
  P  P27  1  0.37584904  0.04559178  0.58207795  1
  P  P28  1  0.66500973  0.62431206  0.58246322  1
  P  P29  1  0.95663706  0.62557460  0.08207524  1
  P  P30  1  0.66347760  0.04024882  0.08427590  1
  P  P31  1  0.37668815  0.33369160  0.08336437  1
  P  P32  1  0.03757375  0.37111952  0.91665300  1
  P  P33  1  0.33230868  0.96183472  0.91699166  1
  P  P34  1  0.62571880  0.96090455  0.41760652  1
  P  P35  1  0.03947420  0.66847036  0.41598442  1
  S  S36  1  0.29266749  0.00289325  0.24993916  1
  S  S37  1  0.62860866  0.66746747  0.91677181  1
  S  S38  1  0.33234725  0.37018284  0.41646264  1
  O  O39  1  0.21552830  0.03373976  0.30377932  1
  O  O40  1  0.81968716  0.77926866  0.30514591  1
  O  O41  1  0.96861226  0.17772870  0.30447489  1
  O  O42  1  0.21818404  0.18067023  0.80568010  1
  O  O43  1  0.96259515  0.78513649  0.80598801  1
  O  O44  1  0.82835745  0.04000300  0.80328344  1
  O  O45  1  0.79015859  0.97549455  0.69310091  1
  O  O46  1  0.17777282  0.20899307  0.69668688  1
  O  O47  1  0.02474473  0.81816655  0.69632418  1
  O  O48  1  0.79402072  0.81658187  0.19575113  1
  O  O49  1  0.02455158  0.20955799  0.19362864  1
  O  O50  1  0.18651193  0.97831326  0.19798292  1
  O  O51  1  0.88008561  0.36602050  0.64126071  1
  O  O52  1  0.49627218  0.12424541  0.63705736  1
  O  O53  1  0.63282103  0.51116252  0.63786589  1
  O  O54  1  0.87897603  0.50543188  0.13671347  1
  O  O55  1  0.63159324  0.12355376  0.13937436  1
  O  O56  1  0.49020756  0.36502151  0.13860955  1
  O  O57  1  0.45861252  0.30176104  0.02808650  1
  O  O58  1  0.84128436  0.54191965  0.02725588  1
  O  O59  1  0.70582932  0.16088501  0.02987147  1
  O  O60  1  0.46045044  0.15976480  0.52728803  1
  O  O61  1  0.69712864  0.54153424  0.52754250  1
  O  O62  1  0.83851793  0.29520147  0.53084652  1
  O  O63  1  0.54951441  0.69307012  0.96924714  1
  O  O64  1  0.14611548  0.45187422  0.97207941  1
  O  O65  1  0.30785865  0.85279710  0.97143460  1
  O  O66  1  0.54823626  0.85493496  0.47361635  1
  O  O67  1  0.30544808  0.44892322  0.46902461  1
  O  O68  1  0.14747937  0.69412474  0.47094986  1
  O  O69  1  0.12231943  0.63857510  0.36142066  1
  O  O70  1  0.51482116  0.87331407  0.36320351  1
  O  O71  1  0.35902967  0.47693804  0.36360563  1
  O  O72  1  0.12095523  0.47868423  0.86098628  1
  O  O73  1  0.36227581  0.88019143  0.86208620  1
  O  O74  1  0.52257962  0.64078776  0.86371232  1
  O  O75  1  0.02365106  0.83744522  0.41010273  1
  O  O76  1  0.81363595  0.98469822  0.41233342  1
  O  O77  1  0.17509161  0.19240037  0.41001288  1
  O  O78  1  0.01422137  0.18309621  0.91129572  1
  O  O79  1  0.16466439  0.97849557  0.91145255  1
  O  O80  1  0.80579235  0.82558883  0.91114770  1
  O  O81  1  0.96969059  0.16646089  0.58996254  1
  O  O82  1  0.19751319  0.02726329  0.58830303  1
  O  O83  1  0.82637866  0.80687747  0.58817366  1
  O  O84  1  0.97606974  0.80516078  0.08896518  1
  O  O85  1  0.83259515  0.03133060  0.09009617  1
  O  O86  1  0.19358857  0.17195704  0.08939637  1
  O  O87  1  0.69714301  0.17211396  0.74452947  1
  O  O88  1  0.47815587  0.31045955  0.74454579  1
  O  O89  1  0.83401984  0.51927816  0.74511287  1
  O  O90  1  0.68619724  0.51831343  0.24471338  1
  O  O91  1  0.82875537  0.30577639  0.24518846  1
  O  O92  1  0.46937497  0.16204936  0.24548388  1
  O  O93  1  0.64789049  0.50851666  0.92144498  1
  O  O94  1  0.85254557  0.35399983  0.92166523  1
  O  O95  1  0.49677398  0.14916032  0.92181629  1
  O  O96  1  0.64466958  0.14709646  0.42172216  1
  O  O97  1  0.49085302  0.35144276  0.42135409  1
  O  O98  1  0.85202376  0.50444323  0.42127755  1
  O  O99  1  0.35476250  0.49564129  0.07720080  1
  O  O100  1  0.13485089  0.63443210  0.07609543  1
  O  O101  1  0.50325442  0.86069443  0.07721670  1
  O  O102  1  0.36657971  0.86639222  0.57660786  1
  O  O103  1  0.50323860  0.64585526  0.57641747  1
  O  O104  1  0.13936431  0.49724845  0.57743729  1
  O  O105  1  0.31165024  0.84657503  0.25596140  1
  O  O106  1  0.52425536  0.68701760  0.25662754  1
  O  O107  1  0.16016854  0.47465839  0.25668675  1
  O  O108  1  0.30931507  0.47357505  0.75735557  1
  O  O109  1  0.15630294  0.67998497  0.75643051  1
  O  O110  1  0.52691154  0.83901990  0.75665190  1
