# generated using pymatgen
data_Tb(AlCl4)3
_symmetry_space_group_name_H-M   'P 1'
_cell_length_a   10.62410919
_cell_length_b   10.62017112
_cell_length_c   15.77099834
_cell_angle_alpha   89.99699694
_cell_angle_beta   90.00109868
_cell_angle_gamma   119.98743790
_symmetry_Int_Tables_number   1
_chemical_formula_structural   Tb(AlCl4)3
_chemical_formula_sum   'Tb3 Al9 Cl36'
_cell_volume   1541.23484096
_cell_formula_units_Z   3
loop_
 _symmetry_equiv_pos_site_id
 _symmetry_equiv_pos_as_xyz
  1  'x, y, z'
loop_
 _atom_site_type_symbol
 _atom_site_label
 _atom_site_symmetry_multiplicity
 _atom_site_fract_x
 _atom_site_fract_y
 _atom_site_fract_z
 _atom_site_occupancy
  Tb  Tb0  1  0.32347361  0.16173426  0.00000055  1
  Tb  Tb1  1  0.83831191  0.67664881  0.66673530  1
  Tb  Tb2  1  0.83831373  0.16166614  0.33326036  1
  Al  Al3  1  0.06345035  0.93638791  0.83349313  1
  Al  Al4  1  0.45884372  0.42893318  0.60223893  1
  Al  Al5  1  0.57094699  0.02980374  0.93529024  1
  Al  Al6  1  0.97013172  0.54128849  0.26893732  1
  Al  Al7  1  0.06346109  0.12708074  0.16650796  1
  Al  Al8  1  0.87315380  0.93656959  0.49999587  1
  Al  Al9  1  0.45884595  0.02992315  0.39776323  1
  Al  Al10  1  0.97012824  0.42883663  0.73105733  1
  Al  Al11  1  0.57095586  0.54112963  0.06471594  1
  Cl  Cl12  1  0.33661029  0.50800658  0.54303269  1
  Cl  Cl13  1  0.17134390  0.66398748  0.20979526  1
  Cl  Cl14  1  0.49238568  0.82859746  0.87603233  1
  Cl  Cl15  1  0.12621528  0.25748148  0.27946124  1
  Cl  Cl16  1  0.74249050  0.86877371  0.61286517  1
  Cl  Cl17  1  0.13102868  0.87356625  0.94646948  1
  Cl  Cl18  1  0.74248271  0.87371080  0.38712731  1
  Cl  Cl19  1  0.13103546  0.25745947  0.05353328  1
  Cl  Cl20  1  0.12622199  0.86873903  0.72053533  1
  Cl  Cl21  1  0.55506769  0.00993413  0.27782102  1
  Cl  Cl22  1  0.99038974  0.54540726  0.61121412  1
  Cl  Cl23  1  0.45467869  0.44510467  0.94474954  1
  Cl  Cl24  1  0.99038204  0.44498032  0.38878097  1
  Cl  Cl25  1  0.45469054  0.00957821  0.05524119  1
  Cl  Cl26  1  0.55506777  0.54516425  0.72218893  1
  Cl  Cl27  1  0.83918428  0.33083370  0.20239288  1
  Cl  Cl28  1  0.66930513  0.50834460  0.53578822  1
  Cl  Cl29  1  0.49133120  0.16080299  0.86888284  1
  Cl  Cl30  1  0.66932124  0.16096409  0.46422745  1
  Cl  Cl31  1  0.49131830  0.33052653  0.13111145  1
  Cl  Cl32  1  0.83917481  0.50834299  0.79760069  1
  Cl  Cl33  1  0.99959468  0.16691133  0.48321021  1
  Cl  Cl34  1  0.83319537  0.83273408  0.81665052  1
  Cl  Cl35  1  0.16761929  0.00078217  0.14990931  1
  Cl  Cl36  1  0.83318555  0.00045708  0.18334665  1
  Cl  Cl37  1  0.16761696  0.16683305  0.85009182  1
  Cl  Cl38  1  0.99959883  0.83268300  0.51678213  1
  Cl  Cl39  1  0.36060669  0.15604760  0.37706755  1
  Cl  Cl40  1  0.84376458  0.20445199  0.71045995  1
  Cl  Cl41  1  0.79518648  0.63896080  0.04394812  1
  Cl  Cl42  1  0.84377800  0.63931917  0.28952444  1
  Cl  Cl43  1  0.79519229  0.15622820  0.95605204  1
  Cl  Cl44  1  0.36060519  0.20455500  0.62296359  1
  Cl  Cl45  1  0.33661498  0.82859505  0.45697235  1
  Cl  Cl46  1  0.17132863  0.50734403  0.79020165  1
  Cl  Cl47  1  0.49237460  0.66378618  0.12397010  1
