# generated using pymatgen
data_MgFe2(CoO2)4
_symmetry_space_group_name_H-M   'P 1'
_cell_length_a   6.24583798
_cell_length_b   6.28950918
_cell_length_c   6.23406925
_cell_angle_alpha   58.35399416
_cell_angle_beta   94.29841213
_cell_angle_gamma   123.12520689
_symmetry_Int_Tables_number   1
_chemical_formula_structural   MgFe2(CoO2)4
_chemical_formula_sum   'Mg1 Fe2 Co4 O8'
_cell_volume   166.71789126
_cell_formula_units_Z   1
loop_
 _symmetry_equiv_pos_site_id
 _symmetry_equiv_pos_as_xyz
  1  'x, y, z'
loop_
 _atom_site_type_symbol
 _atom_site_label
 _atom_site_symmetry_multiplicity
 _atom_site_fract_x
 _atom_site_fract_y
 _atom_site_fract_z
 _atom_site_occupancy
  Mg  Mg0  1  0.89806900  0.25454400  0.34338200  1
  Fe  Fe1  1  0.50328200  0.99565400  0.00458000  1
  Fe  Fe2  1  0.50161900  0.50492600  0.49075600  1
  Co  Co3  1  0.41002200  0.95525500  0.56229100  1
  Co  Co4  1  0.18679300  0.24808900  0.06701800  1
  Co  Co5  1  0.84537000  0.75263200  0.90195900  1
  Co  Co6  1  0.98303100  0.53614200  0.55038200  1
  O  O7  1  0.73533200  0.47186300  0.29742100  1
  O  O8  1  0.73237100  0.03286000  0.73005300  1
  O  O9  1  0.71760800  0.47875300  0.76689800  1
  O  O10  1  0.25446400  0.02188900  0.76284500  1
  O  O11  1  0.77051000  0.98821700  0.22090700  1
  O  O12  1  0.28888000  0.51273200  0.21718400  1
  O  O13  1  0.28723600  0.96955500  0.25184600  1
  O  O14  1  0.28124400  0.52689000  0.68664300  1
