# generated using pymatgen
data_Na5In2SiGe2P5O24
_symmetry_space_group_name_H-M   'P 1'
_cell_length_a   8.84568545
_cell_length_b   8.85324991
_cell_length_c   22.19933587
_cell_angle_alpha   90.13937324
_cell_angle_beta   89.71149835
_cell_angle_gamma   120.26874384
_symmetry_Int_Tables_number   1
_chemical_formula_structural   Na5In2SiGe2P5O24
_chemical_formula_sum   'Na15 In6 Si3 Ge6 P15 O72'
_cell_volume   1501.47066518
_cell_formula_units_Z   3
loop_
 _symmetry_equiv_pos_site_id
 _symmetry_equiv_pos_as_xyz
  1  'x, y, z'
loop_
 _atom_site_type_symbol
 _atom_site_label
 _atom_site_symmetry_multiplicity
 _atom_site_fract_x
 _atom_site_fract_y
 _atom_site_fract_z
 _atom_site_occupancy
  Na  Na0  1  0.00330568  0.64681323  0.25073915  1
  Na  Na1  1  0.62653733  0.63480505  0.75039572  1
  Na  Na2  1  0.37446216  0.99846565  0.75098933  1
  Na  Na3  1  0.66532003  0.97119642  0.58606655  1
  Na  Na4  1  0.30136826  0.97407502  0.08117064  1
  Na  Na5  1  0.67954792  0.70078640  0.07912720  1
  Na  Na6  1  0.02794710  0.32970665  0.08272063  1
  Na  Na7  1  0.96338280  0.29847266  0.41733650  1
  Na  Na8  1  0.33913916  0.03907232  0.41981367  1
  Na  Na9  1  0.00566846  0.98923597  0.50421356  1
  Na  Na10  1  0.00084045  0.99359150  0.99592064  1
  Na  Na11  1  0.68276664  0.33468413  0.83615282  1
  Na  Na12  1  0.65298808  0.33608492  0.33317814  1
  Na  Na13  1  0.34507018  0.66741076  0.16862428  1
  Na  Na14  1  0.31318774  0.64876013  0.66601851  1
  In  In15  1  0.99512423  0.99496938  0.35048853  1
  In  In16  1  -0.00006471  -0.00015769  0.15324582  1
  In  In17  1  0.66733334  0.33673409  0.97748603  1
  In  In18  1  0.66135459  0.33679906  0.48947403  1
  In  In19  1  0.33968234  0.66661059  0.31470620  1
  In  In20  1  0.32977892  0.66526654  0.81183540  1
  Si  Si21  1  0.72735218  0.01599942  0.74846375  1
  Si  Si22  1  0.36036034  0.03177602  0.58497062  1
  Si  Si23  1  0.96365960  0.62486562  0.08212726  1
  Ge  Ge24  1  0.99458809  0.00307619  0.85371662  1
  Ge  Ge25  1  0.00347050  0.00004626  0.64878733  1
  Ge  Ge26  1  0.67170515  0.32617435  0.68381010  1
  Ge  Ge27  1  0.67043172  0.33285428  0.18341416  1
  Ge  Ge28  1  0.32510564  0.66540528  0.01229824  1
  Ge  Ge29  1  0.33086542  0.66764629  0.52309884  1
  P  P30  1  0.31446207  0.01249424  0.24866089  1
  P  P31  1  0.69629851  0.68636819  0.24502835  1
  P  P32  1  0.98835365  0.29919725  0.24847920  1
  P  P33  1  0.28514772  0.27771374  0.74848606  1
  P  P34  1  0.98908990  0.71167467  0.74866159  1
  P  P35  1  0.96728237  0.33497309  0.58493502  1
  P  P36  1  0.66748610  0.62930185  0.58784233  1
  P  P37  1  0.65966406  0.03895913  0.08236857  1
  P  P38  1  0.38082782  0.34100532  0.08316182  1
  P  P39  1  0.63023956  0.67822606  0.91431589  1
  P  P40  1  0.04524545  0.36472115  0.91533066  1
  P  P41  1  0.31979317  0.95700857  0.91345436  1
  P  P42  1  0.62442656  0.95422572  0.42218403  1
  P  P43  1  0.33513885  0.38131388  0.42089600  1
  P  P44  1  0.04446311  0.66679583  0.41946304  1
  O  O45  1  0.23404659  0.03909347  0.30715023  1
  O  O46  1  0.82102096  0.77242539  0.29916556  1
  O  O47  1  0.96630656  0.19438817  0.30668810  1
  O  O48  1  0.20589532  0.15988687  0.80544646  1
  O  O49  1  0.95304251  0.79152389  0.80593822  1
  O  O50  1  0.84417346  0.04161928  0.80888437  1
  O  O51  1  0.81240727  0.97699811  0.68896799  1
  O  O52  1  0.17347843  0.19250303  0.69207943  1
  O  O53  1  0.02520560  0.83113219  0.69326265  1
  O  O54  1  0.77119424  0.78740047  0.18600540  1
  O  O55  1  0.01538519  0.22072128  0.19081990  1
  O  O56  1  0.19818928  0.97523039  0.19283514  1
  O  O57  1  0.87605788  0.37345900  0.63861399  1
  O  O58  1  0.50635519  0.13026572  0.64056807  1
  O  O59  1  0.63614997  0.50867470  0.64385680  1
  O  O60  1  0.87825486  0.49497930  0.14276002  1
  O  O61  1  0.62010584  0.12229193  0.13864872  1
  O  O62  1  0.50340704  0.37521173  0.13867968  1
  O  O63  1  0.44339307  0.28595105  0.02797994  1
  O  O64  1  0.83106119  0.55108372  0.02726397  1
  O  O65  1  0.70155047  0.15284352  0.02702834  1
  O  O66  1  0.42771322  0.13430443  0.52211174  1
  O  O67  1  0.71029166  0.56496774  0.53057617  1
  O  O68  1  0.85778642  0.29131356  0.52709799  1
  O  O69  1  0.53520629  0.70108022  0.97278840  1
  O  O70  1  0.15651300  0.45330298  0.97509593  1
  O  O71  1  0.29504073  0.83947577  0.97167076  1
  O  O72  1  0.53654753  0.84524852  0.48100038  1
  O  O73  1  0.30948245  0.47561556  0.47685609  1
  O  O74  1  0.17041713  0.69472160  0.47345138  1
  O  O75  1  0.11381568  0.63938533  0.35894214  1
  O  O76  1  0.51270396  0.87826904  0.36610228  1
  O  O77  1  0.35253400  0.47480811  0.36179971  1
  O  O78  1  0.12673549  0.47503690  0.86003015  1
  O  O79  1  0.34811768  0.88272637  0.85526406  1
  O  O80  1  0.53197610  0.65664612  0.85586221  1
  O  O81  1  0.03725384  0.83806238  0.41791821  1
  O  O82  1  0.80763428  0.97290671  0.41853328  1
  O  O83  1  0.16391731  0.19711394  0.42001905  1
  O  O84  1  0.04208246  0.18604509  0.91213964  1
  O  O85  1  0.14535547  0.96253722  0.91004519  1
  O  O86  1  0.81321038  0.85094446  0.91282219  1
  O  O87  1  0.98188679  0.16882443  0.59443231  1
  O  O88  1  0.16604650  0.00813175  0.59535817  1
  O  O89  1  0.82509558  0.81991840  0.59501767  1
  O  O90  1  0.00266468  0.82443837  0.08869927  1
  O  O91  1  0.81770934  0.01237131  0.08992814  1
  O  O92  1  0.19108257  0.19048856  0.09185456  1
  O  O93  1  0.70168993  0.18970611  0.74190242  1
  O  O94  1  0.47281400  0.29680022  0.74249823  1
  O  O95  1  0.81753554  0.52856187  0.74133969  1
  O  O96  1  0.69142284  0.50682702  0.24060734  1
  O  O97  1  0.81697638  0.30977487  0.24370149  1
  O  O98  1  0.49379524  0.18228746  0.24023342  1
  O  O99  1  0.65021727  0.51733920  0.91883465  1
  O  O100  1  0.86007420  0.33529177  0.92014510  1
  O  O101  1  0.47894490  0.13968437  0.91998858  1
  O  O102  1  0.64874281  0.14062705  0.42533375  1
  O  O103  1  0.49386971  0.35489693  0.42328341  1
  O  O104  1  0.86487868  0.50076432  0.42589001  1
  O  O105  1  0.37551558  0.51542020  0.07600606  1
  O  O106  1  0.15826510  0.63470810  0.07317471  1
  O  O107  1  0.48905844  0.85392255  0.07585860  1
  O  O108  1  0.35345079  0.83889322  0.57978880  1
  O  O109  1  0.49919809  0.64645490  0.58205128  1
  O  O110  1  0.15170642  0.50091377  0.57841964  1
  O  O111  1  0.33166776  0.84795195  0.25213546  1
  O  O112  1  0.51366082  0.66061860  0.25103742  1
  O  O113  1  0.14412939  0.48842133  0.25110526  1
  O  O114  1  0.31370762  0.46370284  0.75114173  1
  O  O115  1  0.15219839  0.69292025  0.75120859  1
  O  O116  1  0.52881435  0.84270383  0.74926220  1
