# generated using pymatgen
data_MgTaP(SO6)2
_symmetry_space_group_name_H-M   'P 1'
_cell_length_a   8.70845814
_cell_length_b   8.70730368
_cell_length_c   22.39860592
_cell_angle_alpha   90.03868477
_cell_angle_beta   90.00000000
_cell_angle_gamma   120.00438599
_symmetry_Int_Tables_number   1
_chemical_formula_structural   MgTaP(SO6)2
_chemical_formula_sum   'Mg6 Ta6 P6 S12 O72'
_cell_volume   1470.81229857
_cell_formula_units_Z   6
loop_
 _symmetry_equiv_pos_site_id
 _symmetry_equiv_pos_as_xyz
  1  'x, y, z'
loop_
 _atom_site_type_symbol
 _atom_site_label
 _atom_site_symmetry_multiplicity
 _atom_site_fract_x
 _atom_site_fract_y
 _atom_site_fract_z
 _atom_site_occupancy
  Mg  Mg0  1  0.99520398  0.00331812  0.35441825  1
  Mg  Mg1  1  0.00811414  0.00331812  0.85441825  1
  Mg  Mg2  1  0.66730906  0.33514864  0.68767188  1
  Mg  Mg3  1  0.66784058  0.33514864  0.18767188  1
  Mg  Mg4  1  0.33142010  0.66669429  0.02107947  1
  Mg  Mg5  1  0.33527319  0.66669429  0.52107947  1
  Ta  Ta6  1  0.00509572  0.01146663  0.64402325  1
  Ta  Ta7  1  0.00637092  0.01146663  0.14402325  1
  Ta  Ta8  1  0.65559274  0.32764112  0.97745486  1
  Ta  Ta9  1  0.67204938  0.32764112  0.47745486  1
  Ta  Ta10  1  0.33594838  0.66845369  0.31070923  1
  Ta  Ta11  1  0.33250431  0.66845369  0.81070923  1
  P  P12  1  0.99144262  0.28735433  0.25245392  1
  P  P13  1  0.29591171  0.28735433  0.75245392  1
  P  P14  1  0.96135762  0.34439351  0.58572367  1
  P  P15  1  0.38303689  0.34439351  0.08572367  1
  P  P16  1  0.32293744  0.94900954  0.91847933  1
  P  P17  1  0.62607109  0.94900954  0.41847933  1
  S  S18  1  0.29169311  0.00603584  0.25137141  1
  S  S19  1  0.71538172  0.70907864  0.25093824  1
  S  S20  1  0.99369692  0.70907864  0.75093824  1
  S  S21  1  0.71434273  0.00603584  0.75137141  1
  S  S22  1  0.38092521  0.04151038  0.58461415  1
  S  S23  1  0.66210412  0.62036771  0.58438795  1
  S  S24  1  0.95826459  0.62036771  0.08438795  1
  S  S25  1  0.66058616  0.04151038  0.08461415  1
  S  S26  1  0.62511793  0.67320937  0.91790489  1
  S  S27  1  0.04568979  0.37485760  0.91819876  1
  S  S28  1  0.32916681  0.37485760  0.41819876  1
  S  S29  1  0.04809044  0.67320937  0.41790489  1
  O  O30  1  0.20629941  0.02670403  0.30374736  1
  O  O31  1  0.82110593  0.79156666  0.30336443  1
  O  O32  1  0.97380715  0.17455620  0.30469263  1
  O  O33  1  0.20074905  0.17455620  0.80469263  1
  O  O34  1  0.97046073  0.79156666  0.80336443  1
  O  O35  1  0.82040462  0.02670403  0.80374736  1
  O  O36  1  0.79230282  0.96529274  0.69641472  1
  O  O37  1  0.16666546  0.19905393  0.69456530  1
  O  O38  1  0.03304863  0.82576792  0.69640895  1
  O  O39  1  0.79271928  0.82576792  0.19640895  1
  O  O40  1  0.03238847  0.19905393  0.19456530  1
  O  O41  1  0.17298992  0.96529274  0.19641472  1
  O  O42  1  0.86684848  0.35969651  0.63876141  1
  O  O43  1  0.48702197  0.12567733  0.63661256  1
  O  O44  1  0.63824537  0.51249756  0.63662462  1
  O  O45  1  0.87425319  0.51249756  0.13662462  1
  O  O46  1  0.63865636  0.12567733  0.13661256  1
  O  O47  1  0.49284903  0.35969651  0.13876141  1
  O  O48  1  0.46739261  0.30084750  0.02806883  1
  O  O49  1  0.84047368  0.53937859  0.02960715  1
  O  O50  1  0.70183579  0.16009943  0.02969196  1
  O  O51  1  0.45826464  0.16009943  0.52969196  1
  O  O52  1  0.69890590  0.53937859  0.52960715  1
  O  O53  1  0.83345589  0.30084750  0.52806883  1
  O  O54  1  0.54156990  0.69472303  0.96990538  1
  O  O55  1  0.15452554  0.45861883  0.96978890  1
  O  O56  1  0.30784706  0.84046095  0.97217666  1
  O  O57  1  0.53261290  0.84046095  0.47217666  1
  O  O58  1  0.30409229  0.45861883  0.46978890  1
  O  O59  1  0.15315212  0.69472303  0.46990538  1
  O  O60  1  0.12538394  0.63250307  0.36287421  1
  O  O61  1  0.49901095  0.86521184  0.36131206  1
  O  O62  1  0.36606368  0.49354167  0.36302120  1
  O  O63  1  0.12747699  0.49354167  0.86302120  1
  O  O64  1  0.36619989  0.86521184  0.86131206  1
  O  O65  1  0.50711813  0.63250307  0.86287421  1
  O  O66  1  0.02258625  0.82246522  0.40663108  1
  O  O67  1  0.80641226  0.97966452  0.40675337  1
  O  O68  1  0.18056828  0.20009709  0.40726252  1
  O  O69  1  0.01952881  0.20009709  0.90726252  1
  O  O70  1  0.17325225  0.97966452  0.90675337  1
  O  O71  1  0.79987897  0.82246522  0.90663108  1
  O  O72  1  0.97045871  0.16488097  0.59286675  1
  O  O73  1  0.19857701  0.02599206  0.59162638  1
  O  O74  1  0.82918216  0.80068579  0.59250421  1
  O  O75  1  0.97150363  0.80068579  0.09250421  1
  O  O76  1  0.82741505  0.02599206  0.09162638  1
  O  O77  1  0.19442226  0.16488097  0.09286675  1
  O  O78  1  0.68820113  0.15365843  0.74085772  1
  O  O79  1  0.47459343  0.31398844  0.73863298  1
  O  O80  1  0.84618490  0.53347230  0.74098513  1
  O  O81  1  0.68728840  0.53347230  0.24098513  1
  O  O82  1  0.83939601  0.31398844  0.23863298  1
  O  O83  1  0.46545830  0.15365843  0.24085772  1
  O  O84  1  0.64091559  0.50644942  0.92496878  1
  O  O85  1  0.86644927  0.36239930  0.92539303  1
  O  O86  1  0.50223011  0.13942673  0.92652978  1
  O  O87  1  0.63719762  0.13942673  0.42652978  1
  O  O88  1  0.49595103  0.36239930  0.42539303  1
  O  O89  1  0.86553483  0.50644942  0.42496878  1
  O  O90  1  0.35244684  0.49375416  0.07212773  1
  O  O91  1  0.13204501  0.64508487  0.07425568  1
  O  O92  1  0.51240072  0.86679979  0.07404520  1
  O  O93  1  0.35439807  0.86679979  0.57404520  1
  O  O94  1  0.51303887  0.64508487  0.57425568  1
  O  O95  1  0.14130633  0.49375416  0.57212773  1
  O  O96  1  0.30421234  0.83755853  0.25826421  1
  O  O97  1  0.53252649  0.69397053  0.25858366  1
  O  O98  1  0.16833406  0.47491468  0.26064421  1
  O  O99  1  0.30657961  0.47491468  0.76064421  1
  O  O100  1  0.16144305  0.69397053  0.75858366  1
  O  O101  1  0.53334519  0.83755853  0.75826421  1
