# generated using pymatgen
data_MgV2(CoO4)2
_symmetry_space_group_name_H-M   'P 1'
_cell_length_a   5.28677081
_cell_length_b   5.28677255
_cell_length_c   6.31880074
_cell_angle_alpha   93.82341394
_cell_angle_beta   93.82341297
_cell_angle_gamma   65.21005911
_symmetry_Int_Tables_number   1
_chemical_formula_structural   MgV2(CoO4)2
_chemical_formula_sum   'Mg1 V2 Co2 O8'
_cell_volume   159.83266267
_cell_formula_units_Z   1
loop_
 _symmetry_equiv_pos_site_id
 _symmetry_equiv_pos_as_xyz
  1  'x, y, z'
loop_
 _atom_site_type_symbol
 _atom_site_label
 _atom_site_symmetry_multiplicity
 _atom_site_fract_x
 _atom_site_fract_y
 _atom_site_fract_z
 _atom_site_occupancy
  Mg  Mg0  1  0.50000000  0.50000000  0.00000000  1
  V  V1  1  0.33388900  0.33388900  0.30108500  1
  V  V2  1  0.66611000  0.66611000  0.69891500  1
  Co  Co3  1  0.00000000  0.00000000  0.00000000  1
  Co  Co4  1  0.00000000  0.00000000  0.50000000  1
  O  O5  1  0.22382800  0.22382800  0.06835100  1
  O  O6  1  0.22909700  0.22909700  0.51247200  1
  O  O7  1  0.22805400  0.70150700  0.24583600  1
  O  O8  1  0.29849300  0.77194600  0.75416400  1
  O  O9  1  0.70150700  0.22805400  0.24583600  1
  O  O10  1  0.77194600  0.29849300  0.75416400  1
  O  O11  1  0.77617200  0.77617200  0.93164900  1
  O  O12  1  0.77090300  0.77090300  0.48752800  1
