# generated using pymatgen
data_Na10Ti4Si9Sn4(SO16)3
_symmetry_space_group_name_H-M   'P 1'
_cell_length_a   17.90914228
_cell_length_b   8.95586035
_cell_length_c   22.40563459
_cell_angle_alpha   90.04064671
_cell_angle_beta   89.91668501
_cell_angle_gamma   119.93206977
_symmetry_Int_Tables_number   1
_chemical_formula_structural   Na10Ti4Si9Sn4(SO16)3
_chemical_formula_sum   'Na30 Ti12 Si27 Sn12 S9 O144'
_cell_volume   3114.34264911
_cell_formula_units_Z   3
loop_
 _symmetry_equiv_pos_site_id
 _symmetry_equiv_pos_as_xyz
  1  'x, y, z'
loop_
 _atom_site_type_symbol
 _atom_site_label
 _atom_site_symmetry_multiplicity
 _atom_site_fract_x
 _atom_site_fract_y
 _atom_site_fract_z
 _atom_site_occupancy
  Na  Na0  1  0.32035201  0.00019968  0.24977513  1
  Na  Na1  1  0.81700622  0.99630558  0.25111919  1
  Na  Na2  1  0.18445884  0.99226126  0.74494853  1
  Na  Na3  1  0.68459442  0.99907514  0.74568072  1
  Na  Na4  1  0.01776170  0.70288995  0.58096070  1
  Na  Na5  1  0.52041741  0.70416739  0.57900001  1
  Na  Na6  1  0.01763995  0.32829308  0.07974599  1
  Na  Na7  1  0.51483450  0.32826236  0.08062894  1
  Na  Na8  1  0.48274997  0.66344386  0.91646500  1
  Na  Na9  1  0.34940132  0.03082461  0.91681022  1
  Na  Na10  1  0.85084556  0.04220803  0.91261828  1
  Na  Na11  1  0.16659078  0.30880925  0.92076874  1
  Na  Na12  1  0.48382119  0.30340160  0.41609470  1
  Na  Na13  1  0.98110530  0.30035221  0.41649924  1
  Na  Na14  1  0.16704731  0.02840441  0.41941776  1
  Na  Na15  1  0.66427197  0.02973308  0.41583383  1
  Na  Na16  1  0.35297551  0.67155559  0.41692372  1
  Na  Na17  1  0.84971461  0.66522631  0.41593848  1
  Na  Na18  1  0.99984632  0.00311338  0.50130079  1
  Na  Na19  1  0.50262991  0.00927520  0.50169397  1
  Na  Na20  1  0.00518019  0.99715568  0.00185842  1
  Na  Na21  1  0.50769374  0.00649443  0.00028095  1
  Na  Na22  1  0.34498475  0.34601748  0.83081893  1
  Na  Na23  1  0.84580758  0.34757251  0.83054128  1
  Na  Na24  1  0.34150105  0.35291923  0.33006287  1
  Na  Na25  1  0.83899729  0.35150811  0.33192009  1
  Na  Na26  1  0.17304645  0.65876333  0.16859922  1
  Na  Na27  1  0.67254173  0.66045671  0.16979891  1
  Na  Na28  1  0.17533687  0.67276921  0.66696588  1
  Na  Na29  1  0.67643727  0.67067294  0.66267428  1
  Ti  Ti30  1  0.49284439  0.99431572  0.35248188  1
  Ti  Ti31  1  0.49194441  0.97517840  0.64488351  1
  Ti  Ti32  1  0.49408854  0.01580854  0.14649120  1
  Ti  Ti33  1  0.33539473  0.33249363  0.68508209  1
  Ti  Ti34  1  0.83253589  0.33492517  0.68624046  1
  Ti  Ti35  1  0.33239801  0.34057268  0.18602198  1
  Ti  Ti36  1  0.32621720  0.31656133  0.97784827  1
  Ti  Ti37  1  0.32794541  0.33538890  0.47842914  1
  Ti  Ti38  1  0.82418681  0.33159330  0.47855214  1
  Ti  Ti39  1  0.67437574  0.67871900  0.51849972  1
  Ti  Ti40  1  0.16671091  0.65145202  0.31537191  1
  Ti  Ti41  1  0.66475498  0.64888900  0.31495112  1
  Si  Si42  1  0.35572570  0.70874973  0.24924842  1
  Si  Si43  1  0.85112558  0.70197168  0.25106140  1
  Si  Si44  1  0.00204571  0.30405275  0.25024142  1
  Si  Si45  1  0.50043154  0.29682235  0.25085034  1
  Si  Si46  1  0.99868904  0.69911147  0.74934351  1
  Si  Si47  1  0.49533087  0.70039190  0.74863159  1
  Si  Si48  1  0.35561478  0.00183214  0.74878691  1
  Si  Si49  1  0.85269745  0.00093299  0.75006442  1
  Si  Si50  1  0.18833566  0.04771480  0.58411163  1
  Si  Si51  1  0.68737502  0.04443812  0.58470401  1
  Si  Si52  1  0.32896398  0.61432988  0.58362592  1
  Si  Si53  1  0.82808942  0.61560577  0.58196291  1
  Si  Si54  1  0.32829941  0.04228661  0.08521720  1
  Si  Si55  1  0.83137972  0.03474626  0.08479321  1
  Si  Si56  1  0.18892833  0.33111576  0.08374188  1
  Si  Si57  1  0.68484369  0.33019793  0.08418936  1
  Si  Si58  1  0.31264578  0.66231073  0.91610123  1
  Si  Si59  1  0.01982697  0.37949334  0.91797466  1
  Si  Si60  1  0.52171702  0.37467600  0.91835790  1
  Si  Si61  1  0.16218941  0.95237025  0.91720352  1
  Si  Si62  1  0.66673872  0.96122119  0.91564462  1
  Si  Si63  1  0.31175116  0.95930583  0.41345111  1
  Si  Si64  1  0.80955216  0.95731554  0.41462939  1
  Si  Si65  1  0.16547954  0.37694665  0.41791128  1
  Si  Si66  1  0.66366852  0.37760833  0.41831372  1
  Si  Si67  1  0.02311168  0.66437006  0.41760795  1
  Si  Si68  1  0.52419208  0.66706382  0.41801317  1
  Sn  Sn69  1  0.99537280  0.99564158  0.35212515  1
  Sn  Sn70  1  0.99775763  0.99703762  0.85046726  1
  Sn  Sn71  1  0.49723265  0.99816915  0.85273668  1
  Sn  Sn72  1  0.99496492  0.98394181  0.64586495  1
  Sn  Sn73  1  0.99827360  0.00953793  0.14858218  1
  Sn  Sn74  1  0.82866739  0.33220709  0.18745634  1
  Sn  Sn75  1  0.82826710  0.32115332  0.98189829  1
  Sn  Sn76  1  0.17289855  0.67191550  0.01988104  1
  Sn  Sn77  1  0.66562466  0.66727788  0.02199336  1
  Sn  Sn78  1  0.17393169  0.67638592  0.51971521  1
  Sn  Sn79  1  0.16843968  0.67160907  0.81534117  1
  Sn  Sn80  1  0.66194241  0.67093775  0.81096814  1
  S  S81  1  0.14692984  0.00022192  0.24930615  1
  S  S82  1  0.64078200  0.99512196  0.25047049  1
  S  S83  1  0.14760077  0.29533150  0.74771941  1
  S  S84  1  0.64502730  0.29116631  0.74804249  1
  S  S85  1  0.47720568  0.32883130  0.58266425  1
  S  S86  1  0.97634303  0.32983363  0.58324799  1
  S  S87  1  0.47550523  0.62549674  0.08394497  1
  S  S88  1  0.97919649  0.62713123  0.08344416  1
  S  S89  1  0.81189388  0.66277326  0.91622372  1
  O  O90  1  0.10883857  0.02712937  0.30518170  1
  O  O91  1  0.60171012  0.01711356  0.30632589  1
  O  O92  1  0.41372792  0.79898583  0.31040233  1
  O  O93  1  0.90797936  0.77929322  0.31265039  1
  O  O94  1  0.48630530  0.16571366  0.30743130  1
  O  O95  1  0.98204577  0.17874875  0.30928873  1
  O  O96  1  0.11016930  0.19202225  0.80433704  1
  O  O97  1  0.60889311  0.18650719  0.80377957  1
  O  O98  1  0.48523906  0.78659204  0.80982266  1
  O  O99  1  0.98134720  0.78877813  0.80748592  1
  O  O100  1  0.40951478  0.03995139  0.81109767  1
  O  O101  1  0.90693004  0.03477956  0.81268074  1
  O  O102  1  0.41071834  0.98307259  0.69300408  1
  O  O103  1  0.90033317  0.97511163  0.69258495  1
  O  O104  1  0.09208260  0.20821173  0.69582564  1
  O  O105  1  0.59181795  0.20859794  0.69556971  1
  O  O106  1  0.02471805  0.82647827  0.69007038  1
  O  O107  1  0.51280848  0.83069926  0.69101398  1
  O  O108  1  0.40813416  0.84273922  0.19434600  1
  O  O109  1  0.89830679  0.83334183  0.19465611  1
  O  O110  1  0.02197478  0.22766341  0.18954774  1
  O  O111  1  0.51305098  0.20416983  0.19055004  1
  O  O112  1  0.09202606  0.97532719  0.19675490  1
  O  O113  1  0.59153213  0.98499578  0.19690082  1
  O  O114  1  0.43322581  0.35258139  0.63580806  1
  O  O115  1  0.93286961  0.35035168  0.63650080  1
  O  O116  1  0.24610446  0.13931429  0.64329782  1
  O  O117  1  0.74691772  0.13798388  0.64357791  1
  O  O118  1  0.32462066  0.49457240  0.63961747  1
  O  O119  1  0.82344098  0.49654339  0.63916466  1
  O  O120  1  0.43266326  0.51094715  0.13663526  1
  O  O121  1  0.93925153  0.51744304  0.13672271  1
  O  O122  1  0.32443921  0.14800092  0.14394632  1
  O  O123  1  0.82041626  0.12409714  0.14538334  1
  O  O124  1  0.25131850  0.35603136  0.14099803  1
  O  O125  1  0.74772837  0.37366483  0.14131034  1
  O  O126  1  0.23729544  0.31543277  0.02371680  1
  O  O127  1  0.72775669  0.30610191  0.02318889  1
  O  O128  1  0.42775726  0.54776988  0.02807617  1
  O  O129  1  0.92682390  0.55233767  0.02865204  1
  O  O130  1  0.34736017  0.16496683  0.02556990  1
  O  O131  1  0.85505446  0.15928111  0.02556306  1
  O  O132  1  0.23866174  0.16305094  0.52415555  1
  O  O133  1  0.73666965  0.16411260  0.52505097  1
  O  O134  1  0.34747086  0.53109395  0.52319639  1
  O  O135  1  0.84571714  0.52625574  0.52281948  1
  O  O136  1  0.42629349  0.30609436  0.52731570  1
  O  O137  1  0.92768562  0.30897999  0.52747194  1
  O  O138  1  0.27558557  0.71760635  0.97333784  1
  O  O139  1  0.77287665  0.69298534  0.97013096  1
  O  O140  1  0.07895158  0.45067494  0.97870991  1
  O  O141  1  0.57698965  0.45536705  0.97946096  1
  O  O142  1  0.14403083  0.83129844  0.97476882  1
  O  O143  1  0.64761483  0.83276642  0.97260732  1
  O  O144  1  0.27796662  0.83146112  0.47141665  1
  O  O145  1  0.76405531  0.82855220  0.47240308  1
  O  O146  1  0.13949851  0.45307744  0.47492096  1
  O  O147  1  0.64563481  0.47122081  0.47428254  1
  O  O148  1  0.08052192  0.70908776  0.47920947  1
  O  O149  1  0.58329150  0.70323136  0.47813194  1
  O  O150  1  0.07407673  0.63269727  0.36269486  1
  O  O151  1  0.57136707  0.62908190  0.36191385  1
  O  O152  1  0.24962907  0.87506284  0.35549742  1
  O  O153  1  0.75026451  0.87376542  0.35565964  1
  O  O154  1  0.18783727  0.50482872  0.36003526  1
  O  O155  1  0.68715144  0.50468512  0.35990339  1
  O  O156  1  0.06464344  0.49106676  0.85866794  1
  O  O157  1  0.56429709  0.50237420  0.86046330  1
  O  O158  1  0.19007160  0.89151448  0.85645623  1
  O  O159  1  0.69125405  0.88653205  0.85581296  1
  O  O160  1  0.24826183  0.61017130  0.85866650  1
  O  O161  1  0.76061216  0.63677497  0.86173681  1
  O  O162  1  0.01467081  0.83850643  0.41038934  1
  O  O163  1  0.51348215  0.83825916  0.40914151  1
  O  O164  1  0.40908863  0.98275155  0.40707873  1
  O  O165  1  0.90599051  0.97651737  0.41494045  1
  O  O166  1  0.08408551  0.18192646  0.40911091  1
  O  O167  1  0.58149695  0.18472792  0.40944304  1
  O  O168  1  0.00657322  0.18040315  0.91241336  1
  O  O169  1  0.50737995  0.18103628  0.91282825  1
  O  O170  1  0.08273172  0.99362391  0.91060102  1
  O  O171  1  0.57904608  0.97140008  0.90994195  1
  O  O172  1  0.40792300  0.83267049  0.91159302  1
  O  O173  1  0.89797801  0.82512021  0.91309599  1
  O  O174  1  0.48767956  0.17638680  0.58918355  1
  O  O175  1  0.98845989  0.17772593  0.58824504  1
  O  O176  1  0.09194442  0.03217367  0.58571132  1
  O  O177  1  0.59067875  0.02441303  0.59026920  1
  O  O178  1  0.41821456  0.80590314  0.58942108  1
  O  O179  1  0.91833098  0.80503986  0.58376197  1
  O  O180  1  0.48694329  0.79834716  0.09134483  1
  O  O181  1  0.99109068  0.80201229  0.08978734  1
  O  O182  1  0.41768624  0.02900690  0.09103433  1
  O  O183  1  0.92040886  0.02138176  0.08571245  1
  O  O184  1  0.09391904  0.15317970  0.08767642  1
  O  O185  1  0.58919972  0.15572468  0.09180039  1
  O  O186  1  0.33980899  0.16685630  0.73965906  1
  O  O187  1  0.83611194  0.16498266  0.74263118  1
  O  O188  1  0.23259331  0.30532016  0.74331690  1
  O  O189  1  0.73224931  0.30756986  0.74363819  1
  O  O190  1  0.41193605  0.50990070  0.74034145  1
  O  O191  1  0.91289327  0.51071527  0.73956826  1
  O  O192  1  0.34572890  0.51817328  0.24157628  1
  O  O193  1  0.84046813  0.51117197  0.24702169  1
  O  O194  1  0.41062644  0.30217686  0.24497279  1
  O  O195  1  0.90999927  0.30349965  0.24553029  1
  O  O196  1  0.23381947  0.15724324  0.24447435  1
  O  O197  1  0.73100044  0.15165267  0.24958729  1
  O  O198  1  0.32472472  0.49367578  0.92495933  1
  O  O199  1  0.82523477  0.51408928  0.92209274  1
  O  O200  1  0.42598774  0.35864365  0.92491921  1
  O  O201  1  0.92360510  0.35972982  0.92260950  1
  O  O202  1  0.24993721  0.14583836  0.92572840  1
  O  O203  1  0.75405205  0.14992470  0.91926221  1
  O  O204  1  0.32406685  0.15214985  0.42303236  1
  O  O205  1  0.82113397  0.14910501  0.42463979  1
  O  O206  1  0.25302173  0.36116748  0.42389108  1
  O  O207  1  0.75091703  0.35913033  0.42406033  1
  O  O208  1  0.42767658  0.49456986  0.42473717  1
  O  O209  1  0.92708224  0.49280611  0.42312213  1
  O  O210  1  0.17183818  0.49559170  0.08203531  1
  O  O211  1  0.66621617  0.49372979  0.08112893  1
  O  O212  1  0.06401006  0.63561391  0.07918320  1
  O  O213  1  0.56177620  0.63376201  0.08291019  1
  O  O214  1  0.24204344  0.85360889  0.08358785  1
  O  O215  1  0.74483238  0.84705279  0.07984991  1
  O  O216  1  0.17279772  0.84961988  0.58113718  1
  O  O217  1  0.67363504  0.84858814  0.57766999  1
  O  O218  1  0.24258881  0.62980915  0.58210072  1
  O  O219  1  0.74241136  0.63320354  0.57682805  1
  O  O220  1  0.06219848  0.49193644  0.58165750  1
  O  O221  1  0.56193773  0.49059902  0.58002858  1
  O  O222  1  0.15757837  0.84793348  0.25326849  1
  O  O223  1  0.65159956  0.84154429  0.25340524  1
  O  O224  1  0.26290877  0.70358133  0.25590954  1
  O  O225  1  0.75926515  0.70070142  0.25699863  1
  O  O226  1  0.08688797  0.49491011  0.25842007  1
  O  O227  1  0.58634671  0.48472165  0.25774982  1
  O  O228  1  0.15679464  0.46741457  0.75148746  1
  O  O229  1  0.65588289  0.46652466  0.75437756  1
  O  O230  1  0.08719008  0.68706665  0.75420504  1
  O  O231  1  0.58618481  0.69442941  0.74806550  1
  O  O232  1  0.25953794  0.82760821  0.75103256  1
  O  O233  1  0.75728571  0.82236938  0.75265646  1
