# generated using pymatgen
data_MgMn4(NiO4)2
_symmetry_space_group_name_H-M   'P 1'
_cell_length_a   5.95668638
_cell_length_b   6.33373333
_cell_length_c   6.06342624
_cell_angle_alpha   61.40200312
_cell_angle_beta   59.40543666
_cell_angle_gamma   64.06419306
_symmetry_Int_Tables_number   1
_chemical_formula_structural   MgMn4(NiO4)2
_chemical_formula_sum   'Mg1 Mn4 Ni2 O8'
_cell_volume   167.11431342
_cell_formula_units_Z   1
loop_
 _symmetry_equiv_pos_site_id
 _symmetry_equiv_pos_as_xyz
  1  'x, y, z'
loop_
 _atom_site_type_symbol
 _atom_site_label
 _atom_site_symmetry_multiplicity
 _atom_site_fract_x
 _atom_site_fract_y
 _atom_site_fract_z
 _atom_site_occupancy
  Mg  Mg0  1  0.12500000  0.62500000  0.12500000  1
  Mn  Mn1  1  0.96124200  0.09339700  0.97268000  1
  Mn  Mn2  1  0.28875800  0.15660300  0.27732000  1
  Mn  Mn3  1  0.62500000  0.62500000  0.12500000  1
  Mn  Mn4  1  0.62500000  0.62500000  0.62500000  1
  Ni  Ni5  1  0.12500000  0.62500000  0.62500000  1
  Ni  Ni6  1  0.62500000  0.12500000  0.62500000  1
  O  O7  1  0.37787300  0.39798100  0.36203100  1
  O  O8  1  0.42356700  0.79266200  0.39188600  1
  O  O9  1  0.37787300  0.39798100  0.86211600  1
  O  O10  1  0.88700500  0.36542000  0.37378800  1
  O  O11  1  0.36299500  0.88458000  0.87621200  1
  O  O12  1  0.87212700  0.85201900  0.38788400  1
  O  O13  1  0.82643300  0.45733800  0.85811400  1
  O  O14  1  0.87212700  0.85201900  0.88796900  1
