# generated using pymatgen
data_Na2Y3Ta5Si6(SO8)6
_symmetry_space_group_name_H-M   'P 1'
_cell_length_a   17.95771572
_cell_length_b   8.98294991
_cell_length_c   23.41629178
_cell_angle_alpha   89.74564448
_cell_angle_beta   90.02103306
_cell_angle_gamma   120.10668915
_symmetry_Int_Tables_number   1
_chemical_formula_structural   Na2Y3Ta5Si6(SO8)6
_chemical_formula_sum   'Na6 Y9 Ta15 Si18 S18 O144'
_cell_volume   3267.72603185
_cell_formula_units_Z   3
loop_
 _symmetry_equiv_pos_site_id
 _symmetry_equiv_pos_as_xyz
  1  'x, y, z'
loop_
 _atom_site_type_symbol
 _atom_site_label
 _atom_site_symmetry_multiplicity
 _atom_site_fract_x
 _atom_site_fract_y
 _atom_site_fract_z
 _atom_site_occupancy
  Na  Na0  1  0.98906701  0.95810929  0.49954143  1
  Na  Na1  1  0.50246179  0.99621955  0.99867460  1
  Na  Na2  1  0.33635813  0.30432019  0.83920763  1
  Na  Na3  1  0.83304521  0.34543325  0.83787705  1
  Na  Na4  1  0.32084205  0.30676954  0.33708375  1
  Na  Na5  1  0.83771657  0.34935279  0.34637371  1
  Y  Y6  1  0.00686604  0.00165561  0.35437529  1
  Y  Y7  1  0.50291091  0.02373138  0.85330553  1
  Y  Y8  1  0.99901096  0.00515755  0.65273471  1
  Y  Y9  1  0.49149844  0.97931001  0.14715860  1
  Y  Y10  1  0.33687647  0.33519843  0.97433902  1
  Y  Y11  1  0.83880833  0.33302393  0.97494045  1
  Y  Y12  1  0.33607901  0.33973109  0.47917270  1
  Y  Y13  1  0.83019619  0.34201337  0.47916270  1
  Y  Y14  1  0.67278380  0.66804714  0.30795318  1
  Ta  Ta15  1  0.49249642  0.99217891  0.36082255  1
  Ta  Ta16  1  0.00503697  0.00763628  0.86247693  1
  Ta  Ta17  1  0.49907816  0.00336242  0.64712248  1
  Ta  Ta18  1  0.00481053  0.01911105  0.15028311  1
  Ta  Ta19  1  0.32490695  0.33431650  0.68928116  1
  Ta  Ta20  1  0.82653616  0.32682003  0.67937798  1
  Ta  Ta21  1  0.33990321  0.35234300  0.18881628  1
  Ta  Ta22  1  0.83400753  0.32042428  0.18349608  1
  Ta  Ta23  1  0.15885092  0.66362242  0.01836744  1
  Ta  Ta24  1  0.67029296  0.66622699  0.02313363  1
  Ta  Ta25  1  0.17409427  0.67967571  0.52011780  1
  Ta  Ta26  1  0.66845562  0.65413651  0.52496236  1
  Ta  Ta27  1  0.16243769  0.67799538  0.30600278  1
  Ta  Ta28  1  0.16799952  0.67399559  0.80785657  1
  Ta  Ta29  1  0.66377322  0.64526767  0.81102150  1
  Si  Si30  1  0.14889709  0.00874253  0.24668037  1
  Si  Si31  1  0.35403453  0.70724696  0.25500831  1
  Si  Si32  1  0.99683987  0.28845354  0.25398148  1
  Si  Si33  1  0.14438697  0.28955872  0.75384481  1
  Si  Si34  1  0.64806251  0.28844762  0.74876919  1
  Si  Si35  1  0.35557030  0.00609988  0.74867044  1
  Si  Si36  1  0.68238537  0.02941083  0.58183768  1
  Si  Si37  1  0.33325030  0.62676438  0.58382949  1
  Si  Si38  1  0.83790834  0.63475877  0.58099542  1
  Si  Si39  1  0.48260415  0.62505890  0.07941945  1
  Si  Si40  1  0.83582201  0.03778817  0.08193252  1
  Si  Si41  1  0.80839188  0.66874734  0.91451922  1
  Si  Si42  1  0.02688437  0.38409265  0.91264610  1
  Si  Si43  1  0.52624480  0.38187515  0.91867314  1
  Si  Si44  1  0.16515997  0.94843089  0.91273910  1
  Si  Si45  1  0.30480600  0.95218613  0.41211975  1
  Si  Si46  1  0.66319901  0.37346678  0.41431233  1
  Si  Si47  1  0.02551612  0.66489303  0.41685038  1
  S  S48  1  0.65074316  0.02092822  0.25079285  1
  S  S49  1  0.85868336  0.70363656  0.24314317  1
  S  S50  1  0.49320810  0.28274992  0.25048059  1
  S  S51  1  0.99647366  0.69782301  0.75302498  1
  S  S52  1  0.49836108  0.70366476  0.74862733  1
  S  S53  1  0.85157278  0.00690351  0.75488391  1
  S  S54  1  0.47915493  0.33205074  0.58523009  1
  S  S55  1  0.98346630  0.34555709  0.58333774  1
  S  S56  1  0.18973457  0.03771190  0.58429300  1
  S  S57  1  0.98081404  0.63060946  0.08486221  1
  S  S58  1  0.32585904  0.03260002  0.08184772  1
  S  S59  1  0.18873998  0.33917628  0.08569366  1
  S  S60  1  0.69118203  0.34204575  0.08352204  1
  S  S61  1  0.30383347  0.67103822  0.91771292  1
  S  S62  1  0.66286699  0.93569634  0.91661592  1
  S  S63  1  0.80942667  0.94389023  0.42101531  1
  S  S64  1  0.16491104  0.38979649  0.41803195  1
  S  S65  1  0.52536214  0.67753937  0.41450418  1
  O  O66  1  0.11761075  0.06180425  0.30294700  1
  O  O67  1  0.61068130  0.04827255  0.30183695  1
  O  O68  1  0.42550182  0.80792125  0.30638154  1
  O  O69  1  0.90622481  0.76175181  0.29688767  1
  O  O70  1  0.48006871  0.17139548  0.30138279  1
  O  O71  1  0.96503364  0.16081152  0.30692073  1
  O  O72  1  0.09293946  0.15042667  0.80602510  1
  O  O73  1  0.61807901  0.17930039  0.80650289  1
  O  O74  1  0.47537048  0.76170830  0.80038265  1
  O  O75  1  0.98139985  0.77964452  0.80293808  1
  O  O76  1  0.41032570  0.05636973  0.80634281  1
  O  O77  1  0.91019222  0.03387698  0.80332869  1
  O  O78  1  0.40617340  0.97776914  0.69578925  1
  O  O79  1  0.88119282  0.96294990  0.70265065  1
  O  O80  1  0.09392037  0.22667604  0.69564799  1
  O  O81  1  0.58303347  0.19020756  0.69585164  1
  O  O82  1  0.01307434  0.79977740  0.70098729  1
  O  O83  1  0.51164149  0.81539813  0.69889639  1
  O  O84  1  0.38610263  0.81315968  0.19698394  1
  O  O85  1  0.90814064  0.81825841  0.19455716  1
  O  O86  1  0.01010266  0.18938049  0.19744810  1
  O  O87  1  0.50803890  0.21347167  0.19857263  1
  O  O88  1  0.08453555  0.98044096  0.19265458  1
  O  O89  1  0.60142822  0.99700176  0.19892139  1
  O  O90  1  0.43728426  0.36168658  0.63443872  1
  O  O91  1  0.93880928  0.36400910  0.63607753  1
  O  O92  1  0.24414062  0.12710492  0.63576244  1
  O  O93  1  0.75255563  0.13174844  0.63805848  1
  O  O94  1  0.31761063  0.49246128  0.63888916  1
  O  O95  1  0.82658116  0.50281040  0.63656750  1
  O  O96  1  0.43018612  0.50062522  0.13836839  1
  O  O97  1  0.93683409  0.50966077  0.13400193  1
  O  O98  1  0.31396509  0.11444582  0.13302980  1
  O  O99  1  0.81806161  0.13904705  0.13823008  1
  O  O100  1  0.24622558  0.36784560  0.13568423  1
  O  O101  1  0.74644867  0.36161010  0.13506126  1
  O  O102  1  0.21894795  0.29510976  0.03446924  1
  O  O103  1  0.72937776  0.31283318  0.03255198  1
  O  O104  1  0.41743519  0.53674038  0.02796915  1
  O  O105  1  0.92976479  0.56576296  0.03300140  1
  O  O106  1  0.33531592  0.13187033  0.02982077  1
  O  O107  1  0.86178012  0.16882132  0.03023520  1
  O  O108  1  0.22824976  0.14036278  0.53271306  1
  O  O109  1  0.72182967  0.15280373  0.52909744  1
  O  O110  1  0.35456578  0.55043690  0.52898149  1
  O  O111  1  0.85588747  0.56248141  0.52489060  1
  O  O112  1  0.42802415  0.29316720  0.53308218  1
  O  O113  1  0.93006683  0.31317097  0.53314817  1
  O  O114  1  0.25752767  0.68082166  0.97152425  1
  O  O115  1  0.76487019  0.69482374  0.97228885  1
  O  O116  1  0.08053615  0.47535883  0.97451792  1
  O  O117  1  0.58675307  0.49491593  0.97261220  1
  O  O118  1  0.15545536  0.83092739  0.97294457  1
  O  O119  1  0.66210858  0.84558155  0.97052593  1
  O  O120  1  0.26406468  0.84329153  0.47299156  1
  O  O121  1  0.75657945  0.83446730  0.47169040  1
  O  O122  1  0.16468073  0.48059232  0.47232056  1
  O  O123  1  0.65120322  0.47335511  0.47186258  1
  O  O124  1  0.08533103  0.67311546  0.47420597  1
  O  O125  1  0.57286428  0.69270831  0.46740138  1
  O  O126  1  0.07874465  0.66597929  0.35862664  1
  O  O127  1  0.56683674  0.66327923  0.36295764  1
  O  O128  1  0.24916339  0.84957886  0.35749432  1
  O  O129  1  0.76380157  0.86645973  0.36760212  1
  O  O130  1  0.16921095  0.48554487  0.36652582  1
  O  O131  1  0.67347817  0.48635838  0.35860707  1
  O  O132  1  0.08326375  0.50628447  0.86073863  1
  O  O133  1  0.57629688  0.48690064  0.85793360  1
  O  O134  1  0.17552541  0.85036568  0.85843090  1
  O  O135  1  0.66757063  0.84728824  0.86434519  1
  O  O136  1  0.25914077  0.67202517  0.86520080  1
  O  O137  1  0.74993478  0.65655287  0.85745010  1
  O  O138  1  0.02106531  0.84076919  0.41874915  1
  O  O139  1  0.52040429  0.84207164  0.40919233  1
  O  O140  1  0.39935977  0.95894100  0.40391088  1
  O  O141  1  0.89236384  0.94725466  0.42322116  1
  O  O142  1  0.08540893  0.22013781  0.42020798  1
  O  O143  1  0.57203813  0.18589359  0.40273300  1
  O  O144  1  0.02315967  0.19697703  0.90690916  1
  O  O145  1  0.52089418  0.19702217  0.92255377  1
  O  O146  1  0.07255346  0.94376974  0.90617609  1
  O  O147  1  0.58227580  0.94139062  0.91621216  1
  O  O148  1  0.39008414  0.82246919  0.91943324  1
  O  O149  1  0.90047227  0.84421572  0.89898702  1
  O  O150  1  0.49515554  0.18618019  0.59589752  1
  O  O151  1  0.99712738  0.19854340  0.59148512  1
  O  O152  1  0.10249484  0.00812923  0.59198117  1
  O  O153  1  0.59054799  0.00381806  0.60468694  1
  O  O154  1  0.41233545  0.81437980  0.60363709  1
  O  O155  1  0.91157208  0.82849780  0.59178270  1
  O  O156  1  0.50280395  0.82067741  0.08629107  1
  O  O157  1  0.99741828  0.80342268  0.09837373  1
  O  O158  1  0.40212295  0.01212132  0.08630012  1
  O  O159  1  0.91442369  0.00671010  0.10303612  1
  O  O160  1  0.09995510  0.19023054  0.09843503  1
  O  O161  1  0.60366328  0.20048039  0.09234632  1
  O  O162  1  0.34145503  0.16775846  0.72922961  1
  O  O163  1  0.84778591  0.16936505  0.74635370  1
  O  O164  1  0.24295291  0.30997796  0.74442985  1
  O  O165  1  0.74591022  0.32133948  0.73283539  1
  O  O166  1  0.42464562  0.52212337  0.73576323  1
  O  O167  1  0.92114881  0.52081939  0.74578730  1
  O  O168  1  0.34866710  0.51404357  0.24311216  1
  O  O169  1  0.84595245  0.52911507  0.23022469  1
  O  O170  1  0.40968992  0.28827414  0.24416528  1
  O  O171  1  0.91680928  0.32223715  0.23167836  1
  O  O172  1  0.24381602  0.16806608  0.22708246  1
  O  O173  1  0.73987198  0.18614495  0.24264054  1
  O  O174  1  0.30271772  0.50718884  0.91979174  1
  O  O175  1  0.81669983  0.49982874  0.91600571  1
  O  O176  1  0.43498142  0.37473721  0.91351160  1
  O  O177  1  0.93402160  0.36547774  0.91265484  1
  O  O178  1  0.24466561  0.13753923  0.91555290  1
  O  O179  1  0.74012638  0.10937956  0.91721008  1
  O  O180  1  0.32075908  0.14411510  0.41492120  1
  O  O181  1  0.81967104  0.11439945  0.42532765  1
  O  O182  1  0.24228517  0.37042046  0.41978087  1
  O  O183  1  0.74106157  0.33629176  0.41610598  1
  O  O184  1  0.43648205  0.53017727  0.41670045  1
  O  O185  1  0.93545682  0.48827472  0.41496814  1
  O  O186  1  0.17966344  0.49410145  0.07763461  1
  O  O187  1  0.69061501  0.50700666  0.07851731  1
  O  O188  1  0.06681289  0.63848399  0.07687106  1
  O  O189  1  0.57487520  0.62966329  0.07127973  1
  O  O190  1  0.24737918  0.85461200  0.07446677  1
  O  O191  1  0.74930429  0.85438112  0.07243877  1
  O  O192  1  0.18675729  0.86879695  0.57883651  1
  O  O193  1  0.67044619  0.83780684  0.56934710  1
  O  O194  1  0.24601236  0.63916208  0.57241134  1
  O  O195  1  0.74395616  0.63217199  0.57341707  1
  O  O196  1  0.06838435  0.50669370  0.57754794  1
  O  O197  1  0.56475023  0.49034709  0.57602556  1
  O  O198  1  0.15844653  0.83763978  0.25422443  1
  O  O199  1  0.66798661  0.88027249  0.25783811  1
  O  O200  1  0.25853132  0.66169185  0.27271062  1
  O  O201  1  0.77459360  0.69211182  0.24415799  1
  O  O202  1  0.08069891  0.47557201  0.26139224  1
  O  O203  1  0.56213596  0.45991168  0.25867420  1
  O  O204  1  0.16546482  0.48236933  0.77030914  1
  O  O205  1  0.65994757  0.48382218  0.75783194  1
  O  O206  1  0.07438685  0.67862387  0.76172943  1
  O  O207  1  0.57640653  0.68848148  0.75638330  1
  O  O208  1  0.25905810  0.83771663  0.75887308  1
  O  O209  1  0.76212429  0.86510031  0.76678626  1
