# generated using pymatgen
data_Na4Mg2Sc2SiS5O24
_symmetry_space_group_name_H-M   'P 1'
_cell_length_a   8.91694928
_cell_length_b   8.85579868
_cell_length_c   22.68318551
_cell_angle_alpha   90.00359114
_cell_angle_beta   90.04870700
_cell_angle_gamma   119.84998058
_symmetry_Int_Tables_number   1
_chemical_formula_structural   Na4Mg2Sc2SiS5O24
_chemical_formula_sum   'Na12 Mg6 Sc6 Si3 S15 O72'
_cell_volume   1553.57785008
_cell_formula_units_Z   3
loop_
 _symmetry_equiv_pos_site_id
 _symmetry_equiv_pos_as_xyz
  1  'x, y, z'
loop_
 _atom_site_type_symbol
 _atom_site_label
 _atom_site_symmetry_multiplicity
 _atom_site_fract_x
 _atom_site_fract_y
 _atom_site_fract_z
 _atom_site_occupancy
  Na  Na0  1  0.99568516  0.63151237  0.24056032  1
  Na  Na1  1  0.99137394  0.35211888  0.75649882  1
  Na  Na2  1  0.37112146  0.99533953  0.75141873  1
  Na  Na3  1  0.65946598  0.97385225  0.58864666  1
  Na  Na4  1  0.67664875  0.68723651  0.07824575  1
  Na  Na5  1  0.33720749  0.03541053  0.42147968  1
  Na  Na6  1  0.01331295  0.00296228  0.50027470  1
  Na  Na7  1  0.01121425  0.99572360  0.00176785  1
  Na  Na8  1  0.66657787  0.33391923  0.84096930  1
  Na  Na9  1  0.66667816  0.33345328  0.33080029  1
  Na  Na10  1  0.32062476  0.66243000  0.16441084  1
  Na  Na11  1  0.34890412  0.67674146  0.66856314  1
  Mg  Mg12  1  0.99524878  0.00212843  0.34955649  1
  Mg  Mg13  1  0.67160588  0.33230653  0.18094506  1
  Mg  Mg14  1  0.67409795  0.34208916  0.98489944  1
  Mg  Mg15  1  0.66036336  0.33249130  0.48241936  1
  Mg  Mg16  1  0.33820672  0.66362394  0.31527907  1
  Mg  Mg17  1  0.35053998  0.67649875  0.81825348  1
  Sc  Sc18  1  0.98504370  0.99813517  0.85420911  1
  Sc  Sc19  1  0.00060086  0.99587125  0.64708791  1
  Sc  Sc20  1  0.00505055  0.00098003  0.14714961  1
  Sc  Sc21  1  0.65746377  0.32031609  0.68269888  1
  Sc  Sc22  1  0.31816578  0.66806349  0.02054189  1
  Sc  Sc23  1  0.33055346  0.66944089  0.51782059  1
  Si  Si24  1  0.70033386  0.99369735  0.74762847  1
  Si  Si25  1  0.36561983  0.03715371  0.57946561  1
  Si  Si26  1  0.95735744  0.62314766  0.08640953  1
  S  S27  1  0.29791126  0.00192382  0.25296814  1
  S  S28  1  0.70350410  0.70583408  0.25101922  1
  S  S29  1  0.99932903  0.29446873  0.25208460  1
  S  S30  1  0.29206374  0.29482114  0.75123791  1
  S  S31  1  -0.00045479  0.70463744  0.75159474  1
  S  S32  1  0.95981925  0.33626837  0.58195942  1
  S  S33  1  0.66649634  0.62336007  0.58100555  1
  S  S34  1  0.66662520  0.04311139  0.08302413  1
  S  S35  1  0.37787849  0.33254151  0.08278900  1
  S  S36  1  0.62406095  0.66000119  0.91777141  1
  S  S37  1  0.03857160  0.37556173  0.91474612  1
  S  S38  1  0.33669721  0.96758632  0.91512123  1
  S  S39  1  0.63098482  0.96117672  0.41568314  1
  S  S40  1  0.33344090  0.37235248  0.41488895  1
  S  S41  1  0.03521742  0.66478953  0.41418966  1
  O  O42  1  0.21777184  0.02526121  0.30728614  1
  O  O43  1  0.81936760  0.79355819  0.30191731  1
  O  O44  1  0.98223203  0.19035935  0.30481795  1
  O  O45  1  0.21481108  0.17941206  0.80304237  1
  O  O46  1  0.97916795  0.78981146  0.80417487  1
  O  O47  1  0.83508870  0.03318111  0.80252398  1
  O  O48  1  0.79173046  0.97761291  0.68712227  1
  O  O49  1  0.18506982  0.21306713  0.69783452  1
  O  O50  1  0.03342128  0.81651343  0.69858286  1
  O  O51  1  0.78331926  0.80814768  0.19618607  1
  O  O52  1  0.02122827  0.21272962  0.19852595  1
  O  O53  1  0.18237719  0.97372504  0.20125424  1
  O  O54  1  0.88684971  0.36282126  0.63783478  1
  O  O55  1  0.48702954  0.12208045  0.63945469  1
  O  O56  1  0.64862396  0.52510107  0.63576136  1
  O  O57  1  0.88315496  0.52311762  0.14833435  1
  O  O58  1  0.63633871  0.11696144  0.13662053  1
  O  O59  1  0.48286670  0.35757898  0.13614922  1
  O  O60  1  0.45086891  0.30095309  0.02941319  1
  O  O61  1  0.83017886  0.54147742  0.03078307  1
  O  O62  1  0.68631403  0.14341412  0.02957244  1
  O  O63  1  0.45607344  0.14621833  0.52067477  1
  O  O64  1  0.69142788  0.54290107  0.52890623  1
  O  O65  1  0.84927421  0.31390346  0.53117577  1
  O  O66  1  0.54711505  0.68524249  0.97210178  1
  O  O67  1  0.14772337  0.46389680  0.96657797  1
  O  O68  1  0.31304477  0.85561706  0.96694810  1
  O  O69  1  0.55157069  0.85944960  0.47124442  1
  O  O70  1  0.31231108  0.45461450  0.46905096  1
  O  O71  1  0.15059502  0.69362534  0.46665361  1
  O  O72  1  0.11687154  0.64192884  0.36073169  1
  O  O73  1  0.51327930  0.87236893  0.36555262  1
  O  O74  1  0.35109137  0.47771273  0.36278806  1
  O  O75  1  0.12010452  0.47457233  0.85967669  1
  O  O76  1  0.35475617  0.88509830  0.86018299  1
  O  O77  1  0.52033619  0.64473226  0.86518015  1
  O  O78  1  0.02606377  0.82875246  0.41031289  1
  O  O79  1  0.80291151  0.97685339  0.40966324  1
  O  O80  1  0.17921127  0.19278213  0.41089268  1
  O  O81  1  0.02649622  0.20022849  0.91235204  1
  O  O82  1  0.17874881  0.98422572  0.91097732  1
  O  O83  1  0.80141821  0.81871672  0.91237519  1
  O  O84  1  0.97016648  0.17342780  0.58662773  1
  O  O85  1  0.17401923  0.01285195  0.58867461  1
  O  O86  1  0.81765779  0.80431848  0.58569678  1
  O  O87  1  0.97967581  0.82380909  0.09201436  1
  O  O88  1  0.82412223  0.02327464  0.08944039  1
  O  O89  1  0.19799028  0.18415436  0.08997652  1
  O  O90  1  0.68818126  0.17709694  0.74556478  1
  O  O91  1  0.46732634  0.31683145  0.74427798  1
  O  O92  1  0.84273460  0.53166575  0.74441781  1
  O  O93  1  0.68670604  0.52990233  0.24674473  1
  O  O94  1  0.84136195  0.31300341  0.24817883  1
  O  O95  1  0.47090366  0.15554320  0.24481697  1
  O  O96  1  0.64174774  0.50284904  0.92084828  1
  O  O97  1  0.86389785  0.35337566  0.92022659  1
  O  O98  1  0.49252405  0.14045842  0.92179897  1
  O  O99  1  0.64627676  0.13664429  0.42046681  1
  O  O100  1  0.49098997  0.35332415  0.41900896  1
  O  O101  1  0.86291269  0.51115592  0.42278892  1
  O  O102  1  0.36864702  0.49697118  0.07664795  1
  O  O103  1  0.15394549  0.65120681  0.07773470  1
  O  O104  1  0.51816062  0.85898817  0.07712354  1
  O  O105  1  0.35753836  0.84446284  0.57641481  1
  O  O106  1  0.50934259  0.64304462  0.57669142  1
  O  O107  1  0.13665309  0.48692395  0.57641281  1
  O  O108  1  0.30696812  0.83797847  0.25729045  1
  O  O109  1  0.53085734  0.69021026  0.25747381  1
  O  O110  1  0.15347430  0.47461058  0.25645236  1
  O  O111  1  0.30039104  0.46468014  0.75845380  1
  O  O112  1  0.15166742  0.67921790  0.75730573  1
  O  O113  1  0.50567931  0.83124741  0.75446642  1
