# generated using pymatgen
data_NaMgH3
_symmetry_space_group_name_H-M   'P 1'
_cell_length_a   5.31825568
_cell_length_b   5.42821054
_cell_length_c   7.61022894
_cell_angle_alpha   90.00000000
_cell_angle_beta   90.00000000
_cell_angle_gamma   90.00000000
_symmetry_Int_Tables_number   1
_chemical_formula_structural   NaMgH3
_chemical_formula_sum   'Na4 Mg4 H12'
_cell_volume   219.69674297
_cell_formula_units_Z   4
loop_
 _symmetry_equiv_pos_site_id
 _symmetry_equiv_pos_as_xyz
  1  'x, y, z'
loop_
 _atom_site_type_symbol
 _atom_site_label
 _atom_site_symmetry_multiplicity
 _atom_site_fract_x
 _atom_site_fract_y
 _atom_site_fract_z
 _atom_site_occupancy
  Na  Na0  1  0.00995946  0.03278862  0.25000000  1
  Na  Na1  1  0.49004054  0.53278862  0.25000000  1
  Na  Na2  1  0.50995946  0.46721138  0.75000000  1
  Na  Na3  1  0.99004054  0.96721138  0.75000000  1
  Mg  Mg4  1  -0.00000000  0.50000000  0.50000000  1
  Mg  Mg5  1  -0.00000000  0.50000000  -0.00000000  1
  Mg  Mg6  1  0.50000000  0.00000000  -0.00000000  1
  Mg  Mg7  1  0.50000000  0.00000000  0.50000000  1
  H  H8  1  0.21084129  0.78745858  0.04467651  1
  H  H9  1  0.28915871  0.28745858  0.45532349  1
  H  H10  1  0.78915871  0.21254142  0.95532349  1
  H  H11  1  0.58384024  0.97460144  0.25000000  1
  H  H12  1  0.91615976  0.47460144  0.25000000  1
  H  H13  1  0.28915871  0.28745858  0.04467651  1
  H  H14  1  0.71084129  0.71254142  0.54467651  1
  H  H15  1  0.71084129  0.71254142  0.95532349  1
  H  H16  1  0.41615976  0.02539856  0.75000000  1
  H  H17  1  0.78915871  0.21254142  0.54467651  1
  H  H18  1  0.08384024  0.52539856  0.75000000  1
  H  H19  1  0.21084129  0.78745858  0.45532349  1
