# generated using pymatgen
data_ZrScP(SO6)2
_symmetry_space_group_name_H-M   'P 1'
_cell_length_a   8.93471218
_cell_length_b   8.93190103
_cell_length_c   22.99975021
_cell_angle_alpha   90.03421331
_cell_angle_beta   90.00000000
_cell_angle_gamma   120.01041178
_symmetry_Int_Tables_number   1
_chemical_formula_structural   ZrScP(SO6)2
_chemical_formula_sum   'Zr6 Sc6 P6 S12 O72'
_cell_volume   1589.39756309
_cell_formula_units_Z   6
loop_
 _symmetry_equiv_pos_site_id
 _symmetry_equiv_pos_as_xyz
  1  'x, y, z'
loop_
 _atom_site_type_symbol
 _atom_site_label
 _atom_site_symmetry_multiplicity
 _atom_site_fract_x
 _atom_site_fract_y
 _atom_site_fract_z
 _atom_site_occupancy
  Zr  Zr0  1  0.00189174  0.99962470  0.64382914  1
  Zr  Zr1  1  0.99773297  0.99962470  0.14382914  1
  Zr  Zr2  1  0.66391463  0.33159434  0.97719400  1
  Zr  Zr3  1  0.66768071  0.33159434  0.47719400  1
  Zr  Zr4  1  0.34130751  0.66009739  0.31051932  1
  Zr  Zr5  1  0.31878888  0.66009739  0.81051932  1
  Sc  Sc6  1  0.99967614  0.99803512  0.35520165  1
  Sc  Sc7  1  0.99835898  0.99803512  0.85520165  1
  Sc  Sc8  1  0.68270921  0.34145976  0.68861387  1
  Sc  Sc9  1  0.65875155  0.34145976  0.18861387  1
  Sc  Sc10  1  0.32739601  0.65073843  0.02187302  1
  Sc  Sc11  1  0.32334142  0.65073843  0.52187302  1
  P  P12  1  0.71725097  0.71283836  0.25064419  1
  P  P13  1  0.99558740  0.71283836  0.75064419  1
  P  P14  1  0.95561244  0.33473581  0.58370354  1
  P  P15  1  0.37912438  0.33473581  0.08370354  1
  P  P16  1  0.04404293  0.37339689  0.91742130  1
  P  P17  1  0.32935296  0.37339689  0.41742130  1
  S  S18  1  0.29009384  0.00071493  0.25057106  1
  S  S19  1  0.99507516  0.28743783  0.25023832  1
  S  S20  1  0.29236267  0.28743783  0.75023832  1
  S  S21  1  0.71062110  0.00071493  0.75057106  1
  S  S22  1  0.38031815  0.04249348  0.58385761  1
  S  S23  1  0.66349236  0.62083439  0.58370943  1
  S  S24  1  0.95734302  0.62083439  0.08370943  1
  S  S25  1  0.66217633  0.04249348  0.08385761  1
  S  S26  1  0.62303186  0.66978726  0.91667141  1
  S  S27  1  0.33028644  0.95308682  0.91732171  1
  S  S28  1  0.62279938  0.95308682  0.41732171  1
  S  S29  1  0.04675439  0.66978726  0.41667141  1
  O  O30  1  0.21004425  0.02950842  0.30211931  1
  O  O31  1  0.82701877  0.79978174  0.30437294  1
  O  O32  1  0.97176923  0.18154031  0.30202223  1
  O  O33  1  0.20977108  0.18154031  0.80202223  1
  O  O34  1  0.97276297  0.79978174  0.80437294  1
  O  O35  1  0.81946417  0.02950842  0.80211931  1
  O  O36  1  0.79130279  0.97143593  0.69804647  1
  O  O37  1  0.17985632  0.20969613  0.69791861  1
  O  O38  1  0.02785690  0.82791781  0.69601791  1
  O  O39  1  0.80006092  0.82791781  0.19601791  1
  O  O40  1  0.02983980  0.20969613  0.19791861  1
  O  O41  1  0.18013314  0.97143593  0.19804647  1
  O  O42  1  0.86885011  0.36088419  0.63709088  1
  O  O43  1  0.48500793  0.12498473  0.63571367  1
  O  O44  1  0.63601515  0.51364208  0.63543966  1
  O  O45  1  0.87762793  0.51364208  0.13543966  1
  O  O46  1  0.63997780  0.12498473  0.13571367  1
  O  O47  1  0.49203508  0.36088419  0.13709088  1
  O  O48  1  0.46515265  0.30447377  0.02943188  1
  O  O49  1  0.84684729  0.54223529  0.03135221  1
  O  O50  1  0.69578250  0.15383905  0.03122717  1
  O  O51  1  0.45805755  0.15383905  0.53122717  1
  O  O52  1  0.69538901  0.54223529  0.53135221  1
  O  O53  1  0.83932211  0.30447377  0.52943188  1
  O  O54  1  0.54372478  0.69677025  0.96878456  1
  O  O55  1  0.15823277  0.46327104  0.97030652  1
  O  O56  1  0.30641162  0.84810911  0.96912799  1
  O  O57  1  0.54169649  0.84810911  0.46912799  1
  O  O58  1  0.30503727  0.46327104  0.47030652  1
  O  O59  1  0.15304448  0.69677025  0.46878456  1
  O  O60  1  0.12497146  0.63895255  0.36442166  1
  O  O61  1  0.51257440  0.87616279  0.36463193  1
  O  O62  1  0.36212991  0.49248194  0.36316928  1
  O  O63  1  0.13035103  0.49248194  0.86316928  1
  O  O64  1  0.36358739  0.87616279  0.86463193  1
  O  O65  1  0.51398008  0.63895255  0.86442166  1
  O  O66  1  0.02461370  0.82037598  0.40841857  1
  O  O67  1  0.79500503  0.97576597  0.40815476  1
  O  O68  1  0.17291037  0.19638654  0.40577850  1
  O  O69  1  0.02347616  0.19638654  0.90577850  1
  O  O70  1  0.18076094  0.97576597  0.90815476  1
  O  O71  1  0.79576228  0.82037598  0.90841857  1
  O  O72  1  0.97504633  0.17339871  0.59369909  1
  O  O73  1  0.20605479  0.02616274  0.59131525  1
  O  O74  1  0.82039980  0.79460977  0.59152989  1
  O  O75  1  0.97420996  0.79460977  0.09152989  1
  O  O76  1  0.82010795  0.02616274  0.09131525  1
  O  O77  1  0.19835238  0.17339871  0.09369909  1
  O  O78  1  0.68879194  0.15131018  0.74148271  1
  O  O79  1  0.46252684  0.30735785  0.74059096  1
  O  O80  1  0.84035433  0.53294344  0.74087292  1
  O  O81  1  0.69259010  0.53294344  0.24087292  1
  O  O82  1  0.84483202  0.30735785  0.24059096  1
  O  O83  1  0.46251924  0.15131018  0.24148271  1
  O  O84  1  0.64155142  0.51372527  0.92499028  1
  O  O85  1  0.86491225  0.35796953  0.92717309  1
  O  O86  1  0.48734904  0.12780655  0.92456936  1
  O  O87  1  0.64045852  0.12780655  0.42456936  1
  O  O88  1  0.49305828  0.35796953  0.42717309  1
  O  O89  1  0.87217486  0.51372527  0.42499028  1
  O  O90  1  0.35896447  0.49284553  0.07407403  1
  O  O91  1  0.13004394  0.64473678  0.07476255  1
  O  O92  1  0.51246844  0.87136876  0.07395467  1
  O  O93  1  0.35889931  0.87136876  0.57395467  1
  O  O94  1  0.51469183  0.64473678  0.57476255  1
  O  O95  1  0.13388006  0.49284553  0.57407403  1
  O  O96  1  0.30618840  0.84455152  0.25903905  1
  O  O97  1  0.53503436  0.69416140  0.25881566  1
  O  O98  1  0.15170755  0.46196083  0.25821415  1
  O  O99  1  0.31025228  0.46196083  0.75821415  1
  O  O100  1  0.15912604  0.69416140  0.75881566  1
  O  O101  1  0.53836212  0.84455152  0.75903905  1
