# generated using pymatgen
data_Na2HfGa(PO4)3
_symmetry_space_group_name_H-M   'P 1'
_cell_length_a   8.83798989
_cell_length_b   8.83798960
_cell_length_c   22.40438290
_cell_angle_alpha   90.16512446
_cell_angle_beta   89.83487555
_cell_angle_gamma   120.50781556
_symmetry_Int_Tables_number   1
_chemical_formula_structural   Na2HfGa(PO4)3
_chemical_formula_sum   'Na12 Hf6 Ga6 P18 O72'
_cell_volume   1507.72823535
_cell_formula_units_Z   6
loop_
 _symmetry_equiv_pos_site_id
 _symmetry_equiv_pos_as_xyz
  1  'x, y, z'
loop_
 _atom_site_type_symbol
 _atom_site_label
 _atom_site_symmetry_multiplicity
 _atom_site_fract_x
 _atom_site_fract_y
 _atom_site_fract_z
 _atom_site_occupancy
  Na  Na0  1  0.36501710  0.36148731  0.24838156  1
  Na  Na1  1  0.63851269  0.63498290  0.74838156  1
  Na  Na2  1  0.03168410  0.69482031  0.58171456  1
  Na  Na3  1  0.30517969  0.96831590  0.08171456  1
  Na  Na4  1  0.69835010  0.02815431  0.91504856  1
  Na  Na5  1  0.97184569  0.30164990  0.41504856  1
  Na  Na6  1  0.99984940  0.99887173  0.49594374  1
  Na  Na7  1  0.00112827  0.00015060  0.99594374  1
  Na  Na8  1  0.66651640  0.33220473  0.82927674  1
  Na  Na9  1  0.66779527  0.33348360  0.32927674  1
  Na  Na10  1  0.33318240  0.66553873  0.16261074  1
  Na  Na11  1  0.33446127  0.66681760  0.66261074  1
  Hf  Hf12  1  0.00175169  0.00775890  0.64635717  1
  Hf  Hf13  1  0.99224110  0.99824831  0.14635717  1
  Hf  Hf14  1  0.66841869  0.34109190  0.97969017  1
  Hf  Hf15  1  0.65890810  0.33158131  0.47969017  1
  Hf  Hf16  1  0.33508469  0.67442590  0.31302417  1
  Hf  Hf17  1  0.32557410  0.66491531  0.81302417  1
  Ga  Ga18  1  0.99872443  0.99240600  0.35107907  1
  Ga  Ga19  1  0.00759400  0.00127557  0.85107907  1
  Ga  Ga20  1  0.66539143  0.32573900  0.68441207  1
  Ga  Ga21  1  0.67426100  0.33460857  0.18441207  1
  Ga  Ga22  1  0.33205743  0.65907300  0.01774607  1
  Ga  Ga23  1  0.34092700  0.66794257  0.51774607  1
  P  P24  1  0.29317701  0.00548121  0.24946803  1
  P  P25  1  0.71288228  0.70419323  0.25164034  1
  P  P26  1  0.98944416  0.28667980  0.25216476  1
  P  P27  1  0.29580677  0.28711772  0.75164034  1
  P  P28  1  0.99451879  0.70682299  0.74946803  1
  P  P29  1  0.71332020  0.01055584  0.75216476  1
  P  P30  1  0.95984401  0.33881421  0.58280103  1
  P  P31  1  0.37954928  0.03752623  0.58497334  1
  P  P32  1  0.65611116  0.62001280  0.58549776  1
  P  P33  1  0.96247377  0.62045072  0.08497334  1
  P  P34  1  0.66118579  0.04015599  0.08280103  1
  P  P35  1  0.37998720  0.34388884  0.08549776  1
  P  P36  1  0.62651001  0.67214821  0.91613503  1
  P  P37  1  0.04621528  0.37086023  0.91830734  1
  P  P38  1  0.32277716  0.95334680  0.91883176  1
  P  P39  1  0.62913977  0.95378472  0.41830734  1
  P  P40  1  0.32785179  0.37348999  0.41613503  1
  P  P41  1  0.04665320  0.67722284  0.41883176  1
  O  O42  1  0.20701667  0.03920830  0.30389335  1
  O  O43  1  0.82405150  0.79112351  0.30699675  1
  O  O44  1  0.96725392  0.18021452  0.30931878  1
  O  O45  1  0.20887649  0.17594850  0.80699675  1
  O  O46  1  0.96079170  0.79298333  0.80389335  1
  O  O47  1  0.81978548  0.03274608  0.80931878  1
  O  O48  1  0.79781077  0.97189488  0.69765184  1
  O  O49  1  0.18151261  0.20583175  0.69554484  1
  O  O50  1  0.02420748  0.81746507  0.69237421  1
  O  O51  1  0.79416825  0.81848739  0.19554484  1
  O  O52  1  0.02810512  0.20218923  0.19765184  1
  O  O53  1  0.18253493  0.97579252  0.19237421  1
  O  O54  1  0.87368367  0.37254130  0.63722635  1
  O  O55  1  0.49071850  0.12445651  0.64032975  1
  O  O56  1  0.63392092  0.51354752  0.64265178  1
  O  O57  1  0.87554349  0.50928150  0.14032975  1
  O  O58  1  0.62745870  0.12631633  0.13722635  1
  O  O59  1  0.48645248  0.36607908  0.14265178  1
  O  O60  1  0.46447777  0.30522788  0.03098484  1
  O  O61  1  0.84817961  0.53916475  0.02887784  1
  O  O62  1  0.69087448  0.15079807  0.02570721  1
  O  O63  1  0.46083525  0.15182039  0.52887784  1
  O  O64  1  0.69477212  0.53552223  0.53098484  1
  O  O65  1  0.84920193  0.30912552  0.52570721  1
  O  O66  1  0.54034967  0.70587530  0.97056035  1
  O  O67  1  0.15738450  0.45779051  0.97366375  1
  O  O68  1  0.30058692  0.84688152  0.97598578  1
  O  O69  1  0.54220949  0.84261550  0.47366375  1
  O  O70  1  0.29412470  0.45965033  0.47056035  1
  O  O71  1  0.15311848  0.69941308  0.47598578  1
  O  O72  1  0.13114377  0.63856188  0.36431884  1
  O  O73  1  0.51484561  0.87249875  0.36221184  1
  O  O74  1  0.35754048  0.48413207  0.35904121  1
  O  O75  1  0.12750125  0.48515439  0.86221184  1
  O  O76  1  0.36143812  0.86885623  0.86431884  1
  O  O77  1  0.51586793  0.64245952  0.85904121  1
  O  O78  1  0.02640446  0.83717233  0.41023228  1
  O  O79  1  0.81518533  0.98142545  0.41101445  1
  O  O80  1  0.16111636  0.19029954  0.40964974  1
  O  O81  1  0.01857455  0.18481467  0.91101445  1
  O  O82  1  0.16282767  0.97359554  0.91023228  1
  O  O83  1  0.80970046  0.83888364  0.90964974  1
  O  O84  1  0.97738813  0.17427579  0.58895555  1
  O  O85  1  0.19179949  0.01410322  0.58957935  1
  O  O86  1  0.82889146  0.80359171  0.58975421  1
  O  O87  1  0.98589678  0.80820051  0.08957935  1
  O  O88  1  0.82572421  0.02261187  0.08895555  1
  O  O89  1  0.19640829  0.17110854  0.08975421  1
  O  O90  1  0.69307146  0.17050533  0.74356528  1
  O  O91  1  0.48185233  0.31475845  0.74434745  1
  O  O92  1  0.82778336  0.52363254  0.74298274  1
  O  O93  1  0.68524155  0.51814767  0.24434745  1
  O  O94  1  0.82949467  0.30692854  0.24356528  1
  O  O95  1  0.47636746  0.17221664  0.24298274  1
  O  O96  1  0.64405513  0.50760879  0.92228855  1
  O  O97  1  0.85846649  0.34743622  0.92291235  1
  O  O98  1  0.49555846  0.13692471  0.92308721  1
  O  O99  1  0.65256378  0.14153351  0.42291235  1
  O  O100  1  0.49239121  0.35594487  0.42228855  1
  O  O101  1  0.86307529  0.50444154  0.42308721  1
  O  O102  1  0.35973746  0.50383933  0.07689928  1
  O  O103  1  0.14851833  0.64809245  0.07768145  1
  O  O104  1  0.49444936  0.85696654  0.07631674  1
  O  O105  1  0.35190755  0.85148167  0.57768145  1
  O  O106  1  0.49616067  0.64026254  0.57689928  1
  O  O107  1  0.14303346  0.50555064  0.57631674  1
  O  O108  1  0.31072113  0.84094279  0.25562255  1
  O  O109  1  0.52513249  0.68077022  0.25624635  1
  O  O110  1  0.16222446  0.47025871  0.25642121  1
  O  O111  1  0.31922978  0.47486751  0.75624635  1
  O  O112  1  0.15905721  0.68927887  0.75562255  1
  O  O113  1  0.52974129  0.83777554  0.75642121  1
