# generated using pymatgen
data_Na7Ca3TaSi3(SO8)3
_symmetry_space_group_name_H-M   'P 1'
_cell_length_a   9.40455191
_cell_length_b   9.42835710
_cell_length_c   22.92867688
_cell_angle_alpha   89.66407824
_cell_angle_beta   90.21478051
_cell_angle_gamma   119.94824782
_symmetry_Int_Tables_number   1
_chemical_formula_structural   Na7Ca3TaSi3(SO8)3
_chemical_formula_sum   'Na21 Ca9 Ta3 Si9 S9 O72'
_cell_volume   1761.57987908
_cell_formula_units_Z   3
loop_
 _symmetry_equiv_pos_site_id
 _symmetry_equiv_pos_as_xyz
  1  'x, y, z'
loop_
 _atom_site_type_symbol
 _atom_site_label
 _atom_site_symmetry_multiplicity
 _atom_site_fract_x
 _atom_site_fract_y
 _atom_site_fract_z
 _atom_site_occupancy
  Na  Na0  1  0.63668314  0.99641291  0.23482232  1
  Na  Na1  1  0.37731201  0.33949656  0.25987915  1
  Na  Na2  1  0.98374862  0.66793890  0.25377766  1
  Na  Na3  1  0.68350450  0.64866809  0.75542699  1
  Na  Na4  1  0.97875280  0.32920736  0.75612951  1
  Na  Na5  1  0.34954958  0.01683167  0.75529770  1
  Na  Na6  1  0.29096042  0.32874916  0.58952953  1
  Na  Na7  1  0.04064068  0.71044632  0.58943200  1
  Na  Na8  1  0.67388524  0.96856303  0.59889380  1
  Na  Na9  1  0.31628461  0.96944319  0.09563452  1
  Na  Na10  1  0.66469441  0.72869712  0.07700884  1
  Na  Na11  1  0.02373652  0.31728733  0.07655534  1
  Na  Na12  1  0.99189792  0.31856943  0.42000791  1
  Na  Na13  1  0.30854474  0.03836950  0.40656654  1
  Na  Na14  1  0.71485617  0.65793325  0.40077969  1
  Na  Na15  1  0.02274899  0.99878358  0.49035726  1
  Na  Na16  1  0.95267444  0.97971104  0.98826148  1
  Na  Na17  1  0.66656446  0.33687914  0.81668957  1
  Na  Na18  1  0.65298425  0.34510875  0.33110448  1
  Na  Na19  1  0.37467836  0.71022737  0.16761869  1
  Na  Na20  1  0.32608013  0.66805914  0.67339043  1
  Ca  Ca21  1  0.00042436  0.99634779  0.34574702  1
  Ca  Ca22  1  0.99269257  0.99136705  0.84740150  1
  Ca  Ca23  1  0.00272801  0.99416944  0.67405446  1
  Ca  Ca24  1  0.98704332  0.98431624  0.15377842  1
  Ca  Ca25  1  0.66677217  0.33577942  0.68371115  1
  Ca  Ca26  1  0.66216308  0.32857626  0.18453384  1
  Ca  Ca27  1  0.66624186  0.34161980  0.47682893  1
  Ca  Ca28  1  0.34441218  0.67490324  0.01060057  1
  Ca  Ca29  1  0.32785381  0.65989990  0.51452582  1
  Ta  Ta30  1  0.66513525  0.32825504  0.97583623  1
  Ta  Ta31  1  0.32928932  0.66383377  0.31915150  1
  Ta  Ta32  1  0.34977886  0.66335431  0.81706126  1
  Si  Si33  1  0.30887529  0.99178121  0.25114574  1
  Si  Si34  1  0.67891135  0.69131848  0.25177949  1
  Si  Si35  1  0.30756261  0.31058467  0.74878470  1
  Si  Si36  1  0.01410158  0.69053445  0.75000875  1
  Si  Si37  1  0.68888932  0.99708371  0.74848362  1
  Si  Si38  1  0.66860677  0.03929474  0.08281581  1
  Si  Si39  1  0.63538367  0.66073759  0.92476801  1
  Si  Si40  1  0.32874918  0.36423829  0.41970093  1
  Si  Si41  1  0.03224052  0.66533832  0.41903992  1
  S  S42  1  0.01470169  0.32001039  0.25151004  1
  S  S43  1  0.96797165  0.32624421  0.58165663  1
  S  S44  1  0.36295523  0.03050561  0.58067190  1
  S  S45  1  0.67455763  0.64660759  0.58156300  1
  S  S46  1  0.95240596  0.61820523  0.07866820  1
  S  S47  1  0.37235981  0.32802407  0.07907911  1
  S  S48  1  0.02409482  0.37002406  0.92158002  1
  S  S49  1  0.34740473  0.97884244  0.91970675  1
  S  S50  1  0.62285286  0.95850216  0.41476754  1
  O  O51  1  0.22343223  0.02868336  0.30535116  1
  O  O52  1  0.79107537  0.77852835  0.30805021  1
  O  O53  1  0.98687731  0.21833622  0.30348834  1
  O  O54  1  0.21257592  0.17366291  0.79746430  1
  O  O55  1  0.95637794  0.78742184  0.79223544  1
  O  O56  1  0.83144418  0.05022604  0.79575933  1
  O  O57  1  0.73552078  0.93650200  0.68864302  1
  O  O58  1  0.20598080  0.26279397  0.68721527  1
  O  O59  1  0.07875070  0.79180119  0.68802614  1
  O  O60  1  0.74620538  0.80583721  0.19271695  1
  O  O61  1  0.04315912  0.24590036  0.19904198  1
  O  O62  1  0.19613250  0.94784443  0.19133088  1
  O  O63  1  0.87661229  0.33057591  0.63310163  1
  O  O64  1  0.45569929  0.12083113  0.63270414  1
  O  O65  1  0.66234789  0.54961798  0.63404627  1
  O  O66  1  0.88167725  0.53538616  0.13419662  1
  O  O67  1  0.66315484  0.12148199  0.14332516  1
  O  O68  1  0.46321653  0.35420779  0.13405163  1
  O  O69  1  0.47700807  0.32489746  0.02928928  1
  O  O70  1  0.84185457  0.51574864  0.02882527  1
  O  O71  1  0.66866883  0.16888677  0.02852628  1
  O  O72  1  0.44976890  0.11994088  0.52667444  1
  O  O73  1  0.67865267  0.55964704  0.52821153  1
  O  O74  1  0.87923882  0.32246455  0.52704937  1
  O  O75  1  0.55632406  0.66437424  0.98605090  1
  O  O76  1  0.10642544  0.44613557  0.97661951  1
  O  O77  1  0.33235805  0.89226444  0.97462795  1
  O  O78  1  0.55551287  0.86836486  0.46916381  1
  O  O79  1  0.32347227  0.44391097  0.48085659  1
  O  O80  1  0.12983161  0.68683815  0.47905875  1
  O  O81  1  0.15940374  0.66885818  0.36339668  1
  O  O82  1  0.51665305  0.85561476  0.36363886  1
  O  O83  1  0.33151240  0.49363033  0.36492517  1
  O  O84  1  0.10990433  0.47645157  0.87096314  1
  O  O85  1  0.37103046  0.89527155  0.86939098  1
  O  O86  1  0.50021374  0.64250707  0.87097741  1
  O  O87  1  0.00074176  0.81903621  0.41252489  1
  O  O88  1  0.79100959  0.98915328  0.40731246  1
  O  O89  1  0.16004578  0.18903096  0.41346699  1
  O  O90  1  0.99678701  0.20398542  0.91647510  1
  O  O91  1  0.21432345  0.01432668  0.91316107  1
  O  O92  1  0.81730643  0.80826487  0.91578039  1
  O  O93  1  0.98372242  0.17639131  0.58253536  1
  O  O94  1  0.19559412  0.01243613  0.58012062  1
  O  O95  1  0.82782968  0.81014380  0.58286411  1
  O  O96  1  0.96326690  0.78059341  0.07544827  1
  O  O97  1  0.83890709  0.03231786  0.07484034  1
  O  O98  1  0.21635934  0.16825123  0.07870232  1
  O  O99  1  0.63032920  0.13187956  0.74372634  1
  O  O100  1  0.50110980  0.36689744  0.74600513  1
  O  O101  1  0.87034427  0.49923387  0.74554341  1
  O  O102  1  0.65878404  0.50941600  0.24750722  1
  O  O103  1  0.87903257  0.35463447  0.24474495  1
  O  O104  1  0.49780681  0.14266058  0.24917608  1
  O  O105  1  0.64060679  0.47980839  0.92698590  1
  O  O106  1  0.85196572  0.35789124  0.92378198  1
  O  O107  1  0.50924432  0.14893072  0.92314004  1
  O  O108  1  0.61958372  0.11378543  0.41206623  1
  O  O109  1  0.49459459  0.35323241  0.40795681  1
  O  O110  1  0.86491685  0.48792152  0.40888542  1
  O  O111  1  0.33426155  0.46215830  0.07284117  1
  O  O112  1  0.11677911  0.63427047  0.07288547  1
  O  O113  1  0.50012816  0.85872357  0.08048022  1
  O  O114  1  0.35041331  0.86519762  0.58304630  1
  O  O115  1  0.52776184  0.66973079  0.58159615  1
  O  O116  1  0.13469951  0.47751424  0.58400038  1
  O  O117  1  0.32266333  0.82034781  0.26176542  1
  O  O118  1  0.48994639  0.66599103  0.26228683  1
  O  O119  1  0.16994411  0.48539113  0.25853991  1
  O  O120  1  0.31188066  0.49060837  0.76819885  1
  O  O121  1  0.18109477  0.68648100  0.77735827  1
  O  O122  1  0.51020033  0.82223371  0.76912995  1
