# generated using pymatgen
data_Ba2MgZrTiO6
_symmetry_space_group_name_H-M   'P 1'
_cell_length_a   6.09683246
_cell_length_b   6.09683271
_cell_length_c   6.81589328
_cell_angle_alpha   63.43254486
_cell_angle_beta   63.43254971
_cell_angle_gamma   59.99999882
_symmetry_Int_Tables_number   1
_chemical_formula_structural   Ba2MgZrTiO6
_chemical_formula_sum   'Ba2 Mg1 Zr1 Ti1 O6'
_cell_volume   187.88816379
_cell_formula_units_Z   1
loop_
 _symmetry_equiv_pos_site_id
 _symmetry_equiv_pos_as_xyz
  1  'x, y, z'
loop_
 _atom_site_type_symbol
 _atom_site_label
 _atom_site_symmetry_multiplicity
 _atom_site_fract_x
 _atom_site_fract_y
 _atom_site_fract_z
 _atom_site_occupancy
  Ba  Ba0  1  0.30295467  0.30295467  0.09113700  1
  Ba  Ba1  1  0.72482087  0.72482087  0.82553639  1
  Mg  Mg2  1  0.08149962  0.08149962  0.75550115  1
  Zr  Zr3  1  0.50572455  0.50572455  0.48282635  1
  Ti  Ti4  1  0.92179506  0.92179506  0.23461481  1
  O  O5  1  0.28107646  0.28107646  0.69102647  1
  O  O6  1  0.28107646  0.74681961  0.69102647  1
  O  O7  1  0.74681961  0.28107646  0.69102647  1
  O  O8  1  0.75197319  0.75197319  0.22076829  1
  O  O9  1  0.75197319  0.27528633  0.22076829  1
  O  O10  1  0.27528634  0.75197319  0.22076829  1
