# generated using pymatgen
data_NaTa3InSiP5O24
_symmetry_space_group_name_H-M   'P 1'
_cell_length_a   8.81427898
_cell_length_b   8.81522032
_cell_length_c   22.86160386
_cell_angle_alpha   89.77727688
_cell_angle_beta   90.10188286
_cell_angle_gamma   120.05079342
_symmetry_Int_Tables_number   1
_chemical_formula_structural   NaTa3InSiP5O24
_chemical_formula_sum   'Na3 Ta9 In3 Si3 P15 O72'
_cell_volume   1537.55793530
_cell_formula_units_Z   3
loop_
 _symmetry_equiv_pos_site_id
 _symmetry_equiv_pos_as_xyz
  1  'x, y, z'
loop_
 _atom_site_type_symbol
 _atom_site_label
 _atom_site_symmetry_multiplicity
 _atom_site_fract_x
 _atom_site_fract_y
 _atom_site_fract_z
 _atom_site_occupancy
  Na  Na0  1  0.00147299  0.00046676  0.99310760  1
  Na  Na1  1  0.66105864  0.33119299  0.83919552  1
  Na  Na2  1  0.66775859  0.33428148  0.33824512  1
  Ta  Ta3  1  0.99464546  0.99773884  0.35865270  1
  Ta  Ta4  1  0.00302948  0.00408948  0.64769356  1
  Ta  Ta5  1  0.99733259  0.00110798  0.14756104  1
  Ta  Ta6  1  0.66504018  0.33331322  0.68519060  1
  Ta  Ta7  1  0.66801366  0.33484344  0.18774153  1
  Ta  Ta8  1  0.33380459  0.66643104  0.02311752  1
  Ta  Ta9  1  0.33305817  0.66554955  0.52348778  1
  Ta  Ta10  1  0.33261739  0.66585969  0.30800128  1
  Ta  Ta11  1  0.33317824  0.66610121  0.80874858  1
  In  In12  1  0.00332169  0.00057487  0.85492183  1
  In  In13  1  0.66704503  0.33429045  0.97767429  1
  In  In14  1  0.66644900  0.33466561  0.47962588  1
  Si  Si15  1  0.71726166  0.71260129  0.25200329  1
  Si  Si16  1  0.99495310  0.28171963  0.25142122  1
  Si  Si17  1  0.29078077  0.28644823  0.75234597  1
  P  P18  1  0.28413829  0.00422473  0.25164076  1
  P  P19  1  0.99526838  0.70916892  0.75064925  1
  P  P20  1  0.71393309  0.00406299  0.75033873  1
  P  P21  1  0.95408988  0.32953750  0.58190581  1
  P  P22  1  0.37474290  0.04354656  0.58206359  1
  P  P23  1  0.67065715  0.62579335  0.58193750  1
  P  P24  1  0.95548149  0.62422590  0.08263748  1
  P  P25  1  0.66841022  0.04559986  0.08272515  1
  P  P26  1  0.37680393  0.33018988  0.08240922  1
  P  P27  1  0.61803360  0.66865059  0.91631132  1
  P  P28  1  0.04925065  0.38310797  0.91674900  1
  P  P29  1  0.33241526  0.95008894  0.91668462  1
  P  P30  1  0.61511114  0.95043096  0.41586059  1
  P  P31  1  0.33377834  0.38402594  0.41561105  1
  P  P32  1  0.05126341  0.66752406  0.41579008  1
  O  O33  1  0.20312672  0.03886935  0.30579783  1
  O  O34  1  0.84274451  0.80119107  0.30904651  1
  O  O35  1  0.96453983  0.15801934  0.30844776  1
  O  O36  1  0.22789793  0.16909160  0.80962299  1
  O  O37  1  0.94275127  0.76781614  0.80519750  1
  O  O38  1  0.82310301  0.04900763  0.80530172  1
  O  O39  1  0.80085030  0.97090265  0.69698166  1
  O  O40  1  0.16524462  0.19115123  0.69518542  1
  O  O41  1  0.02394593  0.82817416  0.69719837  1
  O  O42  1  0.80939144  0.83241159  0.19433717  1
  O  O43  1  0.02978111  0.19473635  0.19392978  1
  O  O44  1  0.17110284  0.97218407  0.19659333  1
  O  O45  1  0.86799051  0.36531134  0.63480227  1
  O  O46  1  0.49874691  0.13259264  0.63492219  1
  O  O47  1  0.63488942  0.50026316  0.63464998  1
  O  O48  1  0.86317958  0.50451211  0.13712684  1
  O  O49  1  0.64073751  0.13485115  0.13695473  1
  O  O50  1  0.49427578  0.35743514  0.13690054  1
  O  O51  1  0.44488570  0.28786263  0.02811439  1
  O  O52  1  0.84262585  0.55751809  0.02856793  1
  O  O53  1  0.71375306  0.15738508  0.02830613  1
  O  O54  1  0.44051019  0.15432110  0.52749161  1
  O  O55  1  0.71328536  0.55960135  0.52726438  1
  O  O56  1  0.84597857  0.28888519  0.52699464  1
  O  O57  1  0.51865343  0.67494662  0.97276617  1
  O  O58  1  0.15706662  0.48334636  0.97295007  1
  O  O59  1  0.32819444  0.84323036  0.97311415  1
  O  O60  1  0.52685814  0.83895035  0.47165674  1
  O  O61  1  0.31122171  0.47232324  0.47130989  1
  O  O62  1  0.16168014  0.68747811  0.47164941  1
  O  O63  1  0.14561687  0.65054408  0.36160137  1
  O  O64  1  0.50401656  0.85735615  0.36155559  1
  O  O65  1  0.35158084  0.49763910  0.36135856  1
  O  O66  1  0.14871779  0.49114149  0.86129725  1
  O  O67  1  0.34047107  0.85241843  0.86129062  1
  O  O68  1  0.51014206  0.66079949  0.86095990  1
  O  O69  1  0.04499093  0.83975112  0.40826691  1
  O  O70  1  0.79567028  0.95839105  0.40879039  1
  O  O71  1  0.16502168  0.20337199  0.40752877  1
  O  O72  1  0.03928860  0.20606335  0.91807857  1
  O  O73  1  0.16200305  0.95421743  0.91913987  1
  O  O74  1  0.79473955  0.83755138  0.91662317  1
  O  O75  1  0.98196302  0.17385297  0.59652177  1
  O  O76  1  0.19021606  0.01066843  0.59773265  1
  O  O77  1  0.82167885  0.80807362  0.59824946  1
  O  O78  1  0.98862729  0.81121911  0.09549171  1
  O  O79  1  0.82634390  0.01539045  0.09440944  1
  O  O80  1  0.19072013  0.17230914  0.09443420  1
  O  O81  1  0.68685848  0.16186233  0.73550541  1
  O  O82  1  0.48798828  0.31974915  0.73567565  1
  O  O83  1  0.84367251  0.52098419  0.73542742  1
  O  O84  1  0.68997509  0.51704145  0.24048495  1
  O  O85  1  0.82060868  0.29873477  0.24021850  1
  O  O86  1  0.46809608  0.16560160  0.24085230  1
  O  O87  1  0.62517595  0.49903734  0.91647032  1
  O  O88  1  0.87279134  0.37734522  0.91671689  1
  O  O89  1  0.50132051  0.12797860  0.91705488  1
  O  O90  1  0.63769720  0.13246874  0.41799659  1
  O  O91  1  0.49639997  0.36638084  0.41741717  1
  O  O92  1  0.86963138  0.50688298  0.41776272  1
  O  O93  1  0.35852102  0.49556159  0.07490799  1
  O  O94  1  0.13740774  0.63876932  0.07524887  1
  O  O95  1  0.50418053  0.86140251  0.07517392  1
  O  O96  1  0.35929108  0.86050617  0.57285105  1
  O  O97  1  0.50201262  0.64005758  0.57268440  1
  O  O98  1  0.13946014  0.49485096  0.57253810  1
  O  O99  1  0.30497057  0.84274707  0.26136622  1
  O  O100  1  0.52780253  0.69725980  0.26216904  1
  O  O101  1  0.16242983  0.47593147  0.26194962  1
  O  O102  1  0.31076967  0.48094064  0.76001554  1
  O  O103  1  0.16284457  0.69570110  0.75904186  1
  O  O104  1  0.52840832  0.84228865  0.75857488  1
