# generated using pymatgen
data_TeAuCl7
_symmetry_space_group_name_H-M   'P 1'
_cell_length_a   7.64589646
_cell_length_b   7.94205792
_cell_length_c   9.11165777
_cell_angle_alpha   101.45166585
_cell_angle_beta   92.82095524
_cell_angle_gamma   88.25332092
_symmetry_Int_Tables_number   1
_chemical_formula_structural   TeAuCl7
_chemical_formula_sum   'Te2 Au2 Cl14'
_cell_volume   541.50458936
_cell_formula_units_Z   2
loop_
 _symmetry_equiv_pos_site_id
 _symmetry_equiv_pos_as_xyz
  1  'x, y, z'
loop_
 _atom_site_type_symbol
 _atom_site_label
 _atom_site_symmetry_multiplicity
 _atom_site_fract_x
 _atom_site_fract_y
 _atom_site_fract_z
 _atom_site_occupancy
  Te  Te0  1  0.30797628  0.22999201  0.77009351  1
  Te  Te1  1  0.69202372  0.77000799  0.22990649  1
  Au  Au2  1  0.07732403  0.79347792  0.56231108  1
  Au  Au3  1  0.92267597  0.20652208  0.43768892  1
  Cl  Cl4  1  0.57199149  0.13579711  0.86807178  1
  Cl  Cl5  1  0.42800851  0.86420289  0.13192822  1
  Cl  Cl6  1  0.63191448  0.15537827  0.45902069  1
  Cl  Cl7  1  0.36808552  0.84462173  0.54097931  1
  Cl  Cl8  1  0.95024391  0.33719936  0.68651369  1
  Cl  Cl9  1  0.04975609  0.66280064  0.31348631  1
  Cl  Cl10  1  0.21436800  0.24887628  0.41380021  1
  Cl  Cl11  1  0.78563200  0.75112372  0.58619979  1
  Cl  Cl12  1  0.89479890  0.07378298  0.18981927  1
  Cl  Cl13  1  0.10520110  0.92621702  0.81018073  1
  Cl  Cl14  1  0.19810999  0.32719435  0.00559642  1
  Cl  Cl15  1  0.80189001  0.67280565  -0.00559642  1
  Cl  Cl16  1  0.58943405  0.50094761  0.24385918  1
  Cl  Cl17  1  0.41056595  0.49905239  0.75614082  1
