# generated using pymatgen
data_Na18Mg4Ta20Si27(SO16)9
_symmetry_space_group_name_H-M   'P 1'
_cell_length_a   17.87991081
_cell_length_b   8.92887993
_cell_length_c   22.73639891
_cell_angle_alpha   90.02993308
_cell_angle_beta   89.89687128
_cell_angle_gamma   120.05241576
_symmetry_Int_Tables_number   1
_chemical_formula_structural   Na18Mg4Ta20Si27(SO16)9
_chemical_formula_sum   'Na18 Mg4 Ta20 Si27 S9 O144'
_cell_volume   3141.84149649
_cell_formula_units_Z   1
loop_
 _symmetry_equiv_pos_site_id
 _symmetry_equiv_pos_as_xyz
  1  'x, y, z'
loop_
 _atom_site_type_symbol
 _atom_site_label
 _atom_site_symmetry_multiplicity
 _atom_site_fract_x
 _atom_site_fract_y
 _atom_site_fract_z
 _atom_site_occupancy
  Na  Na0  1  0.31509122  0.01711880  0.23947022  1
  Na  Na1  1  0.81560950  0.01441029  0.25016053  1
  Na  Na2  1  0.99345006  0.61836347  0.23939894  1
  Na  Na3  1  0.31650446  0.61648909  0.75320768  1
  Na  Na4  1  0.81569537  0.61211474  0.74426366  1
  Na  Na5  1  0.49246916  0.36827020  0.74195092  1
  Na  Na6  1  0.99225678  0.99251980  0.49405351  1
  Na  Na7  1  0.50081221  0.00457090  0.49813798  1
  Na  Na8  1  0.00098359  0.99809561  0.00057701  1
  Na  Na9  1  0.49078189  0.98344359  0.99753982  1
  Na  Na10  1  0.32366042  0.31678750  0.82741232  1
  Na  Na11  1  0.83296888  0.32908478  0.82493421  1
  Na  Na12  1  0.33505416  0.34046402  0.32067462  1
  Na  Na13  1  0.82424977  0.32943212  0.32059102  1
  Na  Na14  1  0.16496839  0.66514599  0.15890885  1
  Na  Na15  1  0.65093731  0.64870368  0.16949945  1
  Na  Na16  1  0.16099523  0.66601956  0.67485710  1
  Na  Na17  1  0.66160380  0.66095654  0.66166334  1
  Mg  Mg18  1  0.33566174  0.32901115  0.69229192  1
  Mg  Mg19  1  0.83185477  0.34382404  0.68813508  1
  Mg  Mg20  1  0.33898200  0.32641011  0.18611163  1
  Mg  Mg21  1  0.83517219  0.34172259  0.19069729  1
  Ta  Ta22  1  0.99889814  0.00074559  0.35608457  1
  Ta  Ta23  1  0.50658762  0.01167223  0.35719918  1
  Ta  Ta24  1  0.00713452  -0.00017632  0.85887921  1
  Ta  Ta25  1  0.49865942  0.99633971  0.85724331  1
  Ta  Ta26  1  0.00261405  0.99144795  0.64676124  1
  Ta  Ta27  1  0.50151828  0.01426603  0.64986029  1
  Ta  Ta28  1  0.00209039  0.99107811  0.14901089  1
  Ta  Ta29  1  0.50307264  0.00586502  0.14226069  1
  Ta  Ta30  1  0.34054481  0.33913815  0.97811408  1
  Ta  Ta31  1  0.83914703  0.34882062  0.97453162  1
  Ta  Ta32  1  0.33984445  0.33171277  0.47404773  1
  Ta  Ta33  1  0.83334120  0.34318366  0.47488403  1
  Ta  Ta34  1  0.16643489  0.67366125  0.01950096  1
  Ta  Ta35  1  0.66277640  0.66810684  0.01803000  1
  Ta  Ta36  1  0.16706149  0.66494669  0.51644431  1
  Ta  Ta37  1  0.66599107  0.65808154  0.51969097  1
  Ta  Ta38  1  0.16360773  0.66061475  0.31292098  1
  Ta  Ta39  1  0.66419242  0.66547843  0.30992538  1
  Ta  Ta40  1  0.16497656  0.66516491  0.81229865  1
  Ta  Ta41  1  0.66268846  0.66554881  0.81434572  1
  Si  Si42  1  0.14817851  0.00876844  0.25355791  1
  Si  Si43  1  0.64368267  0.00073566  0.24859091  1
  Si  Si44  1  0.85313824  0.70850198  0.25200653  1
  Si  Si45  1  0.00369269  0.28787673  0.24871997  1
  Si  Si46  1  0.49988015  0.28981609  0.25073209  1
  Si  Si47  1  0.14361482  0.28864446  0.74902630  1
  Si  Si48  1  0.64769644  0.28903675  0.75419856  1
  Si  Si49  1  0.99983077  0.70356001  0.75294145  1
  Si  Si50  1  0.50429046  0.71992624  0.74835024  1
  Si  Si51  1  0.35280434  0.99830197  0.75277799  1
  Si  Si52  1  0.47718935  0.33209483  0.58733333  1
  Si  Si53  1  0.83314891  0.62595595  0.58660880  1
  Si  Si54  1  0.47821059  0.62010842  0.08707138  1
  Si  Si55  1  0.97768109  0.62197289  0.08740151  1
  Si  Si56  1  0.33165875  0.04211998  0.08693269  1
  Si  Si57  1  0.30815961  0.66103347  0.91609324  1
  Si  Si58  1  0.81001334  0.67228322  0.91587617  1
  Si  Si59  1  0.02540214  0.37995013  0.91734310  1
  Si  Si60  1  0.52184950  0.37355533  0.91700898  1
  Si  Si61  1  0.17201465  0.95873851  0.91636184  1
  Si  Si62  1  0.66791049  0.96027721  0.91686501  1
  Si  Si63  1  0.31170312  0.95148090  0.41411271  1
  Si  Si64  1  0.80863554  0.95221561  0.41638077  1
  Si  Si65  1  0.16735927  0.37494490  0.41690587  1
  Si  Si66  1  0.66799132  0.38495202  0.41499988  1
  Si  Si67  1  0.02280391  0.67004413  0.41678518  1
  Si  Si68  1  0.52677647  0.67277838  0.41726124  1
  S  S69  1  0.35784694  0.71532365  0.25035136  1
  S  S70  1  0.85837578  0.00243632  0.74926571  1
  S  S71  1  0.97946869  0.33549636  0.58356339  1
  S  S72  1  0.18923284  0.04295476  0.58370639  1
  S  S73  1  0.69039014  0.04782037  0.58416719  1
  S  S74  1  0.33192848  0.62242076  0.58322331  1
  S  S75  1  0.83378141  0.04418062  0.08330201  1
  S  S76  1  0.18864233  0.33167427  0.08399122  1
  S  S77  1  0.69145943  0.33723172  0.08315600  1
  O  O78  1  0.09327768  0.01138950  0.31045813  1
  O  O79  1  0.59213702  0.01420797  0.30694088  1
  O  O80  1  0.40844352  0.79884208  0.30408603  1
  O  O81  1  0.91480296  0.81361925  0.30837850  1
  O  O82  1  0.49005596  0.16295936  0.30726179  1
  O  O83  1  0.99439953  0.17028514  0.30659282  1
  O  O84  1  0.09005123  0.16467893  0.80517869  1
  O  O85  1  0.59283701  0.17593319  0.81016712  1
  O  O86  1  0.49449108  0.81945371  0.80552761  1
  O  O87  1  0.98555431  0.81006557  0.80647490  1
  O  O88  1  0.41513888  0.01618446  0.80796723  1
  O  O89  1  0.90815386  0.02253276  0.80260254  1
  O  O90  1  0.40337979  0.96996690  0.69348132  1
  O  O91  1  0.90075532  0.97128788  0.69573471  1
  O  O92  1  0.08147480  0.19102310  0.69018974  1
  O  O93  1  0.58252461  0.20245745  0.69476121  1
  O  O94  1  0.00969145  0.82929001  0.69306588  1
  O  O95  1  0.51780155  0.83998295  0.68900324  1
  O  O96  1  0.39812336  0.82611407  0.19704860  1
  O  O97  1  0.90371922  0.83792394  0.19367011  1
  O  O98  1  0.01708628  0.19479292  0.19021193  1
  O  O99  1  0.50916507  0.18559091  0.19305888  1
  O  O100  1  0.08202991  0.96285414  0.19490064  1
  O  O101  1  0.58227370  0.97541274  0.19128823  1
  O  O102  1  0.43857677  0.35687957  0.64693658  1
  O  O103  1  0.94017720  0.35679104  0.63679306  1
  O  O104  1  0.23833279  0.11996703  0.63643282  1
  O  O105  1  0.74078148  0.12584815  0.63728244  1
  O  O106  1  0.31786898  0.52619782  0.63796866  1
  O  O107  1  0.81974057  0.52637119  0.64708016  1
  O  O108  1  0.43775939  0.51072993  0.14432175  1
  O  O109  1  0.93940237  0.52088400  0.14726075  1
  O  O110  1  0.31144282  0.10164314  0.14777782  1
  O  O111  1  0.82066538  0.11359445  0.13820340  1
  O  O112  1  0.23731462  0.35297224  0.13772262  1
  O  O113  1  0.74037235  0.35553424  0.13631039  1
  O  O114  1  0.22910651  0.31019643  0.03013891  1
  O  O115  1  0.73022891  0.31164833  0.02922549  1
  O  O116  1  0.42025187  0.52967841  0.02661603  1
  O  O117  1  0.91385026  0.51807275  0.02980740  1
  O  O118  1  0.34307962  0.16910995  0.03015022  1
  O  O119  1  0.84041431  0.15070227  0.03114074  1
  O  O120  1  0.22702678  0.14294608  0.52932018  1
  O  O121  1  0.73404289  0.15320891  0.53065886  1
  O  O122  1  0.33785843  0.52911790  0.53104007  1
  O  O123  1  0.84514245  0.52080383  0.52963687  1
  O  O124  1  0.41345119  0.30962004  0.52978193  1
  O  O125  1  0.92868423  0.31498913  0.52977152  1
  O  O126  1  0.25956500  0.68901604  0.97172632  1
  O  O127  1  0.76235728  0.69292996  0.97352678  1
  O  O128  1  0.08315256  0.46584895  0.97514963  1
  O  O129  1  0.58333044  0.47621426  0.97315359  1
  O  O130  1  0.15286907  0.83503257  0.97362847  1
  O  O131  1  0.65444398  0.83544154  0.97370842  1
  O  O132  1  0.26109184  0.83259305  0.47278884  1
  O  O133  1  0.76010641  0.82827020  0.47263140  1
  O  O134  1  0.15468769  0.47474079  0.47492758  1
  O  O135  1  0.65295547  0.46949239  0.47408017  1
  O  O136  1  0.08306040  0.68788010  0.47430773  1
  O  O137  1  0.58378295  0.69923447  0.47571517  1
  O  O138  1  0.06804884  0.63798463  0.35867062  1
  O  O139  1  0.56924152  0.63582757  0.35986835  1
  O  O140  1  0.25219477  0.86356159  0.35642109  1
  O  O141  1  0.75170562  0.87244330  0.35660075  1
  O  O142  1  0.18278538  0.50165380  0.36044432  1
  O  O143  1  0.68446492  0.50459001  0.35813592  1
  O  O144  1  0.06810689  0.50124722  0.85930761  1
  O  O145  1  0.56805309  0.49590649  0.85793387  1
  O  O146  1  0.18309996  0.86400967  0.85847705  1
  O  O147  1  0.68323596  0.86594316  0.85922415  1
  O  O148  1  0.25167636  0.63491909  0.85582633  1
  O  O149  1  0.75260806  0.64245639  0.85600022  1
  O  O150  1  0.01274792  0.83815484  0.41341996  1
  O  O151  1  0.51030158  0.83402420  0.40910374  1
  O  O152  1  0.40567526  0.96972599  0.40985296  1
  O  O153  1  0.90473688  0.97489481  0.41054255  1
  O  O154  1  0.08108830  0.18893951  0.41214773  1
  O  O155  1  0.58313824  0.19190778  0.41019218  1
  O  O156  1  0.01010809  0.18603734  0.90746036  1
  O  O157  1  0.51299521  0.18599483  0.91262967  1
  O  O158  1  0.08374660  0.97353373  0.90960193  1
  O  O159  1  0.58158775  0.97309421  0.91047762  1
  O  O160  1  0.40414005  0.83235516  0.90945288  1
  O  O161  1  0.90522141  0.84062135  0.90780516  1
  O  O162  1  0.48789783  0.15517399  0.58749202  1
  O  O163  1  0.99122659  0.18074909  0.58687650  1
  O  O164  1  0.09892782  0.02140616  0.58752357  1
  O  O165  1  0.60269309  0.03221337  0.58640165  1
  O  O166  1  0.41095648  0.79716610  0.58430743  1
  O  O167  1  0.92176036  0.82558608  0.58882903  1
  O  O168  1  0.49200302  0.81963804  0.08989384  1
  O  O169  1  0.98769105  0.81947243  0.08818233  1
  O  O170  1  0.42102245  0.02627155  0.09013712  1
  O  O171  1  0.91398279  0.03036839  0.08479111  1
  O  O172  1  0.09918088  0.17180672  0.08717829  1
  O  O173  1  0.60149545  0.17985076  0.08631764  1
  O  O174  1  0.34713293  0.16883082  0.74874287  1
  O  O175  1  0.84670751  0.14948154  0.73957551  1
  O  O176  1  0.23882298  0.31830583  0.74300025  1
  O  O177  1  0.74050726  0.30778995  0.74920821  1
  O  O178  1  0.41925417  0.53264313  0.74590280  1
  O  O179  1  0.91598084  0.51771274  0.74786941  1
  O  O180  1  0.34324161  0.54166973  0.24466840  1
  O  O181  1  0.84776326  0.52672577  0.24858736  1
  O  O182  1  0.41499486  0.30428848  0.25120511  1
  O  O183  1  0.91910921  0.30594768  0.24708793  1
  O  O184  1  0.24054763  0.17532595  0.24892955  1
  O  O185  1  0.73972648  0.16047728  0.24396978  1
  O  O186  1  0.31718292  0.49075763  0.92666530  1
  O  O187  1  0.81946799  0.49850237  0.92487279  1
  O  O188  1  0.42870600  0.36180775  0.92310693  1
  O  O189  1  0.92865473  0.36018545  0.92642009  1
  O  O190  1  0.25346099  0.14925755  0.92582702  1
  O  O191  1  0.75320765  0.14725645  0.92885945  1
  O  O192  1  0.31886932  0.14058731  0.42557152  1
  O  O193  1  0.82033079  0.14361687  0.43182334  1
  O  O194  1  0.25263150  0.35957711  0.43035409  1
  O  O195  1  0.75159131  0.35788524  0.42564280  1
  O  O196  1  0.42933990  0.49819320  0.42687670  1
  O  O197  1  0.92933852  0.49340890  0.42626434  1
  O  O198  1  0.17544002  0.48404540  0.07753942  1
  O  O199  1  0.68003600  0.49127338  0.07652924  1
  O  O200  1  0.07402076  0.64669804  0.07465151  1
  O  O201  1  0.57826096  0.64935842  0.07528737  1
  O  O202  1  0.25173926  0.84238367  0.07327400  1
  O  O203  1  0.75771208  0.86414137  0.07554950  1
  O  O204  1  0.17495545  0.86185216  0.57695084  1
  O  O205  1  0.67798040  0.87054524  0.57762182  1
  O  O206  1  0.25434504  0.64907649  0.57563389  1
  O  O207  1  0.75167907  0.65929129  0.57450974  1
  O  O208  1  0.06937931  0.49410952  0.57734655  1
  O  O209  1  0.57401131  0.50079397  0.57487498  1
  O  O210  1  0.15346185  0.82550548  0.25788727  1
  O  O211  1  0.64882844  0.82171074  0.25573311  1
  O  O212  1  0.27228004  0.71321292  0.25494708  1
  O  O213  1  0.76320619  0.71405969  0.25490697  1
  O  O214  1  0.09147034  0.48239512  0.25529096  1
  O  O215  1  0.59067207  0.47440935  0.25651948  1
  O  O216  1  0.14794989  0.47634132  0.75534687  1
  O  O217  1  0.65461084  0.48377946  0.75647372  1
  O  O218  1  0.09149450  0.70804780  0.75564886  1
  O  O219  1  0.59209863  0.70053332  0.75424603  1
  O  O220  1  0.26286261  0.81209095  0.75423976  1
  O  O221  1  0.77305709  0.83506241  0.75211727  1
