# generated using pymatgen
data_Na3Y2Al2P3(SO8)3
_symmetry_space_group_name_H-M   'P 1'
_cell_length_a   8.80237373
_cell_length_b   8.79324147
_cell_length_c   22.83833674
_cell_angle_alpha   88.72605634
_cell_angle_beta   91.13399199
_cell_angle_gamma   119.98755676
_symmetry_Int_Tables_number   1
_chemical_formula_structural   Na3Y2Al2P3(SO8)3
_chemical_formula_sum   'Na9 Y6 Al6 P9 S9 O72'
_cell_volume   1530.62631227
_cell_formula_units_Z   3
loop_
 _symmetry_equiv_pos_site_id
 _symmetry_equiv_pos_as_xyz
  1  'x, y, z'
loop_
 _atom_site_type_symbol
 _atom_site_label
 _atom_site_symmetry_multiplicity
 _atom_site_fract_x
 _atom_site_fract_y
 _atom_site_fract_z
 _atom_site_occupancy
  Na  Na0  1  0.36609133  0.36566093  0.25202560  1
  Na  Na1  1  0.68022427  0.00804612  0.92193947  1
  Na  Na2  1  0.97813141  0.30897706  0.41459118  1
  Na  Na3  1  0.00983041  0.99125060  0.48990606  1
  Na  Na4  1  0.00927602  0.98502944  0.00789813  1
  Na  Na5  1  0.65317869  0.33871530  0.83893362  1
  Na  Na6  1  0.66610938  0.33331701  0.33172914  1
  Na  Na7  1  0.33663669  0.70176291  0.17445765  1
  Na  Na8  1  0.33057828  0.66754237  0.66540075  1
  Y  Y9  1  0.00288980  0.99359347  0.85536166  1
  Y  Y10  1  0.99085176  0.01064344  0.64072394  1
  Y  Y11  1  0.67223903  0.32487741  0.68460793  1
  Y  Y12  1  0.33782852  0.67083560  0.03032785  1
  Y  Y13  1  0.32155797  0.66377927  0.50804265  1
  Y  Y14  1  0.34967689  0.67804298  0.82271878  1
  Al  Al15  1  0.01814805  0.00774190  0.34252813  1
  Al  Al16  1  0.00407885  0.01176494  0.15431321  1
  Al  Al17  1  0.66922177  0.30671285  0.18841300  1
  Al  Al18  1  0.66690977  0.32771146  0.99139771  1
  Al  Al19  1  0.66892212  0.35244333  0.47428742  1
  Al  Al20  1  0.30062304  0.65585027  0.31572724  1
  P  P21  1  0.28639901  0.99412187  0.24821069  1
  P  P22  1  -0.00005344  0.28889449  0.25089444  1
  P  P23  1  0.69138075  0.99314429  0.75364119  1
  P  P24  1  0.94997804  0.33198061  0.57044824  1
  P  P25  1  0.69372629  0.05876912  0.09020687  1
  P  P26  1  0.63305870  0.64608734  0.92613361  1
  P  P27  1  0.34950581  0.98689394  0.92604907  1
  P  P28  1  0.33317840  0.36549607  0.40760287  1
  P  P29  1  0.02431218  0.67300353  0.40890054  1
  S  S30  1  0.71521392  0.71850715  0.24773004  1
  S  S31  1  0.30149568  0.30801547  0.74889234  1
  S  S32  1  0.00552178  0.70005039  0.74871473  1
  S  S33  1  0.37946643  0.04964491  0.57295258  1
  S  S34  1  0.66902801  0.62380143  0.57444330  1
  S  S35  1  0.93207545  0.61463703  0.09251864  1
  S  S36  1  0.37937901  0.30997680  0.09232463  1
  S  S37  1  0.02095661  0.36959990  0.92336442  1
  S  S38  1  0.63343201  0.96441843  0.40840528  1
  O  O39  1  0.20980287  0.04453352  0.29977442  1
  O  O40  1  0.82641497  0.80706217  0.29938897  1
  O  O41  1  0.97072249  0.17389335  0.30642887  1
  O  O42  1  0.21318807  0.20652777  0.80186499  1
  O  O43  1  0.00990322  0.79432742  0.80191043  1
  O  O44  1  0.77540522  0.98689502  0.81293388  1
  O  O45  1  0.80207512  0.00030765  0.70089566  1
  O  O46  1  0.20996296  0.21451649  0.69486327  1
  O  O47  1  0.01088102  0.79747175  0.69478918  1
  O  O48  1  0.79841278  0.82442523  0.19392591  1
  O  O49  1  0.04425116  0.20671514  0.19904251  1
  O  O50  1  0.16634018  0.96143699  0.19389395  1
  O  O51  1  0.86283794  0.33185356  0.62792883  1
  O  O52  1  0.45943857  0.12721928  0.62991944  1
  O  O53  1  0.65912335  0.53503034  0.63049401  1
  O  O54  1  0.84223682  0.51165689  0.14574412  1
  O  O55  1  0.66623868  0.14914907  0.14204312  1
  O  O56  1  0.48607598  0.33336849  0.14639960  1
  O  O57  1  0.46555431  0.29478125  0.03945786  1
  O  O58  1  0.83260873  0.52636945  0.03832604  1
  O  O59  1  0.70984799  0.16286424  0.03224722  1
  O  O60  1  0.48304129  0.15894149  0.52246690  1
  O  O61  1  0.66464368  0.52032481  0.52334238  1
  O  O62  1  0.84558273  0.33725054  0.51524523  1
  O  O63  1  0.53527832  0.68537395  0.97303786  1
  O  O64  1  0.13462779  0.45275513  0.97387207  1
  O  O65  1  0.31167562  0.85876637  0.97720639  1
  O  O66  1  0.57098098  0.86923283  0.46464119  1
  O  O67  1  0.27934448  0.43310478  0.46064391  1
  O  O68  1  0.13157980  0.72112662  0.46595908  1
  O  O69  1  0.11979236  0.62266671  0.36215893  1
  O  O70  1  0.50927620  0.86740298  0.35980197  1
  O  O71  1  0.36338811  0.49172614  0.35382335  1
  O  O72  1  0.09669755  0.46525339  0.86764079  1
  O  O73  1  0.38090530  0.91025425  0.86946947  1
  O  O74  1  0.53388978  0.61383111  0.86674323  1
  O  O75  1  0.00171942  0.82945599  0.39169490  1
  O  O76  1  0.81226736  0.98986717  0.39971253  1
  O  O77  1  0.17073983  0.17999658  0.39731711  1
  O  O78  1  0.98908630  0.18705898  0.91981898  1
  O  O79  1  0.19970695  0.02650096  0.92109587  1
  O  O80  1  0.81575634  0.81503191  0.92231127  1
  O  O81  1  0.96194316  0.16241505  0.56748882  1
  O  O82  1  0.20201823  0.03069806  0.57051050  1
  O  O83  1  0.83666300  0.79360925  0.57212592  1
  O  O84  1  0.95036111  0.79135626  0.09374647  1
  O  O85  1  0.86288916  0.04529541  0.09814527  1
  O  O86  1  0.20366400  0.14816624  0.09639279  1
  O  O87  1  0.67173852  0.15747921  0.75540161  1
  O  O88  1  0.48180722  0.33608818  0.74995893  1
  O  O89  1  0.84082345  0.52878850  0.75151371  1
  O  O90  1  0.69018602  0.53647980  0.24502950  1
  O  O91  1  0.83667770  0.31029816  0.24162011  1
  O  O92  1  0.47574780  0.15936779  0.23983834  1
  O  O93  1  0.65310232  0.48697375  0.94098476  1
  O  O94  1  0.84798984  0.35780448  0.93017846  1
  O  O95  1  0.52491381  0.15895719  0.93646194  1
  O  O96  1  0.65277307  0.14391739  0.41274722  1
  O  O97  1  0.49933968  0.35126205  0.42042389  1
  O  O98  1  0.84218707  0.50179778  0.41766620  1
  O  O99  1  0.35466510  0.46411465  0.08866644  1
  O  O100  1  0.10926863  0.63144132  0.09105056  1
  O  O101  1  0.53080544  0.87248954  0.08828817  1
  O  O102  1  0.36655160  0.87590954  0.57268162  1
  O  O103  1  0.51919993  0.65426793  0.57215273  1
  O  O104  1  0.13558874  0.49370647  0.57336437  1
  O  O105  1  0.30213691  0.82803126  0.26214512  1
  O  O106  1  0.53627423  0.69670372  0.25252638  1
  O  O107  1  0.16704988  0.47605984  0.25973874  1
  O  O108  1  0.30659651  0.47757214  0.74874203  1
  O  O109  1  0.15686903  0.67202173  0.74929715  1
  O  O110  1  0.50977355  0.82789211  0.74740597  1
