# generated using pymatgen
data_Na14Zr4Sc4Si9(SO16)3
_symmetry_space_group_name_H-M   'P 1'
_cell_length_a   18.44788937
_cell_length_b   9.21915167
_cell_length_c   22.87075334
_cell_angle_alpha   90.06276388
_cell_angle_beta   90.03862519
_cell_angle_gamma   119.95811377
_symmetry_Int_Tables_number   1
_chemical_formula_structural   Na14Zr4Sc4Si9(SO16)3
_chemical_formula_sum   'Na42 Zr12 Sc12 Si27 S9 O144'
_cell_volume   3370.01011746
_cell_formula_units_Z   3
loop_
 _symmetry_equiv_pos_site_id
 _symmetry_equiv_pos_as_xyz
  1  'x, y, z'
loop_
 _atom_site_type_symbol
 _atom_site_label
 _atom_site_symmetry_multiplicity
 _atom_site_fract_x
 _atom_site_fract_y
 _atom_site_fract_z
 _atom_site_occupancy
  Na  Na0  1  0.81834014  0.00629849  0.25442297  1
  Na  Na1  1  0.17522954  0.35622480  0.25372569  1
  Na  Na2  1  0.69190914  0.37047678  0.25314252  1
  Na  Na3  1  0.99649954  0.62945784  0.24653193  1
  Na  Na4  1  0.50362890  0.64871184  0.25063019  1
  Na  Na5  1  0.31798963  0.62867951  0.75182752  1
  Na  Na6  1  0.00096299  0.35540227  0.74492904  1
  Na  Na7  1  0.49758822  0.36476673  0.74407209  1
  Na  Na8  1  0.19032669  0.01377506  0.74982208  1
  Na  Na9  1  0.68041184  0.99982315  0.74977073  1
  Na  Na10  1  0.14724473  0.32281952  0.58267386  1
  Na  Na11  1  0.65101110  0.33205961  0.58206875  1
  Na  Na12  1  0.33552163  0.98711663  0.58593629  1
  Na  Na13  1  0.83312860  0.97058875  0.58209905  1
  Na  Na14  1  0.14336887  0.96527562  0.08122367  1
  Na  Na15  1  0.65081156  0.97415354  0.08044063  1
  Na  Na16  1  0.33313651  0.68633788  0.08177816  1
  Na  Na17  1  0.83557193  0.68459088  0.08602094  1
  Na  Na18  1  0.48185330  0.68102253  0.91514224  1
  Na  Na19  1  0.98170809  0.67817211  0.92153692  1
  Na  Na20  1  0.34531076  0.02228442  0.90889930  1
  Na  Na21  1  0.84428484  0.02179962  0.91116258  1
  Na  Na22  1  0.17125820  0.29555593  0.91111903  1
  Na  Na23  1  0.66935075  0.29205943  0.91153237  1
  Na  Na24  1  0.48436740  0.29130413  0.42468556  1
  Na  Na25  1  0.97861913  0.28107874  0.41918832  1
  Na  Na26  1  0.16855684  0.04669180  0.41430745  1
  Na  Na27  1  0.67529490  0.05065536  0.41636436  1
  Na  Na28  1  0.34498565  0.66649966  0.41409633  1
  Na  Na29  1  0.84470721  0.66520299  0.41816351  1
  Na  Na30  1  0.99802007  0.99750562  0.50031103  1
  Na  Na31  1  0.50533722  0.01429518  0.50168580  1
  Na  Na32  1  0.00302116  0.99344902  0.99987417  1
  Na  Na33  1  0.50400657  0.99792788  0.99558841  1
  Na  Na34  1  0.32904466  0.33343817  0.82666177  1
  Na  Na35  1  0.82321418  0.32835614  0.83090989  1
  Na  Na36  1  0.32367288  0.31599676  0.33699050  1
  Na  Na37  1  0.82849237  0.32345471  0.33235007  1
  Na  Na38  1  0.15805749  0.65344475  0.16942635  1
  Na  Na39  1  0.66506254  0.66010467  0.16950698  1
  Na  Na40  1  0.16285201  0.66745734  0.66800869  1
  Na  Na41  1  0.66379771  0.66370597  0.66489928  1
  Zr  Zr42  1  0.99826660  0.00529152  0.64479142  1
  Zr  Zr43  1  0.50478366  0.00684460  0.65157335  1
  Zr  Zr44  1  0.00388660  0.00268497  0.15192854  1
  Zr  Zr45  1  0.50335926  0.99159861  0.14815482  1
  Zr  Zr46  1  0.82877078  0.32715191  0.68150639  1
  Zr  Zr47  1  0.33060475  0.34305921  0.18545995  1
  Zr  Zr48  1  0.16329947  0.66442556  0.01817868  1
  Zr  Zr49  1  0.66587568  0.66505627  0.01859162  1
  Zr  Zr50  1  0.16513820  0.66614647  0.51882591  1
  Zr  Zr51  1  0.66978742  0.66114557  0.52170217  1
  Zr  Zr52  1  0.17588274  0.67447536  0.31116724  1
  Zr  Zr53  1  0.67686747  0.67921025  0.80979078  1
  Sc  Sc54  1  0.99870761  0.00909815  0.34858761  1
  Sc  Sc55  1  0.50236881  0.00186766  0.35120790  1
  Sc  Sc56  1  0.00160393  0.00101480  0.84886292  1
  Sc  Sc57  1  0.49947768  0.98976767  0.84746123  1
  Sc  Sc58  1  0.33566019  0.32296004  0.68641860  1
  Sc  Sc59  1  0.83596582  0.34861829  0.18687624  1
  Sc  Sc60  1  0.32760226  0.34203506  0.98155115  1
  Sc  Sc61  1  0.82648291  0.34207129  0.98382771  1
  Sc  Sc62  1  0.32747944  0.31257548  0.48395902  1
  Sc  Sc63  1  0.82837546  0.32641107  0.48527326  1
  Sc  Sc64  1  0.67854498  0.68019440  0.31657132  1
  Sc  Sc65  1  0.17796602  0.67649252  0.81471743  1
  Si  Si66  1  0.14840165  0.00007477  0.25225307  1
  Si  Si67  1  0.64853637  0.99611778  0.25196968  1
  Si  Si68  1  0.35625684  0.71147373  0.25040006  1
  Si  Si69  1  0.85317392  0.70805465  0.25082679  1
  Si  Si70  1  0.99825474  0.29567016  0.25099626  1
  Si  Si71  1  0.14682681  0.29731750  0.75101112  1
  Si  Si72  1  0.64869436  0.29539590  0.75334688  1
  Si  Si73  1  0.49825331  0.70100475  0.75139699  1
  Si  Si74  1  0.35338221  0.99893496  0.75111345  1
  Si  Si75  1  0.85704646  0.00897419  0.75126668  1
  Si  Si76  1  0.47917034  0.33251997  0.58317848  1
  Si  Si77  1  0.98090349  0.34045781  0.58286422  1
  Si  Si78  1  0.18623785  0.03741405  0.58465765  1
  Si  Si79  1  0.68220532  0.03338282  0.58153478  1
  Si  Si80  1  0.83663069  0.62661206  0.58045638  1
  Si  Si81  1  0.48106811  0.62298909  0.08269893  1
  Si  Si82  1  0.98009136  0.62636356  0.08321364  1
  Si  Si83  1  0.18277156  0.33255193  0.08181884  1
  Si  Si84  1  0.68470107  0.33397824  0.08482988  1
  Si  Si85  1  0.31595352  0.67071956  0.91778776  1
  Si  Si86  1  0.81555900  0.66871687  0.91754405  1
  Si  Si87  1  0.16737106  0.96332982  0.91543752  1
  Si  Si88  1  0.66772379  0.96521615  0.91746901  1
  Si  Si89  1  0.31559238  0.96285830  0.41744930  1
  Si  Si90  1  0.81659319  0.96640187  0.41702761  1
  Si  Si91  1  0.16769746  0.37010395  0.41685110  1
  Si  Si92  1  0.66658136  0.37006713  0.41418213  1
  S  S93  1  0.49860752  0.29110296  0.25043179  1
  S  S94  1  0.99948383  0.70549174  0.75148025  1
  S  S95  1  0.33408715  0.62561249  0.58227549  1
  S  S96  1  0.33449871  0.04421644  0.08205774  1
  S  S97  1  0.83433805  0.04273172  0.08227925  1
  S  S98  1  0.01967087  0.37325398  0.91546117  1
  S  S99  1  0.51977370  0.37360305  0.91666661  1
  S  S100  1  0.02085015  0.66631728  0.41527719  1
  S  S101  1  0.52039727  0.66630705  0.41541041  1
  O  O102  1  0.10813337  0.03914242  0.30887518  1
  O  O103  1  0.60276591  0.02965548  0.30726554  1
  O  O104  1  0.41391736  0.79389173  0.30761757  1
  O  O105  1  0.91277155  0.79512761  0.30744531  1
  O  O106  1  0.48683301  0.19204256  0.30399260  1
  O  O107  1  0.98319126  0.18179419  0.30909441  1
  O  O108  1  0.10384399  0.17795399  0.80892634  1
  O  O109  1  0.60574235  0.17774905  0.81046401  1
  O  O110  1  0.48239726  0.78231388  0.81045564  1
  O  O111  1  0.98839947  0.78232509  0.80547241  1
  O  O112  1  0.41094962  0.02840460  0.80912645  1
  O  O113  1  0.91267208  0.03268793  0.80983858  1
  O  O114  1  0.39630990  0.96618918  0.69308143  1
  O  O115  1  0.89989219  0.98052001  0.69349834  1
  O  O116  1  0.08644836  0.20179815  0.69426384  1
  O  O117  1  0.59050899  0.21008575  0.69421998  1
  O  O118  1  0.01223427  0.81314906  0.70022819  1
  O  O119  1  0.51750601  0.83180330  0.69704740  1
  O  O120  1  0.39798394  0.82114810  0.19115478  1
  O  O121  1  0.89623120  0.82560129  0.19204718  1
  O  O122  1  0.01843037  0.20498401  0.19603447  1
  O  O123  1  0.51010521  0.20677953  0.19876729  1
  O  O124  1  0.09117588  0.97130190  0.19261917  1
  O  O125  1  0.58745232  0.96954241  0.19373843  1
  O  O126  1  0.43645227  0.35548498  0.64186871  1
  O  O127  1  0.93803221  0.36183598  0.64269803  1
  O  O128  1  0.24529818  0.12245701  0.64156912  1
  O  O129  1  0.74220320  0.12032735  0.64010581  1
  O  O130  1  0.32118526  0.52356623  0.63484915  1
  O  O131  1  0.81875221  0.50240247  0.63657318  1
  O  O132  1  0.43675237  0.51228046  0.14163996  1
  O  O133  1  0.93802834  0.51808787  0.14165482  1
  O  O134  1  0.32270584  0.12623169  0.13385579  1
  O  O135  1  0.82121919  0.11878456  0.13474748  1
  O  O136  1  0.24424046  0.36230178  0.13934041  1
  O  O137  1  0.74323024  0.36360639  0.14152576  1
  O  O138  1  0.22716984  0.30005729  0.02551369  1
  O  O139  1  0.72381765  0.29504989  0.02607499  1
  O  O140  1  0.42247508  0.53624297  0.02585094  1
  O  O141  1  0.92378581  0.53808911  0.02449325  1
  O  O142  1  0.34501358  0.14050212  0.02847736  1
  O  O143  1  0.84353895  0.13992209  0.02886326  1
  O  O144  1  0.22590881  0.15279827  0.52559875  1
  O  O145  1  0.72494060  0.15342799  0.52495820  1
  O  O146  1  0.34337446  0.54680247  0.52882559  1
  O  O147  1  0.84770429  0.54470673  0.52105847  1
  O  O148  1  0.42167540  0.30454497  0.52464770  1
  O  O149  1  0.92347650  0.30721961  0.52533048  1
  O  O150  1  0.26672456  0.69157929  0.97513461  1
  O  O151  1  0.76975828  0.69554214  0.97565395  1
  O  O152  1  0.07423485  0.45675964  0.96763263  1
  O  O153  1  0.57440204  0.45895735  0.96859959  1
  O  O154  1  0.15234201  0.84212769  0.97357386  1
  O  O155  1  0.65322348  0.84330670  0.97488388  1
  O  O156  1  0.26982448  0.84360730  0.47489229  1
  O  O157  1  0.76662381  0.84286006  0.47282053  1
  O  O158  1  0.15395427  0.46521908  0.47367263  1
  O  O159  1  0.64925712  0.45842700  0.47141768  1
  O  O160  1  0.07502872  0.69053665  0.46744854  1
  O  O161  1  0.57415074  0.69162422  0.46671976  1
  O  O162  1  0.06089241  0.64315784  0.36260508  1
  O  O163  1  0.55690618  0.63913017  0.36172489  1
  O  O164  1  0.25069308  0.86871093  0.36295319  1
  O  O165  1  0.75689863  0.88180615  0.35892547  1
  O  O166  1  0.17982383  0.49044945  0.35982524  1
  O  O167  1  0.67638019  0.48505599  0.35680193  1
  O  O168  1  0.05738375  0.47627815  0.86309160  1
  O  O169  1  0.55729634  0.47659281  0.86405285  1
  O  O170  1  0.17850143  0.86810842  0.85899962  1
  O  O171  1  0.67949129  0.86766325  0.86120825  1
  O  O172  1  0.25507665  0.63255463  0.86097415  1
  O  O173  1  0.74977162  0.63148777  0.86391119  1
  O  O174  1  0.01408581  0.81933886  0.41206122  1
  O  O175  1  0.51233372  0.81965703  0.41123008  1
  O  O176  1  0.40682875  0.97529295  0.41079515  1
  O  O177  1  0.90707631  0.97231339  0.41384179  1
  O  O178  1  0.08520176  0.18363806  0.41407429  1
  O  O179  1  0.58197340  0.18182761  0.41129521  1
  O  O180  1  0.01345118  0.20638278  0.91230561  1
  O  O181  1  0.51300822  0.20726388  0.91356942  1
  O  O182  1  0.08350097  0.98334235  0.91313498  1
  O  O183  1  0.58491243  0.98654722  0.91506886  1
  O  O184  1  0.40678972  0.84296004  0.91556226  1
  O  O185  1  0.90718655  0.83844443  0.91187506  1
  O  O186  1  0.48529408  0.15775277  0.58732045  1
  O  O187  1  0.99002708  0.16971293  0.58805760  1
  O  O188  1  0.09465924  0.02321009  0.59103031  1
  O  O189  1  0.59176285  0.02501723  0.58818613  1
  O  O190  1  0.40625290  0.79770446  0.58693777  1
  O  O191  1  0.91434728  0.81741618  0.58866294  1
  O  O192  1  0.48612759  0.80981727  0.08795326  1
  O  O193  1  0.98728231  0.81432566  0.08658380  1
  O  O194  1  0.40697659  0.01754618  0.08874352  1
  O  O195  1  0.90648347  0.01453514  0.08679380  1
  O  O196  1  0.09246982  0.16191766  0.08770555  1
  O  O197  1  0.59105908  0.16525864  0.09078598  1
  O  O198  1  0.34352163  0.16576222  0.74721376  1
  O  O199  1  0.84906955  0.17912554  0.74711348  1
  O  O200  1  0.24020530  0.32101636  0.74432060  1
  O  O201  1  0.73988672  0.30664954  0.74600978  1
  O  O202  1  0.41450327  0.51899997  0.74408968  1
  O  O203  1  0.92544238  0.53609538  0.74602937  1
  O  O204  1  0.34871521  0.52330553  0.24489153  1
  O  O205  1  0.84323608  0.52139410  0.24612721  1
  O  O206  1  0.42383369  0.31129834  0.24380432  1
  O  O207  1  0.91455319  0.30982588  0.24322292  1
  O  O208  1  0.24119156  0.16849454  0.24202523  1
  O  O209  1  0.74054943  0.15904423  0.24347925  1
  O  O210  1  0.32629382  0.50325320  0.92193487  1
  O  O211  1  0.82576744  0.50136784  0.92108782  1
  O  O212  1  0.43568391  0.35434718  0.92474623  1
  O  O213  1  0.93546694  0.35240515  0.92381695  1
  O  O214  1  0.25434901  0.14460635  0.92227203  1
  O  O215  1  0.75557642  0.14554138  0.92240605  1
  O  O216  1  0.32559175  0.15032661  0.42013062  1
  O  O217  1  0.82765204  0.15408042  0.42088645  1
  O  O218  1  0.25581446  0.36601014  0.42115922  1
  O  O219  1  0.75209832  0.35820487  0.41863469  1
  O  O220  1  0.43520369  0.51829250  0.42244593  1
  O  O221  1  0.93802011  0.51565282  0.42115785  1
  O  O222  1  0.18232264  0.50987731  0.07762343  1
  O  O223  1  0.68066536  0.50777635  0.07684461  1
  O  O224  1  0.07793133  0.66304389  0.07786121  1
  O  O225  1  0.57831993  0.66311424  0.07934496  1
  O  O226  1  0.25679468  0.87386154  0.07854498  1
  O  O227  1  0.75611875  0.87088434  0.07774549  1
  O  O228  1  0.18218390  0.85525782  0.57653112  1
  O  O229  1  0.67891110  0.85374561  0.57652492  1
  O  O230  1  0.25588717  0.64075731  0.57777879  1
  O  O231  1  0.75031334  0.64193848  0.57837171  1
  O  O232  1  0.07845292  0.49802341  0.57902067  1
  O  O233  1  0.57492304  0.49062891  0.57721119  1
  O  O234  1  0.14976443  0.82445296  0.25596884  1
  O  O235  1  0.64893360  0.81876098  0.25466265  1
  O  O236  1  0.25983252  0.67473228  0.25272228  1
  O  O237  1  0.75893074  0.68759174  0.25303039  1
  O  O238  1  0.08229298  0.48233881  0.25658829  1
  O  O239  1  0.57376343  0.46008561  0.25449923  1
  O  O240  1  0.14918288  0.47831518  0.75573047  1
  O  O241  1  0.64948699  0.47355668  0.75757243  1
  O  O242  1  0.07551426  0.68813687  0.75648652  1
  O  O243  1  0.58221623  0.68235796  0.75767305  1
  O  O244  1  0.25909497  0.83074348  0.75359060  1
  O  O245  1  0.76099669  0.84724230  0.75380600  1
