# generated using pymatgen
data_MgV2(OF3)2
_symmetry_space_group_name_H-M   'P 1'
_cell_length_a   5.43421866
_cell_length_b   5.38585150
_cell_length_c   6.15308456
_cell_angle_alpha   88.46082303
_cell_angle_beta   117.71316487
_cell_angle_gamma   92.31812286
_symmetry_Int_Tables_number   1
_chemical_formula_structural   MgV2(OF3)2
_chemical_formula_sum   'Mg1 V2 O2 F6'
_cell_volume   159.29231287
_cell_formula_units_Z   1
loop_
 _symmetry_equiv_pos_site_id
 _symmetry_equiv_pos_as_xyz
  1  'x, y, z'
loop_
 _atom_site_type_symbol
 _atom_site_label
 _atom_site_symmetry_multiplicity
 _atom_site_fract_x
 _atom_site_fract_y
 _atom_site_fract_z
 _atom_site_occupancy
  Mg  Mg0  1  0.53158700  0.25345300  0.55726400  1
  V  V1  1  0.03654300  0.96965500  0.00282200  1
  V  V2  1  0.47259200  0.48405700  0.99312200  1
  O  O3  1  0.26920500  0.76762100  0.01047100  1
  O  O4  1  0.21495800  0.27005800  0.94745100  1
  F  F5  1  0.19481900  0.07031100  0.34120400  1
  F  F6  1  0.79074600  0.72647600  0.06015800  1
  F  F7  1  0.37476100  0.53175000  0.64934600  1
  F  F8  1  0.65307800  0.43447500  0.34836700  1
  F  F9  1  0.78089800  0.97203400  0.65502000  1
  F  F10  1  0.71206400  0.23260800  0.94668000  1
