# generated using pymatgen
data_Ni3(PO4)2
_symmetry_space_group_name_H-M   'P 1'
_cell_length_a   4.68331995
_cell_length_b   5.80744322
_cell_length_c   10.07597216
_cell_angle_alpha   88.84557675
_cell_angle_beta   90.00000000
_cell_angle_gamma   90.00000000
_symmetry_Int_Tables_number   1
_chemical_formula_structural   Ni3(PO4)2
_chemical_formula_sum   'Ni6 P4 O16'
_cell_volume   273.99182167
_cell_formula_units_Z   2
loop_
 _symmetry_equiv_pos_site_id
 _symmetry_equiv_pos_as_xyz
  1  'x, y, z'
loop_
 _atom_site_type_symbol
 _atom_site_label
 _atom_site_symmetry_multiplicity
 _atom_site_fract_x
 _atom_site_fract_y
 _atom_site_fract_z
 _atom_site_occupancy
  Ni  Ni0  1  0.01311573  0.24287613  0.72650095  1
  Ni  Ni1  1  0.51311573  0.75712387  0.77349905  1
  Ni  Ni2  1  0.48688427  0.24287613  0.22650095  1
  Ni  Ni3  1  0.98688427  0.75712387  0.27349905  1
  Ni  Ni4  1  0.50000000  0.50000000  0.50000000  1
  Ni  Ni5  1  0.00000000  0.50000000  -0.00000000  1
  P  P6  1  0.07724980  0.74944683  0.59477620  1
  P  P7  1  0.57724980  0.25055317  0.90522380  1
  P  P8  1  0.92275020  0.25055317  0.40522380  1
  P  P9  1  0.42275020  0.74944683  0.09477620  1
  O  O10  1  0.23420335  0.53374300  0.66222728  1
  O  O11  1  0.73420335  0.46625700  0.83777272  1
  O  O12  1  0.76579665  0.46625700  0.33777272  1
  O  O13  1  0.26579665  0.53374300  0.16222728  1
  O  O14  1  0.19985178  0.94956422  0.67313560  1
  O  O15  1  0.69985178  0.05043578  0.82686440  1
  O  O16  1  0.80014822  0.05043578  0.32686440  1
  O  O17  1  0.30014822  0.94956422  0.17313560  1
  O  O18  1  0.30828525  0.74415757  0.95179925  1
  O  O19  1  0.80828525  0.25584243  0.54820075  1
  O  O20  1  0.74688403  0.73256671  0.10124758  1
  O  O21  1  0.24688403  0.26743329  0.39875242  1
  O  O22  1  0.25311597  0.26743329  0.89875242  1
  O  O23  1  0.69171475  0.25584243  0.04820075  1
  O  O24  1  0.19171475  0.74415757  0.45179925  1
  O  O25  1  0.75311597  0.73256671  0.60124758  1
