# generated using pymatgen
data_MgFe6(OF)6
_symmetry_space_group_name_H-M   'P 1'
_cell_length_a   5.17595968
_cell_length_b   14.43316985
_cell_length_c   3.10455051
_cell_angle_alpha   90.12890312
_cell_angle_beta   89.68313113
_cell_angle_gamma   97.89284257
_symmetry_Int_Tables_number   1
_chemical_formula_structural   MgFe6(OF)6
_chemical_formula_sum   'Mg1 Fe6 O6 F6'
_cell_volume   229.72610975
_cell_formula_units_Z   1
loop_
 _symmetry_equiv_pos_site_id
 _symmetry_equiv_pos_as_xyz
  1  'x, y, z'
loop_
 _atom_site_type_symbol
 _atom_site_label
 _atom_site_symmetry_multiplicity
 _atom_site_fract_x
 _atom_site_fract_y
 _atom_site_fract_z
 _atom_site_occupancy
  Mg  Mg0  1  0.86296319  0.82446735  0.03920293  1
  Fe  Fe1  1  0.02717526  0.02137640  0.00916747  1
  Fe  Fe2  1  0.03627809  0.32927779  0.00412357  1
  Fe  Fe3  1  0.16704372  0.62628208  0.00825337  1
  Fe  Fe4  1  0.52345384  0.17929274  0.50480019  1
  Fe  Fe5  1  0.54432187  0.48031237  0.50017725  1
  Fe  Fe6  1  0.35306898  0.84271980  0.53107949  1
  O  O7  1  0.32813736  0.58870042  0.50626020  1
  O  O8  1  0.05564124  0.92485989  0.51426042  1
  O  O9  1  0.33764202  0.09859831  0.00613939  1
  O  O10  1  0.16965111  0.75627714  0.02382530  1
  O  O11  1  0.37329062  0.42728967  0.00125040  1
  O  O12  1  0.71216305  0.23635575  0.00426980  1
  F  F13  1  0.23121785  0.25970889  0.50348886  1
  F  F14  1  0.79795446  0.56961321  0.00987162  1
  F  F15  1  0.59485970  0.91177942  0.03161409  1
  F  F16  1  0.83621860  0.07628506  0.50967244  1
  F  F17  1  0.86010069  0.41546773  0.50355736  1
  F  F18  1  0.67492936  0.76466998  0.53898585  1
