# generated using pymatgen
data_MgV4(OF6)2
_symmetry_space_group_name_H-M   'P 1'
_cell_length_a   8.61462641
_cell_length_b   6.67608721
_cell_length_c   5.34507537
_cell_angle_alpha   83.30636904
_cell_angle_beta   103.26711700
_cell_angle_gamma   110.39174895
_symmetry_Int_Tables_number   1
_chemical_formula_structural   MgV4(OF6)2
_chemical_formula_sum   'Mg1 V4 O2 F12'
_cell_volume   280.22547626
_cell_formula_units_Z   1
loop_
 _symmetry_equiv_pos_site_id
 _symmetry_equiv_pos_as_xyz
  1  'x, y, z'
loop_
 _atom_site_type_symbol
 _atom_site_label
 _atom_site_symmetry_multiplicity
 _atom_site_fract_x
 _atom_site_fract_y
 _atom_site_fract_z
 _atom_site_occupancy
  Mg  Mg0  1  0.86873600  0.28961100  0.92311500  1
  V  V1  1  0.19539000  0.26202700  0.27942200  1
  V  V2  1  0.33528400  0.53209200  0.79336300  1
  V  V3  1  0.79736100  0.73265300  0.70147700  1
  V  V4  1  0.66517100  0.48385700  0.18127100  1
  O  O5  1  0.14762800  0.38976400  0.95519000  1
  O  O6  1  0.56507100  0.57687800  0.84055700  1
  F  F7  1  0.00719000  0.80771400  0.63107900  1
  F  F8  1  0.25178700  0.56379100  0.43838400  1
  F  F9  1  0.36219000  0.79136200  0.89038900  1
  F  F10  1  0.28056800  0.23870300  0.65247800  1
  F  F11  1  0.17567100  0.00159000  0.22624100  1
  F  F12  1  0.42761000  0.38320800  0.23562800  1
  F  F13  1  0.81334100  0.00967200  0.79570400  1
  F  F14  1  0.69208000  0.75375200  0.32785800  1
  F  F15  1  0.66248000  0.22145400  0.07427000  1
  F  F16  1  0.76160000  0.42910200  0.57870300  1
  F  F17  1  0.88429600  0.58968000  0.04919300  1
  F  F18  1  0.97152900  0.22218900  0.29295200  1
