# generated using pymatgen
data_Na8TaGa3Si4(PO12)2
_symmetry_space_group_name_H-M   'P 1'
_cell_length_a   8.95802405
_cell_length_b   8.96485147
_cell_length_c   22.04655429
_cell_angle_alpha   89.70390039
_cell_angle_beta   89.90077917
_cell_angle_gamma   119.96174444
_symmetry_Int_Tables_number   1
_chemical_formula_structural   Na8TaGa3Si4(PO12)2
_chemical_formula_sum   'Na24 Ta3 Ga9 Si12 P6 O72'
_cell_volume   1533.84961723
_cell_formula_units_Z   3
loop_
 _symmetry_equiv_pos_site_id
 _symmetry_equiv_pos_as_xyz
  1  'x, y, z'
loop_
 _atom_site_type_symbol
 _atom_site_label
 _atom_site_symmetry_multiplicity
 _atom_site_fract_x
 _atom_site_fract_y
 _atom_site_fract_z
 _atom_site_occupancy
  Na  Na0  1  0.63168149  0.99790764  0.25234633  1
  Na  Na1  1  0.36724689  0.36902929  0.25133446  1
  Na  Na2  1  0.00183899  0.63254368  0.25127798  1
  Na  Na3  1  0.63792965  0.63199389  0.74523915  1
  Na  Na4  1  0.99277061  0.35839633  0.74632006  1
  Na  Na5  1  0.37002909  0.00971248  0.74814018  1
  Na  Na6  1  0.29768603  0.33709892  0.58385646  1
  Na  Na7  1  0.03489149  0.69968094  0.58274386  1
  Na  Na8  1  0.66734769  0.96183305  0.58270889  1
  Na  Na9  1  0.29532770  0.96179584  0.08273220  1
  Na  Na10  1  0.66395798  0.69969875  0.08377741  1
  Na  Na11  1  0.03975406  0.33827197  0.08391156  1
  Na  Na12  1  0.97259765  0.67611315  0.91531002  1
  Na  Na13  1  0.70497120  0.02928917  0.91395325  1
  Na  Na14  1  0.32275584  0.29369612  0.91426421  1
  Na  Na15  1  0.97316382  0.29890054  0.41606924  1
  Na  Na16  1  0.32738568  0.02758291  0.41585902  1
  Na  Na17  1  0.69970303  0.67348837  0.41614297  1
  Na  Na18  1  0.99807773  0.99988772  0.50010474  1
  Na  Na19  1  0.00181794  0.00005696  0.99894476  1
  Na  Na20  1  0.66436268  0.32997104  0.82844783  1
  Na  Na21  1  0.66621911  0.33276323  0.33236315  1
  Na  Na22  1  0.33123276  0.66405075  0.16626799  1
  Na  Na23  1  0.33420723  0.66381270  0.66113515  1
  Ta  Ta24  1  0.66475130  0.33627092  0.98056716  1
  Ta  Ta25  1  0.67165867  0.33721986  0.48013852  1
  Ta  Ta26  1  0.33599886  0.66575382  0.81280803  1
  Ga  Ga27  1  0.99951256  0.00020884  0.35436054  1
  Ga  Ga28  1  0.00221291  0.00664736  0.85087862  1
  Ga  Ga29  1  0.99200986  0.00399967  0.64778264  1
  Ga  Ga30  1  0.00521302  0.99923515  0.14887001  1
  Ga  Ga31  1  0.66434988  0.33206988  0.68308625  1
  Ga  Ga32  1  0.66835756  0.33853361  0.18162485  1
  Ga  Ga33  1  0.32708502  0.66008027  0.01701640  1
  Ga  Ga34  1  0.33260891  0.65956958  0.51586837  1
  Ga  Ga35  1  0.33431684  0.66750562  0.32233637  1
  Si  Si36  1  0.28980955  0.28380045  0.74865872  1
  Si  Si37  1  0.71447693  0.00585251  0.74942688  1
  Si  Si38  1  0.96281906  0.33556376  0.58607675  1
  Si  Si39  1  0.66723370  0.62935959  0.58626297  1
  Si  Si40  1  0.96297170  0.62924543  0.08617641  1
  Si  Si41  1  0.37051362  0.33426259  0.08647827  1
  Si  Si42  1  0.62711328  0.67296454  0.91887202  1
  Si  Si43  1  0.04329385  0.37231050  0.91806024  1
  Si  Si44  1  0.32864012  0.95449175  0.91834038  1
  Si  Si45  1  0.62200242  0.95258625  0.41603054  1
  Si  Si46  1  0.32921875  0.37501669  0.41540655  1
  Si  Si47  1  0.04985342  0.67194386  0.41600732  1
  P  P48  1  0.29213840  0.00013403  0.24975387  1
  P  P49  1  0.71027797  0.71071886  0.24961799  1
  P  P50  1  0.99881686  0.28929143  0.24910346  1
  P  P51  1  -0.00138083  0.71277620  0.74996384  1
  P  P52  1  0.37385708  0.04000184  0.58497096  1
  P  P53  1  0.66631630  0.04145971  0.08564207  1
  O  O54  1  0.21093427  0.03579609  0.30573484  1
  O  O55  1  0.82585988  0.79132040  0.30575973  1
  O  O56  1  0.96471490  0.17406420  0.30581593  1
  O  O57  1  0.21035018  0.17020354  0.81035595  1
  O  O58  1  0.96707784  0.79009820  0.80770748  1
  O  O59  1  0.82736496  0.03646485  0.81057122  1
  O  O60  1  0.78609828  0.95210395  0.69081310  1
  O  O61  1  0.16622077  0.20591972  0.68987792  1
  O  O62  1  0.04033612  0.82753744  0.69347110  1
  O  O63  1  0.79208919  0.82665557  0.19228229  1
  O  O64  1  0.03188451  0.20719527  0.19210160  1
  O  O65  1  0.17698371  0.96566823  0.19275145  1
  O  O66  1  0.87227762  0.37121328  0.64397713  1
  O  O67  1  0.49003665  0.12145012  0.64083338  1
  O  O68  1  0.62710457  0.50089305  0.64399153  1
  O  O69  1  0.87515051  0.49959483  0.14351534  1
  O  O70  1  0.63183367  0.12451268  0.14102758  1
  O  O71  1  0.49777362  0.37012740  0.14363383  1
  O  O72  1  0.46406865  0.29703301  0.02636624  1
  O  O73  1  0.83320610  0.53274609  0.02617610  1
  O  O74  1  0.69876385  0.16124391  0.02809958  1
  O  O75  1  0.46227260  0.16011286  0.52785054  1
  O  O76  1  0.69771569  0.53187918  0.52609722  1
  O  O77  1  0.83295757  0.29960535  0.52618908  1
  O  O78  1  0.54070504  0.70659502  0.97728000  1
  O  O79  1  0.16251892  0.45661790  0.97657589  1
  O  O80  1  0.29742889  0.83598469  0.97746693  1
  O  O81  1  0.54015404  0.83519515  0.47637472  1
  O  O82  1  0.29137757  0.45382375  0.47556953  1
  O  O83  1  0.16595904  0.70756257  0.47621752  1
  O  O84  1  0.12054438  0.62181383  0.35536378  1
  O  O85  1  0.50204992  0.87990330  0.35529852  1
  O  O86  1  0.37861675  0.49796857  0.35496682  1
  O  O87  1  0.12858915  0.50164396  0.85847746  1
  O  O88  1  0.36943093  0.86810931  0.85850972  1
  O  O89  1  0.49822537  0.62868057  0.85919224  1
  O  O90  1  0.01997662  0.83640768  0.40894431  1
  O  O91  1  0.81568160  0.97925830  0.40905235  1
  O  O92  1  0.16233466  0.18213784  0.40863576  1
  O  O93  1  0.02009210  0.18249831  0.91165656  1
  O  O94  1  0.16133444  0.97674130  0.91067354  1
  O  O95  1  0.81816893  0.83534308  0.90981747  1
  O  O96  1  0.97598773  0.16006802  0.58712018  1
  O  O97  1  0.19602325  0.02686200  0.58867464  1
  O  O98  1  0.84693464  0.81464483  0.58864930  1
  O  O99  1  0.97088576  0.81562541  0.08968639  1
  O  O100  1  0.83184850  0.02873746  0.08927920  1
  O  O101  1  0.18123027  0.15916105  0.08980451  1
  O  O102  1  0.68700529  0.17287974  0.74402630  1
  O  O103  1  0.48603652  0.31438750  0.74461543  1
  O  O104  1  0.84066007  0.52916086  0.74599382  1
  O  O105  1  0.69203013  0.52756906  0.24493542  1
  O  O106  1  0.83274282  0.30601628  0.24404619  1
  O  O107  1  0.47563278  0.16421784  0.24359609  1
  O  O108  1  0.63933221  0.49352559  0.92298079  1
  O  O109  1  0.85125792  0.35709391  0.92365371  1
  O  O110  1  0.50712997  0.14591105  0.92336021  1
  O  O111  1  0.64142001  0.14730417  0.42333433  1
  O  O112  1  0.50339329  0.35416521  0.42355226  1
  O  O113  1  0.85328506  0.49572655  0.42297597  1
  O  O114  1  0.35962398  0.50891830  0.07808862  1
  O  O115  1  0.15165032  0.64682080  0.07822458  1
  O  O116  1  0.50523416  0.86412124  0.07858982  1
  O  O117  1  0.35872898  0.86264031  0.57835590  1
  O  O118  1  0.49537759  0.64647592  0.57830819  1
  O  O119  1  0.14959077  0.51013434  0.57816917  1
  O  O120  1  0.30986495  0.83591301  0.25420784  1
  O  O121  1  0.52758230  0.69170642  0.25378364  1
  O  O122  1  0.16214423  0.47142141  0.25344879  1
  O  O123  1  0.30711148  0.47991767  0.75655850  1
  O  O124  1  0.16438391  0.69286945  0.75671227  1
  O  O125  1  0.51660313  0.82983026  0.75675685  1
