# generated using pymatgen
data_Ca(AuF6)2
_symmetry_space_group_name_H-M   'P 1'
_cell_length_a   6.03423043
_cell_length_b   6.03423043
_cell_length_c   6.62997614
_cell_angle_alpha   90.00000000
_cell_angle_beta   90.00000000
_cell_angle_gamma   90.00000000
_symmetry_Int_Tables_number   1
_chemical_formula_structural   Ca(AuF6)2
_chemical_formula_sum   'Ca1 Au2 F12'
_cell_volume   241.41027274
_cell_formula_units_Z   1
loop_
 _symmetry_equiv_pos_site_id
 _symmetry_equiv_pos_as_xyz
  1  'x, y, z'
loop_
 _atom_site_type_symbol
 _atom_site_label
 _atom_site_symmetry_multiplicity
 _atom_site_fract_x
 _atom_site_fract_y
 _atom_site_fract_z
 _atom_site_occupancy
  Ca  Ca0  1  -0.00000000  -0.00000000  -0.00000000  1
  Au  Au1  1  -0.00000000  0.50000000  0.23585648  1
  Au  Au2  1  0.50000000  -0.00000000  0.76414352  1
  F  F3  1  0.50000000  -0.00000000  0.05411025  1
  F  F4  1  -0.00000000  0.50000000  0.94588975  1
  F  F5  1  0.50000000  -0.00000000  0.47724064  1
  F  F6  1  0.20682042  0.74302809  0.22409254  1
  F  F7  1  0.74302809  0.79317958  0.77590746  1
  F  F8  1  0.25697191  0.20682042  0.77590746  1
  F  F9  1  0.79317958  0.25697191  0.22409254  1
  F  F10  1  0.20682042  0.25697191  0.22409254  1
  F  F11  1  0.25697191  0.79317958  0.77590746  1
  F  F12  1  0.74302809  0.20682042  0.77590746  1
  F  F13  1  0.79317958  0.74302809  0.22409254  1
  F  F14  1  -0.00000000  0.50000000  0.52275936  1
