# generated using pymatgen
data_Na7TaIn3Si3(PO8)3
_symmetry_space_group_name_H-M   'P 1'
_cell_length_a   9.18491083
_cell_length_b   9.18026742
_cell_length_c   22.60648067
_cell_angle_alpha   90.00402200
_cell_angle_beta   90.07385704
_cell_angle_gamma   120.03611827
_symmetry_Int_Tables_number   1
_chemical_formula_structural   Na7TaIn3Si3(PO8)3
_chemical_formula_sum   'Na21 Ta3 In9 Si9 P9 O72'
_cell_volume   1650.19466729
_cell_formula_units_Z   3
loop_
 _symmetry_equiv_pos_site_id
 _symmetry_equiv_pos_as_xyz
  1  'x, y, z'
loop_
 _atom_site_type_symbol
 _atom_site_label
 _atom_site_symmetry_multiplicity
 _atom_site_fract_x
 _atom_site_fract_y
 _atom_site_fract_z
 _atom_site_occupancy
  Na  Na0  1  0.63051475  0.99882586  0.25221240  1
  Na  Na1  1  0.36802129  0.36952285  0.25193220  1
  Na  Na2  1  0.00215856  0.63403516  0.25447685  1
  Na  Na3  1  0.64150588  0.63221233  0.74409104  1
  Na  Na4  1  0.99363010  0.35350201  0.74263932  1
  Na  Na5  1  0.29652610  0.34153298  0.58352846  1
  Na  Na6  1  0.03653812  0.69920278  0.58181035  1
  Na  Na7  1  0.66589078  0.95915713  0.57985358  1
  Na  Na8  1  0.30188071  0.96452303  0.08321585  1
  Na  Na9  1  0.65857249  0.70033983  0.08378527  1
  Na  Na10  1  0.04380257  0.33403515  0.08000048  1
  Na  Na11  1  0.32020677  0.29568538  0.91266399  1
  Na  Na12  1  0.97866631  0.30025457  0.41782204  1
  Na  Na13  1  0.32459728  0.02346131  0.41749936  1
  Na  Na14  1  0.69794544  0.67699032  0.41766877  1
  Na  Na15  1  0.99715132  0.00025562  0.49914965  1
  Na  Na16  1  0.99096530  0.99943356  0.99620338  1
  Na  Na17  1  0.66125322  0.32340308  0.82833323  1
  Na  Na18  1  0.66484650  0.33173293  0.33449943  1
  Na  Na19  1  0.33843512  0.66645035  0.16518437  1
  Na  Na20  1  0.33425551  0.66956668  0.65914056  1
  Ta  Ta21  1  0.66942044  0.32835481  0.97909386  1
  Ta  Ta22  1  0.67099252  0.33727457  0.48193285  1
  Ta  Ta23  1  0.32805570  0.66491112  0.81578536  1
  In  In24  1  0.99864536  0.99973638  0.35075223  1
  In  In25  1  0.00091420  0.00155483  0.85030783  1
  In  In26  1  0.00118233  0.00421544  0.64918710  1
  In  In27  1  0.00143445  0.00362403  0.14588233  1
  In  In28  1  0.66042201  0.33100739  0.68460300  1
  In  In29  1  0.66320813  0.33039361  0.18161493  1
  In  In30  1  0.33556011  0.66641836  0.01514065  1
  In  In31  1  0.33251111  0.66278960  0.51483910  1
  In  In32  1  0.33390981  0.66605751  0.32244177  1
  Si  Si33  1  0.29953785  0.29671703  0.75225276  1
  Si  Si34  1  0.96149647  0.33447128  0.58611440  1
  Si  Si35  1  0.66720008  0.63065982  0.58561523  1
  Si  Si36  1  0.66472060  0.03730090  0.08386396  1
  Si  Si37  1  0.37456122  0.33475630  0.08279351  1
  Si  Si38  1  0.03503379  0.37046377  0.91863479  1
  Si  Si39  1  0.62974243  0.96651476  0.41695166  1
  Si  Si40  1  0.33553960  0.36770689  0.41657342  1
  Si  Si41  1  0.03464057  0.66504473  0.41695738  1
  P  P42  1  0.29581296  0.99769787  0.24905169  1
  P  P43  1  0.70315878  0.70295945  0.24845011  1
  P  P44  1  0.00129837  0.30033928  0.24895905  1
  P  P45  1  0.00571531  0.70794486  0.75081706  1
  P  P46  1  0.69925464  0.99614199  0.75104110  1
  P  P47  1  0.37597116  0.04130021  0.58272408  1
  P  P48  1  0.95597348  0.62239877  0.08268641  1
  P  P49  1  0.62918778  0.66578537  0.91724453  1
  P  P50  1  0.33575390  0.96103198  0.91854816  1
  O  O51  1  0.21358003  0.02456441  0.30391677  1
  O  O52  1  0.81096003  0.78418612  0.30384529  1
  O  O53  1  0.97135797  0.19033802  0.30394880  1
  O  O54  1  0.21825398  0.19214654  0.81195988  1
  O  O55  1  0.96889756  0.78896565  0.80351397  1
  O  O56  1  0.81622682  0.02872080  0.80398343  1
  O  O57  1  0.76223507  0.94874697  0.69452196  1
  O  O58  1  0.17837229  0.22692276  0.69386238  1
  O  O59  1  0.03681610  0.80767597  0.69324263  1
  O  O60  1  0.78433029  0.81000936  0.19191806  1
  O  O61  1  0.02874818  0.22079423  0.19238565  1
  O  O62  1  0.18891031  0.97059875  0.19219893  1
  O  O63  1  0.88046669  0.36250807  0.64556395  1
  O  O64  1  0.48443928  0.11707740  0.63757225  1
  O  O65  1  0.63065981  0.51848837  0.64472895  1
  O  O66  1  0.88805830  0.52154906  0.14020406  1
  O  O67  1  0.63125179  0.11067327  0.14423647  1
  O  O68  1  0.48568590  0.37437634  0.14278949  1
  O  O69  1  0.47997345  0.31450998  0.02508549  1
  O  O70  1  0.83522814  0.52279478  0.02928209  1
  O  O71  1  0.68965052  0.16986647  0.02742619  1
  O  O72  1  0.46779260  0.15401886  0.52694295  1
  O  O73  1  0.68463411  0.52360623  0.52785079  1
  O  O74  1  0.83553146  0.31258562  0.52833108  1
  O  O75  1  0.55807576  0.69391839  0.97446423  1
  O  O76  1  0.14765611  0.44863158  0.97734110  1
  O  O77  1  0.31284217  0.86554055  0.97615552  1
  O  O78  1  0.55198222  0.84833815  0.47435163  1
  O  O79  1  0.29267141  0.44311740  0.47407308  1
  O  O80  1  0.15282714  0.70576026  0.47432637  1
  O  O81  1  0.10237330  0.61561234  0.35760875  1
  O  O82  1  0.51354990  0.89785020  0.35712715  1
  O  O83  1  0.38557683  0.48584198  0.35724964  1
  O  O84  1  0.14055715  0.50052943  0.86165856  1
  O  O85  1  0.36008498  0.86559599  0.86549021  1
  O  O86  1  0.50489406  0.63987657  0.86397464  1
  O  O87  1  0.00382737  0.82395701  0.41116654  1
  O  O88  1  0.81892674  0.99482788  0.41119515  1
  O  O89  1  0.17455288  0.17879383  0.41055086  1
  O  O90  1  0.01917934  0.18765434  0.91177282  1
  O  O91  1  0.18693375  0.99040137  0.91155270  1
  O  O92  1  0.80565472  0.81314044  0.90826912  1
  O  O93  1  0.97003409  0.16032061  0.58405637  1
  O  O94  1  0.20360625  0.03409310  0.58438826  1
  O  O95  1  0.84596350  0.80969950  0.58529955  1
  O  O96  1  0.96217393  0.79418807  0.08348428  1
  O  O97  1  0.83710726  0.02653170  0.08289177  1
  O  O98  1  0.19405402  0.15680284  0.08281748  1
  O  O99  1  0.68361051  0.15448951  0.74576582  1
  O  O100  1  0.49297391  0.33706324  0.74911882  1
  O  O101  1  0.85627802  0.52486983  0.74831325  1
  O  O102  1  0.68732598  0.52548191  0.24580084  1
  O  O103  1  0.84232455  0.32049680  0.24536077  1
  O  O104  1  0.47369227  0.15877827  0.24676876  1
  O  O105  1  0.62796056  0.49246315  0.92084953  1
  O  O106  1  0.84935803  0.36188276  0.92342852  1
  O  O107  1  0.50142120  0.14232199  0.92236016  1
  O  O108  1  0.64704213  0.15497251  0.42615780  1
  O  O109  1  0.50582883  0.34958552  0.42623412  1
  O  O110  1  0.84516080  0.49267524  0.42615191  1
  O  O111  1  0.34983050  0.49816958  0.07818592  1
  O  O112  1  0.13270269  0.64604312  0.07557808  1
  O  O113  1  0.49676452  0.85370061  0.07698688  1
  O  O114  1  0.35360924  0.86442266  0.57679175  1
  O  O115  1  0.50344958  0.65425127  0.57964343  1
  O  O116  1  0.14544776  0.50358079  0.58038213  1
  O  O117  1  0.31312522  0.83774092  0.25303716  1
  O  O118  1  0.52594240  0.68567281  0.25242095  1
  O  O119  1  0.16213156  0.47704449  0.25339340  1
  O  O120  1  0.31668462  0.49329399  0.76195214  1
  O  O121  1  0.16901241  0.69082864  0.76169903  1
  O  O122  1  0.52097188  0.83509304  0.76313665  1
