# generated using pymatgen
data_Na8Mg3Zr(PO4)6
_symmetry_space_group_name_H-M   'P 1'
_cell_length_a   9.05875670
_cell_length_b   9.05875639
_cell_length_c   22.28854439
_cell_angle_alpha   90.00000000
_cell_angle_beta   90.00000000
_cell_angle_gamma   120.00000114
_symmetry_Int_Tables_number   1
_chemical_formula_structural   Na8Mg3Zr(PO4)6
_chemical_formula_sum   'Na24 Mg9 Zr3 P18 O72'
_cell_volume   1583.97932855
_cell_formula_units_Z   3
loop_
 _symmetry_equiv_pos_site_id
 _symmetry_equiv_pos_as_xyz
  1  'x, y, z'
loop_
 _atom_site_type_symbol
 _atom_site_label
 _atom_site_symmetry_multiplicity
 _atom_site_fract_x
 _atom_site_fract_y
 _atom_site_fract_z
 _atom_site_occupancy
  Na  Na0  1  0.63436556  0.99899773  0.25184661  1
  Na  Na1  1  0.36463217  0.36563444  0.25184661  1
  Na  Na2  1  0.00100227  0.63536783  0.25184661  1
  Na  Na3  1  0.64302061  0.63294213  0.74345333  1
  Na  Na4  1  0.98992152  0.35697939  0.74345333  1
  Na  Na5  1  0.36705787  0.01007848  0.74345333  1
  Na  Na6  1  0.29801109  0.33395619  0.58118767  1
  Na  Na7  1  0.03594610  0.70198891  0.58118767  1
  Na  Na8  1  0.66604381  0.96405390  0.58118767  1
  Na  Na9  1  0.29707653  0.96501639  0.09124599  1
  Na  Na10  1  0.66794087  0.70292347  0.09124599  1
  Na  Na11  1  0.03498361  0.33205913  0.09124599  1
  Na  Na12  1  0.97202202  0.67617208  0.91526528  1
  Na  Na13  1  0.70414906  0.02797798  0.91526528  1
  Na  Na14  1  0.32382792  0.29585094  0.91526528  1
  Na  Na15  1  0.97635499  0.29897721  0.40962489  1
  Na  Na16  1  0.32262121  0.02364501  0.40962489  1
  Na  Na17  1  0.70102279  0.67737879  0.40962489  1
  Na  Na18  1  0.00000000  0.00000000  0.49694199  1
  Na  Na19  1  0.00000000  0.00000000  0.00502812  1
  Na  Na20  1  0.66666700  0.33333300  0.82750389  1
  Na  Na21  1  0.66666700  0.33333300  0.32557975  1
  Na  Na22  1  0.33333300  0.66666700  0.17286788  1
  Na  Na23  1  0.33333300  0.66666700  0.65800591  1
  Mg  Mg24  1  0.00000000  0.00000000  0.34605841  1
  Mg  Mg25  1  0.00000000  0.00000000  0.84788817  1
  Mg  Mg26  1  0.00000000  0.00000000  0.64894549  1
  Mg  Mg27  1  0.00000000  0.00000000  0.15542027  1
  Mg  Mg28  1  0.66666700  0.33333300  0.68123510  1
  Mg  Mg29  1  0.66666700  0.33333300  0.18606292  1
  Mg  Mg30  1  0.33333300  0.66666700  0.01947556  1
  Mg  Mg31  1  0.33333300  0.66666700  0.51410804  1
  Mg  Mg32  1  0.33333300  0.66666700  0.31555578  1
  Zr  Zr33  1  0.66666700  0.33333300  0.98589578  1
  Zr  Zr34  1  0.66666700  0.33333300  0.48172563  1
  Zr  Zr35  1  0.33333300  0.66666700  0.81416059  1
  P  P36  1  0.29536143  0.99960784  0.24976365  1
  P  P37  1  0.70424641  0.70463857  0.24976365  1
  P  P38  1  0.00039216  0.29575359  0.24976365  1
  P  P39  1  0.29370410  0.28938154  0.75038386  1
  P  P40  1  0.99567744  0.70629590  0.75038386  1
  P  P41  1  0.71061846  0.00432256  0.75038386  1
  P  P42  1  0.96502400  0.33408402  0.58621118  1
  P  P43  1  0.36906102  0.03497600  0.58621118  1
  P  P44  1  0.66591598  0.63093898  0.58621118  1
  P  P45  1  0.96574107  0.63149636  0.08528041  1
  P  P46  1  0.66575630  0.03425893  0.08528041  1
  P  P47  1  0.36850364  0.33424370  0.08528041  1
  P  P48  1  0.63007952  0.67017552  0.91843080  1
  P  P49  1  0.04009500  0.36992048  0.91843080  1
  P  P50  1  0.32982448  0.95990500  0.91843080  1
  P  P51  1  0.62698717  0.95605224  0.41698745  1
  P  P52  1  0.32906407  0.37301283  0.41698745  1
  P  P53  1  0.04394776  0.67093593  0.41698745  1
  O  O54  1  0.21340922  0.02899189  0.30572895  1
  O  O55  1  0.81558267  0.78659078  0.30572895  1
  O  O56  1  0.97100811  0.18441733  0.30572895  1
  O  O57  1  0.21366401  0.18573780  0.80761473  1
  O  O58  1  0.97207379  0.78633599  0.80761473  1
  O  O59  1  0.81426220  0.02792621  0.80761473  1
  O  O60  1  0.78670570  0.96728882  0.69497458  1
  O  O61  1  0.18058311  0.21329430  0.69497458  1
  O  O62  1  0.03271118  0.81941689  0.69497458  1
  O  O63  1  0.78489656  0.81459956  0.19284307  1
  O  O64  1  0.02970299  0.21510344  0.19284307  1
  O  O65  1  0.18540044  0.97029701  0.19284307  1
  O  O66  1  0.88037042  0.36250563  0.64138941  1
  O  O67  1  0.48213621  0.11962958  0.64138941  1
  O  O68  1  0.63749437  0.51786379  0.64138941  1
  O  O69  1  0.87612015  0.51336517  0.13761872  1
  O  O70  1  0.63724602  0.12387985  0.13761872  1
  O  O71  1  0.48663483  0.36275398  0.13761872  1
  O  O72  1  0.45543118  0.30677204  0.02642334  1
  O  O73  1  0.85134186  0.54456882  0.02642334  1
  O  O74  1  0.69322796  0.14865814  0.02642334  1
  O  O75  1  0.45846369  0.15138702  0.52996247  1
  O  O76  1  0.69292434  0.54153631  0.52996247  1
  O  O77  1  0.84861298  0.30707566  0.52996247  1
  O  O78  1  0.54346616  0.69434472  0.97239786  1
  O  O79  1  0.15087757  0.45653384  0.97239786  1
  O  O80  1  0.30565528  0.84912243  0.97239786  1
  O  O81  1  0.54695995  0.85208101  0.47438130  1
  O  O82  1  0.30512005  0.45304005  0.47438130  1
  O  O83  1  0.14791899  0.69487995  0.47438130  1
  O  O84  1  0.11948823  0.63376627  0.36177710  1
  O  O85  1  0.51427704  0.88051177  0.36177710  1
  O  O86  1  0.36623373  0.48572296  0.36177710  1
  O  O87  1  0.12213499  0.48422488  0.86129476  1
  O  O88  1  0.36208889  0.87786501  0.86129476  1
  O  O89  1  0.51577512  0.63791111  0.86129476  1
  O  O90  1  0.01736838  0.82591851  0.41175593  1
  O  O91  1  0.80855013  0.98263162  0.41175593  1
  O  O92  1  0.17408149  0.19144987  0.41175593  1
  O  O93  1  0.01769333  0.19135808  0.91082838  1
  O  O94  1  0.17366474  0.98230667  0.91082838  1
  O  O95  1  0.80864192  0.82633526  0.91082838  1
  O  O96  1  0.97829392  0.17106972  0.58915633  1
  O  O97  1  0.19277579  0.02170608  0.58915633  1
  O  O98  1  0.82893028  0.80722421  0.58915633  1
  O  O99  1  0.97847740  0.80746170  0.08676998  1
  O  O100  1  0.82898430  0.02152260  0.08676998  1
  O  O101  1  0.19253830  0.17101570  0.08676998  1
  O  O102  1  0.68425776  0.15937445  0.74529888  1
  O  O103  1  0.47511769  0.31574224  0.74529888  1
  O  O104  1  0.84062555  0.52488231  0.74529888  1
  O  O105  1  0.68576432  0.52436858  0.24426995  1
  O  O106  1  0.83860526  0.31423568  0.24426995  1
  O  O107  1  0.47563142  0.16139474  0.24426995  1
  O  O108  1  0.64511237  0.50428484  0.92090067  1
  O  O109  1  0.85917347  0.35488763  0.92090067  1
  O  O110  1  0.49571516  0.14082653  0.92090067  1
  O  O111  1  0.64686800  0.14135227  0.42358013  1
  O  O112  1  0.49448527  0.35313200  0.42358013  1
  O  O113  1  0.85864773  0.50551473  0.42358013  1
  O  O114  1  0.35301813  0.49457380  0.07664482  1
  O  O115  1  0.14155466  0.64698187  0.07664482  1
  O  O116  1  0.50542620  0.85844534  0.07664482  1
  O  O117  1  0.35261200  0.85795959  0.57893926  1
  O  O118  1  0.50534659  0.64738800  0.57893926  1
  O  O119  1  0.14204041  0.49465341  0.57893926  1
  O  O120  1  0.31423175  0.83836321  0.25518406  1
  O  O121  1  0.52413047  0.68576825  0.25518406  1
  O  O122  1  0.16163679  0.47586953  0.25518406  1
  O  O123  1  0.31360634  0.47450417  0.75643112  1
  O  O124  1  0.16089684  0.68639366  0.75643112  1
  O  O125  1  0.52549583  0.83910316  0.75643112  1
