# generated using pymatgen
data_NaY2P(SO6)2
_symmetry_space_group_name_H-M   'P 1'
_cell_length_a   9.13131658
_cell_length_b   9.13217751
_cell_length_c   24.35770095
_cell_angle_alpha   89.99325868
_cell_angle_beta   89.99999598
_cell_angle_gamma   119.99716653
_symmetry_Int_Tables_number   1
_chemical_formula_structural   NaY2P(SO6)2
_chemical_formula_sum   'Na6 Y12 P6 S12 O72'
_cell_volume   1759.08597391
_cell_formula_units_Z   6
loop_
 _symmetry_equiv_pos_site_id
 _symmetry_equiv_pos_as_xyz
  1  'x, y, z'
loop_
 _atom_site_type_symbol
 _atom_site_label
 _atom_site_symmetry_multiplicity
 _atom_site_fract_x
 _atom_site_fract_y
 _atom_site_fract_z
 _atom_site_occupancy
  Na  Na0  1  0.97483018  0.98422439  0.49977048  1
  Na  Na1  1  0.00940946  0.98419898  0.99977020  1
  Na  Na2  1  0.65579613  0.30657844  0.83335245  1
  Na  Na3  1  0.65077919  0.30657923  0.33335233  1
  Na  Na4  1  0.31604715  0.67412152  0.16676568  1
  Na  Na5  1  0.35806864  0.67411380  0.66676473  1
  Y  Y6  1  0.00207948  0.00056847  0.35085142  1
  Y  Y7  1  0.99848638  0.00056775  0.85085143  1
  Y  Y8  1  0.98559742  0.99187370  0.64876669  1
  Y  Y9  1  0.00627618  0.99187511  0.14876695  1
  Y  Y10  1  0.66602428  0.33291934  0.68438219  1
  Y  Y11  1  0.66689598  0.33292027  0.18438213  1
  Y  Y12  1  0.66729870  0.33362520  0.98233308  1
  Y  Y13  1  0.66632587  0.33362574  0.48233238  1
  Y  Y14  1  0.32405535  0.67401632  0.01771413  1
  Y  Y15  1  0.34996088  0.67401680  0.51771387  1
  Y  Y16  1  0.33979383  0.68211880  0.31577978  1
  Y  Y17  1  0.34232277  0.68211658  0.81577983  1
  P  P18  1  0.29962005  0.00267292  0.25040847  1
  P  P19  1  0.70304916  0.00266965  0.75040825  1
  P  P20  1  0.66687669  0.62769336  0.58341319  1
  P  P21  1  0.96081798  0.62769518  0.08341306  1
  P  P22  1  0.33299390  0.96885792  0.91657465  1
  P  P23  1  0.63586410  0.96885880  0.41657442  1
  S  S24  1  0.70267008  0.70285321  0.25001658  1
  S  S25  1  0.00175656  0.29664571  0.24961749  1
  S  S26  1  0.29489264  0.29664576  0.74961957  1
  S  S27  1  0.00018275  0.70285341  0.75001776  1
  S  S28  1  0.96575634  0.33575511  0.58303298  1
  S  S29  1  0.36755952  0.03626169  0.58355259  1
  S  S30  1  0.66870547  0.03626445  0.08355172  1
  S  S31  1  0.36999957  0.33576033  0.08303332  1
  S  S32  1  0.62813262  0.66610976  0.91743139  1
  S  S33  1  0.03874503  0.37145181  0.91604857  1
  S  S34  1  0.33270567  0.37145616  0.41604756  1
  S  S35  1  0.03797830  0.66611218  0.41742966  1
  O  O36  1  0.20952435  0.01739255  0.30208036  1
  O  O37  1  0.80294422  0.78662066  0.29967981  1
  O  O38  1  0.98209047  0.19489828  0.29944100  1
  O  O39  1  0.21280902  0.19489838  0.79944141  1
  O  O40  1  0.98367645  0.78662103  0.79967894  1
  O  O41  1  0.80786572  0.01739065  0.80207919  1
  O  O42  1  0.79154237  0.98590240  0.69850720  1
  O  O43  1  0.19593025  0.21168810  0.69991062  1
  O  O44  1  0.02112176  0.80511649  0.70039558  1
  O  O45  1  0.78399170  0.80511353  0.20039649  1
  O  O46  1  0.01576008  0.21169057  0.19991148  1
  O  O47  1  0.19436093  0.98590404  0.19850862  1
  O  O48  1  0.88160257  0.35094590  0.63285992  1
  O  O49  1  0.47090232  0.11780239  0.63303208  1
  O  O50  1  0.65313282  0.52416923  0.63532499  1
  O  O51  1  0.87103789  0.52417149  0.13532620  1
  O  O52  1  0.64690322  0.11780485  0.13303286  1
  O  O53  1  0.46934804  0.35095483  0.13286066  1
  O  O54  1  0.45175332  0.31387965  0.03359738  1
  O  O55  1  0.85768996  0.53811103  0.03141959  1
  O  O56  1  0.68418529  0.13570118  0.03374848  1
  O  O57  1  0.45151603  0.13569602  0.53374685  1
  O  O58  1  0.68041878  0.53810783  0.53141859  1
  O  O59  1  0.86211930  0.31387217  0.53359579  1
  O  O60  1  0.54336277  0.68132143  0.96695230  1
  O  O61  1  0.13909157  0.45315390  0.96599684  1
  O  O62  1  0.31502095  0.86220593  0.96826863  1
  O  O63  1  0.54718446  0.86220901  0.46826911  1
  O  O64  1  0.31406216  0.45315714  0.46599727  1
  O  O65  1  0.13796203  0.68132423  0.46695241  1
  O  O66  1  0.11932263  0.64722935  0.36740201  1
  O  O67  1  0.52849198  0.87966853  0.36508175  1
  O  O68  1  0.34775771  0.47113703  0.36645571  1
  O  O69  1  0.12337666  0.47113704  0.86645505  1
  O  O70  1  0.35117395  0.87966612  0.86508084  1
  O  O71  1  0.52790136  0.64722557  0.86740265  1
  O  O72  1  0.02174966  0.82001193  0.41323279  1
  O  O73  1  0.81273967  0.98543189  0.41205013  1
  O  O74  1  0.18116228  0.19991630  0.41248956  1
  O  O75  1  0.01875234  0.19991618  0.91248872  1
  O  O76  1  0.17268844  0.98542752  0.91205005  1
  O  O77  1  0.79826129  0.82000807  0.91323335  1
  O  O78  1  0.98646308  0.18438347  0.58722318  1
  O  O79  1  0.19943964  0.02244448  0.58839696  1
  O  O80  1  0.82669309  0.80638877  0.58628707  1
  O  O81  1  0.97969810  0.80639085  0.08628752  1
  O  O82  1  0.82300839  0.02244643  0.08839722  1
  O  O83  1  0.19792142  0.18438889  0.08722413  1
  O  O84  1  0.68399108  0.16158377  0.74628988  1
  O  O85  1  0.46664865  0.31593258  0.74604407  1
  O  O86  1  0.84594872  0.53387610  0.74571457  1
  O  O87  1  0.68792668  0.53387423  0.24571480  1
  O  O88  1  0.84928386  0.31593168  0.24604290  1
  O  O89  1  0.47759414  0.16158615  0.24629081  1
  O  O90  1  0.64842445  0.51476671  0.92108564  1
  O  O91  1  0.86852354  0.35498385  0.92013827  1
  O  O92  1  0.49352789  0.14561957  0.92098795  1
  O  O93  1  0.65209272  0.14562301  0.42098768  1
  O  O94  1  0.48646227  0.35498953  0.42013855  1
  O  O95  1  0.86634234  0.51476896  0.42108524  1
  O  O96  1  0.35595596  0.48993833  0.07814902  1
  O  O97  1  0.13950750  0.64641488  0.08058414  1
  O  O98  1  0.51750409  0.86428225  0.07931000  1
  O  O99  1  0.34677655  0.86427929  0.57931018  1
  O  O100  1  0.50690524  0.64641070  0.58058342  1
  O  O101  1  0.13397592  0.48993097  0.57814777  1
  O  O102  1  0.31570850  0.84130966  0.25343639  1
  O  O103  1  0.53078247  0.68139561  0.25431525  1
  O  O104  1  0.15543585  0.46603683  0.25430109  1
  O  O105  1  0.31060152  0.46603542  0.75430182  1
  O  O106  1  0.15061500  0.68140129  0.75431498  1
  O  O107  1  0.52559824  0.84130752  0.75343524  1
