# generated using pymatgen
data_MgMn5O9F
_symmetry_space_group_name_H-M   'P 1'
_cell_length_a   5.25864103
_cell_length_b   5.14192444
_cell_length_c   8.10539816
_cell_angle_alpha   108.97922548
_cell_angle_beta   77.51385530
_cell_angle_gamma   78.87444721
_symmetry_Int_Tables_number   1
_chemical_formula_structural   MgMn5O9F
_chemical_formula_sum   'Mg1 Mn5 O9 F1'
_cell_volume   193.94849825
_cell_formula_units_Z   1
loop_
 _symmetry_equiv_pos_site_id
 _symmetry_equiv_pos_as_xyz
  1  'x, y, z'
loop_
 _atom_site_type_symbol
 _atom_site_label
 _atom_site_symmetry_multiplicity
 _atom_site_fract_x
 _atom_site_fract_y
 _atom_site_fract_z
 _atom_site_occupancy
  Mg  Mg0  1  0.50729200  0.80630500  0.10945500  1
  Mn  Mn1  1  0.97263200  0.19929200  0.40355400  1
  Mn  Mn2  1  0.00561300  0.00749300  0.00689800  1
  Mn  Mn3  1  0.01520800  0.59833700  0.19881100  1
  Mn  Mn4  1  0.96814000  0.79608200  0.59566100  1
  Mn  Mn5  1  0.01169400  0.40544100  0.79247200  1
  O  O6  1  0.20297200  0.19774700  0.16530600  1
  O  O7  1  0.21043500  0.81198900  0.33697900  1
  O  O8  1  0.16530500  0.41118300  0.55644400  1
  O  O9  1  0.23178200  0.63543500  0.98515800  1
  O  O10  1  0.82206100  0.40963000  0.03311600  1
  O  O11  1  0.77925200  0.96841800  0.25069100  1
  O  O12  1  0.79760700  0.57809300  0.42087300  1
  O  O13  1  0.79284300  0.17334700  0.62437800  1
  O  O14  1  0.79470500  0.80726900  0.87300900  1
  F  F15  1  0.21960000  0.99417500  0.73558800  1
