# generated using pymatgen
data_NbAl3P2(SO6)4
_symmetry_space_group_name_H-M   'P 1'
_cell_length_a   8.41992103
_cell_length_b   8.42917306
_cell_length_c   21.82231964
_cell_angle_alpha   89.70253549
_cell_angle_beta   90.21827223
_cell_angle_gamma   119.87115649
_symmetry_Int_Tables_number   1
_chemical_formula_structural   NbAl3P2(SO6)4
_chemical_formula_sum   'Nb3 Al9 P6 S12 O72'
_cell_volume   1343.01429307
_cell_formula_units_Z   3
loop_
 _symmetry_equiv_pos_site_id
 _symmetry_equiv_pos_as_xyz
  1  'x, y, z'
loop_
 _atom_site_type_symbol
 _atom_site_label
 _atom_site_symmetry_multiplicity
 _atom_site_fract_x
 _atom_site_fract_y
 _atom_site_fract_z
 _atom_site_occupancy
  Nb  Nb0  1  0.66683745  0.33235466  0.97334213  1
  Nb  Nb1  1  0.31919969  0.65821602  0.31042633  1
  Nb  Nb2  1  0.33909640  0.67228333  0.80683876  1
  Al  Al3  1  0.99627883  0.00007373  0.35626277  1
  Al  Al4  1  0.99375523  0.00316487  0.85634379  1
  Al  Al5  1  0.99278763  0.99723679  0.64363369  1
  Al  Al6  1  0.00125038  0.00573462  0.14519784  1
  Al  Al7  1  0.66666303  0.32807497  0.68694613  1
  Al  Al8  1  0.67272671  0.33418949  0.18826383  1
  Al  Al9  1  0.67217150  0.33753236  0.48078211  1
  Al  Al10  1  0.33219653  0.66578980  0.01925986  1
  Al  Al11  1  0.32884358  0.67121268  0.52311117  1
  P  P12  1  0.98467885  0.26787030  0.24858145  1
  P  P13  1  0.73131972  0.01632098  0.74737366  1
  P  P14  1  0.62531469  0.68306860  0.91861893  1
  P  P15  1  0.05975768  0.37659420  0.91789013  1
  P  P16  1  0.31467363  0.94241139  0.91791269  1
  P  P17  1  0.03640116  0.66992438  0.42171339  1
  S  S18  1  0.28731033  0.01194630  0.24816536  1
  S  S19  1  0.72161752  0.71306048  0.24844589  1
  S  S20  1  0.28657310  0.27506532  0.74755048  1
  S  S21  1  0.98723383  0.71319936  0.74754197  1
  S  S22  1  0.95567195  0.33360546  0.58343800  1
  S  S23  1  0.37821309  0.04680920  0.58318040  1
  S  S24  1  0.66510864  0.62030546  0.58334452  1
  S  S25  1  0.96185322  0.62886774  0.08609086  1
  S  S26  1  0.66392849  0.03692854  0.08617830  1
  S  S27  1  0.37450587  0.33446213  0.08634387  1
  S  S28  1  0.62554556  0.95919814  0.41970049  1
  S  S29  1  0.33309610  0.37184283  0.42040668  1
  O  O30  1  0.20706299  0.03629672  0.30421900  1
  O  O31  1  0.83084369  0.79209606  0.30421003  1
  O  O32  1  0.96520948  0.16088065  0.30719166  1
  O  O33  1  0.20849151  0.16881306  0.80379605  1
  O  O34  1  0.96408186  0.79329647  0.80378107  1
  O  O35  1  0.83819696  0.03700404  0.80588399  1
  O  O36  1  0.80654537  0.96990606  0.69123017  1
  O  O37  1  0.17100565  0.19689157  0.69300946  1
  O  O38  1  0.02973196  0.83086363  0.69301443  1
  O  O39  1  0.80035802  0.82819288  0.19385193  1
  O  O40  1  0.03098259  0.19388356  0.19240753  1
  O  O41  1  0.17033928  0.96899035  0.19389976  1
  O  O42  1  0.87388246  0.37006256  0.63773110  1
  O  O43  1  0.49551899  0.12941454  0.63779014  1
  O  O44  1  0.63159527  0.50337214  0.63827266  1
  O  O45  1  0.87252156  0.50704967  0.13955356  1
  O  O46  1  0.63165340  0.12592696  0.13940788  1
  O  O47  1  0.49547912  0.36525348  0.14001496  1
  O  O48  1  0.45663293  0.29920294  0.03091391  1
  O  O49  1  0.84361148  0.54759188  0.03065336  1
  O  O50  1  0.70195207  0.15633885  0.03077170  1
  O  O51  1  0.46156845  0.16325612  0.52808084  1
  O  O52  1  0.69898475  0.53727676  0.52861802  1
  O  O53  1  0.83738154  0.29730083  0.52871239  1
  O  O54  1  0.53558994  0.70469861  0.97538586  1
  O  O55  1  0.16840018  0.46490753  0.97553178  1
  O  O56  1  0.29440777  0.83193012  0.97509083  1
  O  O57  1  0.54005486  0.83684059  0.47271298  1
  O  O58  1  0.30001663  0.46097733  0.47246510  1
  O  O59  1  0.16996528  0.70343455  0.47378307  1
  O  O60  1  0.12864047  0.63305561  0.36196805  1
  O  O61  1  0.50952412  0.87689623  0.36300001  1
  O  O62  1  0.37109968  0.49079327  0.36304915  1
  O  O63  1  0.13101934  0.49859537  0.86014251  1
  O  O64  1  0.36637261  0.86965144  0.86030568  1
  O  O65  1  0.50191487  0.63184718  0.86065570  1
  O  O66  1  0.02508919  0.83871631  0.40470844  1
  O  O67  1  0.80517525  0.97472267  0.40907972  1
  O  O68  1  0.16964612  0.19472791  0.40852991  1
  O  O69  1  0.03136394  0.18925756  0.90773135  1
  O  O70  1  0.15730168  0.97160039  0.90453754  1
  O  O71  1  0.81311548  0.83905115  0.90715470  1
  O  O72  1  0.97621818  0.17105840  0.59218670  1
  O  O73  1  0.19502051  0.02627438  0.59246034  1
  O  O74  1  0.82992241  0.80190830  0.59152537  1
  O  O75  1  0.97749098  0.80914369  0.09497861  1
  O  O76  1  0.82893659  0.02082755  0.09401993  1
  O  O77  1  0.19487726  0.16841758  0.09375431  1
  O  O78  1  0.69708517  0.17561077  0.73818429  1
  O  O79  1  0.47242705  0.30450433  0.73928169  1
  O  O80  1  0.82870058  0.52988722  0.73897443  1
  O  O81  1  0.69494216  0.52830634  0.23976246  1
  O  O82  1  0.82621318  0.30346430  0.23929115  1
  O  O83  1  0.47071331  0.17081842  0.23940700  1
  O  O84  1  0.64007145  0.50545035  0.92614626  1
  O  O85  1  0.86539575  0.35890123  0.92629607  1
  O  O86  1  0.49240005  0.13443554  0.92607525  1
  O  O87  1  0.64076130  0.13872537  0.42787697  1
  O  O88  1  0.49666899  0.35477428  0.42791338  1
  O  O89  1  0.85236456  0.49756554  0.42898094  1
  O  O90  1  0.35838597  0.49798855  0.07707096  1
  O  O91  1  0.14076855  0.64326615  0.07688428  1
  O  O92  1  0.50069618  0.85849016  0.07668112  1
  O  O93  1  0.36220103  0.86501173  0.57467069  1
  O  O94  1  0.50129746  0.63972649  0.57332701  1
  O  O95  1  0.13847269  0.49681756  0.57402061  1
  O  O96  1  0.31054796  0.84564755  0.25553791  1
  O  O97  1  0.53651055  0.69566312  0.25660413  1
  O  O98  1  0.16176117  0.46534721  0.25771233  1
  O  O99  1  0.30355695  0.46076030  0.75427421  1
  O  O100  1  0.15411049  0.69206919  0.75416756  1
  O  O101  1  0.53454236  0.84092867  0.75620058  1
