# generated using pymatgen
data_Na3Zr2Ga2P5SO24
_symmetry_space_group_name_H-M   'P 1'
_cell_length_a   8.78934719
_cell_length_b   8.76929122
_cell_length_c   22.71707509
_cell_angle_alpha   90.22847765
_cell_angle_beta   89.81860604
_cell_angle_gamma   120.18507923
_symmetry_Int_Tables_number   1
_chemical_formula_structural   Na3Zr2Ga2P5SO24
_chemical_formula_sum   'Na9 Zr6 Ga6 P15 S3 O72'
_cell_volume   1513.51711923
_cell_formula_units_Z   3
loop_
 _symmetry_equiv_pos_site_id
 _symmetry_equiv_pos_as_xyz
  1  'x, y, z'
loop_
 _atom_site_type_symbol
 _atom_site_label
 _atom_site_symmetry_multiplicity
 _atom_site_fract_x
 _atom_site_fract_y
 _atom_site_fract_z
 _atom_site_occupancy
  Na  Na0  1  0.00287545  0.36543731  0.75102961  1
  Na  Na1  1  0.66734121  0.96818129  0.58361437  1
  Na  Na2  1  0.03291777  0.33370275  0.08358679  1
  Na  Na3  1  0.00510491  0.99636963  0.50311329  1
  Na  Na4  1  0.00392904  0.99570531  0.00264278  1
  Na  Na5  1  0.65997091  0.32903269  0.83370746  1
  Na  Na6  1  0.67421234  0.33593014  0.33310215  1
  Na  Na7  1  0.34072544  0.67021469  0.16732205  1
  Na  Na8  1  0.33362675  0.66697989  0.66659348  1
  Zr  Zr9  1  0.98744585  0.99207913  0.35461444  1
  Zr  Zr10  1  0.00618326  0.00362931  0.85434982  1
  Zr  Zr11  1  0.66179399  0.33483074  0.68474655  1
  Zr  Zr12  1  0.67035683  0.33760824  0.18547083  1
  Zr  Zr13  1  0.66554928  0.32827110  0.98091798  1
  Zr  Zr14  1  0.67286650  0.33453508  0.48064002  1
  Ga  Ga15  1  0.00480879  0.99781519  0.64967955  1
  Ga  Ga16  1  0.99043272  0.99652638  0.14859174  1
  Ga  Ga17  1  0.32920649  0.67113356  0.01906450  1
  Ga  Ga18  1  0.32806305  0.67118489  0.51891763  1
  Ga  Ga19  1  0.33146238  0.66472829  0.31443601  1
  Ga  Ga20  1  0.33216703  0.67573423  0.81366583  1
  P  P21  1  0.70164998  0.71198088  0.24886326  1
  P  P22  1  0.00918636  0.29584362  0.24905846  1
  P  P23  1  0.28886013  0.29535651  0.74922928  1
  P  P24  1  0.00680757  0.71439706  0.74899030  1
  P  P25  1  0.70449686  0.99011704  0.74887729  1
  P  P26  1  0.97134032  0.33565373  0.58404448  1
  P  P27  1  0.36342109  0.03406390  0.58265285  1
  P  P28  1  0.66548372  0.63356624  0.58257928  1
  P  P29  1  0.96649456  0.63743773  0.08300672  1
  P  P30  1  0.66267299  0.02950189  0.08357517  1
  P  P31  1  0.36725740  0.33338055  0.08351020  1
  P  P32  1  0.05333533  0.38801437  0.91668858  1
  P  P33  1  0.33350782  0.94603449  0.91690004  1
  P  P34  1  0.60922366  0.94496128  0.41693016  1
  P  P35  1  0.05564757  0.66728578  0.41598478  1
  S  S36  1  0.28627564  0.99361070  0.24932643  1
  S  S37  1  0.61354280  0.66593004  0.91663743  1
  S  S38  1  0.33388254  0.38467064  0.41677803  1
  O  O39  1  0.20907591  0.02560318  0.30310013  1
  O  O40  1  0.81930760  0.79174571  0.30401331  1
  O  O41  1  0.97764757  0.17842340  0.30353083  1
  O  O42  1  0.20774443  0.18013519  0.80458432  1
  O  O43  1  0.97187528  0.79281154  0.80456730  1
  O  O44  1  0.82533170  0.03025218  0.80311363  1
  O  O45  1  0.78829225  0.96708186  0.69251181  1
  O  O46  1  0.17033159  0.21049573  0.69539721  1
  O  O47  1  0.03354624  0.82593680  0.69437295  1
  O  O48  1  0.79178793  0.82549437  0.19453928  1
  O  O49  1  0.03449540  0.21190154  0.19268233  1
  O  O50  1  0.18000858  0.96902564  0.19640344  1
  O  O51  1  0.88503699  0.36591020  0.63924553  1
  O  O52  1  0.48736823  0.11931543  0.63641168  1
  O  O53  1  0.63446964  0.51523201  0.63686936  1
  O  O54  1  0.88064915  0.51239341  0.13646725  1
  O  O55  1  0.63360230  0.11894812  0.13757420  1
  O  O56  1  0.48584575  0.36409241  0.13742038  1
  O  O57  1  0.45478171  0.30231179  0.02902758  1
  O  O58  1  0.84792333  0.54768109  0.02889160  1
  O  O59  1  0.70235997  0.15454031  0.02992436  1
  O  O60  1  0.45437567  0.15257501  0.52869066  1
  O  O61  1  0.69677312  0.54485223  0.52864267  1
  O  O62  1  0.84476474  0.29809396  0.53086990  1
  O  O63  1  0.53821873  0.69356107  0.97058667  1
  O  O64  1  0.16036487  0.46491544  0.97336318  1
  O  O65  1  0.30553716  0.83863472  0.97257205  1
  O  O66  1  0.53624008  0.83994925  0.47410566  1
  O  O67  1  0.30566535  0.46062724  0.47049138  1
  O  O68  1  0.16155499  0.69498624  0.47219426  1
  O  O69  1  0.13346349  0.63581898  0.36012043  1
  O  O70  1  0.50215237  0.86277497  0.36111182  1
  O  O71  1  0.36239602  0.48768806  0.36284258  1
  O  O72  1  0.13275035  0.49211259  0.85966201  1
  O  O73  1  0.36553743  0.86935797  0.86072383  1
  O  O74  1  0.51083354  0.63824070  0.86274260  1
  O  O75  1  0.03331983  0.83164392  0.41056582  1
  O  O76  1  0.79873501  0.97222277  0.41190851  1
  O  O77  1  0.17655775  0.20350507  0.41101284  1
  O  O78  1  0.02646095  0.19892820  0.91181463  1
  O  O79  1  0.16979521  0.96855211  0.91179322  1
  O  O80  1  0.79471488  0.82427861  0.91158642  1
  O  O81  1  0.97564112  0.16332551  0.59087391  1
  O  O82  1  0.18446542  0.01993456  0.59104529  1
  O  O83  1  0.83004218  0.81691868  0.59048075  1
  O  O84  1  0.98237745  0.81758318  0.09225536  1
  O  O85  1  0.83522395  0.02481956  0.09039303  1
  O  O86  1  0.18318707  0.16872368  0.09130286  1
  O  O87  1  0.69320287  0.16206609  0.74343582  1
  O  O88  1  0.47222945  0.31257522  0.74396258  1
  O  O89  1  0.84289589  0.52527998  0.74369825  1
  O  O90  1  0.68488888  0.52743085  0.24352124  1
  O  O91  1  0.84045432  0.31043912  0.24368981  1
  O  O92  1  0.46529871  0.15523012  0.24420277  1
  O  O93  1  0.63708344  0.50816531  0.92177707  1
  O  O94  1  0.86636474  0.36504675  0.92207243  1
  O  O95  1  0.49595222  0.13519264  0.92218365  1
  O  O96  1  0.63520646  0.13355153  0.42198043  1
  O  O97  1  0.49178797  0.36226176  0.42201025  1
  O  O98  1  0.86630255  0.50482073  0.42190312  1
  O  O99  1  0.34734902  0.49706338  0.07554172  1
  O  O100  1  0.14363865  0.64238910  0.07622519  1
  O  O101  1  0.49886318  0.84908742  0.07465148  1
  O  O102  1  0.35784275  0.85616309  0.57611596  1
  O  O103  1  0.50186031  0.65239891  0.57523642  1
  O  O104  1  0.15057289  0.50098247  0.57473472  1
  O  O105  1  0.30679112  0.83730004  0.25579970  1
  O  O106  1  0.52016565  0.69309314  0.25778582  1
  O  O107  1  0.17179951  0.48005434  0.25725516  1
  O  O108  1  0.30438376  0.47675044  0.75773116  1
  O  O109  1  0.16559455  0.68607688  0.75582124  1
  O  O110  1  0.52134847  0.82785416  0.75748959  1
