# generated using pymatgen
data_ThB2O5
_symmetry_space_group_name_H-M   'P 1'
_cell_length_a   6.75477583
_cell_length_b   6.75477583
_cell_length_c   10.31939956
_cell_angle_alpha   80.02922088
_cell_angle_beta   80.02922088
_cell_angle_gamma   61.91246261
_symmetry_Int_Tables_number   1
_chemical_formula_structural   ThB2O5
_chemical_formula_sum   'Th4 B8 O20'
_cell_volume   406.83671130
_cell_formula_units_Z   4
loop_
 _symmetry_equiv_pos_site_id
 _symmetry_equiv_pos_as_xyz
  1  'x, y, z'
loop_
 _atom_site_type_symbol
 _atom_site_label
 _atom_site_symmetry_multiplicity
 _atom_site_fract_x
 _atom_site_fract_y
 _atom_site_fract_z
 _atom_site_occupancy
  Th  Th0  1  0.38421258  0.97929985  0.19341412  1
  Th  Th1  1  0.02070015  0.61578742  0.30658588  1
  Th  Th2  1  0.61578742  0.02070015  0.80658588  1
  Th  Th3  1  0.97929985  0.38421258  0.69341412  1
  B  B4  1  0.77067307  0.28051236  0.50004743  1
  B  B5  1  0.56394711  0.16745351  0.35821961  1
  B  B6  1  0.83254649  0.43605289  0.14178039  1
  B  B7  1  0.43605289  0.83254649  0.64178039  1
  B  B8  1  0.16745351  0.56394711  0.85821961  1
  B  B9  1  0.71948764  0.22932693  0.99995257  1
  B  B10  1  0.22932693  0.71948764  0.49995257  1
  B  B11  1  0.28051236  0.77067307  0.00004743  1
  O  O12  1  0.63999804  0.28732242  0.41084848  1
  O  O13  1  0.28732242  0.63999804  0.91084848  1
  O  O14  1  0.36000196  0.71267758  0.58915152  1
  O  O15  1  0.71267758  0.36000196  0.08915152  1
  O  O16  1  0.27705466  0.35630023  0.81137718  1
  O  O17  1  0.64369977  0.72294534  0.68862282  1
  O  O18  1  0.72294534  0.64369977  0.18862282  1
  O  O19  1  0.35630023  0.27705466  0.31137718  1
  O  O20  1  0.05604895  0.31552194  0.15974830  1
  O  O21  1  0.68447806  0.94395105  0.34025170  1
  O  O22  1  0.94395105  0.68447806  0.84025170  1
  O  O23  1  0.31552194  0.05604895  0.65974830  1
  O  O24  1  0.40028799  0.89208948  0.96891828  1
  O  O25  1  0.10791052  0.59971201  0.53108172  1
  O  O26  1  0.59971201  0.10791052  0.03108172  1
  O  O27  1  0.89208948  0.40028799  0.46891828  1
  O  O28  1  0.82712822  0.22034406  0.87427627  1
  O  O29  1  0.77965594  0.17287178  0.62572373  1
  O  O30  1  0.17287178  0.77965594  0.12572373  1
  O  O31  1  0.22034406  0.82712822  0.37427627  1
