# generated using pymatgen
data_Na6Ta3Al5(PO4)12
_symmetry_space_group_name_H-M   'P 1'
_cell_length_a   17.13997863
_cell_length_b   8.56994218
_cell_length_c   22.02761684
_cell_angle_alpha   90.04189234
_cell_angle_beta   89.97396918
_cell_angle_gamma   120.00698597
_symmetry_Int_Tables_number   1
_chemical_formula_structural   Na6Ta3Al5(PO4)12
_chemical_formula_sum   'Na18 Ta9 Al15 P36 O144'
_cell_volume   2801.91927073
_cell_formula_units_Z   3
loop_
 _symmetry_equiv_pos_site_id
 _symmetry_equiv_pos_as_xyz
  1  'x, y, z'
loop_
 _atom_site_type_symbol
 _atom_site_label
 _atom_site_symmetry_multiplicity
 _atom_site_fract_x
 _atom_site_fract_y
 _atom_site_fract_z
 _atom_site_occupancy
  Na  Na0  1  0.68479616  0.36619792  0.24880575  1
  Na  Na1  1  0.99801911  0.62961921  0.24883437  1
  Na  Na2  1  0.99885857  0.36373735  0.74648557  1
  Na  Na3  1  0.49890779  0.36372997  0.74663720  1
  Na  Na4  1  0.18237777  0.99892803  0.74661739  1
  Na  Na5  1  0.68236826  0.99901479  0.74695602  1
  Na  Na6  1  0.00003179  0.99936935  0.50597347  1
  Na  Na7  1  0.49962484  0.99957944  0.50617631  1
  Na  Na8  1  0.99772263  0.99646771  0.00643161  1
  Na  Na9  1  0.50200911  0.00372478  0.00585207  1
  Na  Na10  1  0.33302919  0.34260500  0.83564032  1
  Na  Na11  1  0.83247743  0.34158747  0.83636360  1
  Na  Na12  1  0.33320856  0.33378824  0.33986880  1
  Na  Na13  1  0.83291051  0.32215286  0.33650749  1
  Na  Na14  1  0.16996686  0.66461952  0.17108365  1
  Na  Na15  1  0.66842248  0.68003760  0.17072655  1
  Na  Na16  1  0.17195521  0.66530761  0.66708227  1
  Na  Na17  1  0.67191655  0.66517645  0.66727831  1
  Ta  Ta18  1  0.99889819  0.00246626  0.35594308  1
  Ta  Ta19  1  0.50087738  0.99875204  0.35657984  1
  Ta  Ta20  1  0.99960695  0.99845160  0.85504768  1
  Ta  Ta21  1  0.49987538  0.99854012  0.85537457  1
  Ta  Ta22  1  0.33347158  0.33609215  0.18845147  1
  Ta  Ta23  1  0.16453862  0.66612366  0.02396717  1
  Ta  Ta24  1  0.66927040  0.66722017  0.02471363  1
  Ta  Ta25  1  0.16677975  0.66700847  0.52443307  1
  Ta  Ta26  1  0.66669746  0.66712942  0.52480266  1
  Al  Al27  1  0.99916580  0.99910536  0.64387197  1
  Al  Al28  1  0.49914880  0.99898772  0.64395379  1
  Al  Al29  1  0.99735124  0.99929144  0.14582941  1
  Al  Al30  1  0.50191993  0.00021388  0.14625319  1
  Al  Al31  1  0.33288350  0.33835684  0.68293666  1
  Al  Al32  1  0.83284042  0.33834912  0.68295982  1
  Al  Al33  1  0.83280664  0.32549490  0.18504508  1
  Al  Al34  1  0.33372020  0.33366214  0.97978148  1
  Al  Al35  1  0.83315500  0.33236121  0.98221128  1
  Al  Al36  1  0.33326878  0.33351579  0.48199607  1
  Al  Al37  1  0.83360257  0.33445297  0.48165913  1
  Al  Al38  1  0.16870077  0.66492379  0.31451677  1
  Al  Al39  1  0.66673940  0.67368643  0.31432663  1
  Al  Al40  1  0.16934746  0.66552459  0.81478919  1
  Al  Al41  1  0.66899067  0.66576619  0.81498926  1
  P  P42  1  0.14195052  0.99366858  0.24850346  1
  P  P43  1  0.64551181  0.99459319  0.24660652  1
  P  P44  1  0.35436099  0.72104787  0.24791251  1
  P  P45  1  0.85308526  0.71181491  0.24681672  1
  P  P46  1  0.00072323  0.29050758  0.24618782  1
  P  P47  1  0.50306180  0.29062614  0.24880198  1
  P  P48  1  0.14710480  0.29555000  0.74689201  1
  P  P49  1  0.64713531  0.29568739  0.74689448  1
  P  P50  1  0.99824010  0.70733518  0.74660543  1
  P  P51  1  0.49820345  0.70746320  0.74661295  1
  P  P52  1  0.35316025  0.99409085  0.74664109  1
  P  P53  1  0.85306173  0.99410159  0.74651204  1
  P  P54  1  0.47075034  0.32170366  0.58471847  1
  P  P55  1  0.97083756  0.32205923  0.58465447  1
  P  P56  1  0.19007267  0.05854547  0.58480819  1
  P  P57  1  0.69019251  0.05896484  0.58471505  1
  P  P58  1  0.33920147  0.61955483  0.58395669  1
  P  P59  1  0.83926341  0.61941387  0.58392122  1
  P  P60  1  0.47420283  0.62649709  0.08085271  1
  P  P61  1  0.96948447  0.61947657  0.08501186  1
  P  P62  1  0.33967166  0.05319611  0.08137160  1
  P  P63  1  0.83980933  0.06069199  0.08397412  1
  P  P64  1  0.18642555  0.32041004  0.08095439  1
  P  P65  1  0.69050589  0.32058028  0.08501373  1
  P  P66  1  0.30703803  0.65540674  0.91593672  1
  P  P67  1  0.80760057  0.65424907  0.91538797  1
  P  P68  1  0.01969353  0.38435511  0.91467546  1
  P  P69  1  0.52061527  0.38574842  0.91516553  1
  P  P70  1  0.17238431  0.96010996  0.91466489  1
  P  P71  1  0.67263738  0.95910871  0.91536045  1
  P  P72  1  0.30673693  0.95857521  0.41519549  1
  P  P73  1  0.80626885  0.95912023  0.41575114  1
  P  P74  1  0.17278312  0.38639582  0.41552742  1
  P  P75  1  0.67296154  0.38697050  0.41482450  1
  P  P76  1  0.02021902  0.65562995  0.41476383  1
  P  P77  1  0.52074407  0.65326495  0.41547997  1
  O  O78  1  0.10125203  0.02978730  0.30619053  1
  O  O79  1  0.60211411  0.03427548  0.30442360  1
  O  O80  1  0.41361652  0.79942289  0.30569956  1
  O  O81  1  0.91483703  0.79632254  0.30454520  1
  O  O82  1  0.48505087  0.17242821  0.30620501  1
  O  O83  1  0.98482629  0.17235299  0.30489923  1
  O  O84  1  0.10322578  0.17076046  0.80490185  1
  O  O85  1  0.60311782  0.17069533  0.80495256  1
  O  O86  1  0.48371779  0.79509480  0.80548247  1
  O  O87  1  0.98380776  0.79505754  0.80543803  1
  O  O88  1  0.41468919  0.03258191  0.80479156  1
  O  O89  1  0.91467958  0.03272613  0.80466080  1
  O  O90  1  0.39952146  0.96622182  0.69285061  1
  O  O91  1  0.89962001  0.96624177  0.69285715  1
  O  O92  1  0.08285648  0.20526967  0.69395481  1
  O  O93  1  0.58285880  0.20535515  0.69390728  1
  O  O94  1  0.01900112  0.83674805  0.69395443  1
  O  O95  1  0.51892839  0.83663257  0.69394670  1
  O  O96  1  0.39981515  0.83364800  0.19231167  1
  O  O97  1  0.89899895  0.83078405  0.19245294  1
  O  O98  1  0.01661145  0.20013303  0.19220627  1
  O  O99  1  0.51827404  0.20233663  0.19365796  1
  O  O100  1  0.08261770  0.96294170  0.19351554  1
  O  O101  1  0.58466055  0.96636899  0.19238194  1
  O  O102  1  0.43427237  0.36096864  0.64341348  1
  O  O103  1  0.93428613  0.36095951  0.64340703  1
  O  O104  1  0.24642680  0.13110151  0.64344077  1
  O  O105  1  0.74642094  0.13120690  0.64339288  1
  O  O106  1  0.31829762  0.50311953  0.64092256  1
  O  O107  1  0.81828405  0.50307575  0.64091232  1
  O  O108  1  0.43386951  0.50686957  0.13890501  1
  O  O109  1  0.93378243  0.50663793  0.14305667  1
  O  O110  1  0.31990794  0.13408170  0.13914424  1
  O  O111  1  0.81824512  0.13418439  0.14049813  1
  O  O112  1  0.24648434  0.36103453  0.13895774  1
  O  O113  1  0.74688326  0.36141495  0.14307232  1
  O  O114  1  0.23313763  0.29997050  0.02559270  1
  O  O115  1  0.73352972  0.29961197  0.02748157  1
  O  O116  1  0.41710170  0.53376968  0.02559921  1
  O  O117  1  0.91634511  0.53253872  0.02745785  1
  O  O118  1  0.34995543  0.16565035  0.02566986  1
  O  O119  1  0.85039268  0.16572068  0.02587943  1
  O  O120  1  0.23397117  0.16765775  0.52789815  1
  O  O121  1  0.73398217  0.16783715  0.52783395  1
  O  O122  1  0.35016042  0.53467773  0.52631573  1
  O  O123  1  0.85011808  0.53475483  0.52623980  1
  O  O124  1  0.41628048  0.30079749  0.52780980  1
  O  O125  1  0.91629045  0.30087929  0.52783191  1
  O  O126  1  0.26674717  0.69444411  0.97309198  1
  O  O127  1  0.76805943  0.69483289  0.97268604  1
  O  O128  1  0.08072949  0.46745565  0.97138763  1
  O  O129  1  0.58105877  0.46815826  0.97166405  1
  O  O130  1  0.15328169  0.83915268  0.97145758  1
  O  O131  1  0.65323370  0.83733410  0.97164225  1
  O  O132  1  0.26696465  0.83932066  0.47261935  1
  O  O133  1  0.76672082  0.83976610  0.47301708  1
  O  O134  1  0.15297888  0.46634137  0.47282895  1
  O  O135  1  0.65315843  0.46913175  0.47148493  1
  O  O136  1  0.08105735  0.69409930  0.47142638  1
  O  O137  1  0.58026258  0.69413598  0.47290318  1
  O  O138  1  0.06435018  0.63486134  0.35713751  1
  O  O139  1  0.56597174  0.63253948  0.35930675  1
  O  O140  1  0.25043240  0.86747503  0.35910098  1
  O  O141  1  0.75087018  0.86836228  0.35945585  1
  O  O142  1  0.18326918  0.49774937  0.35919290  1
  O  O143  1  0.68248701  0.49410133  0.35704645  1
  O  O144  1  0.06458453  0.49444316  0.85736218  1
  O  O145  1  0.56434400  0.49428263  0.85738007  1
  O  O146  1  0.18233780  0.87084077  0.85720441  1
  O  O147  1  0.68215772  0.87057963  0.85730582  1
  O  O148  1  0.25087825  0.63377492  0.85968939  1
  O  O149  1  0.75094746  0.63336313  0.85942046  1
  O  O150  1  0.01214051  0.83011935  0.40928209  1
  O  O151  1  0.51274604  0.82848824  0.40969079  1
  O  O152  1  0.40234653  0.97499122  0.40937125  1
  O  O153  1  0.90179382  0.97516396  0.40987097  1
  O  O154  1  0.08527378  0.19555998  0.40981609  1
  O  O155  1  0.58544851  0.19558444  0.40975708  1
  O  O156  1  0.01247689  0.19471009  0.90920095  1
  O  O157  1  0.51234968  0.19496424  0.90936315  1
  O  O158  1  0.08517277  0.97565182  0.90974935  1
  O  O159  1  0.58514029  0.97511521  0.90979756  1
  O  O160  1  0.40232738  0.82981322  0.90984732  1
  O  O161  1  0.90264655  0.82965924  0.90938319  1
  O  O162  1  0.48552442  0.16093159  0.59166414  1
  O  O163  1  0.98558232  0.16113067  0.59168079  1
  O  O164  1  0.09510305  0.02979406  0.59215403  1
  O  O165  1  0.59511840  0.02987849  0.59211600  1
  O  O166  1  0.41987742  0.80952309  0.59153645  1
  O  O167  1  0.91985570  0.80955840  0.59150974  1
  O  O168  1  0.48565351  0.81170938  0.09051081  1
  O  O169  1  0.98583880  0.81078343  0.09171936  1
  O  O170  1  0.42044327  0.02915012  0.09116403  1
  O  O171  1  0.91957517  0.02948396  0.09087494  1
  O  O172  1  0.09407157  0.15928990  0.09069011  1
  O  O173  1  0.59476428  0.16064697  0.09176842  1
  O  O174  1  0.34418098  0.16550593  0.74270194  1
  O  O175  1  0.84422270  0.16561462  0.74266015  1
  O  O176  1  0.23928663  0.30792064  0.74193103  1
  O  O177  1  0.73923184  0.30797694  0.74188833  1
  O  O178  1  0.41545406  0.51823609  0.74172566  1
  O  O179  1  0.91546509  0.51826172  0.74173814  1
  O  O180  1  0.34554104  0.52957539  0.24283876  1
  O  O181  1  0.84439312  0.52225148  0.24243286  1
  O  O182  1  0.41763005  0.30950509  0.24363184  1
  O  O183  1  0.91663031  0.31237700  0.24170069  1
  O  O184  1  0.23680312  0.16487852  0.24340624  1
  O  O185  1  0.73828086  0.16854767  0.24190376  1
  O  O186  1  0.31939004  0.49382228  0.92438684  1
  O  O187  1  0.81969626  0.49329788  0.92454772  1
  O  O188  1  0.42739623  0.36158729  0.92375495  1
  O  O189  1  0.92728675  0.36169850  0.92381930  1
  O  O190  1  0.25369111  0.14574572  0.92359058  1
  O  O191  1  0.75333539  0.14521889  0.92397063  1
  O  O192  1  0.31940356  0.14514456  0.42455228  1
  O  O193  1  0.81927469  0.14572549  0.42487699  1
  O  O194  1  0.25336392  0.36091714  0.42457686  1
  O  O195  1  0.75348334  0.36148318  0.42388961  1
  O  O196  1  0.42719952  0.49241693  0.42450686  1
  O  O197  1  0.92745437  0.49310369  0.42392281  1
  O  O198  1  0.17884637  0.49557919  0.07656402  1
  O  O199  1  0.67969091  0.49519949  0.07716307  1
  O  O200  1  0.06793177  0.64058708  0.07679139  1
  O  O201  1  0.56901387  0.64199498  0.07663976  1
  O  O202  1  0.25194737  0.86269701  0.07678811  1
  O  O203  1  0.75246569  0.86376846  0.07649707  1
  O  O204  1  0.17968588  0.86385287  0.57758866  1
  O  O205  1  0.67980838  0.86398639  0.57769076  1
  O  O206  1  0.25232056  0.64142762  0.57699036  1
  O  O207  1  0.75226300  0.64086314  0.57693127  1
  O  O208  1  0.06816616  0.49646137  0.57754206  1
  O  O209  1  0.56813828  0.49569381  0.57759652  1
  O  O210  1  0.15207216  0.82729386  0.25732552  1
  O  O211  1  0.65377877  0.82794222  0.25763115  1
  O  O212  1  0.26048615  0.69461078  0.25716992  1
  O  O213  1  0.75904019  0.68722002  0.25702634  1
  O  O214  1  0.08366404  0.47961112  0.25665136  1
  O  O215  1  0.58623173  0.47679670  0.25742081  1
  O  O216  1  0.15343757  0.47877642  0.75813024  1
  O  O217  1  0.65344172  0.47891095  0.75812695  1
  O  O218  1  0.08335376  0.68889603  0.75690322  1
  O  O219  1  0.58324966  0.68882649  0.75681680  1
  O  O220  1  0.25880958  0.83013103  0.75720031  1
  O  O221  1  0.75877377  0.83007058  0.75718140  1
