# generated using pymatgen
data_Na15Mg8Ta4P15(SO24)3
_symmetry_space_group_name_H-M   'P 1'
_cell_length_a   8.89620324
_cell_length_b   8.87999652
_cell_length_c   22.27052417
_cell_angle_alpha   90.15542977
_cell_angle_beta   89.99679659
_cell_angle_gamma   120.09078591
_symmetry_Int_Tables_number   1
_chemical_formula_structural   Na15Mg8Ta4P15(SO24)3
_chemical_formula_sum   'Na15 Mg8 Ta4 P15 S3 O72'
_cell_volume   1522.22357123
_cell_formula_units_Z   1
loop_
 _symmetry_equiv_pos_site_id
 _symmetry_equiv_pos_as_xyz
  1  'x, y, z'
loop_
 _atom_site_type_symbol
 _atom_site_label
 _atom_site_symmetry_multiplicity
 _atom_site_fract_x
 _atom_site_fract_y
 _atom_site_fract_z
 _atom_site_occupancy
  Na  Na0  1  0.99443896  0.63836879  0.24605869  1
  Na  Na1  1  0.64872687  0.63835795  0.74817965  1
  Na  Na2  1  0.36362218  0.01300118  0.74798495  1
  Na  Na3  1  0.30263146  0.33325955  0.58553178  1
  Na  Na4  1  0.03788668  0.71090769  0.58364595  1
  Na  Na5  1  0.66118074  0.95747341  0.58488597  1
  Na  Na6  1  0.29792438  0.95792221  0.08543636  1
  Na  Na7  1  0.67166262  0.70975710  0.08056408  1
  Na  Na8  1  0.03011402  0.33331539  0.08600341  1
  Na  Na9  1  0.99961366  0.99530776  0.49070745  1
  Na  Na10  1  0.99523095  0.99489358  0.99025213  1
  Na  Na11  1  0.67712410  0.33395430  0.82659475  1
  Na  Na12  1  0.65539642  0.31278556  0.32594820  1
  Na  Na13  1  0.33760433  0.67282155  0.16603268  1
  Na  Na14  1  0.33039320  0.66360439  0.66526452  1
  Mg  Mg15  1  0.00683224  0.00991559  0.35263135  1
  Mg  Mg16  1  0.99905442  -0.00003192  0.85186575  1
  Mg  Mg17  1  0.00030665  0.99642311  0.65478619  1
  Mg  Mg18  1  0.00259583  0.00328932  0.15411741  1
  Mg  Mg19  1  0.66665970  0.33211383  0.68679809  1
  Mg  Mg20  1  0.66672040  0.31876480  0.18746155  1
  Mg  Mg21  1  0.33321522  0.67183051  0.01407996  1
  Mg  Mg22  1  0.33904007  0.67258803  0.51389659  1
  Ta  Ta23  1  0.67616875  0.33458456  0.97486985  1
  Ta  Ta24  1  0.65865623  0.33460817  0.47463377  1
  Ta  Ta25  1  0.33097014  0.66831609  0.31582157  1
  Ta  Ta26  1  0.33136503  0.66435637  0.81582709  1
  P  P27  1  0.29416714  0.00567530  0.25043165  1
  P  P28  1  0.99829044  0.29081786  0.25029472  1
  P  P29  1  0.29019035  0.29125255  0.74959153  1
  P  P30  1  0.99851172  0.70475729  0.75003496  1
  P  P31  1  0.70997613  0.00420779  0.75042509  1
  P  P32  1  0.37498502  0.04010059  0.58432891  1
  P  P33  1  0.66564220  0.62551927  0.58467993  1
  P  P34  1  0.95835995  0.62556061  0.08548471  1
  P  P35  1  0.66459533  0.03903645  0.08353356  1
  P  P36  1  0.62843133  0.67070324  0.91991408  1
  P  P37  1  0.04726587  0.37038075  0.92000626  1
  P  P38  1  0.32708434  0.95891448  0.91920439  1
  P  P39  1  0.63179750  0.95786744  0.41938700  1
  P  P40  1  0.32482385  0.37352981  0.41956332  1
  P  P41  1  0.04142183  0.67120800  0.41972468  1
  S  S42  1  0.70496532  0.70682277  0.25015183  1
  S  S43  1  0.95582735  0.33382887  0.58303339  1
  S  S44  1  0.37942175  0.33453454  0.08361251  1
  O  O45  1  0.19943050  0.01570774  0.30462758  1
  O  O46  1  0.81474179  0.79013780  0.30200919  1
  O  O47  1  0.97435216  0.17896862  0.30361923  1
  O  O48  1  0.20484868  0.17420395  0.80264241  1
  O  O49  1  0.96991487  0.79243306  0.80340180  1
  O  O50  1  0.81786737  0.02273118  0.80461816  1
  O  O51  1  0.77080206  0.95701559  0.69165831  1
  O  O52  1  0.18949016  0.22759470  0.69002427  1
  O  O53  1  0.04772444  0.81425820  0.69154979  1
  O  O54  1  0.77318614  0.80786159  0.19371529  1
  O  O55  1  0.03446547  0.22764209  0.19035594  1
  O  O56  1  0.18406656  0.95395749  0.19170961  1
  O  O57  1  0.87642570  0.36227752  0.63602991  1
  O  O58  1  0.48782794  0.12178944  0.63970985  1
  O  O59  1  0.63917847  0.51443894  0.63995809  1
  O  O60  1  0.87260216  0.51535804  0.14089472  1
  O  O61  1  0.62962660  0.12346306  0.13650010  1
  O  O62  1  0.48814863  0.36422460  0.13648279  1
  O  O63  1  0.46434176  0.30800270  0.02885731  1
  O  O64  1  0.83442065  0.52509563  0.02923286  1
  O  O65  1  0.68904906  0.16234323  0.02702299  1
  O  O66  1  0.47824829  0.16416765  0.52868832  1
  O  O67  1  0.69030751  0.52500691  0.52873084  1
  O  O68  1  0.84457682  0.30832663  0.52843418  1
  O  O69  1  0.54245953  0.68538105  0.97661240  1
  O  O70  1  0.14395484  0.45407185  0.97754949  1
  O  O71  1  0.31049819  0.85812043  0.97594470  1
  O  O72  1  0.55039215  0.86004833  0.47687181  1
  O  O73  1  0.31090642  0.45578648  0.47725079  1
  O  O74  1  0.14363410  0.68826229  0.47616788  1
  O  O75  1  0.13124517  0.63809528  0.36284437  1
  O  O76  1  0.50435285  0.86489915  0.36435926  1
  O  O77  1  0.35986417  0.49807274  0.36450180  1
  O  O78  1  0.13795169  0.49616506  0.86492061  1
  O  O79  1  0.36163932  0.86994424  0.86266194  1
  O  O80  1  0.50663930  0.63810979  0.86316893  1
  O  O81  1  0.01200331  0.82091161  0.40901978  1
  O  O82  1  0.80908866  0.98293953  0.40888340  1
  O  O83  1  0.17636312  0.19226587  0.41122155  1
  O  O84  1  0.01636833  0.19069417  0.91051169  1
  O  O85  1  0.17567914  0.98579315  0.90975598  1
  O  O86  1  0.80742587  0.82233278  0.91067406  1
  O  O87  1  0.97038695  0.17457073  0.58616910  1
  O  O88  1  0.19773164  0.03215498  0.58401893  1
  O  O89  1  0.83198707  0.80633863  0.58466338  1
  O  O90  1  0.97269473  0.80637150  0.08545050  1
  O  O91  1  0.83336050  0.02971910  0.08522362  1
  O  O92  1  0.20513512  0.17479357  0.08669351  1
  O  O93  1  0.66949568  0.15232223  0.74498074  1
  O  O94  1  0.47856845  0.32417182  0.74523062  1
  O  O95  1  0.83987606  0.52253862  0.74316563  1
  O  O96  1  0.68300696  0.53085566  0.24367081  1
  O  O97  1  0.85233091  0.33694972  0.24658036  1
  O  O98  1  0.47662547  0.16134546  0.24488741  1
  O  O99  1  0.63617192  0.49451882  0.92433797  1
  O  O100  1  0.86275064  0.36445858  0.92238755  1
  O  O101  1  0.50338916  0.14290013  0.92403320  1
  O  O102  1  0.63979276  0.14216506  0.42394281  1
  O  O103  1  0.50225405  0.36474274  0.42251482  1
  O  O104  1  0.85876780  0.49432465  0.42411988  1
  O  O105  1  0.35765869  0.48920724  0.07705161  1
  O  O106  1  0.13851190  0.64155409  0.07810675  1
  O  O107  1  0.50494770  0.85460451  0.07670351  1
  O  O108  1  0.35140634  0.85638788  0.57724204  1
  O  O109  1  0.50151411  0.64149071  0.57751767  1
  O  O110  1  0.13194142  0.48956200  0.57687961  1
  O  O111  1  0.31217474  0.83096704  0.26010225  1
  O  O112  1  0.52583838  0.68785464  0.25794714  1
  O  O113  1  0.17147099  0.48404749  0.26004462  1
  O  O114  1  0.31610673  0.48304570  0.75954443  1
  O  O115  1  0.16966652  0.68962477  0.76056719  1
  O  O116  1  0.51743595  0.82970332  0.75954410  1
