# generated using pymatgen
data_NaLa2Ta2P5SO24
_symmetry_space_group_name_H-M   'P 1'
_cell_length_a   9.13416763
_cell_length_b   9.14005344
_cell_length_c   23.72890834
_cell_angle_alpha   89.76728162
_cell_angle_beta   89.97905584
_cell_angle_gamma   119.87066598
_symmetry_Int_Tables_number   1
_chemical_formula_structural   NaLa2Ta2P5SO24
_chemical_formula_sum   'Na3 La6 Ta6 P15 S3 O72'
_cell_volume   1717.85061841
_cell_formula_units_Z   3
loop_
 _symmetry_equiv_pos_site_id
 _symmetry_equiv_pos_as_xyz
  1  'x, y, z'
loop_
 _atom_site_type_symbol
 _atom_site_label
 _atom_site_symmetry_multiplicity
 _atom_site_fract_x
 _atom_site_fract_y
 _atom_site_fract_z
 _atom_site_occupancy
  Na  Na0  1  0.00093952  0.99952820  0.00118411  1
  Na  Na1  1  0.66623618  0.33176946  0.83061972  1
  Na  Na2  1  0.66922692  0.33467093  0.33353190  1
  La  La3  1  0.99402536  0.99479550  0.64996234  1
  La  La4  1  0.00354284  0.00213121  0.14419475  1
  La  La5  1  0.66395302  0.34113901  0.68684414  1
  La  La6  1  0.66667708  0.33351545  0.97094394  1
  La  La7  1  0.67017705  0.33959490  0.48052174  1
  La  La8  1  0.32972695  0.66776595  0.30512719  1
  Ta  Ta9  1  0.00927354  0.01297496  0.35684293  1
  Ta  Ta10  1  0.99954400  0.00006847  0.85530072  1
  Ta  Ta11  1  0.66381866  0.32412712  0.18281617  1
  Ta  Ta12  1  0.33157544  0.66521937  0.02254645  1
  Ta  Ta13  1  0.33988127  0.66879847  0.51147077  1
  Ta  Ta14  1  0.33383889  0.66654227  0.81398996  1
  P  P15  1  0.30318615  0.03303242  0.25167650  1
  P  P16  1  0.96872035  0.27135454  0.25126429  1
  P  P17  1  0.28886398  0.29564519  0.75848042  1
  P  P18  1  0.00562598  0.70967889  0.75920642  1
  P  P19  1  0.70349916  0.99641491  0.75910166  1
  P  P20  1  0.64958691  0.63403031  0.58106118  1
  P  P21  1  0.96161313  0.60813840  0.08178203  1
  P  P22  1  0.64479108  0.03277019  0.08118636  1
  P  P23  1  0.39056937  0.35361887  0.08142593  1
  P  P24  1  0.62023864  0.68824311  0.91542394  1
  P  P25  1  0.06802731  0.37922630  0.91551482  1
  P  P26  1  0.31218004  0.93209126  0.91510857  1
  P  P27  1  0.63594387  0.95132500  0.41328356  1
  P  P28  1  0.31988552  0.37025833  0.41444023  1
  P  P29  1  0.05174535  0.68715752  0.41434652  1
  S  S30  1  0.72502041  0.69207063  0.25107140  1
  S  S31  1  0.98974366  0.35464444  0.58022726  1
  S  S32  1  0.36632048  0.01216063  0.58008651  1
  O  O33  1  0.20392810  0.05333941  0.30373225  1
  O  O34  1  0.83283122  0.77991074  0.30096709  1
  O  O35  1  0.94927630  0.15367295  0.30391580  1
  O  O36  1  0.17974057  0.17241725  0.80891494  1
  O  O37  1  0.99117665  0.81923198  0.80899514  1
  O  O38  1  0.82719273  0.00922585  0.80908523  1
  O  O39  1  0.76667116  0.96296515  0.70467661  1
  O  O40  1  0.19279721  0.23182275  0.70415792  1
  O  O41  1  0.03979965  0.80569455  0.70442336  1
  O  O42  1  0.79143623  0.78836416  0.19925340  1
  O  O43  1  0.99690851  0.19913093  0.19844944  1
  O  O44  1  0.20054221  0.99741185  0.19895852  1
  O  O45  1  0.91634595  0.38533051  0.63153574  1
  O  O46  1  0.47061317  0.08293925  0.63134996  1
  O  O47  1  0.61197225  0.52301541  0.63451454  1
  O  O48  1  0.86479867  0.49166504  0.13541131  1
  O  O49  1  0.62603549  0.13020869  0.13549886  1
  O  O50  1  0.50461990  0.37034892  0.13488286  1
  O  O51  1  0.46597563  0.32339504  0.02937787  1
  O  O52  1  0.85661724  0.53357256  0.02971708  1
  O  O53  1  0.67799138  0.14269368  0.03010121  1
  O  O54  1  0.44407262  0.12201497  0.53138680  1
  O  O55  1  0.68412719  0.55265680  0.53115694  1
  O  O56  1  0.87745567  0.31711901  0.53197759  1
  O  O57  1  0.53128390  0.70424405  0.96972399  1
  O  O58  1  0.17258200  0.46748483  0.96990454  1
  O  O59  1  0.29498994  0.82653620  0.96963215  1
  O  O60  1  0.53587639  0.83245028  0.46602918  1
  O  O61  1  0.29845746  0.46645855  0.46652830  1
  O  O62  1  0.16822310  0.70596518  0.46656650  1
  O  O63  1  0.12353922  0.65400804  0.36216549  1
  O  O64  1  0.53102353  0.87705511  0.36159601  1
  O  O65  1  0.35164256  0.47261504  0.36179730  1
  O  O66  1  0.16613558  0.48850951  0.86438879  1
  O  O67  1  0.32375748  0.83479296  0.86408198  1
  O  O68  1  0.51158510  0.67681888  0.86417684  1
  O  O69  1  0.04796863  0.85776856  0.40330914  1
  O  O70  1  0.80951085  0.95347200  0.40370828  1
  O  O71  1  0.14559924  0.19691141  0.40598305  1
  O  O72  1  0.04923993  0.19805969  0.90956115  1
  O  O73  1  0.14946018  0.95078147  0.90901907  1
  O  O74  1  0.80116370  0.85067762  0.90931267  1
  O  O75  1  0.02627389  0.21714466  0.58831762  1
  O  O76  1  0.19427178  0.98133807  0.58799153  1
  O  O77  1  0.79104724  0.81389120  0.58975144  1
  O  O78  1  0.00114183  0.78861082  0.08920454  1
  O  O79  1  0.78450368  0.99185659  0.08933141  1
  O  O80  1  0.20899838  0.21342993  0.08806107  1
  O  O81  1  0.68966054  0.15579548  0.75944804  1
  O  O82  1  0.46220528  0.30829189  0.75947901  1
  O  O83  1  0.84560611  0.53672998  0.75968742  1
  O  O84  1  0.71927159  0.52316210  0.24364366  1
  O  O85  1  0.79849406  0.27900325  0.24042956  1
  O  O86  1  0.47837912  0.20356871  0.23978484  1
  O  O87  1  0.64088661  0.53362781  0.91412039  1
  O  O88  1  0.89324356  0.35981146  0.91432095  1
  O  O89  1  0.46701731  0.10680301  0.91417300  1
  O  O90  1  0.67574643  0.13078255  0.42377319  1
  O  O91  1  0.45472743  0.32260627  0.42358145  1
  O  O92  1  0.87029967  0.54732704  0.42286744  1
  O  O93  1  0.38517597  0.52340186  0.07103682  1
  O  O94  1  0.13717918  0.61407928  0.07102247  1
  O  O95  1  0.47470506  0.86074058  0.07114279  1
  O  O96  1  0.35604938  0.84541412  0.56710254  1
  O  O97  1  0.48529890  0.64257804  0.56367267  1
  O  O98  1  0.15306739  0.51323236  0.56642745  1
  O  O99  1  0.35050711  0.90026665  0.26267517  1
  O  O100  1  0.55192909  0.65571159  0.25871656  1
  O  O101  1  0.10558286  0.44956852  0.26129209  1
  O  O102  1  0.31283179  0.47442831  0.77132487  1
  O  O103  1  0.16080357  0.68625089  0.77199937  1
  O  O104  1  0.52546657  0.83995391  0.77177732  1
