# generated using pymatgen
data_Rb8Mg(FeO4)2
_symmetry_space_group_name_H-M   'P 1'
_cell_length_a   6.79145046
_cell_length_b   6.66416969
_cell_length_c   10.38401253
_cell_angle_alpha   70.70864607
_cell_angle_beta   85.42511281
_cell_angle_gamma   63.53220472
_symmetry_Int_Tables_number   1
_chemical_formula_structural   Rb8Mg(FeO4)2
_chemical_formula_sum   'Rb8 Mg1 Fe2 O8'
_cell_volume   395.82235359
_cell_formula_units_Z   1
loop_
 _symmetry_equiv_pos_site_id
 _symmetry_equiv_pos_as_xyz
  1  'x, y, z'
loop_
 _atom_site_type_symbol
 _atom_site_label
 _atom_site_symmetry_multiplicity
 _atom_site_fract_x
 _atom_site_fract_y
 _atom_site_fract_z
 _atom_site_occupancy
  Rb  Rb0  1  0.26868337  0.77198166  0.03834158  1
  Rb  Rb1  1  0.20258801  0.46399522  0.45969868  1
  Rb  Rb2  1  0.30035211  0.28465917  0.83142161  1
  Rb  Rb3  1  0.18803824  0.94317095  0.61810385  1
  Rb  Rb4  1  0.75820273  0.90307813  0.39803465  1
  Rb  Rb5  1  0.82358945  0.66611564  0.07308582  1
  Rb  Rb6  1  0.71135256  0.46050885  0.67883371  1
  Rb  Rb7  1  0.73455340  0.25428118  0.03156572  1
  Mg  Mg8  1  0.63865763  0.40634409  0.37044731  1
  Fe  Fe9  1  0.25243850  0.13105351  0.25314472  1
  Fe  Fe10  1  0.75055709  0.90766658  0.72827457  1
  O  O11  1  0.15103310  0.20454352  0.07531341  1
  O  O12  1  0.96708367  0.27636590  0.33758449  1
  O  O13  1  0.43111953  0.30447127  0.25549763  1
  O  O14  1  0.61995993  0.19404873  0.56168089  1
  O  O15  1  0.44607601  0.77109629  0.33224672  1
  O  O16  1  0.55403930  0.78314904  0.82722785  1
  O  O17  1  0.97424041  0.67367246  0.66104130  1
  O  O18  1  0.86743497  0.99979781  0.84970548  1
