# generated using pymatgen
data_Na14Zn2Si9Sn6(SO16)3
_symmetry_space_group_name_H-M   'P 1'
_cell_length_a   18.19030877
_cell_length_b   9.13125814
_cell_length_c   22.52534228
_cell_angle_alpha   90.26087269
_cell_angle_beta   89.92597023
_cell_angle_gamma   120.09007024
_symmetry_Int_Tables_number   1
_chemical_formula_structural   Na14Zn2Si9Sn6(SO16)3
_chemical_formula_sum   'Na42 Zn6 Si27 Sn18 S9 O144'
_cell_volume   3237.22623144
_cell_formula_units_Z   3
loop_
 _symmetry_equiv_pos_site_id
 _symmetry_equiv_pos_as_xyz
  1  'x, y, z'
loop_
 _atom_site_type_symbol
 _atom_site_label
 _atom_site_symmetry_multiplicity
 _atom_site_fract_x
 _atom_site_fract_y
 _atom_site_fract_z
 _atom_site_occupancy
  Na  Na0  1  0.31154748  0.00319466  0.24509835  1
  Na  Na1  1  0.81742456  0.01611547  0.24849194  1
  Na  Na2  1  0.18715853  0.36419246  0.25060777  1
  Na  Na3  1  0.69416329  0.36607275  0.24968749  1
  Na  Na4  1  0.99125603  0.61878611  0.25331053  1
  Na  Na5  1  0.49458621  0.63242470  0.24801435  1
  Na  Na6  1  0.31794681  0.61923395  0.74156420  1
  Na  Na7  1  0.81217383  0.62117809  0.74136388  1
  Na  Na8  1  0.99268832  0.35227975  0.74334057  1
  Na  Na9  1  0.49306764  0.36822018  0.74895814  1
  Na  Na10  1  0.19468184  0.02482637  0.74523378  1
  Na  Na11  1  0.68919181  0.01161268  0.74722061  1
  Na  Na12  1  0.15320418  0.33518161  0.58557403  1
  Na  Na13  1  0.65668937  0.35321976  0.57915078  1
  Na  Na14  1  0.01233270  0.69415611  0.57883186  1
  Na  Na15  1  0.51675995  0.69379308  0.57467176  1
  Na  Na16  1  0.32960677  0.96508039  0.58516606  1
  Na  Na17  1  0.83000456  0.95413933  0.57411650  1
  Na  Na18  1  0.15610619  0.96246564  0.08520767  1
  Na  Na19  1  0.65506708  0.97292368  0.08912689  1
  Na  Na20  1  0.33228480  0.70338221  0.08408339  1
  Na  Na21  1  0.82893683  0.69329994  0.08846668  1
  Na  Na22  1  0.01454295  0.33460489  0.07993833  1
  Na  Na23  1  0.51438902  0.33210293  0.08318300  1
  Na  Na24  1  0.98511663  0.66897686  0.91833074  1
  Na  Na25  1  0.35001395  0.03786260  0.91426538  1
  Na  Na26  1  0.16370123  0.29546665  0.91610867  1
  Na  Na27  1  0.48768543  0.30517683  0.41861643  1
  Na  Na28  1  0.66903872  0.03140793  0.41472056  1
  Na  Na29  1  0.84951323  0.66948576  0.41876035  1
  Na  Na30  1  0.99911761  0.99823227  0.49726098  1
  Na  Na31  1  0.49323973  0.98416688  0.49460946  1
  Na  Na32  1  0.99061468  0.00046731  0.99604342  1
  Na  Na33  1  0.50703781  0.01141617  0.00190482  1
  Na  Na34  1  0.33923999  0.33878037  0.82543353  1
  Na  Na35  1  0.82719360  0.32124609  0.83008262  1
  Na  Na36  1  0.32812120  0.33435732  0.33175945  1
  Na  Na37  1  0.83778716  0.33211241  0.32979018  1
  Na  Na38  1  0.17056527  0.67592867  0.16880356  1
  Na  Na39  1  0.67083253  0.67603151  0.16719347  1
  Na  Na40  1  0.16923376  0.66416177  0.66248554  1
  Na  Na41  1  0.67260794  0.66631244  0.66432449  1
  Zn  Zn42  1  0.32456057  0.33350550  0.68663569  1
  Zn  Zn43  1  0.83469745  0.33548029  0.68007925  1
  Zn  Zn44  1  0.33397315  0.33147607  0.18285002  1
  Zn  Zn45  1  0.82402659  0.31570478  0.18884084  1
  Zn  Zn46  1  0.16580624  0.68228677  0.01187024  1
  Zn  Zn47  1  0.67529161  0.66450617  0.50468840  1
  Si  Si48  1  0.14682379  0.00562390  0.24861563  1
  Si  Si49  1  0.64404878  0.99339858  0.25209609  1
  Si  Si50  1  0.35244879  0.70412995  0.24934629  1
  Si  Si51  1  0.84866755  0.69845961  0.25117758  1
  Si  Si52  1  0.00187179  0.29830415  0.25124331  1
  Si  Si53  1  0.14416723  0.29238913  0.75308899  1
  Si  Si54  1  0.64951172  0.29327096  0.74696917  1
  Si  Si55  1  0.50145835  0.70744419  0.75260044  1
  Si  Si56  1  0.35020187  0.99774229  0.75232193  1
  Si  Si57  1  0.85245780  0.00059870  0.74991140  1
  Si  Si58  1  0.97946725  0.33728713  0.58488826  1
  Si  Si59  1  0.18901979  0.04517439  0.58663412  1
  Si  Si60  1  0.33515604  0.62841158  0.58474909  1
  Si  Si61  1  0.83020427  0.62486729  0.58628023  1
  Si  Si62  1  0.47856285  0.62163599  0.08389627  1
  Si  Si63  1  0.33021786  0.02987483  0.08583168  1
  Si  Si64  1  0.83535655  0.04220979  0.08421092  1
  Si  Si65  1  0.68857519  0.33212042  0.08618375  1
  Si  Si66  1  0.81242860  0.66149549  0.91654911  1
  Si  Si67  1  0.02057900  0.37952072  0.92122892  1
  Si  Si68  1  0.52121695  0.36903905  0.91535369  1
  Si  Si69  1  0.16637642  0.96549082  0.91830480  1
  Si  Si70  1  0.31262594  0.96260929  0.41679245  1
  Si  Si71  1  0.81950954  0.97150569  0.41926346  1
  Si  Si72  1  0.66480478  0.36905662  0.41783616  1
  Si  Si73  1  0.02244728  0.67485098  0.41535340  1
  Si  Si74  1  0.51971125  0.66024099  0.42088168  1
  Sn  Sn75  1  0.99814605  0.99555043  0.35090353  1
  Sn  Sn76  1  0.49712440  0.98104317  0.35658165  1
  Sn  Sn77  1  0.99627739  0.01159527  0.85622176  1
  Sn  Sn78  1  0.50489762  0.01292601  0.84744484  1
  Sn  Sn79  1  0.99698684  0.00894612  0.64494209  1
  Sn  Sn80  1  0.49605227  0.98739105  0.65417772  1
  Sn  Sn81  1  0.99399497  0.00304269  0.15662114  1
  Sn  Sn82  1  0.49804268  0.98685128  0.14649915  1
  Sn  Sn83  1  0.34240456  0.32774967  0.98221404  1
  Sn  Sn84  1  0.83063490  0.32555292  0.98132059  1
  Sn  Sn85  1  0.33056651  0.33531164  0.48091681  1
  Sn  Sn86  1  0.84302517  0.34813775  0.47743985  1
  Sn  Sn87  1  0.66786144  0.65675198  0.01870765  1
  Sn  Sn88  1  0.16790710  0.67788788  0.51835639  1
  Sn  Sn89  1  0.16644193  0.67874269  0.31293305  1
  Sn  Sn90  1  0.67178217  0.67934960  0.32090085  1
  Sn  Sn91  1  0.16627514  0.66835461  0.81758083  1
  Sn  Sn92  1  0.66643235  0.65398090  0.81267716  1
  S  S93  1  0.50132660  0.29181896  0.25097031  1
  S  S94  1  0.00165967  0.71151672  0.75158957  1
  S  S95  1  0.48026978  0.33007418  0.58583995  1
  S  S96  1  0.68358429  0.03870642  0.58450708  1
  S  S97  1  0.98061649  0.63085253  0.08490459  1
  S  S98  1  0.18548324  0.33075067  0.08253417  1
  S  S99  1  0.31648004  0.66600193  0.91816527  1
  S  S100  1  0.66499129  0.95827133  0.91638021  1
  S  S101  1  0.16668821  0.37452306  0.41630539  1
  O  O102  1  0.10163018  0.04212946  0.30449672  1
  O  O103  1  0.60015770  0.03126177  0.30885440  1
  O  O104  1  0.41603350  0.79553052  0.30483728  1
  O  O105  1  0.91014508  0.78876641  0.30808312  1
  O  O106  1  0.48947241  0.18727091  0.30397280  1
  O  O107  1  0.98325750  0.16604172  0.30467382  1
  O  O108  1  0.10182146  0.17122505  0.81106205  1
  O  O109  1  0.60817892  0.17088191  0.80487959  1
  O  O110  1  0.48076262  0.79792862  0.80851981  1
  O  O111  1  0.99138946  0.79227659  0.80580571  1
  O  O112  1  0.40716144  0.02440765  0.81225268  1
  O  O113  1  0.91529295  0.03814033  0.80639756  1
  O  O114  1  0.38923235  0.95295904  0.69287263  1
  O  O115  1  0.89105841  0.95104461  0.69146024  1
  O  O116  1  0.08392530  0.21136037  0.69362810  1
  O  O117  1  0.58525738  0.20873544  0.68865795  1
  O  O118  1  0.01529978  0.81517306  0.69774829  1
  O  O119  1  0.52536725  0.82707110  0.69203974  1
  O  O120  1  0.38945084  0.82692497  0.18966521  1
  O  O121  1  0.88607716  0.81920637  0.19027483  1
  O  O122  1  0.02670425  0.23015112  0.18862621  1
  O  O123  1  0.51408699  0.21391126  0.19593711  1
  O  O124  1  0.08672384  0.96415479  0.18695263  1
  O  O125  1  0.58515864  0.95631706  0.19141125  1
  O  O126  1  0.43863684  0.34817478  0.63874780  1
  O  O127  1  0.94604639  0.37851589  0.64572853  1
  O  O128  1  0.24688198  0.11710610  0.64513254  1
  O  O129  1  0.73393708  0.11596734  0.63849595  1
  O  O130  1  0.31694204  0.52095320  0.64453786  1
  O  O131  1  0.81529616  0.51146458  0.64472107  1
  O  O132  1  0.44258410  0.50649369  0.14235655  1
  O  O133  1  0.93938477  0.52933644  0.13708246  1
  O  O134  1  0.31125860  0.11514776  0.14205203  1
  O  O135  1  0.81697080  0.11571224  0.14332290  1
  O  O136  1  0.23691380  0.35526950  0.13557899  1
  O  O137  1  0.74745299  0.37633901  0.14354415  1
  O  O138  1  0.22546311  0.30637570  0.02718028  1
  O  O139  1  0.72759753  0.28662885  0.02685136  1
  O  O140  1  0.41242010  0.54080765  0.02646550  1
  O  O141  1  0.92903635  0.55621889  0.02907225  1
  O  O142  1  0.35083528  0.14574569  0.02414882  1
  O  O143  1  0.85861140  0.16874433  0.02629053  1
  O  O144  1  0.22920456  0.17088907  0.52857179  1
  O  O145  1  0.72278728  0.14296135  0.53062988  1
  O  O146  1  0.35796075  0.54560247  0.52757577  1
  O  O147  1  0.84962822  0.54277610  0.52610611  1
  O  O148  1  0.42739646  0.29889326  0.53071561  1
  O  O149  1  0.91431295  0.29165592  0.52908603  1
  O  O150  1  0.27693543  0.69262335  0.97087242  1
  O  O151  1  0.77372181  0.70089557  0.97605264  1
  O  O152  1  0.08159317  0.46280636  0.97835059  1
  O  O153  1  0.57484436  0.45278850  0.97589779  1
  O  O154  1  0.14767725  0.85423255  0.97705411  1
  O  O155  1  0.65490681  0.85944327  0.97089530  1
  O  O156  1  0.27417150  0.84716527  0.47639747  1
  O  O157  1  0.78047303  0.85385960  0.47691790  1
  O  O158  1  0.15708553  0.45425463  0.47132463  1
  O  O159  1  0.64145996  0.43762925  0.47686001  1
  O  O160  1  0.07578994  0.69519843  0.47616295  1
  O  O161  1  0.57719835  0.69368619  0.47935016  1
  O  O162  1  0.06256704  0.63762419  0.35618397  1
  O  O163  1  0.55885584  0.62141826  0.35931300  1
  O  O164  1  0.25768206  0.88095410  0.35618422  1
  O  O165  1  0.75931059  0.89291046  0.35901415  1
  O  O166  1  0.17848621  0.47715603  0.36251662  1
  O  O167  1  0.68454785  0.49009460  0.35827075  1
  O  O168  1  0.06082907  0.49887183  0.86037516  1
  O  O169  1  0.56191711  0.48143216  0.85596890  1
  O  O170  1  0.19004585  0.88544245  0.85961520  1
  O  O171  1  0.67615551  0.87871000  0.86231492  1
  O  O172  1  0.26338203  0.63824964  0.86328548  1
  O  O173  1  0.75696741  0.63340806  0.85642385  1
  O  O174  1  0.01252143  0.84444380  0.41232847  1
  O  O175  1  0.51450762  0.83452821  0.41519118  1
  O  O176  1  0.41055956  0.99682930  0.41063499  1
  O  O177  1  0.91231960  0.98361148  0.41209966  1
  O  O178  1  0.09049656  0.20538698  0.41274691  1
  O  O179  1  0.57988224  0.18010981  0.40935026  1
  O  O180  1  0.01503682  0.19475623  0.91552263  1
  O  O181  1  0.50611013  0.17168247  0.91298364  1
  O  O182  1  0.08075298  0.97998134  0.90973054  1
  O  O183  1  0.58745911  0.97444251  0.91312666  1
  O  O184  1  0.40142980  0.82041054  0.91239794  1
  O  O185  1  0.91066564  0.82376700  0.91073136  1
  O  O186  1  0.48862348  0.17214571  0.58792941  1
  O  O187  1  0.98964965  0.16639338  0.58534909  1
  O  O188  1  0.09241762  0.02118476  0.59123905  1
  O  O189  1  0.59697827  0.02842426  0.58727651  1
  O  O190  1  0.42228570  0.82435451  0.58705310  1
  O  O191  1  0.92094171  0.81244153  0.58855193  1
  O  O192  1  0.48803512  0.81186274  0.08487698  1
  O  O193  1  0.99013380  0.80566615  0.08687197  1
  O  O194  1  0.42050228  0.02467511  0.08862251  1
  O  O195  1  0.92265352  0.01976385  0.08661714  1
  O  O196  1  0.09974738  0.17018843  0.08478176  1
  O  O197  1  0.59150273  0.16302838  0.09023640  1
  O  O198  1  0.34380213  0.16607843  0.74830225  1
  O  O199  1  0.84306693  0.16734000  0.74465477  1
  O  O200  1  0.23835006  0.31814119  0.75068044  1
  O  O201  1  0.74308509  0.31510483  0.74443627  1
  O  O202  1  0.41960891  0.52131648  0.74626011  1
  O  O203  1  0.92683517  0.54168969  0.74852201  1
  O  O204  1  0.34351324  0.51886791  0.24355165  1
  O  O205  1  0.84297745  0.51791136  0.24592262  1
  O  O206  1  0.42517142  0.30920018  0.24712713  1
  O  O207  1  0.92014632  0.32056972  0.24466541  1
  O  O208  1  0.24104657  0.17068867  0.24507831  1
  O  O209  1  0.73752772  0.15709200  0.24968705  1
  O  O210  1  0.32015032  0.50710526  0.92166728  1
  O  O211  1  0.82589425  0.49583798  0.92376135  1
  O  O212  1  0.42400578  0.34297770  0.91821875  1
  O  O213  1  0.92661759  0.36681629  0.92325687  1
  O  O214  1  0.25012984  0.16154835  0.92324754  1
  O  O215  1  0.74261710  0.12952937  0.91941044  1
  O  O216  1  0.32522232  0.15445465  0.42398076  1
  O  O217  1  0.81874481  0.15040962  0.42308686  1
  O  O218  1  0.24502435  0.36025911  0.41952000  1
  O  O219  1  0.74983593  0.34922080  0.42313708  1
  O  O220  1  0.42492622  0.48503766  0.42259843  1
  O  O221  1  0.92555480  0.51126505  0.41778036  1
  O  O222  1  0.17441752  0.47985188  0.07756242  1
  O  O223  1  0.67553892  0.49892560  0.07895867  1
  O  O224  1  0.06593607  0.64732465  0.08002577  1
  O  O225  1  0.57539482  0.65113612  0.07345424  1
  O  O226  1  0.24854458  0.83690849  0.07740428  1
  O  O227  1  0.74954654  0.85256715  0.07509543  1
  O  O228  1  0.17665548  0.85311282  0.57924229  1
  O  O229  1  0.67076777  0.86644557  0.58003381  1
  O  O230  1  0.24981631  0.64762725  0.57578086  1
  O  O231  1  0.74788281  0.65152892  0.58052507  1
  O  O232  1  0.07700280  0.50147070  0.57520553  1
  O  O233  1  0.56482006  0.48203843  0.58092678  1
  O  O234  1  0.15208487  0.82961371  0.25092305  1
  O  O235  1  0.64661787  0.81315732  0.25585868  1
  O  O236  1  0.25820543  0.68866747  0.25595513  1
  O  O237  1  0.75377831  0.68471437  0.25485427  1
  O  O238  1  0.09119846  0.48239603  0.25638009  1
  O  O239  1  0.57945907  0.46173216  0.25422766  1
  O  O240  1  0.14941241  0.48088388  0.75838255  1
  O  O241  1  0.65222715  0.47680368  0.75057463  1
  O  O242  1  0.08127455  0.69881018  0.75478767  1
  O  O243  1  0.59026336  0.70093998  0.75830151  1
  O  O244  1  0.25533185  0.81983606  0.75619676  1
  O  O245  1  0.75824800  0.82798995  0.75671925  1
