# generated using pymatgen
data_Na2La3Ta5Si6(SO8)6
_symmetry_space_group_name_H-M   'P 1'
_cell_length_a   18.21122272
_cell_length_b   9.10663383
_cell_length_c   23.68843719
_cell_angle_alpha   89.73339262
_cell_angle_beta   90.03375812
_cell_angle_gamma   120.20521953
_symmetry_Int_Tables_number   1
_chemical_formula_structural   Na2La3Ta5Si6(SO8)6
_chemical_formula_sum   'Na6 La9 Ta15 Si18 S18 O144'
_cell_volume   3395.13164207
_cell_formula_units_Z   3
loop_
 _symmetry_equiv_pos_site_id
 _symmetry_equiv_pos_as_xyz
  1  'x, y, z'
loop_
 _atom_site_type_symbol
 _atom_site_label
 _atom_site_symmetry_multiplicity
 _atom_site_fract_x
 _atom_site_fract_y
 _atom_site_fract_z
 _atom_site_occupancy
  Na  Na0  1  0.98797844  0.95160242  0.50147566  1
  Na  Na1  1  0.50365768  0.99760634  0.99857730  1
  Na  Na2  1  0.33852603  0.29776237  0.83625549  1
  Na  Na3  1  0.83383981  0.34666825  0.83511603  1
  Na  Na4  1  0.31782591  0.30094657  0.33540303  1
  Na  Na5  1  0.83757533  0.34821606  0.34550044  1
  La  La6  1  0.00784297  0.00001689  0.35325229  1
  La  La7  1  0.50273792  0.02765337  0.85064948  1
  La  La8  1  0.99869886  0.00584268  0.65832566  1
  La  La9  1  0.48802466  0.96830249  0.14856571  1
  La  La10  1  0.33569890  0.33638794  0.97314889  1
  La  La11  1  0.84112012  0.33267174  0.97439520  1
  La  La12  1  0.33806080  0.34369802  0.47981310  1
  La  La13  1  0.82827724  0.34379414  0.48125043  1
  La  La14  1  0.67631467  0.66601083  0.30487599  1
  Ta  Ta15  1  0.49001728  0.99112681  0.36102865  1
  Ta  Ta16  1  0.00589418  0.00972645  0.86239564  1
  Ta  Ta17  1  0.49869218  0.00194668  0.64962906  1
  Ta  Ta18  1  0.00715874  0.02261422  0.15201653  1
  Ta  Ta19  1  0.32305525  0.33248260  0.68843419  1
  Ta  Ta20  1  0.82686861  0.32767971  0.67752584  1
  Ta  Ta21  1  0.33927165  0.35564939  0.18864524  1
  Ta  Ta22  1  0.83465774  0.31932921  0.18156919  1
  Ta  Ta23  1  0.15582706  0.66411810  0.01674536  1
  Ta  Ta24  1  0.67248480  0.66772894  0.02218893  1
  Ta  Ta25  1  0.17611847  0.68183011  0.51969044  1
  Ta  Ta26  1  0.66790594  0.65379207  0.52571168  1
  Ta  Ta27  1  0.16197703  0.67872883  0.30616965  1
  Ta  Ta28  1  0.16881533  0.67317178  0.80849334  1
  Ta  Ta29  1  0.66441320  0.64273024  0.81138098  1
  Si  Si30  1  0.15236300  0.01023206  0.24577406  1
  Si  Si31  1  0.35022308  0.70117464  0.25742900  1
  Si  Si32  1  0.99667120  0.29285983  0.25304310  1
  Si  Si33  1  0.14758233  0.29482570  0.75550628  1
  Si  Si34  1  0.65112213  0.29373922  0.74751458  1
  Si  Si35  1  0.35265429  0.00688164  0.74784084  1
  Si  Si36  1  0.67876810  0.02352157  0.58363540  1
  Si  Si37  1  0.33373927  0.63068144  0.58557595  1
  Si  Si38  1  0.83618195  0.63961022  0.58157171  1
  Si  Si39  1  0.48676581  0.62171958  0.08024718  1
  Si  Si40  1  0.83758293  0.03471806  0.08308262  1
  Si  Si41  1  0.81001042  0.67335857  0.91312109  1
  Si  Si42  1  0.02959714  0.38362588  0.91170897  1
  Si  Si43  1  0.52891231  0.38553525  0.91849306  1
  Si  Si44  1  0.16203277  0.94344266  0.91059699  1
  Si  Si45  1  0.30381104  0.94926111  0.41106356  1
  Si  Si46  1  0.65790380  0.36778938  0.41553126  1
  Si  Si47  1  0.02826367  0.66651263  0.41687085  1
  S  S48  1  0.65699895  0.03508226  0.25134667  1
  S  S49  1  0.85963533  0.69728747  0.23909075  1
  S  S50  1  0.48639230  0.27883213  0.25072645  1
  S  S51  1  0.99579433  0.68727627  0.75465593  1
  S  S52  1  0.49681031  0.69438784  0.74785713  1
  S  S53  1  0.84644518  0.00833041  0.75647325  1
  S  S54  1  0.48193748  0.32938590  0.58676235  1
  S  S55  1  0.98861126  0.35424636  0.58447961  1
  S  S56  1  0.18821837  0.02979169  0.58457766  1
  S  S57  1  0.98335483  0.63722961  0.08552136  1
  S  S58  1  0.32066111  0.02131716  0.08077761  1
  S  S59  1  0.18707658  0.34286715  0.08682418  1
  S  S60  1  0.69152044  0.34657950  0.08332345  1
  S  S61  1  0.30209348  0.67752598  0.91814217  1
  S  S62  1  0.66173399  0.92948892  0.91650931  1
  S  S63  1  0.81134479  0.93996447  0.42438328  1
  S  S64  1  0.16398649  0.39426956  0.41847766  1
  S  S65  1  0.52653236  0.68653989  0.41335888  1
  O  O66  1  0.12678260  0.06790862  0.30265237  1
  O  O67  1  0.61508031  0.05928447  0.30062731  1
  O  O68  1  0.42499224  0.80831964  0.30586080  1
  O  O69  1  0.89835345  0.74613700  0.29507338  1
  O  O70  1  0.47545111  0.16918900  0.30076609  1
  O  O71  1  0.96322302  0.16821842  0.30589514  1
  O  O72  1  0.09247657  0.15035305  0.80510953  1
  O  O73  1  0.62661107  0.19136798  0.80588299  1
  O  O74  1  0.47172359  0.74410407  0.79962452  1
  O  O75  1  0.98244755  0.77525924  0.80234290  1
  O  O76  1  0.40471953  0.06694808  0.80586775  1
  O  O77  1  0.90750591  0.03555845  0.80238550  1
  O  O78  1  0.40685117  0.97740344  0.69852898  1
  O  O79  1  0.86987369  0.95764125  0.70385848  1
  O  O80  1  0.10012456  0.24428912  0.69665512  1
  O  O81  1  0.58250101  0.18778418  0.69795763  1
  O  O82  1  0.01595986  0.78397806  0.70186175  1
  O  O83  1  0.51036853  0.81014770  0.70009968  1
  O  O84  1  0.37596816  0.79886791  0.19861519  1
  O  O85  1  0.91525337  0.81806555  0.19489770  1
  O  O86  1  0.01149132  0.18980347  0.19912929  1
  O  O87  1  0.50161405  0.21382815  0.19881876  1
  O  O88  1  0.08579370  0.98339567  0.19439370  1
  O  O89  1  0.61073947  0.01002820  0.19864982  1
  O  O90  1  0.43845744  0.35945846  0.63365420  1
  O  O91  1  0.94041923  0.36598839  0.63596414  1
  O  O92  1  0.24224518  0.12538123  0.63475438  1
  O  O93  1  0.75334276  0.13346850  0.63684140  1
  O  O94  1  0.31650478  0.49113825  0.63850463  1
  O  O95  1  0.82713146  0.50161647  0.63387939  1
  O  O96  1  0.43096892  0.49949983  0.13868518  1
  O  O97  1  0.93808809  0.51150906  0.13236721  1
  O  O98  1  0.31227580  0.10647256  0.13123038  1
  O  O99  1  0.81731250  0.13771038  0.13695622  1
  O  O100  1  0.24620524  0.37300191  0.13536278  1
  O  O101  1  0.74684591  0.36200370  0.13370796  1
  O  O102  1  0.21327339  0.29348599  0.03618634  1
  O  O103  1  0.72631094  0.31435352  0.03243226  1
  O  O104  1  0.42250029  0.53605147  0.02918074  1
  O  O105  1  0.93431073  0.58410380  0.03367838  1
  O  O106  1  0.32972811  0.11643158  0.02883881  1
  O  O107  1  0.86742803  0.16515710  0.03182338  1
  O  O108  1  0.22342603  0.12956531  0.53288669  1
  O  O109  1  0.71228659  0.14501879  0.53084256  1
  O  O110  1  0.35868092  0.56212091  0.53107320  1
  O  O111  1  0.85723990  0.58330974  0.52377915  1
  O  O112  1  0.43306601  0.28279281  0.53429309  1
  O  O113  1  0.93712209  0.32085998  0.53401655  1
  O  O114  1  0.25196396  0.67566843  0.97083515  1
  O  O115  1  0.76490211  0.69231456  0.97076868  1
  O  O116  1  0.07801280  0.47461613  0.97401865  1
  O  O117  1  0.58970919  0.50217789  0.97102058  1
  O  O118  1  0.15263611  0.82781498  0.97060653  1
  O  O119  1  0.66710258  0.84892929  0.97069961  1
  O  O120  1  0.26341794  0.84574736  0.47205515  1
  O  O121  1  0.75391780  0.83320265  0.47335683  1
  O  O122  1  0.17042880  0.48863544  0.47282054  1
  O  O123  1  0.64951586  0.47329290  0.47223676  1
  O  O124  1  0.08790408  0.67069669  0.47303920  1
  O  O125  1  0.56949459  0.69348981  0.46674219  1
  O  O126  1  0.08063238  0.67321242  0.35809157  1
  O  O127  1  0.57028373  0.67815005  0.36321345  1
  O  O128  1  0.24866115  0.84451505  0.35742419  1
  O  O129  1  0.77083920  0.85915358  0.37095255  1
  O  O130  1  0.16023799  0.48499286  0.36874033  1
  O  O131  1  0.66731695  0.47797083  0.36013505  1
  O  O132  1  0.09029782  0.50454209  0.86224841  1
  O  O133  1  0.57941409  0.48113173  0.85739262  1
  O  O134  1  0.16821139  0.84145131  0.85718525  1
  O  O135  1  0.65880919  0.83002462  0.86608814  1
  O  O136  1  0.26346814  0.69679329  0.86613090  1
  O  O137  1  0.75112818  0.66204507  0.85710517  1
  O  O138  1  0.02508501  0.84150685  0.42176493  1
  O  O139  1  0.52300501  0.85196492  0.40842886  1
  O  O140  1  0.39699609  0.95330747  0.40283521  1
  O  O141  1  0.89269703  0.94440039  0.43147566  1
  O  O142  1  0.08690937  0.22607328  0.42459817  1
  O  O143  1  0.56677152  0.18439141  0.40261199  1
  O  O144  1  0.02489042  0.19686893  0.90608640  1
  O  O145  1  0.52189505  0.20161212  0.92484283  1
  O  O146  1  0.07132957  0.94324569  0.90497533  1
  O  O147  1  0.58349498  0.93926124  0.91973751  1
  O  O148  1  0.38764735  0.82290791  0.92498588  1
  O  O149  1  0.90136164  0.84867248  0.89793603  1
  O  O150  1  0.49937782  0.18860215  0.60055816  1
  O  O151  1  0.00469675  0.21300294  0.59293491  1
  O  O152  1  0.10079115  0.99194214  0.59250137  1
  O  O153  1  0.58919018  0.99798310  0.60913356  1
  O  O154  1  0.41142191  0.81565148  0.60686294  1
  O  O155  1  0.90597768  0.83246210  0.59448995  1
  O  O156  1  0.50789235  0.81604538  0.08525199  1
  O  O157  1  0.00316329  0.80865031  0.10155531  1
  O  O158  1  0.39394274  0.99440061  0.08416829  1
  O  O159  1  0.91456492  0.00474734  0.10699281  1
  O  O160  1  0.09974366  0.19612954  0.10203431  1
  O  O161  1  0.60385866  0.21108555  0.09268322  1
  O  O162  1  0.33824321  0.16357033  0.72547703  1
  O  O163  1  0.84440362  0.17018022  0.74685033  1
  O  O164  1  0.24363306  0.30903609  0.74425702  1
  O  O165  1  0.74645155  0.32551014  0.72841327  1
  O  O166  1  0.42397860  0.51640464  0.73227674  1
  O  O167  1  0.91916380  0.51494202  0.74736386  1
  O  O168  1  0.34720567  0.51215449  0.24310972  1
  O  O169  1  0.84988536  0.52832581  0.22591385  1
  O  O170  1  0.40290701  0.28114151  0.24424940  1
  O  O171  1  0.91771479  0.32178191  0.22807988  1
  O  O172  1  0.24435372  0.16731839  0.22322331  1
  O  O173  1  0.74492932  0.20088351  0.24305645  1
  O  O174  1  0.29876468  0.51417681  0.91577026  1
  O  O175  1  0.81982032  0.50837655  0.91221250  1
  O  O176  1  0.43980017  0.38091441  0.91074894  1
  O  O177  1  0.93721255  0.36093492  0.90798417  1
  O  O178  1  0.24109108  0.13017227  0.91104635  1
  O  O179  1  0.73849786  0.09947373  0.91217483  1
  O  O180  1  0.32201525  0.14074576  0.41197945  1
  O  O181  1  0.82041025  0.10792700  0.42547036  1
  O  O182  1  0.24097807  0.37772188  0.41517686  1
  O  O183  1  0.73407986  0.32868545  0.41516825  1
  O  O184  1  0.43773689  0.54458996  0.41262925  1
  O  O185  1  0.93789770  0.49487143  0.41279450  1
  O  O186  1  0.17783209  0.49449377  0.07806952  1
  O  O187  1  0.69439467  0.51349072  0.07821147  1
  O  O188  1  0.06706858  0.64018288  0.07619594  1
  O  O189  1  0.57787680  0.62635490  0.07150345  1
  O  O190  1  0.24107111  0.84633145  0.07392153  1
  O  O191  1  0.75141759  0.85511341  0.07111394  1
  O  O192  1  0.18986325  0.86722432  0.57953467  1
  O  O193  1  0.66880703  0.83537382  0.56992195  1
  O  O194  1  0.24824681  0.64352761  0.57149508  1
  O  O195  1  0.74142365  0.62991722  0.57391216  1
  O  O196  1  0.07124662  0.51694040  0.57930206  1
  O  O197  1  0.56610783  0.48713642  0.57679730  1
  O  O198  1  0.16162420  0.84079189  0.25448032  1
  O  O199  1  0.67699091  0.90040786  0.25912430  1
  O  O200  1  0.25548787  0.64975900  0.27662264  1
  O  O201  1  0.77705385  0.68554284  0.23459068  1
  O  O202  1  0.07913862  0.47865957  0.26192769  1
  O  O203  1  0.55245341  0.45491641  0.25915672  1
  O  O204  1  0.17223309  0.48614647  0.77373533  1
  O  O205  1  0.66306483  0.48744415  0.75718413  1
  O  O206  1  0.07022660  0.66089516  0.76562205  1
  O  O207  1  0.57367081  0.67925434  0.75590903  1
  O  O208  1  0.25806065  0.83804935  0.75922767  1
  O  O209  1  0.75804074  0.87194674  0.77137564  1
