# generated using pymatgen
data_MgFe4(OF)4
_symmetry_space_group_name_H-M   'P 1'
_cell_length_a   5.73819548
_cell_length_b   5.50474919
_cell_length_c   5.44414335
_cell_angle_alpha   91.39694856
_cell_angle_beta   100.06071402
_cell_angle_gamma   86.03147773
_symmetry_Int_Tables_number   1
_chemical_formula_structural   MgFe4(OF)4
_chemical_formula_sum   'Mg1 Fe4 O4 F4'
_cell_volume   168.90243337
_cell_formula_units_Z   1
loop_
 _symmetry_equiv_pos_site_id
 _symmetry_equiv_pos_as_xyz
  1  'x, y, z'
loop_
 _atom_site_type_symbol
 _atom_site_label
 _atom_site_symmetry_multiplicity
 _atom_site_fract_x
 _atom_site_fract_y
 _atom_site_fract_z
 _atom_site_occupancy
  Mg  Mg0  1  0.93075797  0.02664449  0.53285332  1
  Fe  Fe1  1  0.02758581  0.10374424  0.07445826  1
  Fe  Fe2  1  0.25684867  0.42868197  0.58949637  1
  Fe  Fe3  1  0.50425989  0.90933569  0.93308806  1
  Fe  Fe4  1  0.69978936  0.57563695  0.40186541  1
  O  O5  1  0.23353323  0.14662794  0.79196197  1
  O  O6  1  0.50277967  0.64920177  0.69274452  1
  O  O7  1  0.76797458  0.87773897  0.20759472  1
  O  O8  1  0.97701399  0.32991550  0.35343073  1
  F  F9  1  0.28549082  0.81648686  0.15559355  1
  F  F10  1  0.44709126  0.31633478  0.33087820  1
  F  F11  1  0.72818647  0.12133111  0.77676857  1
  F  F12  1  0.01368828  0.69832173  0.67315632  1
