# generated using pymatgen
data_Tb2MgNb2O8
_symmetry_space_group_name_H-M   'P 1'
_cell_length_a   5.53285716
_cell_length_b   5.42843715
_cell_length_c   5.52065167
_cell_angle_alpha   84.51853110
_cell_angle_beta   91.15530179
_cell_angle_gamma   95.20903141
_symmetry_Int_Tables_number   1
_chemical_formula_structural   Tb2MgNb2O8
_chemical_formula_sum   'Tb2 Mg1 Nb2 O8'
_cell_volume   164.36056197
_cell_formula_units_Z   1
loop_
 _symmetry_equiv_pos_site_id
 _symmetry_equiv_pos_as_xyz
  1  'x, y, z'
loop_
 _atom_site_type_symbol
 _atom_site_label
 _atom_site_symmetry_multiplicity
 _atom_site_fract_x
 _atom_site_fract_y
 _atom_site_fract_z
 _atom_site_occupancy
  Tb  Tb0  1  0.23237626  0.99734258  0.72869043  1
  Tb  Tb1  1  0.73947863  0.00093516  0.23510405  1
  Mg  Mg2  1  0.88935293  0.49997703  0.37682971  1
  Nb  Nb3  1  0.37279555  0.49344082  0.23810860  1
  Nb  Nb4  1  0.74406213  0.50609294  0.86151071  1
  O  O5  1  0.01657107  0.69551153  0.06965637  1
  O  O6  1  0.10404747  0.23859014  0.38314353  1
  O  O7  1  0.40494312  0.77439594  0.42562744  1
  O  O8  1  0.44916494  0.25461536  0.98862716  1
  O  O9  1  0.58307663  0.30154074  0.50436004  1
  O  O10  1  0.50496987  0.75434346  0.94820259  1
  O  O11  1  0.89068783  0.76030509  0.59184699  1
  O  O12  1  0.92785756  0.22290821  0.89796538  1
