# generated using pymatgen
data_Na15Nb2Zn10P9(SO8)9
_symmetry_space_group_name_H-M   'P 1'
_cell_length_a   8.97908978
_cell_length_b   8.97293041
_cell_length_c   22.14871755
_cell_angle_alpha   90.41504668
_cell_angle_beta   90.10636200
_cell_angle_gamma   120.12136747
_symmetry_Int_Tables_number   1
_chemical_formula_structural   Na15Nb2Zn10P9(SO8)9
_chemical_formula_sum   'Na15 Nb2 Zn10 P9 S9 O72'
_cell_volume   1543.45242843
_cell_formula_units_Z   1
loop_
 _symmetry_equiv_pos_site_id
 _symmetry_equiv_pos_as_xyz
  1  'x, y, z'
loop_
 _atom_site_type_symbol
 _atom_site_label
 _atom_site_symmetry_multiplicity
 _atom_site_fract_x
 _atom_site_fract_y
 _atom_site_fract_z
 _atom_site_occupancy
  Na  Na0  1  0.98955127  0.34719271  0.74679939  1
  Na  Na1  1  0.29923951  0.33276825  0.58492289  1
  Na  Na2  1  0.66973509  0.96925918  0.58659073  1
  Na  Na3  1  0.29934704  0.96811796  0.08614068  1
  Na  Na4  1  0.66866419  0.69882813  0.08918365  1
  Na  Na5  1  0.96668976  0.67256384  0.91259020  1
  Na  Na6  1  0.32645967  0.29154161  0.91383328  1
  Na  Na7  1  0.33350865  0.04143787  0.41017612  1
  Na  Na8  1  0.70370815  0.66867276  0.41312210  1
  Na  Na9  1  0.99978030  0.00864376  0.49730577  1
  Na  Na10  1  0.99227521  0.02549477  0.99763526  1
  Na  Na11  1  0.65334614  0.31224405  0.82830958  1
  Na  Na12  1  0.66808081  0.32782761  0.32732861  1
  Na  Na13  1  0.31559208  0.65075864  0.16301404  1
  Na  Na14  1  0.33107282  0.68142378  0.66229079  1
  Nb  Nb15  1  0.34438555  0.67108418  0.31184928  1
  Nb  Nb16  1  0.33210997  0.67466608  0.81215370  1
  Zn  Zn17  1  0.00147223  0.01002037  0.34495131  1
  Zn  Zn18  1  0.00351717  0.00484181  0.84339900  1
  Zn  Zn19  1  0.99686870  0.99237483  0.66293040  1
  Zn  Zn20  1  0.99991942  0.99675451  0.16199824  1
  Zn  Zn21  1  0.66250994  0.33633086  0.68779288  1
  Zn  Zn22  1  0.65693616  0.33033107  0.18763812  1
  Zn  Zn23  1  0.67621523  0.31544127  0.97998355  1
  Zn  Zn24  1  0.66592638  0.32890416  0.48103121  1
  Zn  Zn25  1  0.32263767  0.66309212  0.01249900  1
  Zn  Zn26  1  0.33479992  0.66300846  0.51127085  1
  P  P27  1  0.29905304  0.00277881  0.25099088  1
  P  P28  1  0.71029388  0.70049208  0.25094455  1
  P  P29  1  0.30160204  0.29837960  0.75091690  1
  P  P30  1  0.99328873  0.70262602  0.75268949  1
  P  P31  1  0.70533621  0.00189923  0.74774548  1
  P  P32  1  0.03822705  0.36808502  0.91665387  1
  P  P33  1  0.33392753  0.96598563  0.92151736  1
  P  P34  1  0.63428767  0.96549954  0.42044303  1
  P  P35  1  0.32854749  0.36777166  0.41941963  1
  S  S36  1  0.99914590  0.29846397  0.25003682  1
  S  S37  1  0.96406845  0.33616339  0.58367293  1
  S  S38  1  0.36797768  0.03560013  0.58144997  1
  S  S39  1  0.67104815  0.63052456  0.58136580  1
  S  S40  1  0.95934757  0.62617167  0.08234332  1
  S  S41  1  0.67039236  0.03696313  0.08446782  1
  S  S42  1  0.37025641  0.33411979  0.08111602  1
  S  S43  1  0.62823885  0.67012054  0.91972186  1
  S  S44  1  0.03993317  0.66408878  0.41734534  1
  O  O45  1  0.21329639  0.02143513  0.30802943  1
  O  O46  1  0.81012034  0.78965875  0.30860555  1
  O  O47  1  0.97801679  0.19993310  0.30502664  1
  O  O48  1  0.22186137  0.19823033  0.80885174  1
  O  O49  1  0.97517402  0.77987817  0.81209767  1
  O  O50  1  0.82511262  0.03215344  0.80083755  1
  O  O51  1  0.76716504  0.96317624  0.68764754  1
  O  O52  1  0.18189954  0.22641879  0.69443273  1
  O  O53  1  0.02985522  0.81243101  0.69680739  1
  O  O54  1  0.77620244  0.80671797  0.19278875  1
  O  O55  1  0.03307277  0.22522145  0.19537290  1
  O  O56  1  0.19395002  0.96871639  0.19200078  1
  O  O57  1  0.88512189  0.34900944  0.64070629  1
  O  O58  1  0.48420469  0.12504608  0.63324190  1
  O  O59  1  0.65215749  0.51995198  0.63291786  1
  O  O60  1  0.86992852  0.52270143  0.13519158  1
  O  O61  1  0.64751514  0.12454060  0.13714883  1
  O  O62  1  0.48214723  0.35817481  0.13391544  1
  O  O63  1  0.44829263  0.31142090  0.02439213  1
  O  O64  1  0.86212302  0.54713795  0.02477965  1
  O  O65  1  0.68814033  0.13025220  0.02751992  1
  O  O66  1  0.44261850  0.13400400  0.52403878  1
  O  O67  1  0.68202996  0.55174070  0.52297247  1
  O  O68  1  0.85514510  0.31664493  0.53037086  1
  O  O69  1  0.55269915  0.68814800  0.97675164  1
  O  O70  1  0.15448767  0.45058987  0.97219887  1
  O  O71  1  0.31530518  0.86609990  0.97976610  1
  O  O72  1  0.55363375  0.86046402  0.47815657  1
  O  O73  1  0.30923291  0.44392018  0.47929871  1
  O  O74  1  0.14301323  0.68762303  0.47217616  1
  O  O75  1  0.13164791  0.65090693  0.36261111  1
  O  O76  1  0.50537733  0.85526456  0.36555907  1
  O  O77  1  0.34218169  0.49288932  0.36603727  1
  O  O78  1  0.13999948  0.48814369  0.86017355  1
  O  O79  1  0.34610731  0.85607065  0.86638444  1
  O  O80  1  0.51323867  0.65394639  0.86709392  1
  O  O81  1  0.02153481  0.82005967  0.41298292  1
  O  O82  1  0.80815029  0.97632848  0.41109144  1
  O  O83  1  0.17515373  0.18453929  0.41122877  1
  O  O84  1  0.01666418  0.18858994  0.90872912  1
  O  O85  1  0.16923265  0.97814946  0.91424601  1
  O  O86  1  0.80254576  0.81974368  0.91358351  1
  O  O87  1  0.98152112  0.17699740  0.58407130  1
  O  O88  1  0.19711205  0.02349796  0.58799588  1
  O  O89  1  0.82356459  0.80733065  0.58539833  1
  O  O90  1  0.97606163  0.80268589  0.08551439  1
  O  O91  1  0.82300613  0.01267026  0.08937568  1
  O  O92  1  0.19708942  0.17644646  0.08694945  1
  O  O93  1  0.67851483  0.15781208  0.74355330  1
  O  O94  1  0.48342491  0.33011177  0.74365395  1
  O  O95  1  0.85021057  0.51300388  0.74697826  1
  O  O96  1  0.67815448  0.51702375  0.24636163  1
  O  O97  1  0.85356316  0.32858796  0.24379941  1
  O  O98  1  0.48489013  0.15170098  0.24660328  1
  O  O99  1  0.63497280  0.50694057  0.91805966  1
  O  O100  1  0.86765386  0.37224664  0.91730973  1
  O  O101  1  0.49541283  0.14699341  0.91853026  1
  O  O102  1  0.63476289  0.13742685  0.41872665  1
  O  O103  1  0.50168581  0.36592686  0.41652723  1
  O  O104  1  0.86624609  0.50795579  0.41798686  1
  O  O105  1  0.35801518  0.49497382  0.07881614  1
  O  O106  1  0.13832058  0.65251432  0.08083894  1
  O  O107  1  0.50983924  0.85898638  0.08189549  1
  O  O108  1  0.35237848  0.86124310  0.57789960  1
  O  O109  1  0.50968321  0.64634552  0.58171090  1
  O  O110  1  0.14126153  0.49065603  0.58020509  1
  O  O111  1  0.31296367  0.83017008  0.25969757  1
  O  O112  1  0.51914528  0.67986354  0.25936919  1
  O  O113  1  0.16231911  0.47775352  0.25706538  1
  O  O114  1  0.31642718  0.48513331  0.75921508  1
  O  O115  1  0.16618336  0.68510182  0.75861117  1
  O  O116  1  0.52033790  0.83646834  0.75993495  1
