# generated using pymatgen
data_Na2ScNbSi(PO6)2
_symmetry_space_group_name_H-M   'P 1'
_cell_length_a   8.95524007
_cell_length_b   8.95523976
_cell_length_c   22.85075363
_cell_angle_alpha   89.98276178
_cell_angle_beta   90.01723821
_cell_angle_gamma   119.72085657
_symmetry_Int_Tables_number   1
_chemical_formula_structural   Na2ScNbSi(PO6)2
_chemical_formula_sum   'Na12 Sc6 Nb6 Si6 P12 O72'
_cell_volume   1591.47683910
_cell_formula_units_Z   6
loop_
 _symmetry_equiv_pos_site_id
 _symmetry_equiv_pos_as_xyz
  1  'x, y, z'
loop_
 _atom_site_type_symbol
 _atom_site_label
 _atom_site_symmetry_multiplicity
 _atom_site_fract_x
 _atom_site_fract_y
 _atom_site_fract_z
 _atom_site_occupancy
  Na  Na0  1  0.99062720  0.63018298  0.24711029  1
  Na  Na1  1  0.36981702  0.00937280  0.74711029  1
  Na  Na2  1  0.65634692  0.96471986  0.58318400  1
  Na  Na3  1  0.03528014  0.34365308  0.08318400  1
  Na  Na4  1  0.97797107  0.67731602  0.91654958  1
  Na  Na5  1  0.32268398  0.02202893  0.41654958  1
  Na  Na6  1  0.99938955  0.99544928  0.49525634  1
  Na  Na7  1  0.00455072  0.00061045  0.99525634  1
  Na  Na8  1  0.67008263  0.32963100  0.82887857  1
  Na  Na9  1  0.67036900  0.32991737  0.32887857  1
  Na  Na10  1  0.34908075  0.67766581  0.16174238  1
  Na  Na11  1  0.32233419  0.65091925  0.66174238  1
  Sc  Sc12  1  0.99130588  0.00134574  0.35283197  1
  Sc  Sc13  1  0.99865426  0.00869412  0.85283197  1
  Sc  Sc14  1  0.66952409  0.33280826  0.68575405  1
  Sc  Sc15  1  0.66719174  0.33047591  0.18575405  1
  Sc  Sc16  1  0.33407763  0.67483178  0.01923896  1
  Sc  Sc17  1  0.32516822  0.66592237  0.51923896  1
  Nb  Nb18  1  0.00355775  0.99958764  0.64709956  1
  Nb  Nb19  1  0.00041236  0.99644225  0.14709956  1
  Nb  Nb20  1  0.66134248  0.33046948  0.98030323  1
  Nb  Nb21  1  0.66953052  0.33865752  0.48030323  1
  Nb  Nb22  1  0.32769581  0.65783390  0.31348666  1
  Nb  Nb23  1  0.34216610  0.67230419  0.81348666  1
  Si  Si24  1  0.99757832  0.28923564  0.25037464  1
  Si  Si25  1  0.71076436  0.00242168  0.75037464  1
  Si  Si26  1  0.37442246  0.04196964  0.58437017  1
  Si  Si27  1  0.95803036  0.62557754  0.08437017  1
  Si  Si28  1  0.33335499  0.96117742  0.91727794  1
  Si  Si29  1  0.03882258  0.66664501  0.41727794  1
  P  P30  1  0.29247314  0.00180904  0.25262170  1
  P  P31  1  0.70821003  0.71173377  0.25073136  1
  P  P32  1  0.28826623  0.29178997  0.75073136  1
  P  P33  1  0.99819096  0.70752686  0.75262170  1
  P  P34  1  0.95848764  0.33379119  0.58437750  1
  P  P35  1  0.66845132  0.62412321  0.58484969  1
  P  P36  1  0.66620881  0.04151236  0.08437750  1
  P  P37  1  0.37587679  0.33154868  0.08484969  1
  P  P38  1  0.62281946  0.66514010  0.91817838  1
  P  P39  1  0.04423096  0.37702602  0.91875816  1
  P  P40  1  0.62297398  0.95576904  0.41875816  1
  P  P41  1  0.33485990  0.37718054  0.41817838  1
  O  O42  1  0.20867661  0.01929849  0.30798807  1
  O  O43  1  0.82436298  0.79146534  0.30346985  1
  O  O44  1  0.97727843  0.17622296  0.30635400  1
  O  O45  1  0.20853466  0.17563702  0.80346985  1
  O  O46  1  0.98070151  0.79132339  0.80798807  1
  O  O47  1  0.82377704  0.02272157  0.80635400  1
  O  O48  1  0.80155325  0.97332083  0.69051096  1
  O  O49  1  0.17010618  0.19754026  0.69530228  1
  O  O50  1  0.03209247  0.83288165  0.69788937  1
  O  O51  1  0.80245974  0.82989382  0.19530228  1
  O  O52  1  0.02667917  0.19844675  0.19051096  1
  O  O53  1  0.16711835  0.96790753  0.19788937  1
  O  O54  1  0.87382873  0.35725378  0.63846197  1
  O  O55  1  0.48969746  0.12830824  0.64177265  1
  O  O56  1  0.64645706  0.51675225  0.63832216  1
  O  O57  1  0.87169176  0.51030254  0.14177265  1
  O  O58  1  0.64274622  0.12617127  0.13846197  1
  O  O59  1  0.48324775  0.35354294  0.13832216  1
  O  O60  1  0.46655359  0.30433396  0.02905734  1
  O  O61  1  0.83465425  0.52949454  0.02528766  1
  O  O62  1  0.69594469  0.16344458  0.02963173  1
  O  O63  1  0.47050546  0.16534575  0.52528766  1
  O  O64  1  0.69566604  0.53344641  0.52905734  1
  O  O65  1  0.83655542  0.30405531  0.52963173  1
  O  O66  1  0.53729052  0.68662473  0.97155567  1
  O  O67  1  0.14487236  0.45596716  0.97488979  1
  O  O68  1  0.29985094  0.83550563  0.97149274  1
  O  O69  1  0.54403284  0.85512764  0.47488979  1
  O  O70  1  0.31337527  0.46270948  0.47155567  1
  O  O71  1  0.16449437  0.70014906  0.47149274  1
  O  O72  1  0.13576623  0.63763654  0.35783333  1
  O  O73  1  0.50128273  0.86422023  0.36460174  1
  O  O74  1  0.36135911  0.49355691  0.36219404  1
  O  O75  1  0.13577977  0.49871727  0.86460174  1
  O  O76  1  0.36236346  0.86423377  0.85783333  1
  O  O77  1  0.50644309  0.63864089  0.86219404  1
  O  O78  1  0.02541199  0.83823003  0.40973113  1
  O  O79  1  0.80333407  0.98281965  0.41153841  1
  O  O80  1  0.18509185  0.19399047  0.41034794  1
  O  O81  1  0.01718035  0.19666593  0.91153841  1
  O  O82  1  0.16176997  0.97458801  0.90973113  1
  O  O83  1  0.80600953  0.81490815  0.91034794  1
  O  O84  1  0.96099248  0.15871406  0.58855441  1
  O  O85  1  0.18201129  0.02596809  0.59071678  1
  O  O86  1  0.83542325  0.80732165  0.58929665  1
  O  O87  1  0.97403191  0.81798871  0.09071678  1
  O  O88  1  0.84128594  0.03900752  0.08855441  1
  O  O89  1  0.19267835  0.16457675  0.08929665  1
  O  O90  1  0.66762243  0.15736361  0.74589582  1
  O  O91  1  0.46688343  0.31242183  0.74198752  1
  O  O92  1  0.84371155  0.53095282  0.74338764  1
  O  O93  1  0.68757817  0.53311657  0.24198752  1
  O  O94  1  0.84263639  0.33237757  0.24589582  1
  O  O95  1  0.46904718  0.15628845  0.24338764  1
  O  O96  1  0.63922568  0.49720747  0.92205797  1
  O  O97  1  0.86402843  0.37107817  0.92279398  1
  O  O98  1  0.51099958  0.14988892  0.92411326  1
  O  O99  1  0.62892183  0.13597157  0.42279398  1
  O  O100  1  0.50279253  0.36077432  0.42205797  1
  O  O101  1  0.85011108  0.48900042  0.42411326  1
  O  O102  1  0.34463633  0.48286175  0.07633398  1
  O  O103  1  0.14391049  0.63779390  0.07828125  1
  O  O104  1  0.51605297  0.86137478  0.07684210  1
  O  O105  1  0.36220610  0.85608951  0.57828125  1
  O  O106  1  0.51713825  0.65536367  0.57633398  1
  O  O107  1  0.13862522  0.48394703  0.57684210  1
  O  O108  1  0.30048030  0.82933933  0.25561494  1
  O  O109  1  0.53080618  0.70233157  0.25629797  1
  O  O110  1  0.17823593  0.48488190  0.25661772  1
  O  O111  1  0.29766843  0.46919382  0.75629797  1
  O  O112  1  0.17066067  0.69951970  0.75561494  1
  O  O113  1  0.51511810  0.82176407  0.75661772  1
