# generated using pymatgen
data_Mg(MoO2)4
_symmetry_space_group_name_H-M   'P 1'
_cell_length_a   3.24440932
_cell_length_b   8.30717968
_cell_length_c   8.14114087
_cell_angle_alpha   80.66233085
_cell_angle_beta   78.16346966
_cell_angle_gamma   79.29425312
_symmetry_Int_Tables_number   1
_chemical_formula_structural   Mg(MoO2)4
_chemical_formula_sum   'Mg1 Mo4 O8'
_cell_volume   209.24996477
_cell_formula_units_Z   1
loop_
 _symmetry_equiv_pos_site_id
 _symmetry_equiv_pos_as_xyz
  1  'x, y, z'
loop_
 _atom_site_type_symbol
 _atom_site_label
 _atom_site_symmetry_multiplicity
 _atom_site_fract_x
 _atom_site_fract_y
 _atom_site_fract_z
 _atom_site_occupancy
  Mg  Mg0  1  0.03849934  0.26754891  0.65613485  1
  Mo  Mo1  1  0.72724249  0.15137386  0.39237259  1
  Mo  Mo2  1  0.12980353  0.52780621  0.20203303  1
  Mo  Mo3  1  0.81711298  0.52966348  0.85040205  1
  Mo  Mo4  1  0.34416534  0.80130620  0.48069270  1
  O  O5  1  0.85321748  0.70059865  0.62052812  1
  O  O6  1  0.44414298  0.36988605  0.74541920  1
  O  O7  1  0.53811850  0.63360978  0.31715510  1
  O  O8  1  0.14647224  0.32636357  0.38765986  1
  O  O9  1  0.19529256  0.04305588  0.55744838  1
  O  O10  1  0.74053655  0.40085923  0.10598920  1
  O  O11  1  0.86215923  0.91656977  0.33720788  1
  O  O12  1  0.20490479  0.63969541  0.96362804  1
