# generated using pymatgen
data_Na7Nb2Zn2Si3(PO8)3
_symmetry_space_group_name_H-M   'P 1'
_cell_length_a   9.16207837
_cell_length_b   9.12480952
_cell_length_c   22.23404716
_cell_angle_alpha   90.53006738
_cell_angle_beta   89.66887590
_cell_angle_gamma   120.18618870
_symmetry_Int_Tables_number   1
_chemical_formula_structural   Na7Nb2Zn2Si3(PO8)3
_chemical_formula_sum   'Na21 Nb6 Zn6 Si9 P9 O72'
_cell_volume   1606.68278657
_cell_formula_units_Z   3
loop_
 _symmetry_equiv_pos_site_id
 _symmetry_equiv_pos_as_xyz
  1  'x, y, z'
loop_
 _atom_site_type_symbol
 _atom_site_label
 _atom_site_symmetry_multiplicity
 _atom_site_fract_x
 _atom_site_fract_y
 _atom_site_fract_z
 _atom_site_occupancy
  Na  Na0  1  0.61604183  0.97874926  0.25888962  1
  Na  Na1  1  0.35625473  0.37530662  0.25499331  1
  Na  Na2  1  0.02662245  0.64440026  0.25458047  1
  Na  Na3  1  0.64766811  0.62129387  0.74543727  1
  Na  Na4  1  0.97864008  0.35958969  0.74238412  1
  Na  Na5  1  0.37705811  0.01966255  0.74366793  1
  Na  Na6  1  0.01451063  0.67979068  0.58429832  1
  Na  Na7  1  0.66851332  0.98757096  0.58371020  1
  Na  Na8  1  0.27962036  0.94931428  0.08560915  1
  Na  Na9  1  0.66858760  0.71728642  0.07994224  1
  Na  Na10  1  0.05097934  0.33426709  0.08594566  1
  Na  Na11  1  0.97519253  0.69139860  0.90819039  1
  Na  Na12  1  0.31631596  0.28840650  0.90939846  1
  Na  Na13  1  0.95209370  0.30608695  0.42461413  1
  Na  Na14  1  0.35631164  0.04339397  0.42274043  1
  Na  Na15  1  0.99967350  0.00133887  0.50125537  1
  Na  Na16  1  0.98500333  0.99337045  0.99628619  1
  Na  Na17  1  0.66743692  0.32930423  0.82187998  1
  Na  Na18  1  0.66645808  0.34098889  0.34761639  1
  Na  Na19  1  0.32567432  0.66660252  0.16927919  1
  Na  Na20  1  0.32808149  0.65498422  0.66387645  1
  Nb  Nb21  1  0.99794310  0.00208766  0.35183333  1
  Nb  Nb22  1  0.01148657  0.00702762  0.64862233  1
  Nb  Nb23  1  0.67209480  0.33265628  0.18913634  1
  Nb  Nb24  1  0.67062337  0.33976535  0.97684056  1
  Nb  Nb25  1  0.33776695  0.66767452  0.51771916  1
  Nb  Nb26  1  0.33479837  0.66555621  0.81512714  1
  Zn  Zn27  1  0.99001030  0.99360107  0.84850298  1
  Zn  Zn28  1  0.00467631  0.99588488  0.15163173  1
  Zn  Zn29  1  0.66852834  0.33543568  0.67785050  1
  Zn  Zn30  1  0.66467033  0.32531693  0.48919426  1
  Zn  Zn31  1  0.33319507  0.66862587  0.01597970  1
  Zn  Zn32  1  0.32935122  0.66926489  0.31804060  1
  Si  Si33  1  0.29247562  0.99786560  0.24605983  1
  Si  Si34  1  0.00385635  0.29293388  0.24548365  1
  Si  Si35  1  0.29548217  0.29248919  0.75629870  1
  Si  Si36  1  0.99845396  0.70312275  0.75372939  1
  Si  Si37  1  0.96284278  0.33225831  0.58290904  1
  Si  Si38  1  0.37354546  0.04209776  0.58219337  1
  Si  Si39  1  0.96322728  0.63053895  0.08328103  1
  Si  Si40  1  0.62980781  0.67618831  0.92231033  1
  Si  Si41  1  0.62865174  0.96169242  0.41213276  1
  P  P42  1  0.70994437  0.70905067  0.24632439  1
  P  P43  1  0.70805432  0.99778613  0.75212449  1
  P  P44  1  0.66552253  0.62731503  0.58426699  1
  P  P45  1  0.66551911  0.04551726  0.08216355  1
  P  P46  1  0.38031312  0.33366390  0.08337493  1
  P  P47  1  0.04099774  0.37285629  0.91964259  1
  P  P48  1  0.33635221  0.95947777  0.92086699  1
  P  P49  1  0.33534853  0.37502112  0.41173353  1
  P  P50  1  0.03785726  0.66704564  0.41459374  1
  O  O51  1  0.19411356  0.02961379  0.30553990  1
  O  O52  1  0.83368673  0.80169509  0.30149018  1
  O  O53  1  0.96785798  0.16256808  0.30506013  1
  O  O54  1  0.21110678  0.18278356  0.81475084  1
  O  O55  1  0.96886577  0.78381705  0.81307155  1
  O  O56  1  0.81870420  0.02783936  0.80628257  1
  O  O57  1  0.78614304  0.96335335  0.69403161  1
  O  O58  1  0.16277247  0.19413919  0.69755758  1
  O  O59  1  0.02688088  0.83017264  0.69473756  1
  O  O60  1  0.78310105  0.81201499  0.18960869  1
  O  O61  1  0.02882545  0.20903942  0.18586465  1
  O  O62  1  0.18053667  0.96250565  0.18691772  1
  O  O63  1  0.89645106  0.38246180  0.64266609  1
  O  O64  1  0.48730103  0.10801193  0.64223125  1
  O  O65  1  0.63238676  0.53214366  0.64324663  1
  O  O66  1  0.85418019  0.50213541  0.14101997  1
  O  O67  1  0.64941786  0.14117434  0.14033194  1
  O  O68  1  0.49354474  0.34763070  0.13907861  1
  O  O69  1  0.47822308  0.31755686  0.02685265  1
  O  O70  1  0.83587426  0.51877056  0.02514913  1
  O  O71  1  0.67985122  0.16300528  0.02865407  1
  O  O72  1  0.44203819  0.14391228  0.52094897  1
  O  O73  1  0.70613101  0.55050125  0.53061754  1
  O  O74  1  0.84817476  0.28731226  0.52349233  1
  O  O75  1  0.53967493  0.68591760  0.98231906  1
  O  O76  1  0.14296337  0.45473840  0.97643843  1
  O  O77  1  0.30745583  0.85289121  0.97642320  1
  O  O78  1  0.52723189  0.83859245  0.47179678  1
  O  O79  1  0.30695021  0.46922076  0.46682150  1
  O  O80  1  0.15904678  0.69484447  0.47014190  1
  O  O81  1  0.11267356  0.63830712  0.35740963  1
  O  O82  1  0.51692299  0.87595718  0.35374795  1
  O  O83  1  0.34716665  0.46793249  0.35415793  1
  O  O84  1  0.13142869  0.49648718  0.86345006  1
  O  O85  1  0.35777726  0.86608902  0.86350106  1
  O  O86  1  0.49862203  0.64107387  0.86260448  1
  O  O87  1  0.03792584  0.84088474  0.41147362  1
  O  O88  1  0.81958179  0.97511335  0.41009298  1
  O  O89  1  0.16111280  0.19388561  0.41120542  1
  O  O90  1  0.02194664  0.20052898  0.91061913  1
  O  O91  1  0.18821940  0.98983756  0.91436576  1
  O  O92  1  0.82163253  0.82477086  0.91529075  1
  O  O93  1  0.97690943  0.15781464  0.59357914  1
  O  O94  1  0.17344554  0.00276769  0.59130833  1
  O  O95  1  0.82329175  0.81463547  0.59088324  1
  O  O96  1  0.96464541  0.80767495  0.08216259  1
  O  O97  1  0.82693438  0.03750392  0.08288067  1
  O  O98  1  0.20851904  0.17221356  0.08165399  1
  O  O99  1  0.67736210  0.14630137  0.74577590  1
  O  O100  1  0.48181293  0.32103924  0.74548059  1
  O  O101  1  0.83970861  0.51345518  0.74542349  1
  O  O102  1  0.70288618  0.53153685  0.24461234  1
  O  O103  1  0.82431449  0.30290583  0.24450764  1
  O  O104  1  0.47873013  0.18138859  0.24397150  1
  O  O105  1  0.63383962  0.48794430  0.92246328  1
  O  O106  1  0.86437681  0.36638486  0.92133181  1
  O  O107  1  0.50371236  0.13828248  0.92268727  1
  O  O108  1  0.65725368  0.15140849  0.41883310  1
  O  O109  1  0.48016468  0.34303031  0.41981966  1
  O  O110  1  0.86350082  0.51487453  0.42441705  1
  O  O111  1  0.37199736  0.49630683  0.08432669  1
  O  O112  1  0.14183414  0.63557830  0.08256283  1
  O  O113  1  0.50276665  0.87433748  0.08321747  1
  O  O114  1  0.34364029  0.84201474  0.57365264  1
  O  O115  1  0.50990713  0.65736259  0.57417413  1
  O  O116  1  0.15540994  0.50061132  0.57151347  1
  O  O117  1  0.32486026  0.84114339  0.25322048  1
  O  O118  1  0.53204846  0.67601481  0.25556371  1
  O  O119  1  0.16201089  0.48085109  0.25509849  1
  O  O120  1  0.30242344  0.48150367  0.75776997  1
  O  O121  1  0.18091237  0.69872876  0.75709856  1
  O  O122  1  0.52751105  0.82826159  0.75771792  1
