# generated using pymatgen
data_Na6Ta3Al(SiO4)6
_symmetry_space_group_name_H-M   'P 1'
_cell_length_a   15.54918714
_cell_length_b   8.99450583
_cell_length_c   8.98800650
_cell_angle_alpha   90.53258876
_cell_angle_beta   124.78663014
_cell_angle_gamma   89.61869511
_symmetry_Int_Tables_number   1
_chemical_formula_structural   Na6Ta3Al(SiO4)6
_chemical_formula_sum   'Na12 Ta6 Al2 Si12 O48'
_cell_volume   1032.33706474
_cell_formula_units_Z   2
loop_
 _symmetry_equiv_pos_site_id
 _symmetry_equiv_pos_as_xyz
  1  'x, y, z'
loop_
 _atom_site_type_symbol
 _atom_site_label
 _atom_site_symmetry_multiplicity
 _atom_site_fract_x
 _atom_site_fract_y
 _atom_site_fract_z
 _atom_site_occupancy
  Na  Na0  1  0.24956829  0.74988350  0.99900775  1
  Na  Na1  1  0.74440095  0.74706700  0.48178438  1
  Na  Na2  1  0.74956829  0.24988350  0.99900775  1
  Na  Na3  1  0.24440095  0.24706700  0.48178438  1
  Na  Na4  1  0.50486550  0.10323031  0.76514241  1
  Na  Na5  1  0.49919244  0.87468590  0.23195815  1
  Na  Na6  1  0.00486550  0.60323031  0.76514241  1
  Na  Na7  1  0.99919244  0.37468590  0.23195815  1
  Na  Na8  1  0.80083868  0.93500287  0.21243235  1
  Na  Na9  1  0.18929327  0.06916019  0.80420908  1
  Na  Na10  1  0.30083868  0.43500287  0.21243235  1
  Na  Na11  1  0.68929327  0.56916019  0.80420908  1
  Ta  Ta12  1  0.10691598  0.75209478  0.56541974  1
  Ta  Ta13  1  0.89366567  0.75351310  0.92869838  1
  Ta  Ta14  1  0.89219691  0.25010981  0.43285533  1
  Ta  Ta15  1  0.60691598  0.25209478  0.56541974  1
  Ta  Ta16  1  0.39366567  0.25351310  0.92869838  1
  Ta  Ta17  1  0.39219691  0.75010981  0.43285533  1
  Al  Al18  1  0.10567917  0.24734043  0.06721902  1
  Al  Al19  1  0.60567917  0.74734043  0.06721902  1
  Si  Si20  1  0.99955735  0.96903863  0.75497939  1
  Si  Si21  1  0.00685690  0.04366050  0.25121724  1
  Si  Si22  1  0.49955735  0.46903863  0.75497939  1
  Si  Si23  1  0.50685690  0.54366050  0.25121724  1
  Si  Si24  1  0.36114223  0.88675996  0.76711206  1
  Si  Si25  1  0.64363744  0.89408284  0.75347906  1
  Si  Si26  1  0.64363698  0.10276690  0.24044965  1
  Si  Si27  1  0.35139478  0.10754401  0.25074029  1
  Si  Si28  1  0.86114223  0.38675996  0.76711206  1
  Si  Si29  1  0.14363744  0.39408284  0.75347906  1
  Si  Si30  1  0.14363698  0.60276690  0.24044965  1
  Si  Si31  1  0.85139478  0.60754401  0.25074029  1
  O  O32  1  0.14802180  0.57540708  0.73502031  1
  O  O33  1  0.84906561  0.57123862  0.76109270  1
  O  O34  1  0.85255446  0.42485838  0.26169664  1
  O  O35  1  0.15226372  0.42350677  0.23856721  1
  O  O36  1  0.64802180  0.07540708  0.73502031  1
  O  O37  1  0.34906561  0.07123862  0.76109270  1
  O  O38  1  0.35255446  0.92485838  0.26169664  1
  O  O39  1  0.65226372  0.92350677  0.23856721  1
  O  O40  1  0.42886200  0.56328848  0.56400276  1
  O  O41  1  0.57210468  0.57924675  0.92176807  1
  O  O42  1  0.57121317  0.43877637  0.43372401  1
  O  O43  1  0.43515379  0.42580197  0.08189964  1
  O  O44  1  0.92886200  0.06328848  0.56400276  1
  O  O45  1  0.07210468  0.07924675  0.92176807  1
  O  O46  1  0.07121317  0.93877637  0.43372401  1
  O  O47  1  0.93515379  0.92580197  0.08189964  1
  O  O48  1  0.25584346  0.82175274  0.74595786  1
  O  O49  1  0.74147536  0.81144684  0.76222944  1
  O  O50  1  0.74363927  0.17906262  0.25372942  1
  O  O51  1  0.25435463  0.19114960  0.23290878  1
  O  O52  1  0.75584346  0.32175274  0.74595786  1
  O  O53  1  0.24147536  0.31144684  0.76222944  1
  O  O54  1  0.24363927  0.67906262  0.25372942  1
  O  O55  1  0.75435463  0.69114960  0.23290878  1
  O  O56  1  0.36008785  0.84803881  0.58556789  1
  O  O57  1  0.64319990  0.86366356  0.92969061  1
  O  O58  1  0.63941870  0.15207438  0.41338970  1
  O  O59  1  0.35647064  0.14059781  0.07424216  1
  O  O60  1  0.86008785  0.34803881  0.58556789  1
  O  O61  1  0.14319990  0.36366356  0.92969061  1
  O  O62  1  0.13941870  0.65207438  0.41338970  1
  O  O63  1  0.85647064  0.64059781  0.07424216  1
  O  O64  1  0.46749517  0.82961164  0.94588835  1
  O  O65  1  0.53685056  0.82696426  0.56757125  1
  O  O66  1  0.53609062  0.16868390  0.05873846  1
  O  O67  1  0.46232004  0.17305791  0.43079930  1
  O  O68  1  0.96749517  0.32961164  0.94588835  1
  O  O69  1  0.03685056  0.32696426  0.56757125  1
  O  O70  1  0.03609062  0.66868390  0.05873846  1
  O  O71  1  0.96232004  0.67305791  0.43079930  1
  O  O72  1  0.08048076  0.85723772  0.74006657  1
  O  O73  1  0.91919205  0.85414501  0.76105432  1
  O  O74  1  0.91813067  0.14201823  0.25735635  1
  O  O75  1  0.08286855  0.15242982  0.23633394  1
  O  O76  1  0.58048076  0.35723772  0.74006657  1
  O  O77  1  0.41919205  0.35414501  0.76105432  1
  O  O78  1  0.41813067  0.64201823  0.25735635  1
  O  O79  1  0.58286855  0.65242982  0.23633394  1
