# generated using pymatgen
data_MgFe4(OF)4
_symmetry_space_group_name_H-M   'P 1'
_cell_length_a   5.21754990
_cell_length_b   9.97019463
_cell_length_c   3.06076500
_cell_angle_alpha   90.00000000
_cell_angle_beta   90.00000000
_cell_angle_gamma   96.91986935
_symmetry_Int_Tables_number   1
_chemical_formula_structural   MgFe4(OF)4
_chemical_formula_sum   'Mg1 Fe4 O4 F4'
_cell_volume   158.06113259
_cell_formula_units_Z   1
loop_
 _symmetry_equiv_pos_site_id
 _symmetry_equiv_pos_as_xyz
  1  'x, y, z'
loop_
 _atom_site_type_symbol
 _atom_site_label
 _atom_site_symmetry_multiplicity
 _atom_site_fract_x
 _atom_site_fract_y
 _atom_site_fract_z
 _atom_site_occupancy
  Mg  Mg0  1  0.56636300  0.00774800  0.00000000  1
  Fe  Fe1  1  0.08695300  0.98525100  0.00000000  1
  Fe  Fe2  1  0.96284600  0.50987000  0.00000000  1
  Fe  Fe3  1  0.44889000  0.29342000  0.50000000  1
  Fe  Fe4  1  0.44060800  0.72903100  0.50000000  1
  O  O5  1  0.32581100  0.91936300  0.50000000  1
  O  O6  1  0.34281300  0.16262500  0.00000000  1
  O  O7  1  0.26623100  0.62535500  0.00000000  1
  O  O8  1  0.64970700  0.37697000  0.00000000  1
  F  F9  1  0.12225400  0.39011200  0.50000000  1
  F  F10  1  0.75357200  0.84492000  0.00000000  1
  F  F11  1  0.81827800  0.07267400  0.50000000  1
  F  F12  1  0.79900800  0.60349600  0.50000000  1
