# generated using pymatgen
data_NaNb2Zn2P3(SO8)3
_symmetry_space_group_name_H-M   'P 1'
_cell_length_a   8.77346634
_cell_length_b   8.76925232
_cell_length_c   22.64093223
_cell_angle_alpha   89.92152113
_cell_angle_beta   90.18063287
_cell_angle_gamma   119.91167755
_symmetry_Int_Tables_number   1
_chemical_formula_structural   NaNb2Zn2P3(SO8)3
_chemical_formula_sum   'Na3 Nb6 Zn6 P9 S9 O72'
_cell_volume   1509.87981629
_cell_formula_units_Z   3
loop_
 _symmetry_equiv_pos_site_id
 _symmetry_equiv_pos_as_xyz
  1  'x, y, z'
loop_
 _atom_site_type_symbol
 _atom_site_label
 _atom_site_symmetry_multiplicity
 _atom_site_fract_x
 _atom_site_fract_y
 _atom_site_fract_z
 _atom_site_occupancy
  Na  Na0  1  0.99114290  0.99987402  0.99983135  1
  Na  Na1  1  0.67530526  0.34273423  0.83512429  1
  Na  Na2  1  0.65984794  0.32867603  0.34050090  1
  Nb  Nb3  1  0.99900774  0.99656541  0.35632790  1
  Nb  Nb4  1  0.00107262  0.99870361  0.64439972  1
  Nb  Nb5  1  0.66020352  0.32457854  0.19086824  1
  Nb  Nb6  1  0.34032098  0.66662646  0.02412415  1
  Nb  Nb7  1  0.33347774  0.65825547  0.51785981  1
  Nb  Nb8  1  0.32540807  0.65889200  0.81137714  1
  Zn  Zn9  1  0.98995055  0.99259509  0.85540310  1
  Zn  Zn10  1  0.99163433  0.99260821  0.15046233  1
  Zn  Zn11  1  0.68346250  0.34239371  0.68371474  1
  Zn  Zn12  1  0.67715253  0.33697191  0.97900142  1
  Zn  Zn13  1  0.66638002  0.32281845  0.48123525  1
  Zn  Zn14  1  0.34945973  0.67605275  0.31129084  1
  P  P15  1  0.27889475  0.98922778  0.24861935  1
  P  P16  1  0.70898213  0.71298666  0.24827155  1
  P  P17  1  0.99251225  0.70911163  0.75269753  1
  P  P18  1  0.95331923  0.33583851  0.58320780  1
  P  P19  1  0.67634816  0.05088243  0.08097068  1
  P  P20  1  0.62478807  0.66448848  0.91667325  1
  P  P21  1  0.04109127  0.37212588  0.91773625  1
  P  P22  1  0.62034198  0.96007308  0.41447972  1
  P  P23  1  0.34062883  0.37752069  0.41311040  1
  S  S24  1  0.00614431  0.29270930  0.24961015  1
  S  S25  1  0.29258642  0.28563658  0.75124151  1
  S  S26  1  0.71039823  0.00304501  0.75122771  1
  S  S27  1  0.38017187  0.04342392  0.58399743  1
  S  S28  1  0.66511955  0.62013874  0.58345396  1
  S  S29  1  0.95464943  0.62466838  0.08194632  1
  S  S30  1  0.37537110  0.32668107  0.08194416  1
  S  S31  1  0.33333339  0.95609141  0.91682036  1
  S  S32  1  0.04205485  0.66185237  0.41487125  1
  O  O33  1  0.19843389  0.03320086  0.30463210  1
  O  O34  1  0.83469661  0.80050722  0.30437588  1
  O  O35  1  0.96495109  0.17435511  0.30295049  1
  O  O36  1  0.21124511  0.18212554  0.80366128  1
  O  O37  1  0.97189114  0.79783518  0.80626342  1
  O  O38  1  0.81910760  0.03330709  0.80330134  1
  O  O39  1  0.79475410  0.97295832  0.69728933  1
  O  O40  1  0.17807467  0.20562744  0.69699977  1
  O  O41  1  0.02450305  0.82904658  0.69586202  1
  O  O42  1  0.79139861  0.81888452  0.19376486  1
  O  O43  1  0.02723719  0.21405303  0.19612995  1
  O  O44  1  0.18127075  0.97917293  0.19294173  1
  O  O45  1  0.88644815  0.37284382  0.63934936  1
  O  O46  1  0.48236949  0.11642097  0.63764990  1
  O  O47  1  0.62997005  0.51657084  0.63696932  1
  O  O48  1  0.87437077  0.51220587  0.13548428  1
  O  O49  1  0.64121423  0.13744658  0.13740560  1
  O  O50  1  0.48884771  0.36188429  0.13615113  1
  O  O51  1  0.45701045  0.30567213  0.02938057  1
  O  O52  1  0.84857717  0.54652961  0.02918932  1
  O  O53  1  0.69491362  0.15784081  0.02677499  1
  O  O54  1  0.44525174  0.15089184  0.53140543  1
  O  O55  1  0.70188998  0.55196830  0.53064556  1
  O  O56  1  0.84367468  0.29439811  0.52837238  1
  O  O57  1  0.52456905  0.68664744  0.97207630  1
  O  O58  1  0.16217349  0.47510173  0.97159359  1
  O  O59  1  0.31086311  0.84379326  0.97009284  1
  O  O60  1  0.53002291  0.83759411  0.47133269  1
  O  O61  1  0.30652213  0.46666518  0.47107388  1
  O  O62  1  0.15566126  0.69387327  0.46972531  1
  O  O63  1  0.12163441  0.63634088  0.36299617  1
  O  O64  1  0.50810104  0.87588598  0.36151671  1
  O  O65  1  0.36024747  0.48902867  0.36081883  1
  O  O66  1  0.14148701  0.49502194  0.86111144  1
  O  O67  1  0.35530586  0.86540193  0.86287616  1
  O  O68  1  0.50397682  0.64693089  0.86161911  1
  O  O69  1  0.03259963  0.82958608  0.41057180  1
  O  O70  1  0.80489020  0.96970898  0.40718995  1
  O  O71  1  0.16629526  0.19417744  0.40710893  1
  O  O72  1  0.03804386  0.19902595  0.91164759  1
  O  O73  1  0.17330653  0.96672446  0.91246768  1
  O  O74  1  0.79960507  0.83351930  0.91405905  1
  O  O75  1  0.98388763  0.17259230  0.59688189  1
  O  O76  1  0.19481527  0.01962589  0.59427658  1
  O  O77  1  0.82210022  0.80526415  0.59338692  1
  O  O78  1  0.98533998  0.80312829  0.08887137  1
  O  O79  1  0.82927358  0.01985080  0.08990444  1
  O  O80  1  0.19854777  0.17937322  0.09000168  1
  O  O81  1  0.68152379  0.15167435  0.74225665  1
  O  O82  1  0.46786235  0.31117789  0.74161216  1
  O  O83  1  0.83797428  0.52583261  0.74380737  1
  O  O84  1  0.70031568  0.52478467  0.24057678  1
  O  O85  1  0.83502111  0.30367063  0.24363216  1
  O  O86  1  0.47204023  0.16917215  0.24171008  1
  O  O87  1  0.62837286  0.49429010  0.92107278  1
  O  O88  1  0.86618319  0.36659706  0.91880845  1
  O  O89  1  0.49359925  0.12649540  0.92010777  1
  O  O90  1  0.65124670  0.14375641  0.42379963  1
  O  O91  1  0.49642982  0.35388560  0.42589041  1
  O  O92  1  0.86538170  0.51498438  0.42437234  1
  O  O93  1  0.36287854  0.49442958  0.07633867  1
  O  O94  1  0.13311726  0.63630619  0.07455104  1
  O  O95  1  0.50016152  0.86359787  0.07306830  1
  O  O96  1  0.34969973  0.86190992  0.57453600  1
  O  O97  1  0.51107518  0.64955473  0.57479613  1
  O  O98  1  0.14414695  0.49543867  0.57090184  1
  O  O99  1  0.31021923  0.84075902  0.26000069  1
  O  O100  1  0.52726378  0.67635205  0.25877915  1
  O  O101  1  0.14906428  0.46673560  0.25979339  1
  O  O102  1  0.30526446  0.46493639  0.75653193  1
  O  O103  1  0.16756146  0.69753307  0.75983410  1
  O  O104  1  0.53499697  0.83733473  0.75733672  1
