# generated using pymatgen
data_RbEu2I5
_symmetry_space_group_name_H-M   'P 1'
_cell_length_a   9.03974678
_cell_length_b   10.09577818
_cell_length_c   14.33202269
_cell_angle_alpha   89.74442487
_cell_angle_beta   90.00308189
_cell_angle_gamma   90.00212183
_symmetry_Int_Tables_number   1
_chemical_formula_structural   RbEu2I5
_chemical_formula_sum   'Rb4 Eu8 I20'
_cell_volume   1307.97436042
_cell_formula_units_Z   4
loop_
 _symmetry_equiv_pos_site_id
 _symmetry_equiv_pos_as_xyz
  1  'x, y, z'
loop_
 _atom_site_type_symbol
 _atom_site_label
 _atom_site_symmetry_multiplicity
 _atom_site_fract_x
 _atom_site_fract_y
 _atom_site_fract_z
 _atom_site_occupancy
  Rb  Rb0  1  0.94706694  0.50719006  0.16862509  1
  Rb  Rb1  1  0.44706635  0.49281335  0.33136534  1
  Rb  Rb2  1  0.05294655  0.49281402  0.83137221  1
  Rb  Rb3  1  0.55293862  0.50718555  0.66863334  1
  Eu  Eu4  1  0.97340427  0.00284710  0.18032162  1
  Eu  Eu5  1  0.92602409  0.24672383  0.49391077  1
  Eu  Eu6  1  0.42603264  0.75326545  0.00610227  1
  Eu  Eu7  1  0.07396263  0.75325298  0.50610159  1
  Eu  Eu8  1  0.57397604  0.24674180  0.99390550  1
  Eu  Eu9  1  0.52661428  0.00287648  0.68027018  1
  Eu  Eu10  1  0.02660001  0.99715079  0.81969804  1
  Eu  Eu11  1  0.47340802  0.99714296  0.31969152  1
  I  I12  1  0.18811961  0.77303512  0.28311332  1
  I  I13  1  0.83664817  0.78297786  0.68291731  1
  I  I14  1  0.33664954  0.21701719  0.81706494  1
  I  I15  1  0.16335716  0.21700740  0.31705408  1
  I  I16  1  0.66336105  0.78300328  0.18293788  1
  I  I17  1  0.81189021  0.22697351  0.71685526  1
  I  I18  1  0.31189890  0.77307013  0.78309998  1
  I  I19  1  0.95533789  0.21249391  0.99747281  1
  I  I20  1  0.83760740  0.95780616  0.40133401  1
  I  I21  1  0.33757850  0.04218262  0.09868069  1
  I  I22  1  0.16234615  0.04219941  0.59867805  1
  I  I23  1  0.66237554  0.95775764  0.90131476  1
  I  I24  1  0.04469459  0.78751023  0.00252841  1
  I  I25  1  0.45535750  0.78752025  0.50252613  1
  I  I26  1  0.67519098  0.53764260  0.91904938  1
  I  I27  1  0.54467005  0.21247643  0.49747703  1
  I  I28  1  0.82476948  0.53764043  0.41902167  1
  I  I29  1  0.32476299  0.46234700  0.08096167  1
  I  I30  1  0.17522943  0.46237477  0.58097766  1
  I  I31  1  0.68811444  0.22695867  0.21693347  1
