# generated using pymatgen
data_SmFeO3
_symmetry_space_group_name_H-M   'P 1'
_cell_length_a   5.38849724
_cell_length_b   5.64927650
_cell_length_c   7.71566968
_cell_angle_alpha   89.99959882
_cell_angle_beta   90.00374659
_cell_angle_gamma   89.99995895
_symmetry_Int_Tables_number   1
_chemical_formula_structural   SmFeO3
_chemical_formula_sum   'Sm4 Fe4 O12'
_cell_volume   234.87355529
_cell_formula_units_Z   4
loop_
 _symmetry_equiv_pos_site_id
 _symmetry_equiv_pos_as_xyz
  1  'x, y, z'
loop_
 _atom_site_type_symbol
 _atom_site_label
 _atom_site_symmetry_multiplicity
 _atom_site_fract_x
 _atom_site_fract_y
 _atom_site_fract_z
 _atom_site_occupancy
  Sm  Sm0  1  0.51574387  0.56336671  0.25001652  1
  Sm  Sm1  1  0.98425403  0.06336662  0.24998159  1
  Sm  Sm2  1  0.48425539  0.43663362  0.74998354  1
  Sm  Sm3  1  0.01574555  0.93663285  0.75001795  1
  Fe  Fe4  1  0.49999912  -0.00000001  -0.00000033  1
  Fe  Fe5  1  -0.00000091  0.49999991  0.49999970  1
  Fe  Fe6  1  0.49999929  0.00000003  0.50000035  1
  Fe  Fe7  1  -0.00000105  0.49999984  0.00000025  1
  O  O8  1  0.40020553  0.96903412  0.24998109  1
  O  O9  1  0.09979571  0.46903415  0.25001965  1
  O  O10  1  0.59979501  0.03096594  0.75001901  1
  O  O11  1  0.90020471  0.53096543  0.74998026  1
  O  O12  1  0.80252003  0.80102332  0.05205622  1
  O  O13  1  0.69748380  0.30102226  0.44794243  1
  O  O14  1  0.19751204  0.19897857  0.55203012  1
  O  O15  1  0.30249309  0.69897866  0.94797142  1
  O  O16  1  0.19748043  0.19897620  0.94794367  1
  O  O17  1  0.30251758  0.69897842  0.55205746  1
  O  O18  1  0.80248952  0.80102176  0.44797032  1
  O  O19  1  0.69750724  0.30102159  0.05202877  1
