# generated using pymatgen
data_MgZn2(FeO2)4
_symmetry_space_group_name_H-M   'P 1'
_cell_length_a   2.98485258
_cell_length_b   8.04431843
_cell_length_c   8.08327576
_cell_angle_alpha   64.05146207
_cell_angle_beta   79.37608439
_cell_angle_gamma   79.32875054
_symmetry_Int_Tables_number   1
_chemical_formula_structural   MgZn2(FeO2)4
_chemical_formula_sum   'Mg1 Zn2 Fe4 O8'
_cell_volume   170.32684165
_cell_formula_units_Z   1
loop_
 _symmetry_equiv_pos_site_id
 _symmetry_equiv_pos_as_xyz
  1  'x, y, z'
loop_
 _atom_site_type_symbol
 _atom_site_label
 _atom_site_symmetry_multiplicity
 _atom_site_fract_x
 _atom_site_fract_y
 _atom_site_fract_z
 _atom_site_occupancy
  Mg  Mg0  1  0.49973966  0.98855550  0.01622624  1
  Zn  Zn1  1  0.29028249  0.15586839  0.26417663  1
  Zn  Zn2  1  0.70530800  0.82170678  0.76801590  1
  Fe  Fe3  1  0.58205021  0.21595506  0.61859005  1
  Fe  Fe4  1  0.14829485  0.52737204  0.17682470  1
  Fe  Fe5  1  0.84746968  0.45014198  0.85542657  1
  Fe  Fe6  1  0.41150172  0.76159853  0.41370987  1
  O  O7  1  0.85939748  0.68286963  0.59704883  1
  O  O8  1  0.43484538  0.28769982  0.84332815  1
  O  O9  1  0.56138698  0.68975462  0.18903705  1
  O  O10  1  0.13448234  0.29467172  0.43518344  1
  O  O11  1  0.09856036  0.99333207  0.81173983  1
  O  O12  1  0.75426469  0.35783679  0.13334853  1
  O  O13  1  0.89985477  0.98403113  0.22070094  1
  O  O14  1  0.24083940  0.61960894  0.89892925  1
