# generated using pymatgen
data_NbIn3SiS5O24
_symmetry_space_group_name_H-M   'P 1'
_cell_length_a   8.89921747
_cell_length_b   8.94845575
_cell_length_c   23.18799576
_cell_angle_alpha   90.16255522
_cell_angle_beta   90.15450586
_cell_angle_gamma   119.98562132
_symmetry_Int_Tables_number   1
_chemical_formula_structural   NbIn3SiS5O24
_chemical_formula_sum   'Nb3 In9 Si3 S15 O72'
_cell_volume   1599.37394433
_cell_formula_units_Z   3
loop_
 _symmetry_equiv_pos_site_id
 _symmetry_equiv_pos_as_xyz
  1  'x, y, z'
loop_
 _atom_site_type_symbol
 _atom_site_label
 _atom_site_symmetry_multiplicity
 _atom_site_fract_x
 _atom_site_fract_y
 _atom_site_fract_z
 _atom_site_occupancy
  Nb  Nb0  1  0.67095469  0.33747238  0.97417450  1
  Nb  Nb1  1  0.33227529  0.67429031  0.30950456  1
  Nb  Nb2  1  0.32998340  0.65640229  0.81744493  1
  In  In3  1  0.00892122  0.00401559  0.35185799  1
  In  In4  1  0.99325540  0.99785977  0.85569958  1
  In  In5  1  0.99738546  0.99892976  0.64853980  1
  In  In6  1  0.00680574  0.99683584  0.14344568  1
  In  In7  1  0.66864348  0.33480253  0.68551654  1
  In  In8  1  0.65816888  0.32467628  0.18688438  1
  In  In9  1  0.66513196  0.33201547  0.47812821  1
  In  In10  1  0.33691490  0.66462787  0.02125134  1
  In  In11  1  0.33505362  0.66741896  0.52066757  1
  Si  Si12  1  0.29015215  0.00992312  0.24941988  1
  Si  Si13  1  0.62445639  0.66968222  0.92011639  1
  Si  Si14  1  0.04808392  0.37752840  0.91959039  1
  S  S15  1  0.70548142  0.70909523  0.25109804  1
  S  S16  1  0.00121435  0.29587394  0.25138333  1
  S  S17  1  0.29262155  0.29421788  0.74978713  1
  S  S18  1  0.00530737  0.70953813  0.74944148  1
  S  S19  1  0.70034104  0.99714505  0.74899665  1
  S  S20  1  0.95911526  0.33208327  0.58282765  1
  S  S21  1  0.37326680  0.04110061  0.58290968  1
  S  S22  1  0.66795116  0.62586835  0.58302356  1
  S  S23  1  0.94952696  0.61687658  0.08293564  1
  S  S24  1  0.66906077  0.04428523  0.08247795  1
  S  S25  1  0.37912533  0.33381280  0.08252729  1
  S  S26  1  0.33823048  0.95538695  0.91718835  1
  S  S27  1  0.62400115  0.95445095  0.41562443  1
  S  S28  1  0.33332750  0.38038477  0.41695086  1
  S  S29  1  0.04403751  0.66412711  0.41683860  1
  O  O30  1  0.21338401  0.03255728  0.30915681  1
  O  O31  1  0.80782329  0.78637353  0.30387340  1
  O  O32  1  0.96458533  0.18840725  0.30310466  1
  O  O33  1  0.21463185  0.18464088  0.79990680  1
  O  O34  1  0.97570846  0.79012542  0.79971716  1
  O  O35  1  0.81479730  0.03150360  0.79870710  1
  O  O36  1  0.77048719  0.95983885  0.69584161  1
  O  O37  1  0.18557718  0.22359556  0.69665294  1
  O  O38  1  0.03780342  0.81450896  0.69627354  1
  O  O39  1  0.76928526  0.82053800  0.20026043  1
  O  O40  1  0.04181169  0.22649772  0.20011903  1
  O  O41  1  0.16412823  0.94929830  0.19371266  1
  O  O42  1  0.88110841  0.36261625  0.63472454  1
  O  O43  1  0.48229327  0.11963351  0.63494383  1
  O  O44  1  0.63776766  0.51808528  0.63489063  1
  O  O45  1  0.87317363  0.51485513  0.13566842  1
  O  O46  1  0.64630885  0.12103315  0.13576248  1
  O  O47  1  0.48098319  0.36009219  0.13586891  1
  O  O48  1  0.47197070  0.31372286  0.03181908  1
  O  O49  1  0.83745249  0.51862842  0.03128423  1
  O  O50  1  0.68866520  0.15469903  0.03126302  1
  O  O51  1  0.45161871  0.14820373  0.53064834  1
  O  O52  1  0.69774238  0.54773896  0.53071828  1
  O  O53  1  0.84969579  0.30143747  0.53046888  1
  O  O54  1  0.54765974  0.70956869  0.97501054  1
  O  O55  1  0.15077865  0.46598449  0.97626426  1
  O  O56  1  0.30418844  0.85441469  0.96932640  1
  O  O57  1  0.54933500  0.85105363  0.46813492  1
  O  O58  1  0.30969182  0.45773812  0.47047259  1
  O  O59  1  0.15084464  0.69461495  0.46927592  1
  O  O60  1  0.13786052  0.64418170  0.36578374  1
  O  O61  1  0.50775490  0.86038588  0.36475130  1
  O  O62  1  0.35479293  0.49061508  0.36616799  1
  O  O63  1  0.13882719  0.51006561  0.86133496  1
  O  O64  1  0.37148203  0.87276071  0.86541113  1
  O  O65  1  0.49125602  0.63589197  0.86216391  1
  O  O66  1  0.01946368  0.81245533  0.40942722  1
  O  O67  1  0.79509384  0.97316053  0.40559905  1
  O  O68  1  0.17674374  0.20952435  0.41143400  1
  O  O69  1  0.02479900  0.19777605  0.90269235  1
  O  O70  1  0.19535008  0.98558312  0.90417115  1
  O  O71  1  0.81479792  0.80560529  0.90279521  1
  O  O72  1  0.97653779  0.17737839  0.59049879  1
  O  O73  1  0.20007982  0.02294328  0.59064889  1
  O  O74  1  0.82314803  0.79824115  0.59057180  1
  O  O75  1  0.94883324  0.78168467  0.08402197  1
  O  O76  1  0.82947098  0.03188853  0.08725142  1
  O  O77  1  0.20789235  0.17344803  0.08462755  1
  O  O78  1  0.67868765  0.14969250  0.74071753  1
  O  O79  1  0.46995430  0.32304983  0.74157939  1
  O  O80  1  0.85335239  0.53407566  0.74167115  1
  O  O81  1  0.68244700  0.53762362  0.24247768  1
  O  O82  1  0.86272736  0.33572997  0.24282281  1
  O  O83  1  0.48722730  0.15810163  0.24319105  1
  O  O84  1  0.62297249  0.48238071  0.93053373  1
  O  O85  1  0.85313752  0.36090355  0.92895569  1
  O  O86  1  0.50063734  0.12675490  0.92518458  1
  O  O87  1  0.63195501  0.12291348  0.41992607  1
  O  O88  1  0.49334369  0.36778627  0.42144459  1
  O  O89  1  0.87658916  0.50049080  0.42045692  1
  O  O90  1  0.36037701  0.48684906  0.07811618  1
  O  O91  1  0.12443894  0.64304590  0.07622128  1
  O  O92  1  0.51259085  0.87435161  0.07617741  1
  O  O93  1  0.35624908  0.86848156  0.57569146  1
  O  O94  1  0.51197045  0.64370122  0.57640103  1
  O  O95  1  0.13208277  0.48750366  0.57594564  1
  O  O96  1  0.30933701  0.82959002  0.26622782  1
  O  O97  1  0.52397821  0.68373765  0.26391285  1
  O  O98  1  0.16444996  0.47061258  0.26475133  1
  O  O99  1  0.30809032  0.46910824  0.75937920  1
  O  O100  1  0.16331060  0.69379838  0.75903554  1
  O  O101  1  0.52581263  0.84339403  0.75970288  1
