# generated using pymatgen
data_Na5Ti2In2SiP5O24
_symmetry_space_group_name_H-M   'P 1'
_cell_length_a   8.95493569
_cell_length_b   8.95678853
_cell_length_c   22.38264766
_cell_angle_alpha   90.08308741
_cell_angle_beta   89.90201119
_cell_angle_gamma   120.22516395
_symmetry_Int_Tables_number   1
_chemical_formula_structural   Na5Ti2In2SiP5O24
_chemical_formula_sum   'Na15 Ti6 In6 Si3 P15 O72'
_cell_volume   1551.19464170
_cell_formula_units_Z   3
loop_
 _symmetry_equiv_pos_site_id
 _symmetry_equiv_pos_as_xyz
  1  'x, y, z'
loop_
 _atom_site_type_symbol
 _atom_site_label
 _atom_site_symmetry_multiplicity
 _atom_site_fract_x
 _atom_site_fract_y
 _atom_site_fract_z
 _atom_site_occupancy
  Na  Na0  1  0.00215941  0.64413021  0.25118423  1
  Na  Na1  1  0.62660272  0.63230336  0.75007559  1
  Na  Na2  1  0.37008551  0.99940942  0.75329285  1
  Na  Na3  1  0.66864957  0.97004542  0.58493637  1
  Na  Na4  1  0.30065846  0.97322597  0.08371648  1
  Na  Na5  1  0.67756658  0.70034988  0.08059331  1
  Na  Na6  1  0.02902111  0.33045180  0.08400518  1
  Na  Na7  1  0.96385582  0.29914605  0.41695453  1
  Na  Na8  1  0.34113458  0.03955652  0.41917699  1
  Na  Na9  1  0.00447827  0.98721919  0.50375924  1
  Na  Na10  1  0.00121851  0.99224752  0.99497533  1
  Na  Na11  1  0.68234665  0.33795187  0.83832523  1
  Na  Na12  1  0.65007908  0.33361451  0.33205365  1
  Na  Na13  1  0.34713102  0.66835826  0.17007080  1
  Na  Na14  1  0.31113898  0.64522315  0.66604199  1
  Ti  Ti15  1  0.99137036  0.00223453  0.85458676  1
  Ti  Ti16  1  0.00471590  0.00039194  0.64834101  1
  Ti  Ti17  1  0.66989415  0.32455106  0.68391397  1
  Ti  Ti18  1  0.66980825  0.33299156  0.18403680  1
  Ti  Ti19  1  0.32597392  0.66637972  0.01337721  1
  Ti  Ti20  1  0.33307475  0.66774926  0.52225518  1
  In  In21  1  0.99472819  0.99555214  0.35073279  1
  In  In22  1  0.00049419  0.00112898  0.15415555  1
  In  In23  1  0.66652545  0.33649468  0.97942063  1
  In  In24  1  0.66314912  0.34101417  0.48826482  1
  In  In25  1  0.34108079  0.66671390  0.31555325  1
  In  In26  1  0.32853522  0.66376636  0.81354919  1
  Si  Si27  1  0.71708280  0.00901596  0.74873064  1
  Si  Si28  1  0.36453345  0.03390192  0.58265544  1
  Si  Si29  1  0.96414182  0.62883714  0.08292344  1
  P  P30  1  0.30906887  0.00741294  0.25056909  1
  P  P31  1  0.69790761  0.69122019  0.24650287  1
  P  P32  1  0.99194666  0.30028748  0.24968038  1
  P  P33  1  0.28644355  0.28187923  0.74984867  1
  P  P34  1  0.99213023  0.71198613  0.75020070  1
  P  P35  1  0.96435286  0.33371540  0.58355344  1
  P  P36  1  0.66696006  0.62965676  0.58693018  1
  P  P37  1  0.66273590  0.03918872  0.08272779  1
  P  P38  1  0.37758643  0.33824470  0.08336773  1
  P  P39  1  0.62888019  0.67222490  0.91433569  1
  P  P40  1  0.04125461  0.36770284  0.91512941  1
  P  P41  1  0.32608946  0.95984267  0.91402955  1
  P  P42  1  0.62721216  0.95909679  0.42062941  1
  P  P43  1  0.33470648  0.37683063  0.41879920  1
  P  P44  1  0.04322065  0.66615549  0.41810260  1
  O  O45  1  0.22806407  0.03411011  0.30793216  1
  O  O46  1  0.82166256  0.77515463  0.29996108  1
  O  O47  1  0.96958879  0.19523224  0.30680864  1
  O  O48  1  0.20130848  0.16937115  0.80603685  1
  O  O49  1  0.96863781  0.80096525  0.80628361  1
  O  O50  1  0.83767876  0.02880415  0.80802488  1
  O  O51  1  0.81072030  0.98254487  0.69077211  1
  O  O52  1  0.17575532  0.18935875  0.69433523  1
  O  O53  1  0.01781086  0.82800699  0.69511212  1
  O  O54  1  0.77353108  0.79225436  0.18787854  1
  O  O55  1  0.01840493  0.22141240  0.19225418  1
  O  O56  1  0.19378696  0.97202123  0.19465203  1
  O  O57  1  0.86315977  0.35999198  0.63612960  1
  O  O58  1  0.50499410  0.13933899  0.63849531  1
  O  O59  1  0.64196212  0.51220833  0.64162691  1
  O  O60  1  0.87084539  0.50041231  0.14210658  1
  O  O61  1  0.63379699  0.13063120  0.13741109  1
  O  O62  1  0.49844141  0.36297391  0.13732346  1
  O  O63  1  0.44059718  0.28669062  0.02797771  1
  O  O64  1  0.83465010  0.55120146  0.02761491  1
  O  O65  1  0.70159845  0.15049883  0.02726522  1
  O  O66  1  0.43378579  0.13743454  0.52074458  1
  O  O67  1  0.71009907  0.56656292  0.52969277  1
  O  O68  1  0.85553733  0.29085696  0.52604225  1
  O  O69  1  0.52853908  0.68818359  0.97018404  1
  O  O70  1  0.15577810  0.46639074  0.97230622  1
  O  O71  1  0.31017872  0.83758827  0.96943795  1
  O  O72  1  0.53190212  0.85072560  0.47753600  1
  O  O73  1  0.32254939  0.47994321  0.47325216  1
  O  O74  1  0.16613425  0.68200657  0.47107614  1
  O  O75  1  0.11401435  0.64073657  0.35837735  1
  O  O76  1  0.51733470  0.88245490  0.36447052  1
  O  O77  1  0.35053162  0.46941915  0.35989352  1
  O  O78  1  0.12023915  0.47463092  0.85939583  1
  O  O79  1  0.35230924  0.88605849  0.85565062  1
  O  O80  1  0.53245702  0.65182720  0.85557845  1
  O  O81  1  0.04012155  0.83764011  0.41784525  1
  O  O82  1  0.80736957  0.97438118  0.41803555  1
  O  O83  1  0.16265033  0.19707694  0.41910890  1
  O  O84  1  0.03816089  0.19213394  0.91218621  1
  O  O85  1  0.15652972  0.96497775  0.91311165  1
  O  O86  1  0.80890739  0.84274909  0.91238180  1
  O  O87  1  0.98142025  0.17240280  0.59404063  1
  O  O88  1  0.17320205  0.00642988  0.59471744  1
  O  O89  1  0.82084990  0.81773890  0.59459388  1
  O  O90  1  0.00172813  0.82647203  0.08921332  1
  O  O91  1  0.82046281  0.01383023  0.09040271  1
  O  O92  1  0.18966213  0.18800349  0.09200623  1
  O  O93  1  0.69660364  0.18265660  0.74225212  1
  O  O94  1  0.46915459  0.29849058  0.74334991  1
  O  O95  1  0.82527589  0.53357436  0.74319672  1
  O  O96  1  0.68549217  0.51143781  0.24057634  1
  O  O97  1  0.82559056  0.31483500  0.24361432  1
  O  O98  1  0.48800548  0.16922483  0.24137499  1
  O  O99  1  0.65155393  0.51430938  0.91882686  1
  O  O100  1  0.85809357  0.33727967  0.92105009  1
  O  O101  1  0.48525271  0.13896299  0.92152517  1
  O  O102  1  0.65214277  0.14369552  0.42415568  1
  O  O103  1  0.48990794  0.34730142  0.42141183  1
  O  O104  1  0.86512424  0.50291679  0.42505239  1
  O  O105  1  0.37237483  0.50945991  0.07725203  1
  O  O106  1  0.15438512  0.63820254  0.07442142  1
  O  O107  1  0.49556247  0.85785539  0.07726986  1
  O  O108  1  0.35842220  0.84515648  0.57828141  1
  O  O109  1  0.50169613  0.64664619  0.58039093  1
  O  O110  1  0.14367651  0.49815661  0.57845142  1
  O  O111  1  0.32248719  0.84198222  0.25390876  1
  O  O112  1  0.51740118  0.66748733  0.25237299  1
  O  O113  1  0.14561142  0.48809366  0.25205113  1
  O  O114  1  0.31250867  0.46570459  0.75073436  1
  O  O115  1  0.15730833  0.69870125  0.75166194  1
  O  O116  1  0.52322203  0.83739386  0.75013396  1
