# generated using pymatgen
data_MgTiV3O8
_symmetry_space_group_name_H-M   'P 1'
_cell_length_a   6.51103031
_cell_length_b   6.51026350
_cell_length_c   6.79829729
_cell_angle_alpha   75.41042743
_cell_angle_beta   104.58685906
_cell_angle_gamma   145.11148918
_symmetry_Int_Tables_number   1
_chemical_formula_structural   MgTiV3O8
_chemical_formula_sum   'Mg1 Ti1 V3 O8'
_cell_volume   158.97954362
_cell_formula_units_Z   1
loop_
 _symmetry_equiv_pos_site_id
 _symmetry_equiv_pos_as_xyz
  1  'x, y, z'
loop_
 _atom_site_type_symbol
 _atom_site_label
 _atom_site_symmetry_multiplicity
 _atom_site_fract_x
 _atom_site_fract_y
 _atom_site_fract_z
 _atom_site_occupancy
  Mg  Mg0  1  0.82309600  0.17593700  0.98914000  1
  Ti  Ti1  1  0.68966400  0.30961700  0.27926500  1
  V  V2  1  0.39675100  0.60218900  0.32192700  1
  V  V3  1  0.59965500  0.39986900  0.68712000  1
  V  V4  1  0.29362600  0.70550700  0.68215000  1
  O  O5  1  0.13857800  0.86084500  0.69724800  1
  O  O6  1  0.23156000  0.76763900  0.35725800  1
  O  O7  1  0.35515000  0.64385200  0.98112000  1
  O  O8  1  0.43164900  0.56731900  0.62893800  1
  O  O9  1  0.56125100  0.43818600  0.37422500  1
  O  O10  1  0.65325700  0.34616600  0.01166500  1
  O  O11  1  0.76925400  0.22994000  0.68000200  1
  O  O12  1  0.85859100  0.14043200  0.28993600  1
