# generated using pymatgen
data_NaZrAlP2SO12
_symmetry_space_group_name_H-M   'P 1'
_cell_length_a   8.69703830
_cell_length_b   8.67289987
_cell_length_c   22.62673949
_cell_angle_alpha   91.09018197
_cell_angle_beta   90.00000000
_cell_angle_gamma   120.09211036
_symmetry_Int_Tables_number   1
_chemical_formula_structural   NaZrAlP2SO12
_chemical_formula_sum   'Na6 Zr6 Al6 P12 S6 O72'
_cell_volume   1476.31641805
_cell_formula_units_Z   6
loop_
 _symmetry_equiv_pos_site_id
 _symmetry_equiv_pos_as_xyz
  1  'x, y, z'
loop_
 _atom_site_type_symbol
 _atom_site_label
 _atom_site_symmetry_multiplicity
 _atom_site_fract_x
 _atom_site_fract_y
 _atom_site_fract_z
 _atom_site_occupancy
  Na  Na0  1  0.98752459  0.99095362  0.50407671  1
  Na  Na1  1  0.00342903  0.99095362  0.00407671  1
  Na  Na2  1  0.65419159  0.32428662  0.83740971  1
  Na  Na3  1  0.67009603  0.32428662  0.33740971  1
  Na  Na4  1  0.32085759  0.65762062  0.17074371  1
  Na  Na5  1  0.33676203  0.65762062  0.67074371  1
  Zr  Zr6  1  0.99956514  0.00261960  0.35485849  1
  Zr  Zr7  1  0.00305446  0.00261960  0.85485849  1
  Zr  Zr8  1  0.66623214  0.33595260  0.68819149  1
  Zr  Zr9  1  0.66972146  0.33595260  0.18819149  1
  Zr  Zr10  1  0.33289814  0.66928660  0.02152549  1
  Zr  Zr11  1  0.33638746  0.66928660  0.52152549  1
  Al  Al12  1  0.98357941  0.01017334  0.64712072  1
  Al  Al13  1  0.02659393  0.01017334  0.14712072  1
  Al  Al14  1  0.65024641  0.34350634  0.98045372  1
  Al  Al15  1  0.69326093  0.34350634  0.48045372  1
  Al  Al16  1  0.31691241  0.67684034  0.31378772  1
  Al  Al17  1  0.35992693  0.67684034  0.81378772  1
  P  P18  1  0.28436713  0.98863898  0.24890231  1
  P  P19  1  0.01706033  0.29566656  0.24849974  1
  P  P20  1  0.27860624  0.29566656  0.74849974  1
  P  P21  1  0.70427185  0.98863898  0.74890231  1
  P  P22  1  0.95103413  0.32197198  0.58223531  1
  P  P23  1  0.68372733  0.62899956  0.58183274  1
  P  P24  1  0.94527324  0.62899956  0.08183274  1
  P  P25  1  0.37093885  0.32197198  0.08223531  1
  P  P26  1  0.61770013  0.65530598  0.91556931  1
  P  P27  1  0.35039333  0.96233356  0.91516674  1
  P  P28  1  0.61193924  0.96233356  0.41516674  1
  P  P29  1  0.03760485  0.65530598  0.41556931  1
  S  S30  1  0.70200515  0.71797492  0.24837666  1
  S  S31  1  0.01596978  0.71797492  0.74837666  1
  S  S32  1  0.36867215  0.05130792  0.58170966  1
  S  S33  1  0.68263678  0.05130792  0.08170966  1
  S  S34  1  0.03533815  0.38464192  0.91504366  1
  S  S35  1  0.34930278  0.38464192  0.41504366  1
  O  O36  1  0.20303066  0.02155126  0.30467373  1
  O  O37  1  0.81138157  0.79353382  0.30273440  1
  O  O38  1  0.97938873  0.18170637  0.30396862  1
  O  O39  1  0.20231764  0.18170637  0.80396862  1
  O  O40  1  0.98215225  0.79353382  0.80273440  1
  O  O41  1  0.81852060  0.02155126  0.80467373  1
  O  O42  1  0.79281101  0.96261556  0.69380868  1
  O  O43  1  0.16378835  0.19820209  0.69350175  1
  O  O44  1  0.03336968  0.82344338  0.69612946  1
  O  O45  1  0.79007370  0.82344338  0.19612946  1
  O  O46  1  0.03441374  0.19820209  0.19350175  1
  O  O47  1  0.16980455  0.96261556  0.19380868  1
  O  O48  1  0.86969766  0.35488426  0.63800673  1
  O  O49  1  0.47804857  0.12686682  0.63606740  1
  O  O50  1  0.64605573  0.51503937  0.63730162  1
  O  O51  1  0.86898464  0.51503937  0.13730162  1
  O  O52  1  0.64881925  0.12686682  0.13606740  1
  O  O53  1  0.48518760  0.35488426  0.13800673  1
  O  O54  1  0.45947801  0.29594856  0.02714168  1
  O  O55  1  0.83045535  0.53153509  0.02683475  1
  O  O56  1  0.70003668  0.15677638  0.02946246  1
  O  O57  1  0.45674070  0.15677638  0.52946246  1
  O  O58  1  0.70108074  0.53153509  0.52683475  1
  O  O59  1  0.83647155  0.29594856  0.52714168  1
  O  O60  1  0.53636366  0.68821826  0.97134073  1
  O  O61  1  0.14471457  0.46020082  0.96940140  1
  O  O62  1  0.31272173  0.84837337  0.97063562  1
  O  O63  1  0.53565064  0.84837337  0.47063562  1
  O  O64  1  0.31548525  0.46020082  0.46940140  1
  O  O65  1  0.15185360  0.68821826  0.47134073  1
  O  O66  1  0.12614401  0.62928256  0.36047568  1
  O  O67  1  0.49712135  0.86486909  0.36016875  1
  O  O68  1  0.36670268  0.49011038  0.36279646  1
  O  O69  1  0.12340670  0.49011038  0.86279646  1
  O  O70  1  0.36774674  0.86486909  0.86016875  1
  O  O71  1  0.50313755  0.62928256  0.86047568  1
  O  O72  1  0.01628743  0.82157965  0.41045841  1
  O  O73  1  0.80123074  0.98673785  0.40960083  1
  O  O74  1  0.18730801  0.20338750  0.41133473  1
  O  O75  1  0.01607949  0.20338750  0.91133473  1
  O  O76  1  0.18550710  0.98673785  0.90960083  1
  O  O77  1  0.80529222  0.82157965  0.91045841  1
  O  O78  1  0.96917351  0.15584540  0.59024075  1
  O  O79  1  0.19272329  0.03209723  0.58947764  1
  O  O80  1  0.85087263  0.81327289  0.59223635  1
  O  O81  1  0.96240026  0.81327289  0.09223635  1
  O  O82  1  0.83937394  0.03209723  0.08947764  1
  O  O83  1  0.18667190  0.15584540  0.09024075  1
  O  O84  1  0.68295443  0.15491265  0.74379141  1
  O  O85  1  0.46789774  0.32007085  0.74293383  1
  O  O86  1  0.85397501  0.53672050  0.74466773  1
  O  O87  1  0.68274649  0.53672050  0.24466773  1
  O  O88  1  0.85217410  0.32007085  0.24293383  1
  O  O89  1  0.47195922  0.15491265  0.24379141  1
  O  O90  1  0.63584051  0.48917840  0.92357375  1
  O  O91  1  0.85939029  0.36543023  0.92281064  1
  O  O92  1  0.51753963  0.14660589  0.92556935  1
  O  O93  1  0.62906726  0.14660589  0.42556935  1
  O  O94  1  0.50604094  0.36543023  0.42281064  1
  O  O95  1  0.85333890  0.48917840  0.42357375  1
  O  O96  1  0.34962043  0.48824665  0.07712541  1
  O  O97  1  0.13456374  0.65340485  0.07626783  1
  O  O98  1  0.52064101  0.87005450  0.07800173  1
  O  O99  1  0.34941249  0.87005450  0.57800173  1
  O  O100  1  0.51884010  0.65340485  0.57626783  1
  O  O101  1  0.13862522  0.48824665  0.57712541  1
  O  O102  1  0.30250651  0.82251240  0.25690775  1
  O  O103  1  0.52605629  0.69876423  0.25614464  1
  O  O104  1  0.18420563  0.47993989  0.25890335  1
  O  O105  1  0.29573326  0.47993989  0.75890335  1
  O  O106  1  0.17270694  0.69876423  0.75614464  1
  O  O107  1  0.52000490  0.82251240  0.75690775  1
