# generated using pymatgen
data_Sr4MgIn2(SbO6)2
_symmetry_space_group_name_H-M   'P 1'
_cell_length_a   5.97366054
_cell_length_b   5.83224276
_cell_length_c   9.73942717
_cell_angle_alpha   91.87842991
_cell_angle_beta   99.61938707
_cell_angle_gamma   89.10340323
_symmetry_Int_Tables_number   1
_chemical_formula_structural   Sr4MgIn2(SbO6)2
_chemical_formula_sum   'Sr4 Mg1 In2 Sb2 O12'
_cell_volume   334.35148940
_cell_formula_units_Z   1
loop_
 _symmetry_equiv_pos_site_id
 _symmetry_equiv_pos_as_xyz
  1  'x, y, z'
loop_
 _atom_site_type_symbol
 _atom_site_label
 _atom_site_symmetry_multiplicity
 _atom_site_fract_x
 _atom_site_fract_y
 _atom_site_fract_z
 _atom_site_occupancy
  Sr  Sr0  1  0.95875700  0.01668800  0.78322400  1
  Sr  Sr1  1  0.46354100  0.53593300  0.78787700  1
  Sr  Sr2  1  0.09255700  0.03431600  0.17574300  1
  Sr  Sr3  1  0.54919700  0.48122300  0.18062600  1
  Mg  Mg4  1  0.69934300  0.94721300  0.37360800  1
  In  In5  1  0.95164100  0.46213600  0.53556400  1
  In  In6  1  0.51553300  0.01005000  0.97806900  1
  Sb  Sb7  1  0.33405600  0.00582300  0.55487900  1
  Sb  Sb8  1  0.00801100  0.51248200  0.97749400  1
  O  O9  1  0.68636500  0.62650400  0.41831700  1
  O  O10  1  0.75077700  0.72638900  0.01136400  1
  O  O11  1  0.87320200  0.49087800  0.76930300  1
  O  O12  1  0.20976900  0.26446000  0.65082100  1
  O  O13  1  0.26381700  0.28541800  0.95270200  1
  O  O14  1  0.54274200  0.96685600  0.74477800  1
  O  O15  1  0.12738200  0.52280100  0.17862200  1
  O  O16  1  0.51232100  0.03943300  0.20157600  1
  O  O17  1  0.21621200  0.77558000  0.94773600  1
  O  O18  1  0.15668500  0.75526600  0.60762900  1
  O  O19  1  0.80304900  0.24308800  0.00129000  1
  O  O20  1  0.97254500  0.13079500  0.41096500  1
