# generated using pymatgen
data_Na6Mg8Nb16Si15(S7O48)3
_symmetry_space_group_name_H-M   'P 1'
_cell_length_a   17.68171778
_cell_length_b   8.84130784
_cell_length_c   22.90979445
_cell_angle_alpha   89.99676574
_cell_angle_beta   89.78341559
_cell_angle_gamma   119.95322309
_symmetry_Int_Tables_number   1
_chemical_formula_structural   Na6Mg8Nb16Si15(S7O48)3
_chemical_formula_sum   'Na6 Mg8 Nb16 Si15 S21 O144'
_cell_volume   3103.08097963
_cell_formula_units_Z   1
loop_
 _symmetry_equiv_pos_site_id
 _symmetry_equiv_pos_as_xyz
  1  'x, y, z'
loop_
 _atom_site_type_symbol
 _atom_site_label
 _atom_site_symmetry_multiplicity
 _atom_site_fract_x
 _atom_site_fract_y
 _atom_site_fract_z
 _atom_site_occupancy
  Na  Na0  1  0.99789396  0.99634172  0.49847961  1
  Na  Na1  1  0.49883075  0.00052051  0.00064528  1
  Na  Na2  1  0.33205002  0.33115908  0.84098782  1
  Na  Na3  1  0.83569587  0.33084096  0.83978697  1
  Na  Na4  1  0.33658681  0.34099039  0.33879327  1
  Na  Na5  1  0.83300259  0.34013748  0.33897265  1
  Mg  Mg6  1  0.99863557  0.99594008  0.34770361  1
  Mg  Mg7  1  0.50168494  0.99667816  0.85202642  1
  Mg  Mg8  1  0.99609915  0.98927000  0.64896256  1
  Mg  Mg9  1  0.49675466  0.00259734  0.14969077  1
  Mg  Mg10  1  0.33064782  0.32668624  0.98007047  1
  Mg  Mg11  1  0.83745137  0.32974848  0.97973454  1
  Mg  Mg12  1  0.33785438  0.34603253  0.47865989  1
  Mg  Mg13  1  0.83179835  0.33637751  0.47907956  1
  Nb  Nb14  1  0.49693826  0.99756547  0.35811010  1
  Nb  Nb15  1  0.99518620  0.99234748  0.85927703  1
  Nb  Nb16  1  0.50477261  0.99626282  0.64562318  1
  Nb  Nb17  1  0.99508558  0.99947032  0.14938338  1
  Nb  Nb18  1  0.33211945  0.34260991  0.68605364  1
  Nb  Nb19  1  0.83578190  0.34051630  0.69373991  1
  Nb  Nb20  1  0.33352225  0.33154084  0.19372543  1
  Nb  Nb21  1  0.83326058  0.32658331  0.18992952  1
  Nb  Nb22  1  0.16265122  0.66452233  0.01997942  1
  Nb  Nb23  1  0.66685675  0.66978673  0.02650763  1
  Nb  Nb24  1  0.16565970  0.66258467  0.52373553  1
  Nb  Nb25  1  0.66431846  0.66219187  0.51604931  1
  Nb  Nb26  1  0.16447761  0.66532837  0.30273317  1
  Nb  Nb27  1  0.66278127  0.64637085  0.30929647  1
  Nb  Nb28  1  0.16042697  0.67048327  0.81361452  1
  Nb  Nb29  1  0.66477591  0.66588619  0.80402802  1
  Si  Si30  1  0.13805641  0.00225714  0.25184400  1
  Si  Si31  1  0.36164099  0.72173188  0.24790242  1
  Si  Si32  1  0.85623819  0.71269978  0.25358311  1
  Si  Si33  1  0.99696007  0.27611879  0.25390437  1
  Si  Si34  1  0.50076448  0.27678253  0.24699753  1
  Si  Si35  1  0.63923438  0.27781331  0.75239498  1
  Si  Si36  1  0.00323102  0.72674386  0.74726800  1
  Si  Si37  1  0.49579517  0.71325841  0.75367879  1
  Si  Si38  1  0.86159877  0.00172029  0.74797196  1
  Si  Si39  1  0.33514219  0.62540554  0.57968158  1
  Si  Si40  1  0.83752905  0.05375037  0.08058612  1
  Si  Si41  1  0.01662646  0.37470366  0.91730740  1
  Si  Si42  1  0.17181873  0.96835268  0.91733390  1
  Si  Si43  1  0.67130244  0.37311366  0.41575251  1
  Si  Si44  1  0.51784496  0.65862434  0.41431000  1
  S  S45  1  0.64242069  0.99826248  0.24970415  1
  S  S46  1  0.14351305  0.28713023  0.74959535  1
  S  S47  1  0.35630820  0.00032480  0.75031129  1
  S  S48  1  0.47667574  0.33209967  0.58250836  1
  S  S49  1  0.97524824  0.32736066  0.58124325  1
  S  S50  1  0.18783497  0.04776388  0.58072900  1
  S  S51  1  0.69230168  0.04688913  0.58269860  1
  S  S52  1  0.83501395  0.62431041  0.58137441  1
  S  S53  1  0.47481313  0.62345697  0.08131071  1
  S  S54  1  0.97628420  0.62126626  0.08219089  1
  S  S55  1  0.33547421  0.04585390  0.08121385  1
  S  S56  1  0.19051843  0.33382461  0.08238624  1
  S  S57  1  0.68752775  0.32606738  0.08052612  1
  S  S58  1  0.31303977  0.66977148  0.91702290  1
  S  S59  1  0.80637462  0.65982369  0.91735746  1
  S  S60  1  0.52258815  0.37743353  0.91707267  1
  S  S61  1  0.66521423  0.95341615  0.91738180  1
  S  S62  1  0.30707032  0.95352678  0.41722678  1
  S  S63  1  0.81407668  0.96021524  0.41681852  1
  S  S64  1  0.16508054  0.37501279  0.41691619  1
  S  S65  1  0.02265379  0.66809944  0.41731213  1
  O  O66  1  0.10940908  0.04889212  0.31059486  1
  O  O67  1  0.60485162  0.03386717  0.30244623  1
  O  O68  1  0.41831091  0.80145776  0.30799017  1
  O  O69  1  0.91513256  0.77996047  0.30958561  1
  O  O70  1  0.48329160  0.16175570  0.30708134  1
  O  O71  1  0.97566268  0.17017963  0.31157580  1
  O  O72  1  0.10640113  0.17850243  0.80251162  1
  O  O73  1  0.60412022  0.16709941  0.80952528  1
  O  O74  1  0.47235344  0.78250375  0.80948934  1
  O  O75  1  0.98455685  0.80510493  0.80726375  1
  O  O76  1  0.40923913  0.03715305  0.80269998  1
  O  O77  1  0.91851606  0.03467058  0.80804170  1
  O  O78  1  0.39771829  0.97561925  0.69692296  1
  O  O79  1  0.89651000  0.96799713  0.68976678  1
  O  O80  1  0.09417775  0.21633447  0.69631581  1
  O  O81  1  0.58194553  0.19611769  0.69244019  1
  O  O82  1  0.02312876  0.83342012  0.68966942  1
  O  O83  1  0.51273304  0.83101521  0.69346817  1
  O  O84  1  0.39614236  0.82435018  0.18956886  1
  O  O85  1  0.90182721  0.83084821  0.19343980  1
  O  O86  1  0.01540903  0.19989458  0.19311846  1
  O  O87  1  0.52152226  0.21096175  0.18942419  1
  O  O88  1  0.08360899  0.96859894  0.19130687  1
  O  O89  1  0.59297626  0.97207048  0.19636097  1
  O  O90  1  0.43409569  0.35886944  0.63610788  1
  O  O91  1  0.93810805  0.36218776  0.63482295  1
  O  O92  1  0.24294132  0.12277040  0.63481299  1
  O  O93  1  0.74411434  0.12827182  0.63612178  1
  O  O94  1  0.31737706  0.49825891  0.63980694  1
  O  O95  1  0.82137569  0.51407753  0.63522674  1
  O  O96  1  0.43891199  0.51468018  0.13446978  1
  O  O97  1  0.93649669  0.51102485  0.13528266  1
  O  O98  1  0.32029017  0.12541864  0.13459142  1
  O  O99  1  0.81712848  0.13720065  0.13956219  1
  O  O100  1  0.24574219  0.36347381  0.13516554  1
  O  O101  1  0.74144141  0.36449202  0.13390318  1
  O  O102  1  0.23094297  0.30951344  0.03023644  1
  O  O103  1  0.73064761  0.31139378  0.02820933  1
  O  O104  1  0.42302695  0.54031190  0.02932330  1
  O  O105  1  0.92431320  0.54424769  0.03007101  1
  O  O106  1  0.34637087  0.15372289  0.02969791  1
  O  O107  1  0.84843171  0.16190599  0.02442369  1
  O  O108  1  0.23173630  0.15208351  0.52932601  1
  O  O109  1  0.72894292  0.15208279  0.53093058  1
  O  O110  1  0.35070487  0.53476318  0.52675334  1
  O  O111  1  0.84620988  0.53762192  0.53040753  1
  O  O112  1  0.42362020  0.30140385  0.53102898  1
  O  O113  1  0.92262157  0.30556769  0.52983340  1
  O  O114  1  0.26730650  0.69107087  0.97037616  1
  O  O115  1  0.76569833  0.68988312  0.97006846  1
  O  O116  1  0.08329406  0.47360589  0.97397197  1
  O  O117  1  0.57895038  0.46610053  0.96949175  1
  O  O118  1  0.15463990  0.83228427  0.97319014  1
  O  O119  1  0.65592180  0.83951575  0.97042205  1
  O  O120  1  0.26512314  0.84124527  0.47040537  1
  O  O121  1  0.76619795  0.84269363  0.47149099  1
  O  O122  1  0.15665628  0.47396450  0.47082653  1
  O  O123  1  0.65403599  0.47413834  0.47308302  1
  O  O124  1  0.07981058  0.68757352  0.47016595  1
  O  O125  1  0.58297136  0.69267919  0.47383030  1
  O  O126  1  0.06681283  0.64578086  0.36491000  1
  O  O127  1  0.57649430  0.65228551  0.36046446  1
  O  O128  1  0.25394527  0.86823656  0.36505882  1
  O  O129  1  0.75930611  0.87759880  0.36536431  1
  O  O130  1  0.17729405  0.48797274  0.36558118  1
  O  O131  1  0.68205971  0.50122836  0.36031957  1
  O  O132  1  0.07434440  0.49949480  0.86100908  1
  O  O133  1  0.56668404  0.48789493  0.86418628  1
  O  O134  1  0.18195228  0.86078561  0.86051290  1
  O  O135  1  0.67661602  0.86506439  0.86519180  1
  O  O136  1  0.25875071  0.64340420  0.86416602  1
  O  O137  1  0.75420695  0.64031424  0.86465695  1
  O  O138  1  0.01707338  0.82735255  0.41544765  1
  O  O139  1  0.51557912  0.84063600  0.40643895  1
  O  O140  1  0.39400750  0.96532600  0.41245059  1
  O  O141  1  0.89863901  0.96737504  0.41594400  1
  O  O142  1  0.08448746  0.20719683  0.41629955  1
  O  O143  1  0.58002998  0.19047724  0.40594469  1
  O  O144  1  0.01647914  0.19201334  0.90571191  1
  O  O145  1  0.51408374  0.20380892  0.91212208  1
  O  O146  1  0.08087952  0.96895601  0.90516898  1
  O  O147  1  0.58429291  0.96143815  0.91528695  1
  O  O148  1  0.39795110  0.83177617  0.91319333  1
  O  O149  1  0.89397101  0.82236305  0.91191188  1
  O  O150  1  0.48767294  0.17924876  0.59397100  1
  O  O151  1  0.99256078  0.18298229  0.58873090  1
  O  O152  1  0.10095722  0.02643239  0.58880619  1
  O  O153  1  0.60157463  0.02487068  0.59158414  1
  O  O154  1  0.41403856  0.81933103  0.59782671  1
  O  O155  1  0.91173842  0.79966551  0.58740123  1
  O  O156  1  0.49239200  0.80220538  0.08825027  1
  O  O157  1  0.99055185  0.79794086  0.09103360  1
  O  O158  1  0.41140310  0.02187073  0.08683383  1
  O  O159  1  0.91711830  0.01603860  0.09362559  1
  O  O160  1  0.10260533  0.18132093  0.09099108  1
  O  O161  1  0.59992214  0.17599802  0.08752124  1
  O  O162  1  0.34252084  0.15303095  0.73930462  1
  O  O163  1  0.84392902  0.17050616  0.73989768  1
  O  O164  1  0.23415637  0.30163923  0.74289318  1
  O  O165  1  0.73867292  0.31390992  0.73585679  1
  O  O166  1  0.41507454  0.51091907  0.73729432  1
  O  O167  1  0.91730644  0.52327895  0.74086077  1
  O  O168  1  0.34384910  0.51773647  0.24060951  1
  O  O169  1  0.83832910  0.51512991  0.23450989  1
  O  O170  1  0.41486118  0.30811459  0.24000712  1
  O  O171  1  0.91600121  0.31605281  0.23838141  1
  O  O172  1  0.23900514  0.16328019  0.23577595  1
  O  O173  1  0.73239479  0.16263070  0.24386741  1
  O  O174  1  0.32119588  0.51353567  0.92452068  1
  O  O175  1  0.81714209  0.50810284  0.92422591  1
  O  O176  1  0.43743971  0.36783124  0.92341119  1
  O  O177  1  0.92518776  0.36593560  0.91841500  1
  O  O178  1  0.25633958  0.15445782  0.92105142  1
  O  O179  1  0.74284468  0.12612553  0.92272121  1
  O  O180  1  0.31663246  0.12541955  0.42518813  1
  O  O181  1  0.82088598  0.12998862  0.42662083  1
  O  O182  1  0.24316695  0.35961496  0.42386597  1
  O  O183  1  0.75543953  0.35601730  0.42211050  1
  O  O184  1  0.42558596  0.48636908  0.41899815  1
  O  O185  1  0.93814898  0.50828086  0.42459099  1
  O  O186  1  0.18192189  0.49442633  0.07520653  1
  O  O187  1  0.67785563  0.49001265  0.07171076  1
  O  O188  1  0.06559255  0.63628943  0.07592326  1
  O  O189  1  0.56505711  0.63676275  0.07252584  1
  O  O190  1  0.25430467  0.86753372  0.07377755  1
  O  O191  1  0.74818064  0.85094608  0.07131821  1
  O  O192  1  0.17875146  0.86728285  0.57322488  1
  O  O193  1  0.67972588  0.86842765  0.57716792  1
  O  O194  1  0.24681022  0.64531699  0.57186836  1
  O  O195  1  0.75420877  0.63993366  0.57508443  1
  O  O196  1  0.06493559  0.49390364  0.57291331  1
  O  O197  1  0.56500928  0.49201386  0.57746749  1
  O  O198  1  0.15617156  0.83552203  0.26039455  1
  O  O199  1  0.65796518  0.85191527  0.25954916  1
  O  O200  1  0.26259052  0.68580147  0.26580065  1
  O  O201  1  0.76080485  0.69851274  0.25902824  1
  O  O202  1  0.08183771  0.47639423  0.25997344  1
  O  O203  1  0.57964132  0.47754840  0.26076477  1
  O  O204  1  0.16132849  0.46767752  0.75950797  1
  O  O205  1  0.65632190  0.47862924  0.76060158  1
  O  O206  1  0.08364846  0.68503695  0.76149221  1
  O  O207  1  0.58131105  0.68757984  0.75967001  1
  O  O208  1  0.26919252  0.84093032  0.75666715  1
  O  O209  1  0.76241900  0.83950944  0.76595400  1
