# generated using pymatgen
data_Rb3NaMg(RuO4)2
_symmetry_space_group_name_H-M   'P 1'
_cell_length_a   6.16654800
_cell_length_b   6.97144274
_cell_length_c   7.94261895
_cell_angle_alpha   94.92741505
_cell_angle_beta   90.00000000
_cell_angle_gamma   116.24893446
_symmetry_Int_Tables_number   1
_chemical_formula_structural   Rb3NaMg(RuO4)2
_chemical_formula_sum   'Rb3 Na1 Mg1 Ru2 O8'
_cell_volume   304.83336848
_cell_formula_units_Z   1
loop_
 _symmetry_equiv_pos_site_id
 _symmetry_equiv_pos_as_xyz
  1  'x, y, z'
loop_
 _atom_site_type_symbol
 _atom_site_label
 _atom_site_symmetry_multiplicity
 _atom_site_fract_x
 _atom_site_fract_y
 _atom_site_fract_z
 _atom_site_occupancy
  Rb  Rb0  1  0.73129100  0.46258100  0.32875400  1
  Rb  Rb1  1  0.00000000  0.00000000  0.00000000  1
  Rb  Rb2  1  0.26870900  0.53741900  0.67124600  1
  Na  Na3  1  0.00000000  0.00000000  0.50000000  1
  Mg  Mg4  1  0.50000000  0.00000000  0.50000000  1
  Ru  Ru5  1  0.67171800  0.34343500  0.78310200  1
  Ru  Ru6  1  0.32828200  0.65656500  0.21689800  1
  O  O7  1  0.19174200  0.38348300  0.27091700  1
  O  O8  1  0.61885100  0.81972500  0.35870200  1
  O  O9  1  0.20087300  0.81972500  0.35870200  1
  O  O10  1  0.80825800  0.61651700  0.72908300  1
  O  O11  1  0.79912700  0.18027500  0.64129800  1
  O  O12  1  0.38114900  0.18027500  0.64129800  1
  O  O13  1  0.64369900  0.28739700  0.99577500  1
  O  O14  1  0.35630100  0.71260300  0.00422500  1
