# generated using pymatgen
data_KInBr4
_symmetry_space_group_name_H-M   'P 1'
_cell_length_a   7.93746873
_cell_length_b   10.51868933
_cell_length_c   10.49504329
_cell_angle_alpha   90.00000000
_cell_angle_beta   90.00000000
_cell_angle_gamma   90.00000000
_symmetry_Int_Tables_number   1
_chemical_formula_structural   KInBr4
_chemical_formula_sum   'K4 In4 Br16'
_cell_volume   876.24971571
_cell_formula_units_Z   4
loop_
 _symmetry_equiv_pos_site_id
 _symmetry_equiv_pos_as_xyz
  1  'x, y, z'
loop_
 _atom_site_type_symbol
 _atom_site_label
 _atom_site_symmetry_multiplicity
 _atom_site_fract_x
 _atom_site_fract_y
 _atom_site_fract_z
 _atom_site_occupancy
  K  K0  1  0.17899713  0.75000000  0.25000000  1
  K  K1  1  0.32100287  0.75000000  0.75000000  1
  K  K2  1  0.82100287  0.25000000  0.75000000  1
  K  K3  1  0.67899713  0.25000000  0.25000000  1
  In  In4  1  0.75000000  0.67980608  0.50000000  1
  In  In5  1  0.75000000  0.82019392  -0.00000000  1
  In  In6  1  0.25000000  0.32019392  0.50000000  1
  In  In7  1  0.25000000  0.17980608  -0.00000000  1
  Br  Br8  1  0.34426298  0.04811211  0.18832414  1
  Br  Br9  1  0.34426298  0.45188789  0.31167586  1
  Br  Br10  1  0.15573702  0.45188789  0.68832414  1
  Br  Br11  1  0.15573702  0.04811211  0.81167586  1
  Br  Br12  1  0.65573702  0.95188789  0.81167586  1
  Br  Br13  1  0.65573702  0.54811211  0.68832414  1
  Br  Br14  1  0.84426298  0.54811211  0.31167586  1
  Br  Br15  1  0.84426298  0.95188789  0.18832414  1
  Br  Br16  1  0.99513118  0.31815967  0.04222809  1
  Br  Br17  1  0.99513118  0.18184033  0.45777191  1
  Br  Br18  1  0.50486882  0.18184033  0.54222809  1
  Br  Br19  1  0.50486882  0.31815967  0.95777191  1
  Br  Br20  1  0.00486882  0.68184033  0.95777191  1
  Br  Br21  1  0.00486882  0.81815967  0.54222809  1
  Br  Br22  1  0.49513118  0.81815967  0.45777191  1
  Br  Br23  1  0.49513118  0.68184033  0.04222809  1
