# generated using pymatgen
data_Sr8MgZn4(WO6)4
_symmetry_space_group_name_H-M   'P 1'
_cell_length_a   7.88277603
_cell_length_b   8.72956323
_cell_length_c   8.02825063
_cell_angle_alpha   86.73503209
_cell_angle_beta   90.33034769
_cell_angle_gamma   90.88499324
_symmetry_Int_Tables_number   1
_chemical_formula_structural   Sr8MgZn4(WO6)4
_chemical_formula_sum   'Sr8 Mg1 Zn4 W4 O24'
_cell_volume   551.48042958
_cell_formula_units_Z   1
loop_
 _symmetry_equiv_pos_site_id
 _symmetry_equiv_pos_as_xyz
  1  'x, y, z'
loop_
 _atom_site_type_symbol
 _atom_site_label
 _atom_site_symmetry_multiplicity
 _atom_site_fract_x
 _atom_site_fract_y
 _atom_site_fract_z
 _atom_site_occupancy
  Sr  Sr0  1  0.74476600  0.50761100  0.46518900  1
  Sr  Sr1  1  0.24851800  0.49488500  0.52310400  1
  Sr  Sr2  1  0.74888200  0.97495000  0.47569400  1
  Sr  Sr3  1  0.24312800  0.01514500  0.53076200  1
  Sr  Sr4  1  0.74158400  0.48234600  0.97904900  1
  Sr  Sr5  1  0.25125800  0.50091300  0.04404600  1
  Sr  Sr6  1  0.22089600  0.09370500  0.03267200  1
  Sr  Sr7  1  0.75844800  0.94691100  0.97586000  1
  Mg  Mg8  1  0.31928500  0.83042300  0.90859200  1
  Zn  Zn9  1  0.98628400  0.27968900  0.75038300  1
  Zn  Zn10  1  0.00877400  0.73531400  0.24302400  1
  Zn  Zn11  1  0.50564600  0.22302100  0.25486800  1
  Zn  Zn12  1  0.52663400  0.69611900  0.70897300  1
  W  W13  1  0.98386000  0.26356300  0.26897900  1
  W  W14  1  0.00713400  0.72505600  0.74323200  1
  W  W15  1  0.50275800  0.23681600  0.75956300  1
  W  W16  1  0.49417000  0.76650200  0.24298400  1
  O  O17  1  0.95437000  0.05241900  0.22058900  1
  O  O18  1  0.09368500  0.93673900  0.80941100  1
  O  O19  1  0.01646300  0.30705000  0.02448500  1
  O  O20  1  0.96947300  0.68110800  0.98217300  1
  O  O21  1  0.02548900  0.48652800  0.29778500  1
  O  O22  1  0.94530700  0.50209600  0.70215400  1
  O  O23  1  0.96307300  0.21098900  0.50438300  1
  O  O24  1  0.04412600  0.77726700  0.50640600  1
  O  O25  1  0.74449000  0.31043900  0.24850900  1
  O  O26  1  0.26032200  0.65972400  0.77107800  1
  O  O27  1  0.74089500  0.20519000  0.80569400  1
  O  O28  1  0.24577400  0.80115300  0.15757000  1
  O  O29  1  0.76018300  0.78724600  0.71666200  1
  O  O30  1  0.23633300  0.23965700  0.29003400  1
  O  O31  1  0.52766500  0.99343300  0.21007000  1
  O  O32  1  0.45390200  0.02158600  0.82369400  1
  O  O33  1  0.46761100  0.29335400  0.99555500  1
  O  O34  1  0.53167400  0.72317200  0.99363000  1
  O  O35  1  0.52255100  0.19310000  0.52666700  1
  O  O36  1  0.46095800  0.80247000  0.49084500  1
  O  O37  1  0.45574900  0.55005600  0.28973000  1
  O  O38  1  0.54210600  0.45914700  0.70279100  1
  O  O39  1  0.75108900  0.75099600  0.28031900  1
  O  O40  1  0.25301900  0.26128000  0.73029200  1
