# generated using pymatgen
data_Pr2MgTi4O12
_symmetry_space_group_name_H-M   'P 1'
_cell_length_a   5.45861355
_cell_length_b   6.07817840
_cell_length_c   7.43124774
_cell_angle_alpha   89.99984793
_cell_angle_beta   89.99998865
_cell_angle_gamma   95.86980283
_symmetry_Int_Tables_number   1
_chemical_formula_structural   Pr2MgTi4O12
_chemical_formula_sum   'Pr2 Mg1 Ti4 O12'
_cell_volume   245.26437592
_cell_formula_units_Z   1
loop_
 _symmetry_equiv_pos_site_id
 _symmetry_equiv_pos_as_xyz
  1  'x, y, z'
loop_
 _atom_site_type_symbol
 _atom_site_label
 _atom_site_symmetry_multiplicity
 _atom_site_fract_x
 _atom_site_fract_y
 _atom_site_fract_z
 _atom_site_occupancy
  Pr  Pr0  1  0.99141478  0.87393969  0.74999988  1
  Pr  Pr1  1  0.51399385  0.61691694  0.24999912  1
  Mg  Mg2  1  0.02725332  0.03037349  0.25000181  1
  Ti  Ti3  1  0.04835366  0.42054840  0.98586160  1
  Ti  Ti4  1  0.04835384  0.42054975  0.51413869  1
  Ti  Ti5  1  0.53056327  0.06966742  0.49659392  1
  Ti  Ti6  1  0.53056496  0.06966843  0.00340667  1
  O  O7  1  0.10156192  0.38261857  0.24999998  1
  O  O8  1  0.19480509  0.16424622  0.94624021  1
  O  O9  1  0.19480455  0.16424508  0.55375805  1
  O  O10  1  0.24931173  0.67904807  0.51245464  1
  O  O11  1  0.24931236  0.67904613  0.98754311  1
  O  O12  1  0.38804897  0.99797189  0.24999952  1
  O  O13  1  0.58243296  0.01811204  0.74999943  1
  O  O14  1  0.69294260  0.33844681  0.05014349  1
  O  O15  1  0.69294014  0.33843995  0.44985668  1
  O  O16  1  0.77783372  0.88325879  0.06000596  1
  O  O17  1  0.77783331  0.88325525  0.43999606  1
  O  O18  1  0.92854796  0.48155511  0.74999917  1
