# generated using pymatgen
data_Na4Mg3TiSiS5O24
_symmetry_space_group_name_H-M   'P 1'
_cell_length_a   8.80650780
_cell_length_b   8.82843952
_cell_length_c   22.39155764
_cell_angle_alpha   90.34390074
_cell_angle_beta   89.86602410
_cell_angle_gamma   120.20645004
_symmetry_Int_Tables_number   1
_chemical_formula_structural   Na4Mg3TiSiS5O24
_chemical_formula_sum   'Na12 Mg9 Ti3 Si3 S15 O72'
_cell_volume   1504.48343667
_cell_formula_units_Z   3
loop_
 _symmetry_equiv_pos_site_id
 _symmetry_equiv_pos_as_xyz
  1  'x, y, z'
loop_
 _atom_site_type_symbol
 _atom_site_label
 _atom_site_symmetry_multiplicity
 _atom_site_fract_x
 _atom_site_fract_y
 _atom_site_fract_z
 _atom_site_occupancy
  Na  Na0  1  0.36143096  0.36161256  0.25059343  1
  Na  Na1  1  0.31420003  0.34322027  0.58740441  1
  Na  Na2  1  0.02809907  0.69857393  0.58321293  1
  Na  Na3  1  0.98428470  0.67842194  0.91965251  1
  Na  Na4  1  0.69894896  0.02722293  0.91209083  1
  Na  Na5  1  0.31288413  0.29163354  0.91871077  1
  Na  Na6  1  0.97178168  0.98712773  0.49775559  1
  Na  Na7  1  0.01470453  0.01193176  0.00224664  1
  Na  Na8  1  0.66443948  0.32742344  0.82528940  1
  Na  Na9  1  0.67953954  0.32591543  0.33170334  1
  Na  Na10  1  0.32893324  0.67750151  0.16696110  1
  Na  Na11  1  0.36552426  0.67878025  0.66499526  1
  Mg  Mg12  1  0.99420579  0.99701860  0.35026692  1
  Mg  Mg13  1  0.00380662  0.00631917  0.84868129  1
  Mg  Mg14  1  0.98448128  0.99292760  0.64821954  1
  Mg  Mg15  1  0.99886247  0.99583123  0.14944416  1
  Mg  Mg16  1  0.66114114  0.33420099  0.68445817  1
  Mg  Mg17  1  0.67326174  0.33388023  0.18551632  1
  Mg  Mg18  1  0.32306645  0.66113473  0.01945411  1
  Mg  Mg19  1  0.34857052  0.67535993  0.51559398  1
  Mg  Mg20  1  0.33608938  0.67782082  0.31665284  1
  Ti  Ti21  1  0.66861170  0.32282343  0.98178046  1
  Ti  Ti22  1  0.66988241  0.34679129  0.48138797  1
  Ti  Ti23  1  0.32000286  0.67242649  0.81741672  1
  Si  Si24  1  0.66391091  0.63280824  0.58647313  1
  Si  Si25  1  0.04234956  0.37276315  0.91957102  1
  Si  Si26  1  0.32976988  0.95777421  0.91988355  1
  S  S27  1  0.29228975  0.99861598  0.24954797  1
  S  S28  1  0.70477683  0.70549189  0.24977209  1
  S  S29  1  0.00036204  0.29336248  0.25038843  1
  S  S30  1  0.29799835  0.30037220  0.75033579  1
  S  S31  1  0.00027419  0.70358803  0.75043417  1
  S  S32  1  0.69933831  0.99655994  0.75134621  1
  S  S33  1  0.95442860  0.33236661  0.58261143  1
  S  S34  1  0.37995901  0.04312355  0.58321301  1
  S  S35  1  0.95625028  0.62479103  0.08418236  1
  S  S36  1  0.66753247  0.03900289  0.08416024  1
  S  S37  1  0.37731977  0.33538845  0.08450613  1
  S  S38  1  0.62116427  0.66412419  0.91685347  1
  S  S39  1  0.63061820  0.96677433  0.41654378  1
  S  S40  1  0.33224479  0.36751500  0.41668748  1
  S  S41  1  0.03920334  0.66629978  0.41838034  1
  O  O42  1  0.20984869  0.02806356  0.30283446  1
  O  O43  1  0.80924635  0.78711198  0.30348532  1
  O  O44  1  0.97751753  0.18845830  0.30394011  1
  O  O45  1  0.21071613  0.19802349  0.80441809  1
  O  O46  1  0.98133279  0.78711259  0.80494951  1
  O  O47  1  0.79781361  0.01579187  0.80713372  1
  O  O48  1  0.78672655  0.97541653  0.69871673  1
  O  O49  1  0.19350034  0.21776174  0.69546998  1
  O  O50  1  0.02353560  0.80758105  0.69632697  1
  O  O51  1  0.78568282  0.80876682  0.19569914  1
  O  O52  1  0.02953247  0.21160781  0.19650812  1
  O  O53  1  0.18777691  0.97579726  0.19525040  1
  O  O54  1  0.87268179  0.35475076  0.63639090  1
  O  O55  1  0.48620714  0.11534383  0.63717567  1
  O  O56  1  0.62914846  0.49967346  0.63965742  1
  O  O57  1  0.86452436  0.51838957  0.13582330  1
  O  O58  1  0.64671445  0.12883093  0.13553543  1
  O  O59  1  0.47852501  0.34943006  0.13843685  1
  O  O60  1  0.47120024  0.31705584  0.02919815  1
  O  O61  1  0.85114720  0.53397583  0.02746114  1
  O  O62  1  0.68608411  0.14832055  0.02694459  1
  O  O63  1  0.47030665  0.15480225  0.52964712  1
  O  O64  1  0.68862731  0.51867804  0.52580798  1
  O  O65  1  0.84248488  0.30400468  0.52835572  1
  O  O66  1  0.54968280  0.70013979  0.97082976  1
  O  O67  1  0.17552125  0.45000857  0.97356114  1
  O  O68  1  0.29948384  0.83557260  0.97478959  1
  O  O69  1  0.54908063  0.86226817  0.47018396  1
  O  O70  1  0.31093160  0.45145985  0.47074333  1
  O  O71  1  0.13758688  0.68594287  0.47409030  1
  O  O72  1  0.12335186  0.64022664  0.36600808  1
  O  O73  1  0.52362752  0.88698074  0.36277888  1
  O  O74  1  0.36253183  0.47346958  0.36254337  1
  O  O75  1  0.13576019  0.51095087  0.86086601  1
  O  O76  1  0.37695559  0.87116737  0.85963655  1
  O  O77  1  0.50521068  0.62924416  0.86370877  1
  O  O78  1  0.01164466  0.81692123  0.41243213  1
  O  O79  1  0.80876449  0.98874973  0.41068356  1
  O  O80  1  0.17884129  0.18945356  0.41092338  1
  O  O81  1  0.99508709  0.17470176  0.90690313  1
  O  O82  1  0.16500570  0.98478577  0.90805603  1
  O  O83  1  0.79922111  0.81367468  0.90695012  1
  O  O84  1  0.98507815  0.18241258  0.58651225  1
  O  O85  1  0.20868126  0.04045404  0.58790987  1
  O  O86  1  0.84971641  0.81508682  0.58484904  1
  O  O87  1  0.96812420  0.79858073  0.08549444  1
  O  O88  1  0.83074811  0.03133819  0.08564138  1
  O  O89  1  0.20193190  0.17480226  0.08507742  1
  O  O90  1  0.67720880  0.15174270  0.74626540  1
  O  O91  1  0.47328567  0.31628471  0.74723792  1
  O  O92  1  0.84940103  0.52399212  0.74610959  1
  O  O93  1  0.67923979  0.52354815  0.24454922  1
  O  O94  1  0.84485394  0.31489067  0.24403987  1
  O  O95  1  0.47014549  0.16220958  0.24427642  1
  O  O96  1  0.63571285  0.50192121  0.92264838  1
  O  O97  1  0.85067620  0.36939931  0.92688335  1
  O  O98  1  0.51000257  0.15704128  0.92619843  1
  O  O99  1  0.64975351  0.14618190  0.42349814  1
  O  O100  1  0.49543991  0.34894848  0.42393221  1
  O  O101  1  0.85825057  0.49871738  0.42326472  1
  O  O102  1  0.36626237  0.49568213  0.07930096  1
  O  O103  1  0.13108212  0.64187004  0.08038506  1
  O  O104  1  0.51190993  0.86445438  0.07754427  1
  O  O105  1  0.34169932  0.86196281  0.57417612  1
  O  O106  1  0.48835901  0.64323976  0.57666355  1
  O  O107  1  0.12771092  0.49617716  0.57488436  1
  O  O108  1  0.31390956  0.84396361  0.25573036  1
  O  O109  1  0.52241697  0.67963061  0.25521843  1
  O  O110  1  0.16366479  0.47077867  0.25637005  1
  O  O111  1  0.31849429  0.48036524  0.75606752  1
  O  O112  1  0.16804391  0.69245933  0.75531457  1
  O  O113  1  0.52111558  0.83204264  0.75538941  1
