# generated using pymatgen
data_Na2Hf2Si3Sn2(SO8)3
_symmetry_space_group_name_H-M   'P 1'
_cell_length_a   8.92557648
_cell_length_b   8.88929475
_cell_length_c   23.24912048
_cell_angle_alpha   90.59181846
_cell_angle_beta   90.47000975
_cell_angle_gamma   119.86877271
_symmetry_Int_Tables_number   1
_chemical_formula_structural   Na2Hf2Si3Sn2(SO8)3
_chemical_formula_sum   'Na6 Hf6 Si9 Sn6 S9 O72'
_cell_volume   1599.33294754
_cell_formula_units_Z   3
loop_
 _symmetry_equiv_pos_site_id
 _symmetry_equiv_pos_as_xyz
  1  'x, y, z'
loop_
 _atom_site_type_symbol
 _atom_site_label
 _atom_site_symmetry_multiplicity
 _atom_site_fract_x
 _atom_site_fract_y
 _atom_site_fract_z
 _atom_site_occupancy
  Na  Na0  1  0.98151559  0.97873960  0.49557950  1
  Na  Na1  1  0.00678487  0.98847511  0.00168426  1
  Na  Na2  1  0.64983193  0.31408390  0.82859071  1
  Na  Na3  1  0.67372285  0.32167900  0.33627101  1
  Na  Na4  1  0.31454086  0.66235498  0.17495674  1
  Na  Na5  1  0.34880911  0.66190105  0.66422149  1
  Hf  Hf6  1  0.00241959  0.00072100  0.35504011  1
  Hf  Hf7  1  0.01184168  0.01217827  0.84981071  1
  Hf  Hf8  1  0.68066171  0.33472154  0.19256731  1
  Hf  Hf9  1  0.66615432  0.33696218  0.98126947  1
  Hf  Hf10  1  0.31969421  0.67527820  0.02183255  1
  Hf  Hf11  1  0.34909354  0.68085474  0.80887256  1
  Si  Si12  1  0.29490022  0.00206879  0.25082613  1
  Si  Si13  1  0.01209928  0.29121732  0.25104370  1
  Si  Si14  1  0.28961887  0.28897259  0.74750804  1
  Si  Si15  1  0.71430705  0.00957053  0.74871009  1
  Si  Si16  1  0.66424527  0.62293249  0.58344085  1
  Si  Si17  1  0.95313455  0.63098498  0.08558306  1
  Si  Si18  1  0.33012406  0.96054796  0.91628819  1
  Si  Si19  1  0.62592650  0.95880917  0.41701063  1
  Si  Si20  1  0.04473840  0.66796511  0.41902793  1
  Sn  Sn21  1  0.98676295  0.99770915  0.64739042  1
  Sn  Sn22  1  0.00885245  0.99579498  0.15341165  1
  Sn  Sn23  1  0.65380884  0.33140984  0.68640060  1
  Sn  Sn24  1  0.67926426  0.34419674  0.47724821  1
  Sn  Sn25  1  0.34954963  0.67835162  0.51554087  1
  Sn  Sn26  1  0.31737830  0.67721227  0.31461104  1
  S  S27  1  0.70574219  0.71066173  0.25006074  1
  S  S28  1  -0.00025108  0.70876927  0.74959552  1
  S  S29  1  0.96000602  0.33598785  0.58411550  1
  S  S30  1  0.37168321  0.04036475  0.58291639  1
  S  S31  1  0.67051512  0.04433894  0.08320628  1
  S  S32  1  0.37584568  0.33412906  0.08285818  1
  S  S33  1  0.62279371  0.66767813  0.91770861  1
  S  S34  1  0.04306318  0.37805144  0.91656347  1
  S  S35  1  0.33438962  0.37805623  0.41636026  1
  O  O36  1  0.19953895  0.02614460  0.30570106  1
  O  O37  1  0.81660677  0.78930807  0.30082436  1
  O  O38  1  0.97303131  0.16727244  0.30504957  1
  O  O39  1  0.20276413  0.16960780  0.80482290  1
  O  O40  1  0.97359171  0.79134992  0.80172180  1
  O  O41  1  0.82688844  0.03020540  0.80726087  1
  O  O42  1  0.78564890  0.96000303  0.69208715  1
  O  O43  1  0.17338339  0.19967674  0.68966491  1
  O  O44  1  0.03210681  0.81300275  0.69771382  1
  O  O45  1  0.77827443  0.81363756  0.19646061  1
  O  O46  1  0.02978561  0.20727444  0.18854220  1
  O  O47  1  0.18067073  0.95588598  0.19027612  1
  O  O48  1  0.87979125  0.36028915  0.63684973  1
  O  O49  1  0.47990786  0.11491194  0.63659900  1
  O  O50  1  0.63708051  0.50968399  0.64187143  1
  O  O51  1  0.85895048  0.50674156  0.13895840  1
  O  O52  1  0.63772846  0.12073246  0.13451335  1
  O  O53  1  0.48030212  0.35859691  0.13445107  1
  O  O54  1  0.45918954  0.30704793  0.03038019  1
  O  O55  1  0.84020202  0.53688200  0.02634160  1
  O  O56  1  0.68887071  0.14953377  0.03119274  1
  O  O57  1  0.45215464  0.14556747  0.53220197  1
  O  O58  1  0.69283609  0.53131603  0.52703126  1
  O  O59  1  0.85008797  0.30159054  0.53213027  1
  O  O60  1  0.53957832  0.68862982  0.96930963  1
  O  O61  1  0.15155071  0.45814141  0.96936537  1
  O  O62  1  0.30900312  0.84151753  0.97309114  1
  O  O63  1  0.55502641  0.84580468  0.47557771  1
  O  O64  1  0.30471124  0.45141632  0.47026920  1
  O  O65  1  0.15832496  0.69395299  0.47841218  1
  O  O66  1  0.11643237  0.61972092  0.36173674  1
  O  O67  1  0.50833930  0.86967904  0.35928949  1
  O  O68  1  0.36353376  0.48455123  0.36532222  1
  O  O69  1  0.12076032  0.48049546  0.86559527  1
  O  O70  1  0.35557788  0.86232765  0.86118284  1
  O  O71  1  0.51488380  0.63612578  0.86515486  1
  O  O72  1  0.02931312  0.84163351  0.41225653  1
  O  O73  1  0.81914179  0.98691738  0.40986318  1
  O  O74  1  0.17912338  0.20471361  0.41094263  1
  O  O75  1  0.02171381  0.20099397  0.91231418  1
  O  O76  1  0.15537311  0.97640143  0.91184371  1
  O  O77  1  0.79577096  0.82150896  0.91158867  1
  O  O78  1  0.97916958  0.17770355  0.58783969  1
  O  O79  1  0.19879753  0.02564690  0.58940094  1
  O  O80  1  0.84399505  0.81606477  0.58833053  1
  O  O81  1  0.97056784  0.82517620  0.08860726  1
  O  O82  1  0.82645184  0.02829113  0.08750911  1
  O  O83  1  0.20076213  0.17955084  0.08459233  1
  O  O84  1  0.70110506  0.18626630  0.74187816  1
  O  O85  1  0.48340667  0.31259129  0.74582495  1
  O  O86  1  0.84466324  0.53523711  0.74465572  1
  O  O87  1  0.69075930  0.53664588  0.24221191  1
  O  O88  1  0.84085563  0.31597231  0.24328620  1
  O  O89  1  0.48183720  0.17793249  0.24049376  1
  O  O90  1  0.64071584  0.50885158  0.92315774  1
  O  O91  1  0.86824338  0.35885424  0.92456128  1
  O  O92  1  0.50427256  0.15198060  0.92508261  1
  O  O93  1  0.63005532  0.14647722  0.42499326  1
  O  O94  1  0.48845439  0.35634387  0.42274275  1
  O  O95  1  0.84980227  0.49702849  0.42137720  1
  O  O96  1  0.36223317  0.49282935  0.07369295  1
  O  O97  1  0.14619150  0.64767552  0.07709099  1
  O  O98  1  0.51659233  0.86688021  0.07491319  1
  O  O99  1  0.35127468  0.86334245  0.57953978  1
  O  O100  1  0.48731121  0.64027404  0.57851252  1
  O  O101  1  0.13249149  0.49220853  0.57927245  1
  O  O102  1  0.32263502  0.83338367  0.25249640  1
  O  O103  1  0.53254667  0.68802263  0.25582670  1
  O  O104  1  0.18822815  0.48107776  0.25564706  1
  O  O105  1  0.30259696  0.47699093  0.75834440  1
  O  O106  1  0.15306344  0.68729182  0.75807106  1
  O  O107  1  0.51980078  0.83888364  0.75616238  1
