# generated using pymatgen
data_Na14Ca4Zn4Si3(S3O16)3
_symmetry_space_group_name_H-M   'P 1'
_cell_length_a   18.63100326
_cell_length_b   9.32312767
_cell_length_c   22.85573344
_cell_angle_alpha   89.94131797
_cell_angle_beta   89.68607861
_cell_angle_gamma   120.15165532
_symmetry_Int_Tables_number   1
_chemical_formula_structural   Na14Ca4Zn4Si3(S3O16)3
_chemical_formula_sum   'Na42 Ca12 Zn12 Si9 S27 O144'
_cell_volume   3432.79047826
_cell_formula_units_Z   3
loop_
 _symmetry_equiv_pos_site_id
 _symmetry_equiv_pos_as_xyz
  1  'x, y, z'
loop_
 _atom_site_type_symbol
 _atom_site_label
 _atom_site_symmetry_multiplicity
 _atom_site_fract_x
 _atom_site_fract_y
 _atom_site_fract_z
 _atom_site_occupancy
  Na  Na0  1  0.80990830  0.99947393  0.25598856  1
  Na  Na1  1  0.18118295  0.36533256  0.26028964  1
  Na  Na2  1  0.68564873  0.35481558  0.25275148  1
  Na  Na3  1  0.99148057  0.62141770  0.23867382  1
  Na  Na4  1  0.51171831  0.65633346  0.24960452  1
  Na  Na5  1  0.31309857  0.62465634  0.75652136  1
  Na  Na6  1  0.00913328  0.36611871  0.75004478  1
  Na  Na7  1  0.50382448  0.35722651  0.73856900  1
  Na  Na8  1  0.18563951  0.01634683  0.75269682  1
  Na  Na9  1  0.67629168  0.00903659  0.76358173  1
  Na  Na10  1  0.15067247  0.33256656  0.58517406  1
  Na  Na11  1  0.63668716  0.33050223  0.59444820  1
  Na  Na12  1  0.33957787  0.98999382  0.58377532  1
  Na  Na13  1  0.83019993  0.95638222  0.57523568  1
  Na  Na14  1  0.13898079  0.94286226  0.08026622  1
  Na  Na15  1  0.65072093  0.96808975  0.07826539  1
  Na  Na16  1  0.33283350  0.70623468  0.07028821  1
  Na  Na17  1  0.83921905  0.68651002  0.07813580  1
  Na  Na18  1  0.48880497  0.69067576  0.91417951  1
  Na  Na19  1  0.98072221  0.65913678  0.92302599  1
  Na  Na20  1  0.35102490  0.01283349  0.91510871  1
  Na  Na21  1  0.83825450  0.03328943  0.91195310  1
  Na  Na22  1  0.17299171  0.31743754  0.90493260  1
  Na  Na23  1  0.66388631  0.28489724  0.90609956  1
  Na  Na24  1  0.48103581  0.30222367  0.42897925  1
  Na  Na25  1  0.98623511  0.29036282  0.42046904  1
  Na  Na26  1  0.16871307  0.04365423  0.42016875  1
  Na  Na27  1  0.67270881  0.03171065  0.40956637  1
  Na  Na28  1  0.34171335  0.64728987  0.41755308  1
  Na  Na29  1  0.84664295  0.68242145  0.42143060  1
  Na  Na30  1  0.99874675  0.00095370  0.49330270  1
  Na  Na31  1  0.49971245  0.00467016  0.50757732  1
  Na  Na32  1  0.99698445  0.99197420  0.00099329  1
  Na  Na33  1  0.49997382  0.99797330  0.98733243  1
  Na  Na34  1  0.32982393  0.34611627  0.83041873  1
  Na  Na35  1  0.81730476  0.32451618  0.83471622  1
  Na  Na36  1  0.32911761  0.32792500  0.34220611  1
  Na  Na37  1  0.82545684  0.30889972  0.33313785  1
  Na  Na38  1  0.15479992  0.65902675  0.15904248  1
  Na  Na39  1  0.66318728  0.67135218  0.17084271  1
  Na  Na40  1  0.16400182  0.65752945  0.67390441  1
  Na  Na41  1  0.65335065  0.62726240  0.66901604  1
  Ca  Ca42  1  0.00220380  0.99511847  0.65138599  1
  Ca  Ca43  1  0.50027376  0.00687889  0.65118361  1
  Ca  Ca44  1  0.99731350  0.99529245  0.14773241  1
  Ca  Ca45  1  0.50262526  0.00793173  0.15107743  1
  Ca  Ca46  1  0.82931852  0.34471877  0.68865734  1
  Ca  Ca47  1  0.33576729  0.32439138  0.18537507  1
  Ca  Ca48  1  0.16195471  0.65664337  0.01427788  1
  Ca  Ca49  1  0.66498386  0.66726177  0.01274790  1
  Ca  Ca50  1  0.16389823  0.65881415  0.51348271  1
  Ca  Ca51  1  0.66024774  0.66267140  0.51645221  1
  Ca  Ca52  1  0.16931299  0.66144710  0.32181978  1
  Ca  Ca53  1  0.66877273  0.66958653  0.81924372  1
  Zn  Zn54  1  0.00073906  0.01875976  0.35561267  1
  Zn  Zn55  1  0.51081617  0.00893343  0.33709740  1
  Zn  Zn56  1  0.00835018  0.01212532  0.83388178  1
  Zn  Zn57  1  0.51027635  0.99422616  0.85149969  1
  Zn  Zn58  1  0.33560912  0.34009730  0.68014407  1
  Zn  Zn59  1  0.83124029  0.32638082  0.17684263  1
  Zn  Zn60  1  0.33633721  0.35362809  0.98094184  1
  Zn  Zn61  1  0.83298251  0.33187885  0.98802836  1
  Zn  Zn62  1  0.33249352  0.33728312  0.49118009  1
  Zn  Zn63  1  0.83443359  0.31522211  0.48480840  1
  Zn  Zn64  1  0.67243741  0.70986946  0.32200864  1
  Zn  Zn65  1  0.17366973  0.63899458  0.82022315  1
  Si  Si66  1  0.65449296  0.00287808  0.24742710  1
  Si  Si67  1  0.15464493  0.30615027  0.74708481  1
  Si  Si68  1  0.64725219  0.29816566  0.75262309  1
  Si  Si69  1  0.47580769  0.33240372  0.58240229  1
  Si  Si70  1  0.97651934  0.61775499  0.08420735  1
  Si  Si71  1  0.32153683  0.66874690  0.91753470  1
  Si  Si72  1  0.67197762  0.98528166  0.92103861  1
  Si  Si73  1  0.81960263  0.97478477  0.41820175  1
  Si  Si74  1  0.17112599  0.35512914  0.41764173  1
  S  S75  1  0.14602457  0.99815761  0.25235275  1
  S  S76  1  0.35095752  0.70203293  0.25054642  1
  S  S77  1  0.84942012  0.70087769  0.25387557  1
  S  S78  1  0.99992623  0.29815166  0.25146836  1
  S  S79  1  0.50295443  0.30350510  0.25617274  1
  S  S80  1  0.00514265  0.70432473  0.75624517  1
  S  S81  1  0.49665061  0.69686612  0.75121105  1
  S  S82  1  0.34540751  0.99594643  0.75283460  1
  S  S83  1  0.85331985  0.00219140  0.75040299  1
  S  S84  1  0.98069362  0.33114497  0.58296245  1
  S  S85  1  0.18605219  0.03742328  0.58288166  1
  S  S86  1  0.68793639  0.04325146  0.58083914  1
  S  S87  1  0.33156662  0.62839130  0.58285529  1
  S  S88  1  0.83462764  0.62832160  0.57689829  1
  S  S89  1  0.48131350  0.63044714  0.08350836  1
  S  S90  1  0.33276846  0.03827996  0.07908576  1
  S  S91  1  0.83156820  0.03465464  0.08391598  1
  S  S92  1  0.18887590  0.33247505  0.08322859  1
  S  S93  1  0.68693449  0.33652206  0.08443773  1
  S  S94  1  0.82425347  0.67520507  0.91750126  1
  S  S95  1  0.01569282  0.35910747  0.91211049  1
  S  S96  1  0.51017540  0.36070025  0.91801859  1
  S  S97  1  0.16465124  0.96731585  0.91531698  1
  S  S98  1  0.32295566  0.97196560  0.41555150  1
  S  S99  1  0.66413087  0.36327630  0.41332744  1
  S  S100  1  0.01214744  0.66471052  0.41513776  1
  S  S101  1  0.51565908  0.67239932  0.41102257  1
  O  O102  1  0.10220218  0.01438567  0.30410569  1
  O  O103  1  0.61384446  0.03772519  0.30704517  1
  O  O104  1  0.40083819  0.78964014  0.30313855  1
  O  O105  1  0.90286338  0.78832985  0.30474638  1
  O  O106  1  0.48922660  0.19850896  0.30909243  1
  O  O107  1  0.99310661  0.20325443  0.30559470  1
  O  O108  1  0.11343868  0.18936149  0.80672890  1
  O  O109  1  0.59737955  0.17970283  0.80982865  1
  O  O110  1  0.48526529  0.77184935  0.80550093  1
  O  O111  1  0.99079921  0.78052801  0.80943994  1
  O  O112  1  0.39626114  0.01311400  0.80446417  1
  O  O113  1  0.90260844  0.01084716  0.80350663  1
  O  O114  1  0.38122209  0.96745747  0.69870234  1
  O  O115  1  0.89175103  0.98300397  0.69665074  1
  O  O116  1  0.09624352  0.22575894  0.68999766  1
  O  O117  1  0.59984880  0.21914767  0.69075894  1
  O  O118  1  0.01369493  0.80396844  0.70378916  1
  O  O119  1  0.50502373  0.79754515  0.69951044  1
  O  O120  1  0.39067841  0.79425565  0.19631600  1
  O  O121  1  0.88614576  0.79968197  0.19943646  1
  O  O122  1  0.01179091  0.21759209  0.19990150  1
  O  O123  1  0.51028938  0.22107922  0.20323346  1
  O  O124  1  0.10008748  0.98314952  0.19754075  1
  O  O125  1  0.59509482  0.96453874  0.19096763  1
  O  O126  1  0.42740662  0.33668410  0.64251717  1
  O  O127  1  0.93926894  0.34091889  0.63679961  1
  O  O128  1  0.23403449  0.11953286  0.63625243  1
  O  O129  1  0.73759354  0.12468092  0.63358302  1
  O  O130  1  0.32061931  0.52542944  0.63520384  1
  O  O131  1  0.82965807  0.53274009  0.62971630  1
  O  O132  1  0.44140360  0.54040725  0.13838947  1
  O  O133  1  0.93008980  0.51837757  0.14568092  1
  O  O134  1  0.32581219  0.12088320  0.13218165  1
  O  O135  1  0.82216258  0.11404111  0.13745666  1
  O  O136  1  0.23545375  0.34822289  0.13770777  1
  O  O137  1  0.73418966  0.35150483  0.13875906  1
  O  O138  1  0.23180980  0.31365416  0.03110983  1
  O  O139  1  0.72794925  0.31803098  0.03165589  1
  O  O140  1  0.43184990  0.53989272  0.03157528  1
  O  O141  1  0.92099126  0.52765852  0.02520729  1
  O  O142  1  0.33950489  0.13518429  0.02576770  1
  O  O143  1  0.83807615  0.12833939  0.03024445  1
  O  O144  1  0.22566244  0.13631453  0.52890478  1
  O  O145  1  0.72876072  0.14701630  0.52733450  1
  O  O146  1  0.33727203  0.54959751  0.52799732  1
  O  O147  1  0.84146786  0.54579502  0.52296836  1
  O  O148  1  0.42221762  0.31583869  0.52198269  1
  O  O149  1  0.93370097  0.32449158  0.52947289  1
  O  O150  1  0.28395788  0.70337330  0.97706586  1
  O  O151  1  0.78790567  0.69712079  0.97299275  1
  O  O152  1  0.06836986  0.43527945  0.96372903  1
  O  O153  1  0.56473344  0.44183794  0.96862308  1
  O  O154  1  0.15221297  0.86699934  0.96918203  1
  O  O155  1  0.65504666  0.86973652  0.97910692  1
  O  O156  1  0.28487773  0.87451804  0.47012119  1
  O  O157  1  0.78056834  0.86091957  0.47619866  1
  O  O158  1  0.14979383  0.43726943  0.47325303  1
  O  O159  1  0.65190321  0.43976403  0.46638037  1
  O  O160  1  0.06816311  0.69467253  0.46504909  1
  O  O161  1  0.56812614  0.70001904  0.46235470  1
  O  O162  1  0.04872010  0.63669976  0.36119190  1
  O  O163  1  0.55485993  0.64615215  0.35761602  1
  O  O164  1  0.26750909  0.88724460  0.36560566  1
  O  O165  1  0.76065884  0.89744525  0.35991202  1
  O  O166  1  0.19055650  0.46796888  0.35795755  1
  O  O167  1  0.67448998  0.46614794  0.36069593  1
  O  O168  1  0.05560598  0.46478312  0.85903180  1
  O  O169  1  0.54670300  0.46348109  0.86477143  1
  O  O170  1  0.17474847  0.88378028  0.86335810  1
  O  O171  1  0.69108840  0.90758989  0.86258181  1
  O  O172  1  0.25825798  0.62436469  0.86164792  1
  O  O173  1  0.76865370  0.65124163  0.86835881  1
  O  O174  1  0.00324412  0.81427907  0.40966839  1
  O  O175  1  0.50488417  0.82109208  0.40545382  1
  O  O176  1  0.40598195  0.98485245  0.40870831  1
  O  O177  1  0.91212433  0.99144159  0.41017681  1
  O  O178  1  0.08885869  0.16690190  0.41107483  1
  O  O179  1  0.58842653  0.19221172  0.40983003  1
  O  O180  1  0.00464198  0.18881196  0.90640407  1
  O  O181  1  0.49983331  0.19271158  0.91305563  1
  O  O182  1  0.08939390  0.98678193  0.91149244  1
  O  O183  1  0.58723963  0.99906187  0.91588900  1
  O  O184  1  0.41348451  0.83628391  0.90694628  1
  O  O185  1  0.90790816  0.82841721  0.91050753  1
  O  O186  1  0.48235130  0.15934706  0.58005514  1
  O  O187  1  0.98505925  0.17404368  0.58215619  1
  O  O188  1  0.10196049  0.01955511  0.58507373  1
  O  O189  1  0.60415102  0.02466541  0.58326312  1
  O  O190  1  0.40530799  0.79669871  0.58584348  1
  O  O191  1  0.90750228  0.80085772  0.57943289  1
  O  O192  1  0.48551265  0.79601225  0.08277799  1
  O  O193  1  0.98519941  0.80700185  0.08266530  1
  O  O194  1  0.40555031  0.01261281  0.08246567  1
  O  O195  1  0.90552931  0.01344626  0.08646027  1
  O  O196  1  0.10524832  0.18055826  0.08535653  1
  O  O197  1  0.60291592  0.18589168  0.08679564  1
  O  O198  1  0.33905303  0.14955530  0.74824208  1
  O  O199  1  0.85357411  0.16322737  0.74906626  1
  O  O200  1  0.24855933  0.32535330  0.74196750  1
  O  O201  1  0.73735899  0.30214523  0.75493342  1
  O  O202  1  0.42173661  0.52702978  0.74776081  1
  O  O203  1  0.93454360  0.53120275  0.75164898  1
  O  O204  1  0.34503416  0.53442040  0.24980081  1
  O  O205  1  0.84249619  0.53411128  0.25023356  1
  O  O206  1  0.43130010  0.33356189  0.25253705  1
  O  O207  1  0.92369515  0.31099164  0.24832587  1
  O  O208  1  0.22944880  0.15353798  0.25026727  1
  O  O209  1  0.74863064  0.17247791  0.24182357  1
  O  O210  1  0.33032524  0.49839321  0.92124371  1
  O  O211  1  0.83346668  0.52562602  0.92006311  1
  O  O212  1  0.42579631  0.34252237  0.92553889  1
  O  O213  1  0.93287376  0.34559581  0.91828825  1
  O  O214  1  0.24120420  0.13525479  0.92006218  1
  O  O215  1  0.75658906  0.17533707  0.92762277  1
  O  O216  1  0.33217707  0.13988586  0.41841939  1
  O  O217  1  0.83064503  0.16468210  0.42205006  1
  O  O218  1  0.25645188  0.33961953  0.42685268  1
  O  O219  1  0.74032512  0.34783687  0.41811157  1
  O  O220  1  0.43222604  0.52060134  0.41659384  1
  O  O221  1  0.92857725  0.51475161  0.42345389  1
  O  O222  1  0.18272564  0.48491242  0.07953592  1
  O  O223  1  0.68195141  0.49118310  0.08111812  1
  O  O224  1  0.07315203  0.65611007  0.08431831  1
  O  O225  1  0.56660856  0.65614806  0.08197711  1
  O  O226  1  0.25531887  0.87044600  0.07862020  1
  O  O227  1  0.75588519  0.86348703  0.08293051  1
  O  O228  1  0.18114876  0.87286021  0.57923295  1
  O  O229  1  0.68317175  0.88015436  0.57690916  1
  O  O230  1  0.25528464  0.64666803  0.58148173  1
  O  O231  1  0.75736766  0.64011196  0.57675669  1
  O  O232  1  0.06656670  0.47605696  0.58156407  1
  O  O233  1  0.57214422  0.48758590  0.58332909  1
  O  O234  1  0.15389521  0.84744231  0.25589827  1
  O  O235  1  0.66115354  0.83069774  0.25355509  1
  O  O236  1  0.26520899  0.67460981  0.25257851  1
  O  O237  1  0.76384073  0.67679168  0.25887206  1
  O  O238  1  0.07467616  0.47023470  0.25386291  1
  O  O239  1  0.58095015  0.46807218  0.25989953  1
  O  O240  1  0.16096254  0.49087739  0.75327344  1
  O  O241  1  0.65171490  0.47861312  0.75497623  1
  O  O242  1  0.08371388  0.69807616  0.76064630  1
  O  O243  1  0.57306793  0.68326966  0.75459254  1
  O  O244  1  0.25865435  0.84878632  0.75763234  1
  O  O245  1  0.76679924  0.86371360  0.75355141  1
