# generated using pymatgen
data_Na12Mg5Nb(PO4)9
_symmetry_space_group_name_H-M   'P 1'
_cell_length_a   9.01654314
_cell_length_b   9.01654283
_cell_length_c   22.10100202
_cell_angle_alpha   90.00000000
_cell_angle_beta   90.00000000
_cell_angle_gamma   120.00000116
_symmetry_Int_Tables_number   1
_chemical_formula_structural   Na12Mg5Nb(PO4)9
_chemical_formula_sum   'Na24 Mg10 Nb2 P18 O72'
_cell_volume   1556.04698207
_cell_formula_units_Z   2
loop_
 _symmetry_equiv_pos_site_id
 _symmetry_equiv_pos_as_xyz
  1  'x, y, z'
loop_
 _atom_site_type_symbol
 _atom_site_label
 _atom_site_symmetry_multiplicity
 _atom_site_fract_x
 _atom_site_fract_y
 _atom_site_fract_z
 _atom_site_occupancy
  Na  Na0  1  0.63492321  0.99946766  0.25033935  1
  Na  Na1  1  0.36454445  0.36507679  0.25033935  1
  Na  Na2  1  0.00053234  0.63545555  0.25033935  1
  Na  Na3  1  0.63492321  0.63545555  0.75033935  1
  Na  Na4  1  0.00053234  0.36507679  0.75033935  1
  Na  Na5  1  0.36454445  0.99946766  0.75033935  1
  Na  Na6  1  0.29562189  0.33375433  0.58780328  1
  Na  Na7  1  0.03813344  0.70437811  0.58780328  1
  Na  Na8  1  0.66624567  0.96186656  0.58780328  1
  Na  Na9  1  0.29562189  0.96186656  0.08780328  1
  Na  Na10  1  0.66624567  0.70437811  0.08780328  1
  Na  Na11  1  0.03813344  0.33375433  0.08780328  1
  Na  Na12  1  0.97865608  0.67873400  0.90834838  1
  Na  Na13  1  0.70007692  0.02134392  0.90834838  1
  Na  Na14  1  0.32126600  0.29992308  0.90834838  1
  Na  Na15  1  0.97865608  0.29992308  0.40834838  1
  Na  Na16  1  0.32126600  0.02134392  0.40834838  1
  Na  Na17  1  0.70007692  0.67873400  0.40834838  1
  Na  Na18  1  0.00000000  0.00000000  0.49974118  1
  Na  Na19  1  0.00000000  0.00000000  0.99974118  1
  Na  Na20  1  0.66666700  0.33333300  0.82383334  1
  Na  Na21  1  0.66666700  0.33333300  0.32383334  1
  Na  Na22  1  0.33333300  0.66666700  0.17100220  1
  Na  Na23  1  0.33333300  0.66666700  0.67100220  1
  Mg  Mg24  1  0.00000000  0.00000000  0.34608440  1
  Mg  Mg25  1  0.00000000  0.00000000  0.84608440  1
  Mg  Mg26  1  0.00000000  0.00000000  0.65314595  1
  Mg  Mg27  1  0.00000000  0.00000000  0.15314595  1
  Mg  Mg28  1  0.66666700  0.33333300  0.68580341  1
  Mg  Mg29  1  0.66666700  0.33333300  0.18580341  1
  Mg  Mg30  1  0.33333300  0.66666700  0.01659591  1
  Mg  Mg31  1  0.33333300  0.66666700  0.51659591  1
  Mg  Mg32  1  0.33333300  0.66666700  0.31512349  1
  Mg  Mg33  1  0.33333300  0.66666700  0.81512349  1
  Nb  Nb34  1  0.66666700  0.33333300  0.98161610  1
  Nb  Nb35  1  0.66666700  0.33333300  0.48161610  1
  P  P36  1  0.29577117  0.99923863  0.24983079  1
  P  P37  1  0.70346746  0.70422883  0.24983079  1
  P  P38  1  0.00076137  0.29653254  0.24983079  1
  P  P39  1  0.29577117  0.29653254  0.74983079  1
  P  P40  1  0.00076137  0.70422883  0.74983079  1
  P  P41  1  0.70346746  0.99923863  0.74983079  1
  P  P42  1  0.96303931  0.33522494  0.58562322  1
  P  P43  1  0.37218663  0.03696069  0.58562322  1
  P  P44  1  0.66477506  0.62781337  0.58562322  1
  P  P45  1  0.96303931  0.62781337  0.08562322  1
  P  P46  1  0.66477506  0.03696069  0.08562322  1
  P  P47  1  0.37218663  0.33522494  0.08562322  1
  P  P48  1  0.62726398  0.66898537  0.91773934  1
  P  P49  1  0.04172038  0.37273602  0.91773934  1
  P  P50  1  0.33101463  0.95827962  0.91773934  1
  P  P51  1  0.62726398  0.95827962  0.41773934  1
  P  P52  1  0.33101463  0.37273602  0.41773934  1
  P  P53  1  0.04172038  0.66898537  0.41773934  1
  O  O54  1  0.21355914  0.02724743  0.30686977  1
  O  O55  1  0.81368830  0.78644086  0.30686977  1
  O  O56  1  0.97275257  0.18631170  0.30686977  1
  O  O57  1  0.21355914  0.18631170  0.80686977  1
  O  O58  1  0.97275257  0.78644086  0.80686977  1
  O  O59  1  0.81368830  0.02724743  0.80686977  1
  O  O60  1  0.78578712  0.97099879  0.69275691  1
  O  O61  1  0.18521167  0.21421288  0.69275691  1
  O  O62  1  0.02900121  0.81478833  0.69275691  1
  O  O63  1  0.78578712  0.81478833  0.19275691  1
  O  O64  1  0.02900121  0.21421288  0.19275691  1
  O  O65  1  0.18521167  0.97099879  0.19275691  1
  O  O66  1  0.87619902  0.36226199  0.63962862  1
  O  O67  1  0.48606397  0.12380098  0.63962862  1
  O  O68  1  0.63773801  0.51393603  0.63962862  1
  O  O69  1  0.87619902  0.51393603  0.13962862  1
  O  O70  1  0.63773801  0.12380098  0.13962862  1
  O  O71  1  0.48606397  0.36226199  0.13962862  1
  O  O72  1  0.47146182  0.31384839  0.02776730  1
  O  O73  1  0.84238758  0.52853818  0.02776730  1
  O  O74  1  0.68615161  0.15761242  0.02776730  1
  O  O75  1  0.47146182  0.15761242  0.52776730  1
  O  O76  1  0.68615161  0.52853818  0.52776730  1
  O  O77  1  0.84238758  0.31384839  0.52776730  1
  O  O78  1  0.54614337  0.69276405  0.97489197  1
  O  O79  1  0.14661968  0.45385663  0.97489197  1
  O  O80  1  0.30723595  0.85338032  0.97489197  1
  O  O81  1  0.54614337  0.85338032  0.47489197  1
  O  O82  1  0.30723595  0.45385663  0.47489197  1
  O  O83  1  0.14661968  0.69276405  0.47489197  1
  O  O84  1  0.11385288  0.62812872  0.36159970  1
  O  O85  1  0.51427484  0.88614712  0.36159970  1
  O  O86  1  0.37187128  0.48572516  0.36159970  1
  O  O87  1  0.11385288  0.48572516  0.86159970  1
  O  O88  1  0.37187128  0.88614712  0.86159970  1
  O  O89  1  0.51427484  0.62812872  0.86159970  1
  O  O90  1  0.01186435  0.82301225  0.41225007  1
  O  O91  1  0.81114790  0.98813565  0.41225007  1
  O  O92  1  0.17698775  0.18885210  0.41225007  1
  O  O93  1  0.01186435  0.18885210  0.91225007  1
  O  O94  1  0.17698775  0.98813565  0.91225007  1
  O  O95  1  0.81114790  0.82301225  0.91225007  1
  O  O96  1  0.97216561  0.16898196  0.58467167  1
  O  O97  1  0.19681635  0.02783439  0.58467167  1
  O  O98  1  0.83101804  0.80318365  0.58467167  1
  O  O99  1  0.97216561  0.80318365  0.08467167  1
  O  O100  1  0.83101804  0.02783439  0.08467167  1
  O  O101  1  0.19681635  0.16898196  0.08467167  1
  O  O102  1  0.68496226  0.16163732  0.74517449  1
  O  O103  1  0.47667605  0.31503774  0.74517449  1
  O  O104  1  0.83836268  0.52332395  0.74517449  1
  O  O105  1  0.68496226  0.52332395  0.24517449  1
  O  O106  1  0.83836268  0.31503774  0.24517449  1
  O  O107  1  0.47667605  0.16163732  0.24517449  1
  O  O108  1  0.64783134  0.50108158  0.92494162  1
  O  O109  1  0.85325124  0.35216866  0.92494162  1
  O  O110  1  0.49891842  0.14674876  0.92494162  1
  O  O111  1  0.64783134  0.14674876  0.42494162  1
  O  O112  1  0.49891842  0.35216866  0.42494162  1
  O  O113  1  0.85325124  0.50108158  0.42494162  1
  O  O114  1  0.35518094  0.49534917  0.07695283  1
  O  O115  1  0.14016722  0.64481906  0.07695283  1
  O  O116  1  0.50465083  0.85983278  0.07695283  1
  O  O117  1  0.35518094  0.85983278  0.57695283  1
  O  O118  1  0.50465083  0.64481906  0.57695283  1
  O  O119  1  0.14016722  0.49534917  0.57695283  1
  O  O120  1  0.31433365  0.83708880  0.25516203  1
  O  O121  1  0.52275415  0.68566635  0.25516203  1
  O  O122  1  0.16291120  0.47724585  0.25516203  1
  O  O123  1  0.31433365  0.47724585  0.75516203  1
  O  O124  1  0.16291120  0.68566635  0.75516203  1
  O  O125  1  0.52275415  0.83708880  0.75516203  1
