# generated using pymatgen
data_Na3YIn(PO4)3
_symmetry_space_group_name_H-M   'P 1'
_cell_length_a   15.99494460
_cell_length_b   9.25009632
_cell_length_c   9.25775110
_cell_angle_alpha   89.97513916
_cell_angle_beta   125.25191522
_cell_angle_gamma   90.13042555
_symmetry_Int_Tables_number   1
_chemical_formula_structural   Na3YIn(PO4)3
_chemical_formula_sum   'Na12 Y4 In4 P12 O48'
_cell_volume   1118.54724786
_cell_formula_units_Z   4
loop_
 _symmetry_equiv_pos_site_id
 _symmetry_equiv_pos_as_xyz
  1  'x, y, z'
loop_
 _atom_site_type_symbol
 _atom_site_label
 _atom_site_symmetry_multiplicity
 _atom_site_fract_x
 _atom_site_fract_y
 _atom_site_fract_z
 _atom_site_occupancy
  Na  Na0  1  0.24467612  0.77910315  0.99688869  1
  Na  Na1  1  0.74081870  0.72043331  0.49000734  1
  Na  Na2  1  0.73946262  0.27982378  0.98864217  1
  Na  Na3  1  0.24447535  0.22040070  0.49765157  1
  Na  Na4  1  0.49945827  0.11426134  0.74012121  1
  Na  Na5  1  0.50098787  0.88450776  0.24838977  1
  Na  Na6  1  0.99866394  0.61174708  0.73595338  1
  Na  Na7  1  0.00369898  0.39326562  0.25012870  1
  Na  Na8  1  0.80760257  0.93474193  0.20678692  1
  Na  Na9  1  0.80813494  0.06330046  0.70586294  1
  Na  Na10  1  0.31342568  0.44020516  0.22039966  1
  Na  Na11  1  0.31142759  0.56733881  0.70492378  1
  Y  Y12  1  0.89857712  0.74887990  0.94242944  1
  Y  Y13  1  0.89674992  0.25030212  0.44065987  1
  Y  Y14  1  0.10292621  0.23942087  0.04948954  1
  Y  Y15  1  0.39683894  0.24881196  0.94303101  1
  In  In16  1  0.10205059  0.75981946  0.54875617  1
  In  In17  1  0.60259728  0.25871687  0.54875221  1
  In  In18  1  0.40140210  0.74978595  0.44683537  1
  In  In19  1  0.60075981  0.74141399  0.04782649  1
  P  P20  1  0.99760156  0.94177549  0.73405180  1
  P  P21  1  0.00105472  0.05362787  0.24650034  1
  P  P22  1  0.50001403  0.45005631  0.73964499  1
  P  P23  1  0.50032998  0.55303729  0.24769567  1
  P  P24  1  0.35460987  0.89308709  0.75597305  1
  P  P25  1  0.64905100  0.90660513  0.74521182  1
  P  P26  1  0.64929044  0.09178124  0.24560467  1
  P  P27  1  0.35831846  0.10074589  0.27020759  1
  P  P28  1  0.85150047  0.39336188  0.76208946  1
  P  P29  1  0.15191712  0.40931891  0.74324716  1
  P  P30  1  0.15453539  0.59845753  0.25101281  1
  P  P31  1  0.85230161  0.60722956  0.26170885  1
  O  O32  1  0.15969741  0.57777093  0.74875521  1
  O  O33  1  0.84092594  0.55966786  0.74493715  1
  O  O34  1  0.84237743  0.44041303  0.24618145  1
  O  O35  1  0.16385172  0.43079745  0.25081251  1
  O  O36  1  0.65632313  0.07557458  0.74809687  1
  O  O37  1  0.34638040  0.06036010  0.74858094  1
  O  O38  1  0.34937646  0.93282662  0.25797123  1
  O  O39  1  0.65658617  0.92291669  0.24812289  1
  O  O40  1  0.43231883  0.53884595  0.56749071  1
  O  O41  1  0.55944780  0.54736923  0.90469849  1
  O  O42  1  0.56169438  0.45897667  0.41551330  1
  O  O43  1  0.43519414  0.46036841  0.08004019  1
  O  O44  1  0.93631093  0.03239741  0.56425246  1
  O  O45  1  0.05192599  0.04070911  0.89803474  1
  O  O46  1  0.05819301  0.95851473  0.41357613  1
  O  O47  1  0.94362544  0.96124377  0.07715007  1
  O  O48  1  0.26387231  0.82113932  0.74672815  1
  O  O49  1  0.74098797  0.84663170  0.74988764  1
  O  O50  1  0.73876040  0.15499047  0.24523429  1
  O  O51  1  0.26762627  0.17259435  0.25901593  1
  O  O52  1  0.76197510  0.31848746  0.75492166  1
  O  O53  1  0.23976056  0.34528165  0.73845669  1
  O  O54  1  0.24421445  0.66554347  0.25190424  1
  O  O55  1  0.76143563  0.67888653  0.25235130  1
  O  O56  1  0.35854517  0.84588114  0.60071693  1
  O  O57  1  0.65428326  0.86686554  0.91425071  1
  O  O58  1  0.65650883  0.13151961  0.41689938  1
  O  O59  1  0.36187793  0.15037777  0.11517865  1
  O  O60  1  0.85597084  0.33600193  0.61041358  1
  O  O61  1  0.16061311  0.36409615  0.91335383  1
  O  O62  1  0.15779474  0.63469840  0.41897300  1
  O  O63  1  0.85713418  0.66265277  0.10994626  1
  O  O64  1  0.45304833  0.84274029  0.93513937  1
  O  O65  1  0.55006960  0.85128647  0.57359915  1
  O  O66  1  0.54858642  0.14463578  0.07847236  1
  O  O67  1  0.45756753  0.15131125  0.44706323  1
  O  O68  1  0.95172835  0.35077971  0.94064026  1
  O  O69  1  0.04894346  0.35862533  0.57645005  1
  O  O70  1  0.05273308  0.64819285  0.08175425  1
  O  O71  1  0.95212423  0.65356414  0.44097279  1
  O  O72  1  0.07937330  0.84344470  0.74458474  1
  O  O73  1  0.91844768  0.84278142  0.73504057  1
  O  O74  1  0.91821031  0.14897937  0.23992784  1
  O  O75  1  0.07915433  0.15884568  0.25447068  1
  O  O76  1  0.57758692  0.34899135  0.74025604  1
  O  O77  1  0.42409225  0.35032060  0.74830180  1
  O  O78  1  0.42159230  0.65110843  0.25207838  1
  O  O79  1  0.57589274  0.65462738  0.24231748  1
