# generated using pymatgen
data_Na2Sc4Si3Sn4(S3O16)3
_symmetry_space_group_name_H-M   'P 1'
_cell_length_a   17.64964848
_cell_length_b   8.84109314
_cell_length_c   23.13384389
_cell_angle_alpha   89.85753179
_cell_angle_beta   89.67664635
_cell_angle_gamma   120.13109142
_symmetry_Int_Tables_number   1
_chemical_formula_structural   Na2Sc4Si3Sn4(S3O16)3
_chemical_formula_sum   'Na6 Sc12 Si9 Sn12 S27 O144'
_cell_volume   3121.98004423
_cell_formula_units_Z   3
loop_
 _symmetry_equiv_pos_site_id
 _symmetry_equiv_pos_as_xyz
  1  'x, y, z'
loop_
 _atom_site_type_symbol
 _atom_site_label
 _atom_site_symmetry_multiplicity
 _atom_site_fract_x
 _atom_site_fract_y
 _atom_site_fract_z
 _atom_site_occupancy
  Na  Na0  1  0.99462331  0.00864617  0.49949391  1
  Na  Na1  1  0.49563166  0.98179259  0.00596391  1
  Na  Na2  1  0.32714205  0.32019156  0.84100204  1
  Na  Na3  1  0.82800118  0.33046536  0.83199229  1
  Na  Na4  1  0.33113431  0.32890529  0.32984719  1
  Na  Na5  1  0.81756736  0.32161511  0.33538112  1
  Sc  Sc6  1  0.00678062  0.00382642  0.34935940  1
  Sc  Sc7  1  0.50771679  0.01054875  0.85078765  1
  Sc  Sc8  1  0.99869364  0.01027865  0.64360983  1
  Sc  Sc9  1  0.50415145  0.98318518  0.14752914  1
  Sc  Sc10  1  0.33059230  0.33323723  0.98143658  1
  Sc  Sc11  1  0.84034993  0.34675725  0.98418568  1
  Sc  Sc12  1  0.34072520  0.33074977  0.48159330  1
  Sc  Sc13  1  0.83015856  0.32688207  0.47850180  1
  Sc  Sc14  1  0.16510199  0.67465510  0.30584984  1
  Sc  Sc15  1  0.66720931  0.66273746  0.31015349  1
  Sc  Sc16  1  0.16901190  0.68319652  0.81497226  1
  Sc  Sc17  1  0.66365339  0.65341600  0.80673627  1
  Si  Si18  1  0.15046899  0.01314656  0.24892525  1
  Si  Si19  1  0.65041872  0.00130122  0.24852177  1
  Si  Si20  1  0.65076358  0.28854259  0.74886075  1
  Si  Si21  1  0.48141511  0.33584345  0.58361262  1
  Si  Si22  1  0.97773580  0.33643305  0.58125331  1
  Si  Si23  1  0.47652995  0.62353142  0.08059811  1
  Si  Si24  1  0.97834121  0.62393187  0.08532861  1
  Si  Si25  1  0.16996631  0.96599418  0.91528892  1
  Si  Si26  1  0.66836211  0.37658036  0.41426720  1
  Sn  Sn27  1  0.51363525  0.02028516  0.35260623  1
  Sn  Sn28  1  0.00392977  0.99722327  0.85459428  1
  Sn  Sn29  1  0.50461573  0.01864340  0.64473811  1
  Sn  Sn30  1  0.00383881  0.99025387  0.14580088  1
  Sn  Sn31  1  0.33591172  0.33550165  0.68143455  1
  Sn  Sn32  1  0.83375349  0.33520048  0.68171831  1
  Sn  Sn33  1  0.33590313  0.33494767  0.18349009  1
  Sn  Sn34  1  0.83205424  0.33144533  0.18484206  1
  Sn  Sn35  1  0.16054200  0.67493168  0.02126957  1
  Sn  Sn36  1  0.66250575  0.66736463  0.02193799  1
  Sn  Sn37  1  0.16338519  0.65965854  0.51949649  1
  Sn  Sn38  1  0.66001279  0.64862399  0.51722485  1
  S  S39  1  0.35715144  0.71083074  0.25283792  1
  S  S40  1  0.85638299  0.71109078  0.24955138  1
  S  S41  1  0.99840920  0.28524163  0.24892218  1
  S  S42  1  0.49688683  0.28577280  0.24923982  1
  S  S43  1  0.14905942  0.29258142  0.74824711  1
  S  S44  1  0.99869801  0.70854463  0.74954225  1
  S  S45  1  0.49533214  0.70730873  0.74885384  1
  S  S46  1  0.35444625  0.00207353  0.74929640  1
  S  S47  1  0.85820097  0.00416388  0.75255551  1
  S  S48  1  0.18781150  0.03991941  0.58192236  1
  S  S49  1  0.68627721  0.03291954  0.58240248  1
  S  S50  1  0.33393252  0.62810457  0.58369872  1
  S  S51  1  0.83288887  0.62798619  0.58205557  1
  S  S52  1  0.33384883  0.03962020  0.08240593  1
  S  S53  1  0.83493361  0.03966241  0.08324722  1
  S  S54  1  0.18603307  0.33837736  0.08258811  1
  S  S55  1  0.68718996  0.33619637  0.08062919  1
  S  S56  1  0.31143484  0.66930612  0.91690440  1
  S  S57  1  0.80913269  0.66743550  0.91595446  1
  S  S58  1  0.02022791  0.37179429  0.91448569  1
  S  S59  1  0.52271591  0.37622374  0.91647643  1
  S  S60  1  0.66757135  0.95754966  0.91580622  1
  S  S61  1  0.31032347  0.94990056  0.41575092  1
  S  S62  1  0.81253159  0.95423314  0.41751671  1
  S  S63  1  0.16706575  0.37542642  0.41643460  1
  S  S64  1  0.02296702  0.67006523  0.41641703  1
  S  S65  1  0.51940241  0.66931657  0.41523242  1
  O  O66  1  0.10621509  0.04651233  0.30604787  1
  O  O67  1  0.61179243  0.04775119  0.30653282  1
  O  O68  1  0.41139457  0.79221735  0.30551838  1
  O  O69  1  0.91165373  0.79504491  0.30035190  1
  O  O70  1  0.47618560  0.17340903  0.30296335  1
  O  O71  1  0.98296944  0.17361431  0.30031361  1
  O  O72  1  0.11151255  0.18114942  0.80157200  1
  O  O73  1  0.60604037  0.16539347  0.80592773  1
  O  O74  1  0.48036772  0.78787597  0.80012723  1
  O  O75  1  0.98041877  0.78465072  0.80295838  1
  O  O76  1  0.40976632  0.03223111  0.80019504  1
  O  O77  1  0.91438849  0.03501433  0.80543744  1
  O  O78  1  0.39339764  0.97650541  0.69581655  1
  O  O79  1  0.89921318  0.97884770  0.70124016  1
  O  O80  1  0.09639805  0.20619195  0.69749307  1
  O  O81  1  0.59134492  0.20562899  0.69199454  1
  O  O82  1  0.01018146  0.81606650  0.69883909  1
  O  O83  1  0.50643784  0.80800733  0.69493483  1
  O  O84  1  0.39479962  0.81488678  0.20040382  1
  O  O85  1  0.89447840  0.81778786  0.19588696  1
  O  O86  1  0.00954888  0.20577034  0.19512811  1
  O  O87  1  0.50555300  0.20157470  0.19786844  1
  O  O88  1  0.09179482  0.97718130  0.19167887  1
  O  O89  1  0.59205845  0.98042093  0.19239777  1
  O  O90  1  0.44056731  0.37347902  0.64303860  1
  O  O91  1  0.93779212  0.36874129  0.64230821  1
  O  O92  1  0.23914372  0.11490396  0.63646296  1
  O  O93  1  0.73777899  0.10741196  0.63690263  1
  O  O94  1  0.31079842  0.51494687  0.63764804  1
  O  O95  1  0.81468763  0.52108634  0.63661200  1
  O  O96  1  0.43640446  0.50637274  0.14040422  1
  O  O97  1  0.93353276  0.49919091  0.14229405  1
  O  O98  1  0.31432120  0.11082657  0.13566346  1
  O  O99  1  0.81345145  0.10860509  0.13551271  1
  O  O100  1  0.23824730  0.36684669  0.13594678  1
  O  O101  1  0.73903726  0.36477701  0.13386778  1
  O  O102  1  0.22415070  0.30030001  0.03236393  1
  O  O103  1  0.72803246  0.30462346  0.02972903  1
  O  O104  1  0.41744968  0.52628912  0.02513377  1
  O  O105  1  0.91855358  0.53098715  0.02862475  1
  O  O106  1  0.34380731  0.14599465  0.03104432  1
  O  O107  1  0.84751296  0.14699046  0.03162588  1
  O  O108  1  0.22809765  0.15470578  0.53187637  1
  O  O109  1  0.72522965  0.15042968  0.53327010  1
  O  O110  1  0.34688659  0.54415951  0.53362440  1
  O  O111  1  0.84637681  0.54408357  0.53216551  1
  O  O112  1  0.41761481  0.30643614  0.52946253  1
  O  O113  1  0.91678269  0.30474974  0.52671663  1
  O  O114  1  0.27041880  0.69002058  0.97085737  1
  O  O115  1  0.77046545  0.69374873  0.97016293  1
  O  O116  1  0.07291395  0.44276366  0.96740765  1
  O  O117  1  0.57821791  0.45261632  0.96916765  1
  O  O118  1  0.15073690  0.84228052  0.97213943  1
  O  O119  1  0.65520055  0.85231317  0.97002824  1
  O  O120  1  0.27151956  0.84640125  0.47143899  1
  O  O121  1  0.77224782  0.85337071  0.47285954  1
  O  O122  1  0.15403971  0.45402746  0.47129263  1
  O  O123  1  0.65183854  0.45523785  0.47454409  1
  O  O124  1  0.07784536  0.70520541  0.47020144  1
  O  O125  1  0.57193408  0.70367397  0.46909979  1
  O  O126  1  0.06659334  0.64722092  0.36611398  1
  O  O127  1  0.56102850  0.64156426  0.36509116  1
  O  O128  1  0.25342769  0.86374701  0.36669588  1
  O  O129  1  0.75893321  0.87069814  0.36690020  1
  O  O130  1  0.17780904  0.48311467  0.36592015  1
  O  O131  1  0.68176903  0.49714323  0.35875595  1
  O  O132  1  0.06240908  0.47951578  0.86296654  1
  O  O133  1  0.56575456  0.48528860  0.86532127  1
  O  O134  1  0.18119118  0.87050557  0.85832092  1
  O  O135  1  0.67774951  0.87190687  0.86482869  1
  O  O136  1  0.25750442  0.64546480  0.86535510  1
  O  O137  1  0.75531072  0.64499996  0.86544179  1
  O  O138  1  0.01287230  0.82628642  0.41149340  1
  O  O139  1  0.50498039  0.81970498  0.40858393  1
  O  O140  1  0.39695841  0.96602259  0.40884622  1
  O  O141  1  0.90054422  0.97137072  0.41285055  1
  O  O142  1  0.08611145  0.20090557  0.41363593  1
  O  O143  1  0.57602331  0.18664738  0.41313924  1
  O  O144  1  0.00784361  0.19279795  0.90668327  1
  O  O145  1  0.51252249  0.19942813  0.91105227  1
  O  O146  1  0.07937100  0.97555128  0.90883499  1
  O  O147  1  0.58618612  0.96913123  0.91288517  1
  O  O148  1  0.39905988  0.82854445  0.91056268  1
  O  O149  1  0.89703951  0.82811350  0.90945484  1
  O  O150  1  0.48183979  0.15200989  0.58783507  1
  O  O151  1  0.99051845  0.16564757  0.59068498  1
  O  O152  1  0.09919154  0.01353101  0.59013909  1
  O  O153  1  0.59599392  0.00310462  0.59083364  1
  O  O154  1  0.41437994  0.79645768  0.59449734  1
  O  O155  1  0.91402165  0.79984540  0.59011935  1
  O  O156  1  0.48622723  0.81572974  0.08515576  1
  O  O157  1  0.98227728  0.81141780  0.08868213  1
  O  O158  1  0.41371446  0.02985726  0.08935842  1
  O  O159  1  0.91517058  0.03025653  0.09250661  1
  O  O160  1  0.09573791  0.18838226  0.09055862  1
  O  O161  1  0.59786262  0.18794533  0.08676925  1
  O  O162  1  0.34357214  0.16134903  0.74409614  1
  O  O163  1  0.85046449  0.16374174  0.74750368  1
  O  O164  1  0.23908002  0.30798271  0.74204169  1
  O  O165  1  0.74919286  0.30855498  0.74234046  1
  O  O166  1  0.41327238  0.52812933  0.74505770  1
  O  O167  1  0.91841987  0.53137858  0.74586630  1
  O  O168  1  0.34886844  0.53403894  0.24753683  1
  O  O169  1  0.85062246  0.53706495  0.24439718  1
  O  O170  1  0.41712164  0.30692284  0.24616902  1
  O  O171  1  0.91940107  0.30464972  0.24480014  1
  O  O172  1  0.24858530  0.18953529  0.24249607  1
  O  O173  1  0.74830584  0.18453188  0.24328198  1
  O  O174  1  0.32057653  0.51272879  0.92119809  1
  O  O175  1  0.81877220  0.51106102  0.92177959  1
  O  O176  1  0.43658699  0.36108244  0.92272335  1
  O  O177  1  0.93201186  0.35213072  0.92093676  1
  O  O178  1  0.25520304  0.15782357  0.92021965  1
  O  O179  1  0.74539177  0.13303505  0.92217903  1
  O  O180  1  0.31768862  0.12418279  0.42264991  1
  O  O181  1  0.82210373  0.12969783  0.42247451  1
  O  O182  1  0.24513808  0.35699116  0.42363781  1
  O  O183  1  0.75372806  0.35253954  0.42184132  1
  O  O184  1  0.43129980  0.50988571  0.42282267  1
  O  O185  1  0.93710618  0.51244046  0.42345317  1
  O  O186  1  0.18132191  0.49936729  0.07307752  1
  O  O187  1  0.68506182  0.50156193  0.07265240  1
  O  O188  1  0.07217657  0.63082093  0.07996615  1
  O  O189  1  0.57432237  0.64170761  0.07649978  1
  O  O190  1  0.25692661  0.85954449  0.07668110  1
  O  O191  1  0.75910380  0.85982681  0.07473342  1
  O  O192  1  0.18338607  0.86941259  0.57433646  1
  O  O193  1  0.68112103  0.86289721  0.57340735  1
  O  O194  1  0.25845043  0.65612557  0.57568196  1
  O  O195  1  0.75787762  0.65679093  0.57605474  1
  O  O196  1  0.07665586  0.50969775  0.57630017  1
  O  O197  1  0.57501353  0.51500202  0.57844120  1
  O  O198  1  0.15954156  0.84235974  0.25995173  1
  O  O199  1  0.66175623  0.83632505  0.26077663  1
  O  O200  1  0.26925742  0.68553793  0.26163880  1
  O  O201  1  0.76961196  0.68970236  0.25535456  1
  O  O202  1  0.07693136  0.45650112  0.25643351  1
  O  O203  1  0.57413563  0.45730163  0.25732268  1
  O  O204  1  0.15970909  0.46461114  0.75716956  1
  O  O205  1  0.66035402  0.47779773  0.76014836  1
  O  O206  1  0.07536126  0.68942500  0.75841373  1
  O  O207  1  0.57213155  0.68769539  0.75621245  1
  O  O208  1  0.26791809  0.84608792  0.75562567  1
  O  O209  1  0.77202664  0.85144611  0.76176768  1
