# generated using pymatgen
data_Na6MgTi7(PO4)12
_symmetry_space_group_name_H-M   'P 1'
_cell_length_a   17.34350370
_cell_length_b   8.67430588
_cell_length_c   22.15960877
_cell_angle_alpha   90.02835511
_cell_angle_beta   89.98587326
_cell_angle_gamma   119.99587691
_symmetry_Int_Tables_number   1
_chemical_formula_structural   Na6MgTi7(PO4)12
_chemical_formula_sum   'Na18 Mg3 Ti21 P36 O144'
_cell_volume   2887.23596478
_cell_formula_units_Z   3
loop_
 _symmetry_equiv_pos_site_id
 _symmetry_equiv_pos_as_xyz
  1  'x, y, z'
loop_
 _atom_site_type_symbol
 _atom_site_label
 _atom_site_symmetry_multiplicity
 _atom_site_fract_x
 _atom_site_fract_y
 _atom_site_fract_z
 _atom_site_occupancy
  Na  Na0  1  0.68667070  0.36937499  0.24646610  1
  Na  Na1  1  0.99708420  0.62684622  0.24647074  1
  Na  Na2  1  0.99587944  0.36562846  0.74399441  1
  Na  Na3  1  0.49597905  0.36558433  0.74409882  1
  Na  Na4  1  0.18599270  0.00330343  0.74402842  1
  Na  Na5  1  0.68605004  0.00358626  0.74414706  1
  Na  Na6  1  0.00011400  0.99927091  0.49894786  1
  Na  Na7  1  0.50037044  0.00084974  0.49914127  1
  Na  Na8  1  0.99958804  0.99880682  0.00063791  1
  Na  Na9  1  0.50087475  0.00238596  0.00054754  1
  Na  Na10  1  0.33282943  0.34635370  0.83310450  1
  Na  Na11  1  0.83256303  0.34573870  0.83427521  1
  Na  Na12  1  0.33311004  0.33329194  0.33497933  1
  Na  Na13  1  0.83309833  0.31850058  0.33413071  1
  Na  Na14  1  0.17192194  0.66656743  0.16594246  1
  Na  Na15  1  0.66811117  0.68176991  0.16536704  1
  Na  Na16  1  0.17324682  0.66442953  0.66121153  1
  Na  Na17  1  0.67319550  0.66464127  0.66149983  1
  Mg  Mg18  1  0.33268377  0.34035267  0.68483453  1
  Mg  Mg19  1  0.83261673  0.34001547  0.68484756  1
  Mg  Mg20  1  0.83293052  0.32445896  0.18562174  1
  Ti  Ti21  1  0.00185180  0.00329877  0.35527222  1
  Ti  Ti22  1  0.49838385  0.99886394  0.35529566  1
  Ti  Ti23  1  0.00004099  0.99872881  0.85574826  1
  Ti  Ti24  1  0.50048258  0.99877784  0.85571824  1
  Ti  Ti25  1  0.99850338  0.99820266  0.64193702  1
  Ti  Ti26  1  0.49866269  0.99770206  0.64188325  1
  Ti  Ti27  1  0.99811132  0.00128684  0.14466526  1
  Ti  Ti28  1  0.50083789  0.99888410  0.14472846  1
  Ti  Ti29  1  0.33318269  0.33512111  0.18726713  1
  Ti  Ti30  1  0.33354417  0.33192962  0.97957361  1
  Ti  Ti31  1  0.83346138  0.33187950  0.98240588  1
  Ti  Ti32  1  0.33338511  0.33366528  0.48224314  1
  Ti  Ti33  1  0.83357267  0.33527367  0.48156947  1
  Ti  Ti34  1  0.16588890  0.66688797  0.02150417  1
  Ti  Ti35  1  0.66672341  0.66508986  0.02107636  1
  Ti  Ti36  1  0.16611502  0.66726155  0.51975337  1
  Ti  Ti37  1  0.66652812  0.66671254  0.51976583  1
  Ti  Ti38  1  0.17066203  0.66612053  0.31352168  1
  Ti  Ti39  1  0.66543590  0.67283060  0.31458810  1
  Ti  Ti40  1  0.16912825  0.66529509  0.81516747  1
  Ti  Ti41  1  0.66920565  0.66601106  0.81528120  1
  P  P42  1  0.14429340  0.00238952  0.24968225  1
  P  P43  1  0.64180065  0.99570716  0.25081822  1
  P  P44  1  0.35764031  0.71476041  0.24960506  1
  P  P45  1  0.85555762  0.71742764  0.25073082  1
  P  P46  1  0.00119725  0.28699572  0.25100449  1
  P  P47  1  0.49820040  0.28515501  0.25011237  1
  P  P48  1  0.14312410  0.28789215  0.75061930  1
  P  P49  1  0.64315033  0.28817258  0.75055302  1
  P  P50  1  0.99915171  0.71333475  0.75098303  1
  P  P51  1  0.49911647  0.71320272  0.75092874  1
  P  P52  1  0.35617361  0.99362639  0.75051602  1
  P  P53  1  0.85602684  0.99360721  0.75046227  1
  P  P54  1  0.47924866  0.33523234  0.58504558  1
  P  P55  1  0.97907924  0.33548320  0.58490551  1
  P  P56  1  0.18857214  0.04209703  0.58530546  1
  P  P57  1  0.68884989  0.04217006  0.58504553  1
  P  P58  1  0.33184331  0.62176236  0.58362745  1
  P  P59  1  0.83201444  0.62173647  0.58373154  1
  P  P60  1  0.47654918  0.61961138  0.08311741  1
  P  P61  1  0.97867943  0.62443220  0.08494995  1
  P  P62  1  0.33343632  0.04702044  0.08365166  1
  P  P63  1  0.83251358  0.04179096  0.08341967  1
  P  P64  1  0.19008415  0.33392263  0.08317116  1
  P  P65  1  0.68814084  0.33331584  0.08502802  1
  P  P66  1  0.31118689  0.66674007  0.91851941  1
  P  P67  1  0.81121908  0.66523444  0.91801331  1
  P  P68  1  0.02213297  0.37868389  0.91699272  1
  P  P69  1  0.52213530  0.37837065  0.91650016  1
  P  P70  1  0.16739566  0.95539853  0.91670029  1
  P  P71  1  0.66743304  0.95581038  0.91717545  1
  P  P72  1  0.31023077  0.95575835  0.41691725  1
  P  P73  1  0.81109791  0.95629390  0.41712800  1
  P  P74  1  0.16771270  0.37885152  0.41745794  1
  P  P75  1  0.66716735  0.37892983  0.41544252  1
  P  P76  1  0.02246914  0.66511375  0.41528940  1
  P  P77  1  0.52133092  0.66545421  0.41737033  1
  O  O78  1  0.10095564  0.02762262  0.30683191  1
  O  O79  1  0.59355359  0.02015937  0.30595064  1
  O  O80  1  0.41351350  0.80082578  0.30659537  1
  O  O81  1  0.91600254  0.81107273  0.30581035  1
  O  O82  1  0.48488376  0.17040449  0.30660973  1
  O  O83  1  0.99276632  0.17374078  0.30709573  1
  O  O84  1  0.09578223  0.17100757  0.80690468  1
  O  O85  1  0.59575833  0.17106376  0.80687819  1
  O  O86  1  0.49075169  0.80831541  0.80768942  1
  O  O87  1  0.99084442  0.80864590  0.80771597  1
  O  O88  1  0.41481764  0.01898010  0.80645895  1
  O  O89  1  0.91479651  0.01908402  0.80637379  1
  O  O90  1  0.39995915  0.96921249  0.69352043  1
  O  O91  1  0.89996885  0.96918069  0.69353491  1
  O  O92  1  0.08322455  0.20272369  0.69457637  1
  O  O93  1  0.58317483  0.20255387  0.69455211  1
  O  O94  1  0.01646372  0.83366394  0.69517008  1
  O  O95  1  0.51618724  0.83334680  0.69511268  1
  O  O96  1  0.40115264  0.83031658  0.19323956  1
  O  O97  1  0.90040998  0.83015266  0.19350548  1
  O  O98  1  0.01304577  0.19703192  0.19391186  1
  O  O99  1  0.51548461  0.19804544  0.19449611  1
  O  O100  1  0.08358472  0.96804151  0.19423594  1
  O  O101  1  0.58493580  0.97142274  0.19344087  1
  O  O102  1  0.44438737  0.36616455  0.64370323  1
  O  O103  1  0.94434345  0.36608221  0.64370432  1
  O  O104  1  0.23934492  0.11048467  0.64384408  1
  O  O105  1  0.73925880  0.11009925  0.64377695  1
  O  O106  1  0.31431494  0.51469407  0.63996278  1
  O  O107  1  0.81431752  0.51467525  0.64007256  1
  O  O108  1  0.43194598  0.50401414  0.13949858  1
  O  O109  1  0.94449292  0.52247464  0.14353349  1
  O  O110  1  0.31988395  0.13697701  0.13966348  1
  O  O111  1  0.81425547  0.11416771  0.13982124  1
  O  O112  1  0.24820008  0.36146444  0.13959007  1
  O  O113  1  0.73909408  0.36724047  0.14364178  1
  O  O114  1  0.23487536  0.30679392  0.02690128  1
  O  O115  1  0.73595012  0.30651709  0.02978288  1
  O  O116  1  0.41874103  0.53027159  0.02666133  1
  O  O117  1  0.91796435  0.52765842  0.02964872  1
  O  O118  1  0.34691191  0.16258940  0.02694462  1
  O  O119  1  0.84670282  0.16052486  0.02682346  1
  O  O120  1  0.23622015  0.16492754  0.53015055  1
  O  O121  1  0.73639287  0.16542020  0.53001451  1
  O  O122  1  0.34667461  0.53204175  0.52703689  1
  O  O123  1  0.84678264  0.53266129  0.52697137  1
  O  O124  1  0.41811573  0.30887610  0.52986835  1
  O  O125  1  0.91806615  0.30912548  0.52974073  1
  O  O126  1  0.26628484  0.69360412  0.97382412  1
  O  O127  1  0.76594414  0.69222360  0.97298680  1
  O  O128  1  0.08226615  0.47129773  0.97190581  1
  O  O129  1  0.58102812  0.47069306  0.97126584  1
  O  O130  1  0.15509344  0.83771906  0.97163543  1
  O  O131  1  0.65337773  0.83628573  0.97184218  1
  O  O132  1  0.26610589  0.83904832  0.47224995  1
  O  O133  1  0.76632673  0.83942488  0.47232797  1
  O  O134  1  0.15371717  0.46786582  0.47268007  1
  O  O135  1  0.65332323  0.47043408  0.47032438  1
  O  O136  1  0.08168830  0.69253726  0.47041189  1
  O  O137  1  0.58009097  0.69400354  0.47256632  1
  O  O138  1  0.06531245  0.63937037  0.35709673  1
  O  O139  1  0.56717271  0.63955795  0.36064102  1
  O  O140  1  0.25243423  0.86432447  0.35992525  1
  O  O141  1  0.75182662  0.86437244  0.36040813  1
  O  O142  1  0.18042954  0.49547864  0.36052321  1
  O  O143  1  0.67984669  0.48968586  0.35710285  1
  O  O144  1  0.06585827  0.49130800  0.85884421  1
  O  O145  1  0.56495235  0.49052036  0.85831184  1
  O  O146  1  0.18026359  0.86954726  0.85843677  1
  O  O147  1  0.67973704  0.86852244  0.85875072  1
  O  O148  1  0.25233142  0.64063292  0.86158602  1
  O  O149  1  0.75233882  0.64030337  0.86104373  1
  O  O150  1  0.01358051  0.83352792  0.40948838  1
  O  O151  1  0.51260947  0.83329489  0.40996970  1
  O  O152  1  0.40302525  0.97295345  0.40978237  1
  O  O153  1  0.90374289  0.97397837  0.40957151  1
  O  O154  1  0.08377404  0.19320301  0.41064366  1
  O  O155  1  0.58282649  0.19244109  0.40926086  1
  O  O156  1  0.01356519  0.19342198  0.91069492  1
  O  O157  1  0.51289046  0.19263059  0.91053458  1
  O  O158  1  0.08361113  0.97354303  0.91116243  1
  O  O159  1  0.58344397  0.97407084  0.91093961  1
  O  O160  1  0.40346927  0.83378963  0.91106334  1
  O  O161  1  0.90344133  0.83338943  0.91049701  1
  O  O162  1  0.48761824  0.16406994  0.58785365  1
  O  O163  1  0.98771100  0.16444298  0.58794345  1
  O  O164  1  0.09469829  0.02547961  0.58890807  1
  O  O165  1  0.59481219  0.02528722  0.58892496  1
  O  O166  1  0.41789893  0.80964798  0.58820893  1
  O  O167  1  0.91788947  0.80981048  0.58828762  1
  O  O168  1  0.48474480  0.80477732  0.08943018  1
  O  O169  1  0.98863614  0.81241337  0.08769662  1
  O  O170  1  0.41713580  0.02920587  0.09023449  1
  O  O171  1  0.91792772  0.02524223  0.08749457  1
  O  O172  1  0.09750607  0.16724476  0.09001808  1
  O  O173  1  0.59420314  0.16263865  0.08815548  1
  O  O174  1  0.34543945  0.15846801  0.74804395  1
  O  O175  1  0.84544517  0.15850900  0.74795341  1
  O  O176  1  0.23378253  0.30293168  0.74770856  1
  O  O177  1  0.73375574  0.30298999  0.74768233  1
  O  O178  1  0.41934352  0.52705238  0.74830639  1
  O  O179  1  0.91939727  0.52720263  0.74833080  1
  O  O180  1  0.34768731  0.52825097  0.24276774  1
  O  O181  1  0.84584129  0.53188903  0.24775023  1
  O  O182  1  0.41574853  0.30599884  0.24315242  1
  O  O183  1  0.92036688  0.31171075  0.24868449  1
  O  O184  1  0.23694443  0.16878657  0.24277008  1
  O  O185  1  0.73277485  0.16299288  0.24809169  1
  O  O186  1  0.31902725  0.49820660  0.92303502  1
  O  O187  1  0.81936688  0.49783269  0.92285018  1
  O  O188  1  0.42954890  0.36121531  0.92272842  1
  O  O189  1  0.93018765  0.36248083  0.92304384  1
  O  O190  1  0.25103270  0.14077441  0.92270992  1
  O  O191  1  0.75079831  0.14067382  0.92302894  1
  O  O192  1  0.31930685  0.14058515  0.42288826  1
  O  O193  1  0.81935888  0.14051484  0.42296653  1
  O  O194  1  0.25105495  0.36047953  0.42293336  1
  O  O195  1  0.75028590  0.35951071  0.42269907  1
  O  O196  1  0.42940135  0.49723422  0.42295372  1
  O  O197  1  0.92991963  0.49811601  0.42280270  1
  O  O198  1  0.18110841  0.50170288  0.07676158  1
  O  O199  1  0.67493866  0.49515656  0.07288252  1
  O  O200  1  0.07269152  0.64715061  0.07280371  1
  O  O201  1  0.56967828  0.64019663  0.07702063  1
  O  O202  1  0.24989844  0.86155807  0.07690838  1
  O  O203  1  0.75138985  0.85252042  0.07230765  1
  O  O204  1  0.17518526  0.85412981  0.57340049  1
  O  O205  1  0.67539900  0.85396939  0.57328728  1
  O  O206  1  0.25202680  0.65161037  0.57240793  1
  O  O207  1  0.75193316  0.65098010  0.57249048  1
  O  O208  1  0.07315993  0.49751019  0.57363969  1
  O  O209  1  0.57330419  0.49687947  0.57353916  1
  O  O210  1  0.15133479  0.83092853  0.25565748  1
  O  O211  1  0.64809257  0.82466145  0.25673232  1
  O  O212  1  0.26423250  0.69601743  0.25595640  1
  O  O213  1  0.76162650  0.69678244  0.25608685  1
  O  O214  1  0.08670311  0.47501645  0.25585457  1
  O  O215  1  0.58411616  0.46960137  0.25627926  1
  O  O216  1  0.14860919  0.47229710  0.75744938  1
  O  O217  1  0.64846492  0.47230543  0.75739501  1
  O  O218  1  0.08614718  0.69931297  0.75677791  1
  O  O219  1  0.58608922  0.69936462  0.75657547  1
  O  O220  1  0.26189367  0.82577361  0.75662663  1
  O  O221  1  0.76176900  0.82587409  0.75647142  1
