# generated using pymatgen
data_YMgMo(WO4)2
_symmetry_space_group_name_H-M   'P 1'
_cell_length_a   5.31320958
_cell_length_b   6.30622556
_cell_length_c   6.92186662
_cell_angle_alpha   113.73520350
_cell_angle_beta   117.81187688
_cell_angle_gamma   91.65687643
_symmetry_Int_Tables_number   1
_chemical_formula_structural   YMgMo(WO4)2
_chemical_formula_sum   'Y1 Mg1 Mo1 W2 O8'
_cell_volume   180.93238656
_cell_formula_units_Z   1
loop_
 _symmetry_equiv_pos_site_id
 _symmetry_equiv_pos_as_xyz
  1  'x, y, z'
loop_
 _atom_site_type_symbol
 _atom_site_label
 _atom_site_symmetry_multiplicity
 _atom_site_fract_x
 _atom_site_fract_y
 _atom_site_fract_z
 _atom_site_occupancy
  Y  Y0  1  0.56449000  0.63940400  0.07565100  1
  Mg  Mg1  1  0.88600900  0.84026200  0.63061600  1
  Mo  Mo2  1  0.14325300  0.26605700  0.12819400  1
  W  W3  1  0.87539600  0.35678400  0.58186500  1
  W  W4  1  0.37823200  0.07279900  0.59577800  1
  O  O5  1  0.14772000  0.68560400  0.81849600  1
  O  O6  1  0.59631600  0.50438200  0.35191500  1
  O  O7  1  0.20184200  0.23027300  0.81949500  1
  O  O8  1  0.59052000  0.99721200  0.40208800  1
  O  O9  1  0.70481200  0.00554100  0.83384300  1
  O  O10  1  0.05757500  0.79371800  0.39274000  1
  O  O11  1  0.08362500  0.22859400  0.39833200  1
  O  O12  1  0.65370800  0.41203400  0.77819200  1
