# generated using pymatgen
data_Na3NbZn5(SO4)9
_symmetry_space_group_name_H-M   'P 1'
_cell_length_a   8.71070054
_cell_length_b   8.71070027
_cell_length_c   22.68130913
_cell_angle_alpha   90.00000000
_cell_angle_beta   90.00000000
_cell_angle_gamma   120.00000103
_symmetry_Int_Tables_number   1
_chemical_formula_structural   Na3NbZn5(SO4)9
_chemical_formula_sum   'Na6 Nb2 Zn10 S18 O72'
_cell_volume   1490.40705869
_cell_formula_units_Z   2
loop_
 _symmetry_equiv_pos_site_id
 _symmetry_equiv_pos_as_xyz
  1  'x, y, z'
loop_
 _atom_site_type_symbol
 _atom_site_label
 _atom_site_symmetry_multiplicity
 _atom_site_fract_x
 _atom_site_fract_y
 _atom_site_fract_z
 _atom_site_occupancy
  Na  Na0  1  0.00000000  -0.00000000  0.50320177  1
  Na  Na1  1  0.00000000  -0.00000000  0.00320177  1
  Na  Na2  1  0.66666700  0.33333300  0.83335808  1
  Na  Na3  1  0.66666700  0.33333300  0.33335808  1
  Na  Na4  1  0.33333300  0.66666700  0.15995737  1
  Na  Na5  1  0.33333300  0.66666700  0.65995737  1
  Nb  Nb6  1  0.33333300  0.66666700  0.31376735  1
  Nb  Nb7  1  0.33333300  0.66666700  0.81376735  1
  Zn  Zn8  1  0.00000000  -0.00000000  0.35023510  1
  Zn  Zn9  1  0.00000000  -0.00000000  0.85023510  1
  Zn  Zn10  1  0.00000000  -0.00000000  0.64540735  1
  Zn  Zn11  1  0.00000000  -0.00000000  0.14540735  1
  Zn  Zn12  1  0.66666700  0.33333300  0.67844524  1
  Zn  Zn13  1  0.66666700  0.33333300  0.17844524  1
  Zn  Zn14  1  0.66666700  0.33333300  0.98762909  1
  Zn  Zn15  1  0.66666700  0.33333300  0.48762909  1
  Zn  Zn16  1  0.33333300  0.66666700  0.02170135  1
  Zn  Zn17  1  0.33333300  0.66666700  0.52170135  1
  S  S18  1  0.29229660  0.00628356  0.25033302  1
  S  S19  1  0.71398696  0.70770340  0.25033302  1
  S  S20  1  0.99371644  0.28601304  0.25033302  1
  S  S21  1  0.29229660  0.28601304  0.75033302  1
  S  S22  1  0.99371644  0.70770340  0.75033302  1
  S  S23  1  0.71398696  0.00628356  0.75033302  1
  S  S24  1  0.95946734  0.33295071  0.58330233  1
  S  S25  1  0.37348436  0.04053266  0.58330233  1
  S  S26  1  0.66704929  0.62651564  0.58330233  1
  S  S27  1  0.95946734  0.62651564  0.08330233  1
  S  S28  1  0.66704929  0.04053266  0.08330233  1
  S  S29  1  0.37348436  0.33295071  0.08330233  1
  S  S30  1  0.62792350  0.66753073  0.91836592  1
  S  S31  1  0.03960623  0.37207650  0.91836592  1
  S  S32  1  0.33246927  0.96039377  0.91836592  1
  S  S33  1  0.62792350  0.96039377  0.41836592  1
  S  S34  1  0.33246927  0.37207650  0.41836592  1
  S  S35  1  0.03960623  0.66753073  0.41836592  1
  O  O36  1  0.21379726  0.02832448  0.30439804  1
  O  O37  1  0.81452722  0.78620274  0.30439804  1
  O  O38  1  0.97167552  0.18547278  0.30439804  1
  O  O39  1  0.21379726  0.18547278  0.80439804  1
  O  O40  1  0.97167552  0.78620274  0.80439804  1
  O  O41  1  0.81452722  0.02832448  0.80439804  1
  O  O42  1  0.78160427  0.96403838  0.69762657  1
  O  O43  1  0.18243411  0.21839574  0.69762657  1
  O  O44  1  0.03596162  0.81756589  0.69762657  1
  O  O45  1  0.78160427  0.81756589  0.19762657  1
  O  O46  1  0.03596162  0.21839574  0.19762657  1
  O  O47  1  0.18243411  0.96403838  0.19762657  1
  O  O48  1  0.88217344  0.36286164  0.63721242  1
  O  O49  1  0.48068919  0.11782655  0.63721242  1
  O  O50  1  0.63713836  0.51931081  0.63721242  1
  O  O51  1  0.88217345  0.51931081  0.13721242  1
  O  O52  1  0.63713836  0.11782655  0.13721242  1
  O  O53  1  0.48068919  0.36286164  0.13721242  1
  O  O54  1  0.45113966  0.30346601  0.02939135  1
  O  O55  1  0.85232735  0.54886034  0.02939135  1
  O  O56  1  0.69653399  0.14767265  0.02939135  1
  O  O57  1  0.45113966  0.14767265  0.52939135  1
  O  O58  1  0.69653399  0.54886034  0.52939135  1
  O  O59  1  0.85232735  0.30346601  0.52939135  1
  O  O60  1  0.54335383  0.69549090  0.96938912  1
  O  O61  1  0.15213607  0.45664617  0.96938912  1
  O  O62  1  0.30450910  0.84786393  0.96938912  1
  O  O63  1  0.54335383  0.84786393  0.46938912  1
  O  O64  1  0.30450910  0.45664617  0.46938912  1
  O  O65  1  0.15213607  0.69549090  0.46938912  1
  O  O66  1  0.13386490  0.64342756  0.36288043  1
  O  O67  1  0.50956166  0.86613510  0.36288043  1
  O  O68  1  0.35657244  0.49043834  0.36288043  1
  O  O69  1  0.13386490  0.49043834  0.86288043  1
  O  O70  1  0.35657244  0.86613510  0.86288043  1
  O  O71  1  0.50956166  0.64342756  0.86288043  1
  O  O72  1  0.02527486  0.82645119  0.40867237  1
  O  O73  1  0.80117634  0.97472514  0.40867237  1
  O  O74  1  0.17354881  0.19882366  0.40867237  1
  O  O75  1  0.02527486  0.19882366  0.90867237  1
  O  O76  1  0.17354881  0.97472514  0.90867237  1
  O  O77  1  0.80117634  0.82645119  0.90867237  1
  O  O78  1  0.97707119  0.17231276  0.58916520  1
  O  O79  1  0.19524157  0.02292881  0.58916520  1
  O  O80  1  0.82768724  0.80475843  0.58916520  1
  O  O81  1  0.97707119  0.80475843  0.08916520  1
  O  O82  1  0.82768724  0.02292881  0.08916520  1
  O  O83  1  0.19524157  0.17231276  0.08916520  1
  O  O84  1  0.68331047  0.15647657  0.74446098  1
  O  O85  1  0.47316711  0.31668953  0.74446098  1
  O  O86  1  0.84352343  0.52683289  0.74446098  1
  O  O87  1  0.68331047  0.52683289  0.24446098  1
  O  O88  1  0.84352343  0.31668953  0.24446098  1
  O  O89  1  0.47316711  0.15647657  0.24446098  1
  O  O90  1  0.63755082  0.50426354  0.91972300  1
  O  O91  1  0.86671372  0.36244918  0.91972300  1
  O  O92  1  0.49573646  0.13328628  0.91972300  1
  O  O93  1  0.63755082  0.13328628  0.41972300  1
  O  O94  1  0.49573646  0.36244918  0.41972300  1
  O  O95  1  0.86671372  0.50426354  0.41972300  1
  O  O96  1  0.35581371  0.49369230  0.07761721  1
  O  O97  1  0.13787759  0.64418629  0.07761721  1
  O  O98  1  0.50630770  0.86212241  0.07761721  1
  O  O99  1  0.35581371  0.86212241  0.57761721  1
  O  O100  1  0.50630770  0.64418629  0.57761721  1
  O  O101  1  0.13787759  0.49369230  0.57761721  1
  O  O102  1  0.31111002  0.83729844  0.25956115  1
  O  O103  1  0.52618741  0.68888998  0.25956115  1
  O  O104  1  0.16270156  0.47381259  0.25956115  1
  O  O105  1  0.31111002  0.47381259  0.75956115  1
  O  O106  1  0.16270156  0.68888998  0.75956115  1
  O  O107  1  0.52618741  0.83729844  0.75956115  1
