# generated using pymatgen
data_MgBi4(MoO6)2
_symmetry_space_group_name_H-M   'P 1'
_cell_length_a   5.57577159
_cell_length_b   5.70843344
_cell_length_c   9.14695219
_cell_angle_alpha   108.18222821
_cell_angle_beta   89.83980525
_cell_angle_gamma   89.99999601
_symmetry_Int_Tables_number   1
_chemical_formula_structural   MgBi4(MoO6)2
_chemical_formula_sum   'Mg1 Bi4 Mo2 O12'
_cell_volume   276.59959524
_cell_formula_units_Z   1
loop_
 _symmetry_equiv_pos_site_id
 _symmetry_equiv_pos_as_xyz
  1  'x, y, z'
loop_
 _atom_site_type_symbol
 _atom_site_label
 _atom_site_symmetry_multiplicity
 _atom_site_fract_x
 _atom_site_fract_y
 _atom_site_fract_z
 _atom_site_occupancy
  Mg  Mg0  1  0.00000000  0.50000000  0.00000000  1
  Bi  Bi1  1  0.53944200  0.17220500  0.34441000  1
  Bi  Bi2  1  0.46055800  0.82779500  0.65559000  1
  Bi  Bi3  1  0.02041000  0.31805000  0.63610100  1
  Bi  Bi4  1  0.97959000  0.68195000  0.36389900  1
  Mo  Mo5  1  0.00000000  0.00000000  0.00000000  1
  Mo  Mo6  1  0.50000000  0.50000000  0.00000000  1
  O  O7  1  0.12155800  0.89769700  0.79539300  1
  O  O8  1  0.63940700  0.59926300  0.19852700  1
  O  O9  1  0.25066600  0.50599600  0.50632200  1
  O  O10  1  0.23539000  0.29568200  0.06761300  1
  O  O11  1  0.74933400  0.49400400  0.49367800  1
  O  O12  1  0.76461000  0.22807000  0.93238700  1
  O  O13  1  0.36059300  0.40073700  0.80147300  1
  O  O14  1  0.76461000  0.70431800  0.93238700  1
  O  O15  1  0.23539000  0.77193000  0.06761300  1
  O  O16  1  0.87844200  0.10230300  0.20460700  1
  O  O17  1  0.74933400  0.99967400  0.49367800  1
  O  O18  1  0.25066600  0.00032600  0.50632200  1
