# generated using pymatgen
data_Na7Hf2Ga2Si3(PO8)3
_symmetry_space_group_name_H-M   'P 1'
_cell_length_a   9.02350592
_cell_length_b   8.99416114
_cell_length_c   22.31042329
_cell_angle_alpha   89.74681003
_cell_angle_beta   90.31179897
_cell_angle_gamma   120.02403592
_symmetry_Int_Tables_number   1
_chemical_formula_structural   Na7Hf2Ga2Si3(PO8)3
_chemical_formula_sum   'Na21 Hf6 Ga6 Si9 P9 O72'
_cell_volume   1567.69622061
_cell_formula_units_Z   3
loop_
 _symmetry_equiv_pos_site_id
 _symmetry_equiv_pos_as_xyz
  1  'x, y, z'
loop_
 _atom_site_type_symbol
 _atom_site_label
 _atom_site_symmetry_multiplicity
 _atom_site_fract_x
 _atom_site_fract_y
 _atom_site_fract_z
 _atom_site_occupancy
  Na  Na0  1  0.63317847  0.00293725  0.25204638  1
  Na  Na1  1  0.36679812  0.36964746  0.24781228  1
  Na  Na2  1  0.99962855  0.62813602  0.24970209  1
  Na  Na3  1  0.63126944  0.63287598  0.75014227  1
  Na  Na4  1  0.99489335  0.36525000  0.75023180  1
  Na  Na5  1  0.37215874  0.00145566  0.74865933  1
  Na  Na6  1  0.03266110  0.69609502  0.58361013  1
  Na  Na7  1  0.66382159  0.97158048  0.58328690  1
  Na  Na8  1  0.66575332  0.69125623  0.08220748  1
  Na  Na9  1  0.03177697  0.33603159  0.08553370  1
  Na  Na10  1  0.96140446  0.66434765  0.91824234  1
  Na  Na11  1  0.70252193  0.03395048  0.91614857  1
  Na  Na12  1  0.33874072  0.30171028  0.91723933  1
  Na  Na13  1  0.96688552  0.30391716  0.41534546  1
  Na  Na14  1  0.33512480  0.02706419  0.41795496  1
  Na  Na15  1  0.00027153  0.99907941  0.50027990  1
  Na  Na16  1  0.00896592  0.99598905  0.99838107  1
  Na  Na17  1  0.66664600  0.33330607  0.83342468  1
  Na  Na18  1  0.67238064  0.34086948  0.33196131  1
  Na  Na19  1  0.32717965  0.66846535  0.16816482  1
  Na  Na20  1  0.33287332  0.66112577  0.66784284  1
  Hf  Hf21  1  0.99111399  0.99590804  0.35305406  1
  Hf  Hf22  1  0.00204813  0.00529357  0.64810610  1
  Hf  Hf23  1  0.00807552  0.00407900  0.14544824  1
  Hf  Hf24  1  0.66595784  0.33253545  0.47973587  1
  Hf  Hf25  1  0.33568450  0.67002177  0.02015822  1
  Hf  Hf26  1  0.33384021  0.66583647  0.52034118  1
  Ga  Ga27  1  0.99131526  0.99740311  0.84973520  1
  Ga  Ga28  1  0.66910781  0.32327920  0.68271321  1
  Ga  Ga29  1  0.67387306  0.33690312  0.18140175  1
  Ga  Ga30  1  0.66176280  0.34288357  0.98437084  1
  Ga  Ga31  1  0.32567453  0.66323339  0.31767365  1
  Ga  Ga32  1  0.34255731  0.67018764  0.81717899  1
  Si  Si33  1  0.99985934  0.30304513  0.24927708  1
  Si  Si34  1  0.70196879  -0.00007608  0.75201316  1
  Si  Si35  1  0.95860935  0.33478231  0.58576550  1
  Si  Si36  1  0.37411210  0.04359088  0.58495658  1
  Si  Si37  1  0.95459076  0.62092598  0.08293167  1
  Si  Si38  1  0.38234261  0.33018550  0.08311611  1
  Si  Si39  1  0.63138949  0.66663289  0.91473933  1
  Si  Si40  1  0.62129001  0.95294540  0.41442773  1
  Si  Si41  1  0.04157840  0.66657651  0.41455562  1
  P  P42  1  0.29850831  0.00101430  0.25089892  1
  P  P43  1  0.70115105  0.70202962  0.24863266  1
  P  P44  1  0.29256024  0.29374620  0.75401276  1
  P  P45  1  0.00005227  0.70515407  0.75277195  1
  P  P46  1  0.66491437  0.61667306  0.58768231  1
  P  P47  1  0.66471247  0.05055171  0.08311852  1
  P  P48  1  0.04191871  0.37395534  0.91411520  1
  P  P49  1  0.33335208  0.96076117  0.91363098  1
  P  P50  1  0.33569112  0.38027970  0.41329731  1
  O  O51  1  0.21397809  0.03020656  0.30687198  1
  O  O52  1  0.82310601  0.79218189  0.30288704  1
  O  O53  1  0.96716742  0.17800088  0.30796011  1
  O  O54  1  0.21103833  0.17629154  0.80966475  1
  O  O55  1  0.97131090  0.79179311  0.80816891  1
  O  O56  1  0.82972929  0.04085462  0.81013703  1
  O  O57  1  0.78813348  0.96169659  0.69328478  1
  O  O58  1  0.17539966  0.20507591  0.69844369  1
  O  O59  1  0.03353767  0.81981115  0.69610539  1
  O  O60  1  0.78656629  0.81676249  0.19257009  1
  O  O61  1  0.03237934  0.20971759  0.19124382  1
  O  O62  1  0.17587912  0.96930227  0.19669140  1
  O  O63  1  0.87690228  0.37454844  0.64469222  1
  O  O64  1  0.49336898  0.12767658  0.64439906  1
  O  O65  1  0.64073680  0.51192082  0.64522684  1
  O  O66  1  0.87753941  0.50364901  0.14339087  1
  O  O67  1  0.63728131  0.12479188  0.14110347  1
  O  O68  1  0.49997845  0.36747778  0.14345499  1
  O  O69  1  0.45850892  0.29869827  0.02154571  1
  O  O70  1  0.83937374  0.53957133  0.02229668  1
  O  O71  1  0.69868629  0.16073418  0.02606980  1
  O  O72  1  0.45641421  0.15431452  0.52378716  1
  O  O73  1  0.69592819  0.53642699  0.53170437  1
  O  O74  1  0.84005055  0.30164368  0.52551781  1
  O  O75  1  0.54495557  0.70426274  0.97366521  1
  O  O76  1  0.15551430  0.45989969  0.97089336  1
  O  O77  1  0.29876487  0.84107228  0.96857484  1
  O  O78  1  0.54043145  0.84362452  0.47597047  1
  O  O79  1  0.30250987  0.46020904  0.46869742  1
  O  O80  1  0.15970246  0.69720211  0.47487317  1
  O  O81  1  0.12307415  0.62761323  0.35554043  1
  O  O82  1  0.50158199  0.86636830  0.35520182  1
  O  O83  1  0.36208439  0.48447569  0.35553904  1
  O  O84  1  0.12478888  0.49242254  0.85862605  1
  O  O85  1  0.36319732  0.87809258  0.85723294  1
  O  O86  1  0.50394456  0.62674486  0.85664932  1
  O  O87  1  0.03520841  0.84534719  0.41072115  1
  O  O88  1  0.81883465  0.98737467  0.41178520  1
  O  O89  1  0.17339582  0.19734913  0.40932657  1
  O  O90  1  0.03223697  0.19551077  0.91048817  1
  O  O91  1  0.17204225  0.98144733  0.90885438  1
  O  O92  1  0.82356564  0.84066083  0.90987256  1
  O  O93  1  0.96655342  0.15640103  0.58956404  1
  O  O94  1  0.17672142  0.00648748  0.58923781  1
  O  O95  1  0.82858657  0.79888035  0.59113548  1
  O  O96  1  0.96507121  0.80841022  0.08883438  1
  O  O97  1  0.82565529  0.02663891  0.08886421  1
  O  O98  1  0.18314103  0.16895756  0.08741018  1
  O  O99  1  0.68576216  0.17516639  0.74622089  1
  O  O100  1  0.47360534  0.31634167  0.74685432  1
  O  O101  1  0.83429700  0.52707437  0.74697167  1
  O  O102  1  0.68512802  0.52308861  0.24559559  1
  O  O103  1  0.82270802  0.31376773  0.24434433  1
  O  O104  1  0.47552145  0.16479593  0.24428002  1
  O  O105  1  0.64836225  0.49196055  0.92006110  1
  O  O106  1  0.85969858  0.34968827  0.92044579  1
  O  O107  1  0.49924982  0.13838848  0.92060893  1
  O  O108  1  0.63880891  0.14554230  0.41857088  1
  O  O109  1  0.49112500  0.35311465  0.41985214  1
  O  O110  1  0.85227713  0.49663448  0.42054756  1
  O  O111  1  0.36162671  0.50494161  0.07799917  1
  O  O112  1  0.14520630  0.63964259  0.07702536  1
  O  O113  1  0.50830518  0.86417441  0.07751539  1
  O  O114  1  0.36034502  0.85301276  0.58070676  1
  O  O115  1  0.51021489  0.64548952  0.58101265  1
  O  O116  1  0.14779358  0.50367453  0.57994474  1
  O  O117  1  0.31444722  0.83795245  0.25411584  1
  O  O118  1  0.52495640  0.68986448  0.25481157  1
  O  O119  1  0.17658956  0.49147974  0.25449409  1
  O  O120  1  0.30205839  0.47157761  0.75701983  1
  O  O121  1  0.16145550  0.68446343  0.75792509  1
  O  O122  1  0.50998677  0.82610068  0.75688876  1
