# generated using pymatgen
data_Na3TiGaSi2SO12
_symmetry_space_group_name_H-M   'P 1'
_cell_length_a   8.91549589
_cell_length_b   8.91549560
_cell_length_c   22.07221893
_cell_angle_alpha   90.22256480
_cell_angle_beta   89.77743515
_cell_angle_gamma   120.29640607
_symmetry_Int_Tables_number   1
_chemical_formula_structural   Na3TiGaSi2SO12
_chemical_formula_sum   'Na18 Ti6 Ga6 Si12 S6 O72'
_cell_volume   1514.81067552
_cell_formula_units_Z   6
loop_
 _symmetry_equiv_pos_site_id
 _symmetry_equiv_pos_as_xyz
  1  'x, y, z'
loop_
 _atom_site_type_symbol
 _atom_site_label
 _atom_site_symmetry_multiplicity
 _atom_site_fract_x
 _atom_site_fract_y
 _atom_site_fract_z
 _atom_site_occupancy
  Na  Na0  1  0.63007988  0.00298136  0.24593276  1
  Na  Na1  1  0.99930184  0.63773437  0.24848886  1
  Na  Na2  1  0.99701864  0.36992012  0.74593276  1
  Na  Na3  1  0.36226563  0.00069816  0.74848886  1
  Na  Na4  1  0.29674688  0.33631436  0.57926576  1
  Na  Na5  1  0.66596884  0.97106737  0.58182186  1
  Na  Na6  1  0.66368564  0.70325312  0.07926576  1
  Na  Na7  1  0.02893263  0.33403116  0.08182186  1
  Na  Na8  1  0.96341288  0.66964836  0.91259976  1
  Na  Na9  1  0.33263484  0.30440137  0.91515586  1
  Na  Na10  1  0.33035164  0.03658712  0.41259976  1
  Na  Na11  1  0.69559863  0.66736516  0.41515586  1
  Na  Na12  1  0.00158775  0.01215909  0.49749007  1
  Na  Na13  1  0.98784091  0.99841225  0.99749007  1
  Na  Na14  1  0.66825475  0.34549209  0.83082307  1
  Na  Na15  1  0.65450791  0.33174525  0.33082307  1
  Na  Na16  1  0.33492075  0.67882609  0.16415707  1
  Na  Na17  1  0.32117391  0.66507925  0.66415707  1
  Ti  Ti18  1  0.02399311  0.00944940  0.64660674  1
  Ti  Ti19  1  0.99055060  0.97600689  0.14660674  1
  Ti  Ti20  1  0.69066011  0.34278240  0.97993974  1
  Ti  Ti21  1  0.65721760  0.30933989  0.47993974  1
  Ti  Ti22  1  0.35732611  0.67611640  0.31327374  1
  Ti  Ti23  1  0.32388360  0.64267389  0.81327374  1
  Ga  Ga24  1  0.00458483  0.00924189  0.35086448  1
  Ga  Ga25  1  0.99075811  0.99541517  0.85086448  1
  Ga  Ga26  1  0.67125183  0.34257489  0.68419748  1
  Ga  Ga27  1  0.65742511  0.32874817  0.18419748  1
  Ga  Ga28  1  0.33791783  0.67590889  0.01753148  1
  Ga  Ga29  1  0.32409111  0.66208217  0.51753148  1
  Si  Si30  1  0.29219544  0.00485585  0.25172887  1
  Si  Si31  1  0.71081351  0.70222168  0.25164249  1
  Si  Si32  1  0.29777832  0.28918649  0.75164249  1
  Si  Si33  1  0.99514415  0.70780456  0.75172887  1
  Si  Si34  1  0.95886244  0.33818885  0.58506187  1
  Si  Si35  1  0.37748051  0.03555468  0.58497549  1
  Si  Si36  1  0.96444532  0.62251949  0.08497549  1
  Si  Si37  1  0.66181115  0.04113756  0.08506187  1
  Si  Si38  1  0.62552844  0.67152285  0.91839587  1
  Si  Si39  1  0.04414651  0.36888868  0.91830949  1
  Si  Si40  1  0.63111132  0.95585349  0.41830949  1
  Si  Si41  1  0.32847715  0.37447156  0.41839587  1
  S  S42  1  0.00400081  0.29241654  0.24971506  1
  S  S43  1  0.70758346  0.99599919  0.74971506  1
  S  S44  1  0.67066781  0.62574954  0.58304806  1
  S  S45  1  0.37425046  0.32933219  0.08304806  1
  S  S46  1  0.33733381  0.95908354  0.91638206  1
  S  S47  1  0.04091646  0.66266619  0.41638206  1
  O  O48  1  0.20480749  0.03019131  0.31249482  1
  O  O49  1  0.83221454  0.79384164  0.31040822  1
  O  O50  1  0.96958839  0.17970166  0.30357999  1
  O  O51  1  0.20615836  0.16778546  0.81040822  1
  O  O52  1  0.96980869  0.79519251  0.81249482  1
  O  O53  1  0.82029834  0.03041161  0.80357999  1
  O  O54  1  0.78558594  0.96949880  0.69426784  1
  O  O55  1  0.16815852  0.20421369  0.69138697  1
  O  O56  1  0.02919571  0.84191733  0.69379865  1
  O  O57  1  0.79578631  0.83184148  0.19138697  1
  O  O58  1  0.03050120  0.21441406  0.19426784  1
  O  O59  1  0.15808267  0.97080429  0.19379865  1
  O  O60  1  0.87147449  0.36352431  0.64582782  1
  O  O61  1  0.49888154  0.12717464  0.64374122  1
  O  O62  1  0.63625539  0.51303466  0.63691299  1
  O  O63  1  0.87282536  0.50111846  0.14374122  1
  O  O64  1  0.63647569  0.12852551  0.14582782  1
  O  O65  1  0.48696534  0.36374461  0.13691299  1
  O  O66  1  0.45225294  0.30283180  0.02760084  1
  O  O67  1  0.83482552  0.53754669  0.02471997  1
  O  O68  1  0.69586271  0.17525033  0.02713165  1
  O  O69  1  0.46245331  0.16517448  0.52471997  1
  O  O70  1  0.69716820  0.54774706  0.52760084  1
  O  O71  1  0.82474967  0.30413729  0.52713165  1
  O  O72  1  0.53814049  0.69685831  0.97916182  1
  O  O73  1  0.16554754  0.46050864  0.97707522  1
  O  O74  1  0.30292139  0.84636866  0.97024699  1
  O  O75  1  0.53949136  0.83445246  0.47707522  1
  O  O76  1  0.30314169  0.46185951  0.47916182  1
  O  O77  1  0.15363134  0.69707861  0.47024699  1
  O  O78  1  0.11891894  0.63616580  0.36093484  1
  O  O79  1  0.50149152  0.87088069  0.35805397  1
  O  O80  1  0.36252871  0.50858433  0.36046565  1
  O  O81  1  0.12911931  0.49850848  0.85805397  1
  O  O82  1  0.36383420  0.88108106  0.86093484  1
  O  O83  1  0.49141567  0.63747129  0.86046565  1
  O  O84  1  0.02315975  0.81968230  0.41301173  1
  O  O85  1  0.81776014  0.96957045  0.40898784  1
  O  O86  1  0.16584554  0.17700987  0.41136935  1
  O  O87  1  0.03042955  0.18223986  0.90898784  1
  O  O88  1  0.18031770  0.97684025  0.91301173  1
  O  O89  1  0.82299013  0.83415446  0.91136935  1
  O  O90  1  0.96701974  0.15454605  0.58956720  1
  O  O91  1  0.18781354  0.02820488  0.58898217  1
  O  O92  1  0.82405226  0.80232059  0.58967593  1
  O  O93  1  0.97179512  0.81218646  0.08898217  1
  O  O94  1  0.84545395  0.03298026  0.08956720  1
  O  O95  1  0.19767941  0.17594774  0.08967593  1
  O  O96  1  0.68982675  0.15301530  0.74634473  1
  O  O97  1  0.48442714  0.30290345  0.74232084  1
  O  O98  1  0.83251254  0.51034287  0.74470235  1
  O  O99  1  0.69709655  0.51557286  0.24232084  1
  O  O100  1  0.84698470  0.31017325  0.24634473  1
  O  O101  1  0.48965713  0.16748746  0.24470235  1
  O  O102  1  0.63368674  0.48787905  0.92290020  1
  O  O103  1  0.85448054  0.36153788  0.92231517  1
  O  O104  1  0.49071926  0.13565359  0.92300893  1
  O  O105  1  0.63846212  0.14551946  0.42231517  1
  O  O106  1  0.51212095  0.36631326  0.42290020  1
  O  O107  1  0.86434641  0.50928074  0.42300893  1
  O  O108  1  0.35649275  0.48634930  0.07967873  1
  O  O109  1  0.15109314  0.63623745  0.07565484  1
  O  O110  1  0.49917854  0.84367687  0.07803635  1
  O  O111  1  0.36376255  0.84890686  0.57565484  1
  O  O112  1  0.51365070  0.64350725  0.57967873  1
  O  O113  1  0.15632313  0.50082146  0.57803635  1
  O  O114  1  0.30035274  0.82121305  0.25623420  1
  O  O115  1  0.52114654  0.69487188  0.25564917  1
  O  O116  1  0.15738526  0.46898759  0.25634293  1
  O  O117  1  0.30512812  0.47885346  0.75564917  1
  O  O118  1  0.17878695  0.69964726  0.75623420  1
  O  O119  1  0.53101241  0.84261474  0.75634293  1
