# generated using pymatgen
data_Na2LaScP2SO12
_symmetry_space_group_name_H-M   'P 1'
_cell_length_a   9.22664075
_cell_length_b   9.23682337
_cell_length_c   23.86843720
_cell_angle_alpha   90.59646373
_cell_angle_beta   89.42921406
_cell_angle_gamma   119.86310192
_symmetry_Int_Tables_number   1
_chemical_formula_structural   Na2LaScP2SO12
_chemical_formula_sum   'Na12 La6 Sc6 P12 S6 O72'
_cell_volume   1763.95778085
_cell_formula_units_Z   6
loop_
 _symmetry_equiv_pos_site_id
 _symmetry_equiv_pos_as_xyz
  1  'x, y, z'
loop_
 _atom_site_type_symbol
 _atom_site_label
 _atom_site_symmetry_multiplicity
 _atom_site_fract_x
 _atom_site_fract_y
 _atom_site_fract_z
 _atom_site_occupancy
  Na  Na0  1  0.99528706  0.62973635  0.25618879  1
  Na  Na1  1  0.37588564  0.01274349  0.74721887  1
  Na  Na2  1  0.66337622  0.95746661  0.58751728  1
  Na  Na3  1  0.04056643  0.33587086  0.08978785  1
  Na  Na4  1  0.32526564  0.29588415  0.91949875  1
  Na  Na5  1  0.70272709  0.67286063  0.41695180  1
  Na  Na6  1  0.02283120  0.99481452  0.50037212  1
  Na  Na7  1  0.01039327  0.98221352  0.99990244  1
  Na  Na8  1  0.68654090  0.32409791  0.83220635  1
  Na  Na9  1  0.67065855  0.31289443  0.33477413  1
  Na  Na10  1  0.35275735  0.65856530  0.17105943  1
  Na  Na11  1  0.34172994  0.64749621  0.66570922  1
  La  La12  1  0.99136957  0.00540726  0.84338303  1
  La  La13  1  0.00217456  0.99810476  0.15885016  1
  La  La14  1  0.66911113  0.32980050  0.98447365  1
  La  La15  1  0.32861477  0.67888838  0.02071900  1
  La  La16  1  0.32419503  0.67109905  0.51553297  1
  La  La17  1  0.33392457  0.66274365  0.81053529  1
  Sc  Sc18  1  0.98656388  0.00157964  0.34743866  1
  Sc  Sc19  1  0.00347336  0.00000562  0.64610963  1
  Sc  Sc20  1  0.65902408  0.33842065  0.68032189  1
  Sc  Sc21  1  0.66231359  0.34620885  0.18726717  1
  Sc  Sc22  1  0.66411236  0.33122778  0.48283757  1
  Sc  Sc23  1  0.33356650  0.66737520  0.32064834  1
  P  P24  1  0.69118775  0.69573924  0.25485768  1
  P  P25  1  0.00125832  0.30916618  0.25213571  1
  P  P26  1  0.30041573  0.29086484  0.74351158  1
  P  P27  1  0.70273236  0.01278046  0.73957006  1
  P  P28  1  0.37808122  0.05587583  0.58473684  1
  P  P29  1  0.67727643  0.62866486  0.58263749  1
  P  P30  1  0.95860748  0.62604736  0.09019113  1
  P  P31  1  0.36999407  0.33533509  0.08650956  1
  P  P32  1  0.03370041  0.36317164  0.91790485  1
  P  P33  1  0.33041098  0.97486351  0.91206464  1
  P  P34  1  0.63305492  0.96797924  0.41578760  1
  P  P35  1  0.02551029  0.66870313  0.41214053  1
  S  S36  1  0.30568108  0.99733440  0.25555077  1
  S  S37  1  0.98924213  0.69755825  0.74226588  1
  S  S38  1  0.94579707  0.32278550  0.58490182  1
  S  S39  1  0.66828647  0.04243668  0.09104630  1
  S  S40  1  0.63694675  0.66722416  0.91685592  1
  S  S41  1  0.33170546  0.36276630  0.41383209  1
  O  O42  1  0.21271996  0.02248954  0.30180166  1
  O  O43  1  0.81751380  0.78767643  0.30369996  1
  O  O44  1  0.97995674  0.18186506  0.29835222  1
  O  O45  1  0.23998046  0.20355115  0.80140499  1
  O  O46  1  0.96702595  0.76039855  0.79718212  1
  O  O47  1  0.79034256  0.02736989  0.79584125  1
  O  O48  1  0.80075557  0.99270460  0.68971900  1
  O  O49  1  0.17734805  0.17755016  0.69764987  1
  O  O50  1  0.00491022  0.81228339  0.69665709  1
  O  O51  1  0.75900712  0.79722872  0.20084146  1
  O  O52  1  0.03530884  0.25130833  0.19484221  1
  O  O53  1  0.20728153  0.95727378  0.20280293  1
  O  O54  1  0.86232960  0.33969546  0.63509812  1
  O  O55  1  0.48313253  0.13774560  0.63788413  1
  O  O56  1  0.66210487  0.52010218  0.63338677  1
  O  O57  1  0.85744857  0.51964698  0.14172610  1
  O  O58  1  0.66207672  0.14270136  0.13807442  1
  O  O59  1  0.48151504  0.33576756  0.13513821  1
  O  O60  1  0.43979149  0.32313382  0.02838254  1
  O  O61  1  0.87049328  0.54317188  0.03494672  1
  O  O62  1  0.67697027  0.12126652  0.03624926  1
  O  O63  1  0.47045365  0.16172395  0.53219296  1
  O  O64  1  0.69146123  0.54365499  0.52737288  1
  O  O65  1  0.84772403  0.30609423  0.53349306  1
  O  O66  1  0.55193928  0.67719017  0.96814749  1
  O  O67  1  0.12756006  0.44626255  0.97317318  1
  O  O68  1  0.32881515  0.87704160  0.96442038  1
  O  O69  1  0.57374150  0.86263065  0.47052022  1
  O  O70  1  0.29829544  0.42764999  0.46644730  1
  O  O71  1  0.13054302  0.69920366  0.46548369  1
  O  O72  1  0.11575446  0.64293321  0.36095000  1
  O  O73  1  0.50921117  0.86693032  0.36822545  1
  O  O74  1  0.36104516  0.48062024  0.36724126  1
  O  O75  1  0.13465735  0.46691599  0.86687034  1
  O  O76  1  0.34038680  0.88932676  0.85721673  1
  O  O77  1  0.54224054  0.66096954  0.86632747  1
  O  O78  1  0.00089335  0.82336085  0.40374318  1
  O  O79  1  0.80770694  0.98396944  0.40273497  1
  O  O80  1  0.18923599  0.19425855  0.40281719  1
  O  O81  1  0.02688314  0.19153653  0.91651839  1
  O  O82  1  0.17146608  0.99198363  0.91457587  1
  O  O83  1  0.80727973  0.81265229  0.91610034  1
  O  O84  1  0.95669630  0.16545177  0.58794466  1
  O  O85  1  0.19965944  0.03235440  0.58946544  1
  O  O86  1  0.83419777  0.80868277  0.58837417  1
  O  O87  1  0.98579690  0.80403081  0.09094100  1
  O  O88  1  0.82483141  0.03278142  0.09211953  1
  O  O89  1  0.18921996  0.18318969  0.08967647  1
  O  O90  1  0.68217641  0.16953052  0.73554880  1
  O  O91  1  0.47542028  0.30670056  0.73622183  1
  O  O92  1  0.84717490  0.52785020  0.73503095  1
  O  O93  1  0.68599559  0.52363244  0.24753885  1
  O  O94  1  0.84163266  0.32777806  0.24823096  1
  O  O95  1  0.47200947  0.14788055  0.24848270  1
  O  O96  1  0.64153442  0.50840715  0.91564653  1
  O  O97  1  0.85812259  0.34231703  0.91490991  1
  O  O98  1  0.48352439  0.15503876  0.91242796  1
  O  O99  1  0.64921072  0.14229256  0.42404735  1
  O  O100  1  0.49189148  0.35803253  0.41998921  1
  O  O101  1  0.84704343  0.51109574  0.42032800  1
  O  O102  1  0.35466446  0.49574049  0.08995888  1
  O  O103  1  0.12815893  0.62652445  0.09223416  1
  O  O104  1  0.51930133  0.87350981  0.09284589  1
  O  O105  1  0.37008210  0.88267294  0.58090235  1
  O  O106  1  0.52161429  0.65385925  0.58139396  1
  O  O107  1  0.11665646  0.46906174  0.58205214  1
  O  O108  1  0.32122503  0.84554875  0.26504103  1
  O  O109  1  0.51548142  0.67005354  0.26704640  1
  O  O110  1  0.15334243  0.48704907  0.26441358  1
  O  O111  1  0.31449901  0.46394872  0.74237529  1
  O  O112  1  0.15063599  0.69538402  0.74235936  1
  O  O113  1  0.52244162  0.85705815  0.74039444  1
