# generated using pymatgen
data_Na8CaTi3Si5SO24
_symmetry_space_group_name_H-M   'P 1'
_cell_length_a   9.14963533
_cell_length_b   9.14990342
_cell_length_c   22.34100092
_cell_angle_alpha   90.88818121
_cell_angle_beta   89.60564631
_cell_angle_gamma   120.05798723
_symmetry_Int_Tables_number   1
_chemical_formula_structural   Na8CaTi3Si5SO24
_chemical_formula_sum   'Na24 Ca3 Ti9 Si15 S3 O72'
_cell_volume   1618.62812440
_cell_formula_units_Z   3
loop_
 _symmetry_equiv_pos_site_id
 _symmetry_equiv_pos_as_xyz
  1  'x, y, z'
loop_
 _atom_site_type_symbol
 _atom_site_label
 _atom_site_symmetry_multiplicity
 _atom_site_fract_x
 _atom_site_fract_y
 _atom_site_fract_z
 _atom_site_occupancy
  Na  Na0  1  0.64735080  0.01601686  0.24682089  1
  Na  Na1  1  0.36170073  0.36388499  0.24216797  1
  Na  Na2  1  0.99613265  0.62248534  0.24305442  1
  Na  Na3  1  0.62673447  0.61745375  0.74859843  1
  Na  Na4  1  0.99236557  0.37170618  0.75384048  1
  Na  Na5  1  0.38435237  0.00813364  0.74888549  1
  Na  Na6  1  0.31171707  0.33604730  0.58741457  1
  Na  Na7  1  0.03236970  0.70523672  0.58153646  1
  Na  Na8  1  0.66148789  0.96776826  0.58960311  1
  Na  Na9  1  0.30959619  0.96686622  0.08005060  1
  Na  Na10  1  0.65950703  0.69065761  0.07935642  1
  Na  Na11  1  0.03153790  0.35176823  0.07996981  1
  Na  Na12  1  0.96314106  0.66809018  0.91493885  1
  Na  Na13  1  0.70365805  0.03647324  0.91508940  1
  Na  Na14  1  0.33309037  0.29565984  0.91538507  1
  Na  Na15  1  0.95938564  0.28427636  0.41411243  1
  Na  Na16  1  0.32220022  0.03047935  0.41933494  1
  Na  Na17  1  0.71421378  0.67852792  0.41989311  1
  Na  Na18  1  0.00047521  0.99658042  0.49905176  1
  Na  Na19  1  0.99993231  0.99772652  0.99336410  1
  Na  Na20  1  0.66604185  0.33290875  0.83017053  1
  Na  Na21  1  0.68225942  0.33066926  0.33494106  1
  Na  Na22  1  0.32991569  0.66317215  0.15927806  1
  Na  Na23  1  0.34271920  0.67348506  0.67164883  1
  Ca  Ca24  1  0.99928889  0.00156854  0.35491742  1
  Ca  Ca25  1  0.65890421  0.33094482  0.68582374  1
  Ca  Ca26  1  0.67105064  0.33425749  0.17502658  1
  Ti  Ti27  1  0.99951042  0.00138183  0.85285001  1
  Ti  Ti28  1  0.00186346  0.98718453  0.65336562  1
  Ti  Ti29  1  0.00545289  0.02463884  0.13657097  1
  Ti  Ti30  1  0.66852729  0.33565138  0.98102730  1
  Ti  Ti31  1  0.65002396  0.33770261  0.47888686  1
  Ti  Ti32  1  0.33290474  0.66810772  0.01377130  1
  Ti  Ti33  1  0.34455191  0.67995893  0.51653479  1
  Ti  Ti34  1  0.32118052  0.65017607  0.32173114  1
  Ti  Ti35  1  0.33574232  0.66639603  0.81504061  1
  Si  Si36  1  0.00503234  0.30364796  0.25206798  1
  Si  Si37  1  0.27977960  0.28869871  0.75278269  1
  Si  Si38  1  0.01068006  0.71483110  0.75428435  1
  Si  Si39  1  0.71130270  0.99121516  0.75267154  1
  Si  Si40  1  0.36652363  0.03327730  0.58239863  1
  Si  Si41  1  0.66464228  0.63573446  0.58317446  1
  Si  Si42  1  0.97022851  0.63725406  0.08299191  1
  Si  Si43  1  0.65954802  0.03215824  0.08174179  1
  Si  Si44  1  0.37277263  0.34245954  0.08209485  1
  Si  Si45  1  0.62287922  0.66411456  0.91600496  1
  Si  Si46  1  0.04225369  0.37797082  0.91574191  1
  Si  Si47  1  0.33569735  0.95837939  0.91663430  1
  Si  Si48  1  0.61574435  0.95950596  0.41602428  1
  Si  Si49  1  0.33850568  0.38187780  0.42049258  1
  Si  Si50  1  0.03708213  0.65266863  0.42097708  1
  S  S51  1  0.29465682  0.99350361  0.24927113  1
  S  S52  1  0.69827545  0.70561011  0.24950178  1
  S  S53  1  0.96536710  0.33499234  0.58057646  1
  O  O54  1  0.21730000  0.01056733  0.30483837  1
  O  O55  1  0.79664019  0.77853944  0.30459695  1
  O  O56  1  0.97829669  0.19582932  0.31070276  1
  O  O57  1  0.17947127  0.16969651  0.81065734  1
  O  O58  1  0.98774667  0.81617182  0.81130518  1
  O  O59  1  0.82911463  0.01031293  0.81118074  1
  O  O60  1  0.80775840  0.96787845  0.69169060  1
  O  O61  1  0.16254751  0.19114947  0.69161578  1
  O  O62  1  0.03215367  0.83131435  0.69279601  1
  O  O63  1  0.78838686  0.80971420  0.19611312  1
  O  O64  1  0.02676202  0.19541281  0.19168554  1
  O  O65  1  0.18896790  0.97576797  0.19570283  1
  O  O66  1  0.89625054  0.36504813  0.63600812  1
  O  O67  1  0.48248811  0.09050850  0.64101515  1
  O  O68  1  0.61746395  0.52323130  0.64189431  1
  O  O69  1  0.91509750  0.53242352  0.14392903  1
  O  O70  1  0.61420218  0.08461632  0.14488521  1
  O  O71  1  0.46770432  0.38069326  0.14521406  1
  O  O72  1  0.47151793  0.30330602  0.02722659  1
  O  O73  1  0.83243377  0.53471154  0.02766456  1
  O  O74  1  0.70094059  0.16852527  0.02732845  1
  O  O75  1  0.47242828  0.16814795  0.52541783  1
  O  O76  1  0.69338611  0.52991493  0.52506082  1
  O  O77  1  0.85506928  0.31176984  0.52795737  1
  O  O78  1  0.52833210  0.69207308  0.97385819  1
  O  O79  1  0.16433081  0.47070446  0.97377543  1
  O  O80  1  0.30687893  0.83667876  0.97398482  1
  O  O81  1  0.51631235  0.84087738  0.47374366  1
  O  O82  1  0.31737588  0.48167181  0.47691330  1
  O  O83  1  0.15856486  0.67443406  0.47671336  1
  O  O84  1  0.13350130  0.62787389  0.35952783  1
  O  O85  1  0.49344546  0.86045139  0.35647123  1
  O  O86  1  0.36597695  0.49968550  0.35963049  1
  O  O87  1  0.13439803  0.50179030  0.85782335  1
  O  O88  1  0.36747303  0.86378990  0.85830840  1
  O  O89  1  0.49843635  0.63249464  0.85771309  1
  O  O90  1  0.01992288  0.81846341  0.41815183  1
  O  O91  1  0.79715221  0.97238335  0.41886729  1
  O  O92  1  0.18093971  0.19396536  0.41994912  1
  O  O93  1  0.02172870  0.18874473  0.91243911  1
  O  O94  1  0.16782512  0.97934752  0.91312785  1
  O  O95  1  0.81101630  0.83363394  0.91290819  1
  O  O96  1  0.97821394  0.17879821  0.58330398  1
  O  O97  1  0.18203910  0.02547643  0.58601128  1
  O  O98  1  0.84002626  0.82226160  0.58574519  1
  O  O99  1  0.98208058  0.82520426  0.09154864  1
  O  O100  1  0.83847934  0.02051619  0.08819974  1
  O  O101  1  0.18264969  0.16189443  0.08624540  1
  O  O102  1  0.69796885  0.15983539  0.75287242  1
  O  O103  1  0.46316809  0.30533741  0.75424739  1
  O  O104  1  0.84487103  0.53140002  0.75210999  1
  O  O105  1  0.67046232  0.53188592  0.24541061  1
  O  O106  1  0.84344191  0.33101245  0.24870142  1
  O  O107  1  0.46474766  0.14716539  0.24668207  1
  O  O108  1  0.63919726  0.49289102  0.92335608  1
  O  O109  1  0.85418610  0.36079501  0.92375659  1
  O  O110  1  0.50796214  0.14576888  0.92436683  1
  O  O111  1  0.62923999  0.14525439  0.42220732  1
  O  O112  1  0.51651140  0.37413546  0.42188248  1
  O  O113  1  0.85246527  0.47814739  0.42401198  1
  O  O114  1  0.33865695  0.49841708  0.07140722  1
  O  O115  1  0.15941275  0.66496239  0.07073357  1
  O  O116  1  0.50339689  0.84087906  0.07048436  1
  O  O117  1  0.33172177  0.83891348  0.57136066  1
  O  O118  1  0.49997752  0.66164794  0.57264247  1
  O  O119  1  0.13841632  0.48470110  0.57509159  1
  O  O120  1  0.30877613  0.83723370  0.25052299  1
  O  O121  1  0.53141649  0.69979664  0.25242067  1
  O  O122  1  0.18804852  0.49141779  0.25399595  1
  O  O123  1  0.29076092  0.47416473  0.75553558  1
  O  O124  1  0.18605455  0.70748402  0.75556297  1
  O  O125  1  0.52605288  0.81634495  0.75570345  1
