# generated using pymatgen
data_Lu6Ge4O17
_symmetry_space_group_name_H-M   'P 1'
_cell_length_a   6.81922283
_cell_length_b   10.43466968
_cell_length_c   10.84278177
_cell_angle_alpha   68.40859402
_cell_angle_beta   90.00000000
_cell_angle_gamma   90.00000000
_symmetry_Int_Tables_number   1
_chemical_formula_structural   Lu6Ge4O17
_chemical_formula_sum   'Lu12 Ge8 O34'
_cell_volume   717.39550124
_cell_formula_units_Z   2
loop_
 _symmetry_equiv_pos_site_id
 _symmetry_equiv_pos_as_xyz
  1  'x, y, z'
loop_
 _atom_site_type_symbol
 _atom_site_label
 _atom_site_symmetry_multiplicity
 _atom_site_fract_x
 _atom_site_fract_y
 _atom_site_fract_z
 _atom_site_occupancy
  Lu  Lu0  1  0.74636699  0.47450729  0.95190832  1
  Lu  Lu1  1  0.74636699  0.02549271  0.04809168  1
  Lu  Lu2  1  0.25363301  0.52549271  0.04809168  1
  Lu  Lu3  1  0.25363301  0.97450729  0.95190832  1
  Lu  Lu4  1  0.40427317  0.30569173  0.83124496  1
  Lu  Lu5  1  0.40427317  0.19430827  0.16875504  1
  Lu  Lu6  1  0.59572683  0.69430827  0.16875504  1
  Lu  Lu7  1  0.59572683  0.80569173  0.83124496  1
  Lu  Lu8  1  0.83721427  0.42703662  0.42723805  1
  Lu  Lu9  1  0.83721427  0.07296338  0.57276195  1
  Lu  Lu10  1  0.16278573  0.57296338  0.57276195  1
  Lu  Lu11  1  0.16278573  0.92703662  0.42723805  1
  Ge  Ge12  1  0.63898803  0.60251192  0.61788377  1
  Ge  Ge13  1  0.63898803  0.89748808  0.38211623  1
  Ge  Ge14  1  0.36101197  0.39748808  0.38211623  1
  Ge  Ge15  1  0.36101197  0.10251192  0.61788377  1
  Ge  Ge16  1  0.92315927  0.27079621  0.77604327  1
  Ge  Ge17  1  0.92315927  0.22920379  0.22395673  1
  Ge  Ge18  1  0.07684073  0.72920379  0.22395673  1
  Ge  Ge19  1  0.07684073  0.77079621  0.77604327  1
  O  O20  1  0.42140660  0.38752489  0.98530993  1
  O  O21  1  0.42140660  0.11247511  0.01469007  1
  O  O22  1  0.57859340  0.61247511  0.01469007  1
  O  O23  1  0.57859340  0.88752489  0.98530993  1
  O  O24  1  0.67459053  0.63738350  0.76150704  1
  O  O25  1  0.67459053  0.86261650  0.23849296  1
  O  O26  1  0.32540947  0.36261650  0.23849296  1
  O  O27  1  0.32540947  0.13738350  0.76150704  1
  O  O28  1  0.97737394  0.38886199  0.09908890  1
  O  O29  1  0.97737394  0.11113801  0.90091110  1
  O  O30  1  0.02262606  0.61113801  0.90091110  1
  O  O31  1  0.02262606  0.88886199  0.09908890  1
  O  O32  1  0.72179201  0.32783256  0.84501128  1
  O  O33  1  0.72179201  0.17216744  0.15498872  1
  O  O34  1  0.27820799  0.67216744  0.15498872  1
  O  O35  1  0.27820799  0.82783256  0.84501128  1
  O  O36  1  0.52813408  0.75000000  0.50000000  1
  O  O37  1  0.47186592  0.25000000  0.50000000  1
  O  O38  1  0.14387089  0.75130615  0.62757211  1
  O  O39  1  0.14387089  0.74869385  0.37242789  1
  O  O40  1  0.84643015  0.94927022  0.44505166  1
  O  O41  1  0.84643015  0.55072978  0.55494834  1
  O  O42  1  0.15356985  0.05072978  0.55494834  1
  O  O43  1  0.15356985  0.44927022  0.44505166  1
  O  O44  1  0.88680951  0.88896224  0.75708988  1
  O  O45  1  0.88680951  0.61103776  0.24291012  1
  O  O46  1  0.11319049  0.11103776  0.24291012  1
  O  O47  1  0.11319049  0.38896224  0.75708988  1
  O  O48  1  0.55321906  0.98502003  0.64645881  1
  O  O49  1  0.55321906  0.51497997  0.35354119  1
  O  O50  1  0.44678094  0.01497997  0.35354119  1
  O  O51  1  0.44678094  0.48502003  0.64645881  1
  O  O52  1  0.85612911  0.25130615  0.62757211  1
  O  O53  1  0.85612911  0.24869385  0.37242789  1
