# generated using pymatgen
data_Na5Sc3Si3Ge(SO8)3
_symmetry_space_group_name_H-M   'P 1'
_cell_length_a   9.01655064
_cell_length_b   8.94679029
_cell_length_c   22.58232829
_cell_angle_alpha   91.52215319
_cell_angle_beta   89.71631213
_cell_angle_gamma   120.14314982
_symmetry_Int_Tables_number   1
_chemical_formula_structural   Na5Sc3Si3Ge(SO8)3
_chemical_formula_sum   'Na15 Sc9 Si9 Ge3 S9 O72'
_cell_volume   1574.72616554
_cell_formula_units_Z   3
loop_
 _symmetry_equiv_pos_site_id
 _symmetry_equiv_pos_as_xyz
  1  'x, y, z'
loop_
 _atom_site_type_symbol
 _atom_site_label
 _atom_site_symmetry_multiplicity
 _atom_site_fract_x
 _atom_site_fract_y
 _atom_site_fract_z
 _atom_site_occupancy
  Na  Na0  1  0.64467712  0.00683600  0.25584040  1
  Na  Na1  1  0.00199006  0.62658856  0.24831389  1
  Na  Na2  1  0.63739575  0.64169302  0.74518451  1
  Na  Na3  1  0.36523032  0.00925119  0.75686315  1
  Na  Na4  1  0.66610108  0.95196631  0.58501125  1
  Na  Na5  1  0.97254256  0.67648232  0.92136511  1
  Na  Na6  1  0.70072430  0.02491879  0.91490515  1
  Na  Na7  1  0.97023412  0.30896875  0.41069870  1
  Na  Na8  1  0.70220120  0.67974247  0.42508655  1
  Na  Na9  1  0.00750306  0.98033388  0.50233527  1
  Na  Na10  1  0.00794814  0.98927413  0.99876517  1
  Na  Na11  1  0.65439205  0.32413908  0.83282652  1
  Na  Na12  1  0.65980303  0.32017993  0.33555484  1
  Na  Na13  1  0.30605897  0.63695473  0.16084889  1
  Na  Na14  1  0.32577109  0.63655700  0.66832175  1
  Sc  Sc15  1  0.99406222  0.00356318  0.35431752  1
  Sc  Sc16  1  0.00886039  0.01138312  0.85189626  1
  Sc  Sc17  1  0.99435289  0.00095234  0.65125270  1
  Sc  Sc18  1  0.00221112  0.00152147  0.14187958  1
  Sc  Sc19  1  0.65677924  0.33651045  0.68815650  1
  Sc  Sc20  1  0.68090886  0.33880746  0.18265515  1
  Sc  Sc21  1  0.33154303  0.67548755  0.01895774  1
  Sc  Sc22  1  0.33835181  0.67379086  0.51784143  1
  Sc  Sc23  1  0.32066802  0.66476503  0.31911505  1
  Si  Si24  1  0.00478396  0.29625851  0.25034652  1
  Si  Si25  1  0.28694462  0.30302613  0.75252061  1
  Si  Si26  1  0.70494252  0.00360375  0.75242845  1
  Si  Si27  1  0.66679118  0.62390310  0.58287923  1
  Si  Si28  1  0.95481575  0.62013388  0.08098839  1
  Si  Si29  1  0.62632172  0.66442344  0.91883320  1
  Si  Si30  1  0.33970235  0.96257089  0.91803294  1
  Si  Si31  1  0.62432057  0.97143044  0.41932741  1
  Si  Si32  1  0.03594264  0.66810167  0.41893737  1
  Ge  Ge33  1  0.64664398  0.34903853  0.97860295  1
  Ge  Ge34  1  0.69157299  0.34831076  0.48177535  1
  Ge  Ge35  1  0.37742443  0.68200866  0.81645752  1
  S  S36  1  0.29207092  0.00213044  0.24954655  1
  S  S37  1  0.70317939  0.70534277  0.24958753  1
  S  S38  1  0.00658434  0.70711593  0.75068219  1
  S  S39  1  0.95733404  0.33491066  0.58225946  1
  S  S40  1  0.37674284  0.04869062  0.58122597  1
  S  S41  1  0.66808401  0.04129844  0.08164913  1
  S  S42  1  0.37880711  0.33229040  0.08214452  1
  S  S43  1  0.04368428  0.38112064  0.91606641  1
  S  S44  1  0.34034065  0.37356110  0.41687206  1
  O  O45  1  0.21003927  0.02093407  0.30342903  1
  O  O46  1  0.80893852  0.78187536  0.30458046  1
  O  O47  1  0.97419191  0.18429064  0.31042753  1
  O  O48  1  0.20854683  0.17058034  0.80621158  1
  O  O49  1  0.97376702  0.78141484  0.80516746  1
  O  O50  1  0.81281246  0.02095967  0.81145080  1
  O  O51  1  0.78164904  0.95772427  0.69283814  1
  O  O52  1  0.17308314  0.21253369  0.69277299  1
  O  O53  1  0.03038863  0.81693244  0.69920679  1
  O  O54  1  0.79151997  0.81188323  0.19827411  1
  O  O55  1  0.01643119  0.18794717  0.19352291  1
  O  O56  1  0.18413137  0.97064807  0.19634910  1
  O  O57  1  0.86776194  0.35270769  0.63364716  1
  O  O58  1  0.47871869  0.12506602  0.63660498  1
  O  O59  1  0.65188863  0.51740509  0.64143639  1
  O  O60  1  0.86796805  0.51721482  0.14210244  1
  O  O61  1  0.64858899  0.12278790  0.13743701  1
  O  O62  1  0.48271621  0.34946775  0.13417979  1
  O  O63  1  0.45333237  0.29924299  0.02576900  1
  O  O64  1  0.82295543  0.51245673  0.02149658  1
  O  O65  1  0.68518646  0.14313548  0.02908386  1
  O  O66  1  0.46591938  0.15332973  0.52907556  1
  O  O67  1  0.68476943  0.51913496  0.52121088  1
  O  O68  1  0.85051377  0.30332564  0.52525152  1
  O  O69  1  0.53007913  0.69391661  0.97322616  1
  O  O70  1  0.14150980  0.45749547  0.97113261  1
  O  O71  1  0.29909008  0.83666245  0.97243950  1
  O  O72  1  0.54442592  0.84321666  0.47466586  1
  O  O73  1  0.31034077  0.45116629  0.47053619  1
  O  O74  1  0.15355051  0.68355971  0.47439652  1
  O  O75  1  0.10776667  0.62113877  0.35838254  1
  O  O76  1  0.51559129  0.88870461  0.35783151  1
  O  O77  1  0.36661810  0.48316249  0.36503772  1
  O  O78  1  0.12631408  0.48955031  0.86402103  1
  O  O79  1  0.38202572  0.87211729  0.85705771  1
  O  O80  1  0.51828567  0.63324933  0.85568568  1
  O  O81  1  0.00234766  0.82869854  0.41183903  1
  O  O82  1  0.82011128  0.00103718  0.41320983  1
  O  O83  1  0.18575709  0.20088047  0.40971810  1
  O  O84  1  0.01792398  0.20368980  0.91168160  1
  O  O85  1  0.17333157  0.98185887  0.90904093  1
  O  O86  1  0.81868061  0.83070649  0.91337959  1
  O  O87  1  0.96669142  0.17409676  0.58411799  1
  O  O88  1  0.20515262  0.02847866  0.58554388  1
  O  O89  1  0.83827436  0.81780732  0.58296191  1
  O  O90  1  0.97062984  0.81043204  0.08367631  1
  O  O91  1  0.82398432  0.02554006  0.08574281  1
  O  O92  1  0.20678035  0.17642868  0.08492834  1
  O  O93  1  0.66826965  0.16227157  0.74471342  1
  O  O94  1  0.48462134  0.33608271  0.74593153  1
  O  O95  1  0.85225623  0.53386664  0.74318361  1
  O  O96  1  0.68076290  0.52972458  0.24423592  1
  O  O97  1  0.82738591  0.31333261  0.24713289  1
  O  O98  1  0.46628950  0.15511655  0.24489875  1
  O  O99  1  0.64583640  0.48759108  0.92185872  1
  O  O100  1  0.86766952  0.36157280  0.91890970  1
  O  O101  1  0.52741909  0.15480838  0.92850391  1
  O  O102  1  0.64568917  0.16790027  0.43078368  1
  O  O103  1  0.49593070  0.35820320  0.42105423  1
  O  O104  1  0.83936229  0.48826490  0.42469811  1
  O  O105  1  0.36638772  0.48879061  0.07773023  1
  O  O106  1  0.14018356  0.63278949  0.07700635  1
  O  O107  1  0.51376046  0.86693766  0.07977538  1
  O  O108  1  0.36357628  0.87523224  0.57702706  1
  O  O109  1  0.49742894  0.64702356  0.57781574  1
  O  O110  1  0.12740912  0.48766611  0.57740343  1
  O  O111  1  0.31219382  0.84526939  0.25317592  1
  O  O112  1  0.53561709  0.69649320  0.25514862  1
  O  O113  1  0.17134663  0.49295357  0.25334742  1
  O  O114  1  0.30536560  0.49831819  0.76252765  1
  O  O115  1  0.16334287  0.69554563  0.75565598  1
  O  O116  1  0.50816793  0.82181426  0.75654645  1
