# generated using pymatgen
data_Na4MoO5
_symmetry_space_group_name_H-M   'P 1'
_cell_length_a   5.59733633
_cell_length_b   9.87285361
_cell_length_c   9.89346126
_cell_angle_alpha   113.25912711
_cell_angle_beta   96.41500767
_cell_angle_gamma   96.24061342
_symmetry_Int_Tables_number   1
_chemical_formula_structural   Na4MoO5
_chemical_formula_sum   'Na16 Mo4 O20'
_cell_volume   492.10786857
_cell_formula_units_Z   4
loop_
 _symmetry_equiv_pos_site_id
 _symmetry_equiv_pos_as_xyz
  1  'x, y, z'
loop_
 _atom_site_type_symbol
 _atom_site_label
 _atom_site_symmetry_multiplicity
 _atom_site_fract_x
 _atom_site_fract_y
 _atom_site_fract_z
 _atom_site_occupancy
  Na  Na0  1  0.73592797  0.64410187  0.84323086  1
  Na  Na1  1  0.78201516  0.45212787  0.06586447  1
  Na  Na2  1  0.21798484  0.54787213  0.93413553  1
  Na  Na3  1  0.75961335  0.05468096  0.46288160  1
  Na  Na4  1  0.00000000  0.00000000  0.00000000  1
  Na  Na5  1  0.50000000  0.50000000  0.50000000  1
  Na  Na6  1  0.50834100  0.10354996  0.91090127  1
  Na  Na7  1  0.49165900  0.89645004  0.08909873  1
  Na  Na8  1  0.00229328  0.39875565  0.59940973  1
  Na  Na9  1  0.99770672  0.60124435  0.40059027  1
  Na  Na10  1  0.28245367  0.15153385  0.35866754  1
  Na  Na11  1  0.71754633  0.84846615  0.64133246  1
  Na  Na12  1  0.98438042  0.19436918  0.80608638  1
  Na  Na13  1  0.01561958  0.80563082  0.19391362  1
  Na  Na14  1  0.26407203  0.35589813  0.15676914  1
  Na  Na15  1  0.24038665  0.94531904  0.53711840  1
  Mo  Mo16  1  0.52055309  0.70043546  0.26269255  1
  Mo  Mo17  1  0.47944691  0.29956454  0.73730745  1
  Mo  Mo18  1  0.21529490  0.78410019  0.75186122  1
  Mo  Mo19  1  0.78470510  0.21589981  0.24813878  1
  O  O20  1  0.80788324  0.39803812  0.80916073  1
  O  O21  1  0.93659499  0.64401782  0.64950923  1
  O  O22  1  0.06340501  0.35598218  0.35049077  1
  O  O23  1  0.19211676  0.60196188  0.19083927  1
  O  O24  1  0.88366070  0.04125490  0.22728791  1
  O  O25  1  0.11633930  0.95874510  0.77271209  1
  O  O26  1  0.86335113  0.22864430  0.06887176  1
  O  O27  1  0.13664887  0.77135570  0.93112824  1
  O  O28  1  0.40378247  0.46831467  0.71255175  1
  O  O29  1  0.59621753  0.53168533  0.28744825  1
  O  O30  1  0.19482151  0.18965341  0.59670398  1
  O  O31  1  0.80517849  0.81034659  0.40329602  1
  O  O32  1  0.37717214  0.32209453  0.90981381  1
  O  O33  1  0.62282786  0.67790547  0.09018619  1
  O  O34  1  0.66489998  0.27138362  0.42730035  1
  O  O35  1  0.33510002  0.72861638  0.57269965  1
  O  O36  1  0.59992106  0.11574223  0.68203749  1
  O  O37  1  0.54389344  0.84877775  0.85059384  1
  O  O38  1  0.45610656  0.15122225  0.14940616  1
  O  O39  1  0.40007894  0.88425777  0.31796251  1
