# generated using pymatgen
data_Na10Ca4Zr4Si5S7O48
_symmetry_space_group_name_H-M   'P 1'
_cell_length_a   18.60127608
_cell_length_b   9.32220202
_cell_length_c   23.29610854
_cell_angle_alpha   89.86989827
_cell_angle_beta   90.55424601
_cell_angle_gamma   120.04924981
_symmetry_Int_Tables_number   1
_chemical_formula_structural   Na10Ca4Zr4Si5S7O48
_chemical_formula_sum   'Na30 Ca12 Zr12 Si15 S21 O144'
_cell_volume   3496.53016918
_cell_formula_units_Z   3
loop_
 _symmetry_equiv_pos_site_id
 _symmetry_equiv_pos_as_xyz
  1  'x, y, z'
loop_
 _atom_site_type_symbol
 _atom_site_label
 _atom_site_symmetry_multiplicity
 _atom_site_fract_x
 _atom_site_fract_y
 _atom_site_fract_z
 _atom_site_occupancy
  Na  Na0  1  0.33095776  0.03207111  0.25177922  1
  Na  Na1  1  0.67314548  0.33743911  0.25469603  1
  Na  Na2  1  0.99740045  0.63577686  0.23898123  1
  Na  Na3  1  0.49821938  0.62587864  0.23741709  1
  Na  Na4  1  0.32620145  0.62193207  0.75471750  1
  Na  Na5  1  0.82621874  0.62182586  0.75315753  1
  Na  Na6  1  0.99689861  0.36886084  0.73775216  1
  Na  Na7  1  0.49718936  0.36929950  0.73783010  1
  Na  Na8  1  0.17283515  0.01107983  0.75367020  1
  Na  Na9  1  0.67401115  0.01177415  0.75271818  1
  Na  Na10  1  0.33414524  0.96978930  0.57136499  1
  Na  Na11  1  0.83431825  0.97085203  0.57049996  1
  Na  Na12  1  0.33502864  0.69908519  0.07127472  1
  Na  Na13  1  0.83250714  0.69592554  0.07043078  1
  Na  Na14  1  0.48358354  0.68151665  0.90794721  1
  Na  Na15  1  0.98376139  0.68186526  0.90684583  1
  Na  Na16  1  0.48717745  0.28948637  0.40528164  1
  Na  Na17  1  0.16466793  0.02728162  0.40537219  1
  Na  Na18  1  0.98364944  0.00608822  0.49519490  1
  Na  Na19  1  0.49636708  0.99793924  0.49517544  1
  Na  Na20  1  0.99274404  0.99634981  0.99275795  1
  Na  Na21  1  0.49164379  0.98962406  0.99620026  1
  Na  Na22  1  0.32587236  0.34486513  0.82886087  1
  Na  Na23  1  0.82643557  0.34520067  0.82762709  1
  Na  Na24  1  0.32786022  0.32341671  0.32185267  1
  Na  Na25  1  0.81701590  0.28091332  0.33265596  1
  Na  Na26  1  0.15063669  0.66138666  0.15788555  1
  Na  Na27  1  0.64799771  0.67122193  0.16139067  1
  Na  Na28  1  0.14366048  0.62775897  0.66014161  1
  Na  Na29  1  0.64660425  0.63117870  0.65841865  1
  Ca  Ca30  1  0.99571295  0.00376196  0.35172546  1
  Ca  Ca31  1  0.50004462  0.99941320  0.35180681  1
  Ca  Ca32  1  0.99909887  0.00016041  0.85133695  1
  Ca  Ca33  1  0.49912933  0.00007631  0.85186143  1
  Ca  Ca34  1  0.33774558  0.34297580  0.68081295  1
  Ca  Ca35  1  0.83778765  0.34315098  0.68007603  1
  Ca  Ca36  1  0.33407734  0.33105903  0.18294467  1
  Ca  Ca37  1  0.83450702  0.32260079  0.18238818  1
  Ca  Ca38  1  0.16558747  0.66920901  0.01794461  1
  Ca  Ca39  1  0.66437515  0.66851951  0.01868040  1
  Ca  Ca40  1  0.16215237  0.65284114  0.51819912  1
  Ca  Ca41  1  0.66627240  0.66238823  0.51746361  1
  Zr  Zr42  1  0.00923966  0.01109450  0.64883475  1
  Zr  Zr43  1  0.51050959  0.01282775  0.64902765  1
  Zr  Zr44  1  0.00693267  0.99515207  0.14789477  1
  Zr  Zr45  1  0.50932261  0.00722634  0.14965459  1
  Zr  Zr46  1  0.33466010  0.34917693  0.98280164  1
  Zr  Zr47  1  0.83493749  0.34828845  0.98224519  1
  Zr  Zr48  1  0.33917697  0.33056430  0.48303994  1
  Zr  Zr49  1  0.83821658  0.32149595  0.48119957  1
  Zr  Zr50  1  0.17054546  0.67823895  0.31749250  1
  Zr  Zr51  1  0.67211454  0.68686248  0.31384869  1
  Zr  Zr52  1  0.16834642  0.65650890  0.81596574  1
  Zr  Zr53  1  0.66842934  0.65693954  0.81607002  1
  Si  Si54  1  0.14870655  0.99510935  0.25669389  1
  Si  Si55  1  0.65041664  0.00384820  0.25300892  1
  Si  Si56  1  0.50330826  0.30192246  0.25384351  1
  Si  Si57  1  0.14910239  0.29825300  0.75238506  1
  Si  Si58  1  0.64947737  0.29879339  0.75266891  1
  Si  Si59  1  0.00273990  0.70535441  0.75392739  1
  Si  Si60  1  0.50295644  0.70591752  0.75395971  1
  Si  Si61  1  0.48543296  0.32459958  0.58773349  1
  Si  Si62  1  0.98394335  0.32395943  0.58865925  1
  Si  Si63  1  0.48370407  0.64343721  0.08803855  1
  Si  Si64  1  0.98345925  0.63469148  0.08862873  1
  Si  Si65  1  0.31708369  0.66781526  0.92245162  1
  Si  Si66  1  0.81706148  0.66863083  0.92264334  1
  Si  Si67  1  0.31655786  0.96796355  0.42376589  1
  Si  Si68  1  0.81666282  0.96525281  0.42302783  1
  S  S69  1  0.34905808  0.70829953  0.24949313  1
  S  S70  1  0.85143795  0.70850308  0.24800160  1
  S  S71  1  0.00528104  0.30149450  0.24961616  1
  S  S72  1  0.34939569  0.99109903  0.74855277  1
  S  S73  1  0.84934102  0.99140225  0.74883715  1
  S  S74  1  0.18445634  0.04125148  0.58278708  1
  S  S75  1  0.68472387  0.04136775  0.58386243  1
  S  S76  1  0.33719927  0.63642993  0.58369210  1
  S  S77  1  0.83720010  0.63688453  0.58398123  1
  S  S78  1  0.33681669  0.03906109  0.08404550  1
  S  S79  1  0.83826431  0.03935093  0.08274133  1
  S  S80  1  0.18358714  0.32593923  0.08371456  1
  S  S81  1  0.68498160  0.32735710  0.08392146  1
  S  S82  1  0.01580226  0.37400557  0.91711054  1
  S  S83  1  0.51568918  0.37389551  0.91685296  1
  S  S84  1  0.17164126  0.96749820  0.91576385  1
  S  S85  1  0.67208207  0.96797458  0.91580329  1
  S  S86  1  0.17124294  0.37360682  0.41650777  1
  S  S87  1  0.67206992  0.37593314  0.41569392  1
  S  S88  1  0.01696862  0.65871575  0.41558893  1
  S  S89  1  0.51671537  0.65824400  0.41651010  1
  O  O90  1  0.10740562  0.00606884  0.31478431  1
  O  O91  1  0.60447010  0.02251107  0.30683216  1
  O  O92  1  0.39977716  0.78415539  0.30050296  1
  O  O93  1  0.90358836  0.78726777  0.29803133  1
  O  O94  1  0.48361995  0.19323634  0.31132976  1
  O  O95  1  0.99501675  0.20636473  0.30126791  1
  O  O96  1  0.10580295  0.18521990  0.80626818  1
  O  O97  1  0.60540889  0.18475937  0.80613452  1
  O  O98  1  0.48378955  0.77474365  0.81145176  1
  O  O99  1  0.98441074  0.77501030  0.81158640  1
  O  O100  1  0.40142635  0.02309048  0.79918441  1
  O  O101  1  0.90121290  0.02336954  0.79960953  1
  O  O102  1  0.38882130  0.96598792  0.69637293  1
  O  O103  1  0.88899012  0.96616145  0.69685281  1
  O  O104  1  0.08733482  0.20841790  0.69411522  1
  O  O105  1  0.58773574  0.20986398  0.69408579  1
  O  O106  1  0.01531415  0.83565199  0.69890689  1
  O  O107  1  0.51523952  0.83599472  0.69881983  1
  O  O108  1  0.38756717  0.81419133  0.19725307  1
  O  O109  1  0.89078115  0.81190190  0.19504502  1
  O  O110  1  0.01131973  0.21339641  0.19754760  1
  O  O111  1  0.51412244  0.19359793  0.19909153  1
  O  O112  1  0.08303520  0.96925118  0.20024321  1
  O  O113  1  0.58820174  0.96905211  0.19420007  1
  O  O114  1  0.44155533  0.33072472  0.64574561  1
  O  O115  1  0.94285170  0.33080361  0.64794882  1
  O  O116  1  0.23119575  0.11850995  0.63558694  1
  O  O117  1  0.72892902  0.11448647  0.63796313  1
  O  O118  1  0.32692277  0.54720244  0.63758831  1
  O  O119  1  0.82776217  0.54888603  0.63827663  1
  O  O120  1  0.43958952  0.54880421  0.14591407  1
  O  O121  1  0.94100554  0.54513125  0.14747669  1
  O  O122  1  0.32741778  0.10936297  0.13772009  1
  O  O123  1  0.82721612  0.11192739  0.13471819  1
  O  O124  1  0.23157465  0.34401577  0.13539002  1
  O  O125  1  0.73122088  0.34465988  0.13709394  1
  O  O126  1  0.22467146  0.30147839  0.03195591  1
  O  O127  1  0.72957043  0.30630213  0.03351724  1
  O  O128  1  0.41739632  0.53133830  0.03105191  1
  O  O129  1  0.91762018  0.53029314  0.03199381  1
  O  O130  1  0.34038238  0.14254711  0.03357811  1
  O  O131  1  0.84445893  0.14121417  0.03116042  1
  O  O132  1  0.22806969  0.14965133  0.53146312  1
  O  O133  1  0.72952044  0.15144960  0.53401452  1
  O  O134  1  0.34157726  0.53848037  0.53375628  1
  O  O135  1  0.84192740  0.54196686  0.53415527  1
  O  O136  1  0.41927853  0.30602965  0.53079176  1
  O  O137  1  0.91682723  0.30418946  0.53345239  1
  O  O138  1  0.27384345  0.67176764  0.98071348  1
  O  O139  1  0.77380673  0.67267063  0.98082381  1
  O  O140  1  0.06542185  0.45559414  0.96796976  1
  O  O141  1  0.56568032  0.45594480  0.96769304  1
  O  O142  1  0.15987701  0.86106997  0.96510031  1
  O  O143  1  0.66058562  0.86148164  0.96508447  1
  O  O144  1  0.27016658  0.87200651  0.48029907  1
  O  O145  1  0.77660455  0.87937153  0.48277218  1
  O  O146  1  0.16078198  0.44850691  0.46793190  1
  O  O147  1  0.66020979  0.45904319  0.46472966  1
  O  O148  1  0.06829040  0.67962778  0.46576026  1
  O  O149  1  0.56568923  0.67581047  0.46770686  1
  O  O150  1  0.05753871  0.63373876  0.36265102  1
  O  O151  1  0.55630067  0.63247370  0.36384168  1
  O  O152  1  0.25367339  0.86601578  0.36486537  1
  O  O153  1  0.75300583  0.85791979  0.36701336  1
  O  O154  1  0.17723455  0.47611186  0.36445854  1
  O  O155  1  0.67997237  0.47163398  0.36135907  1
  O  O156  1  0.05701577  0.48031689  0.86424051  1
  O  O157  1  0.55703985  0.48083266  0.86402824  1
  O  O158  1  0.17959701  0.88599074  0.86173767  1
  O  O159  1  0.68078025  0.88787424  0.86174345  1
  O  O160  1  0.25747020  0.65016790  0.86377703  1
  O  O161  1  0.75754385  0.65073952  0.86404002  1
  O  O162  1  0.00991883  0.80791554  0.40897293  1
  O  O163  1  0.50094749  0.79518908  0.41080996  1
  O  O164  1  0.41109237  0.00914173  0.41918681  1
  O  O165  1  0.90913914  0.99738279  0.41545899  1
  O  O166  1  0.10167183  0.20203853  0.41106154  1
  O  O167  1  0.59804266  0.20857289  0.41230452  1
  O  O168  1  0.00170848  0.20714191  0.91104825  1
  O  O169  1  0.50185846  0.20761234  0.91064744  1
  O  O170  1  0.09798806  0.98717700  0.91184200  1
  O  O171  1  0.59850787  0.98740944  0.91178675  1
  O  O172  1  0.41202227  0.81777845  0.91890121  1
  O  O173  1  0.91219761  0.81828577  0.91900890  1
  O  O174  1  0.48050844  0.13763588  0.58633733  1
  O  O175  1  0.98027907  0.13826705  0.58690820  1
  O  O176  1  0.10008403  0.02496825  0.58461602  1
  O  O177  1  0.59982227  0.02499323  0.58494941  1
  O  O178  1  0.41598897  0.80147828  0.58496097  1
  O  O179  1  0.91574538  0.80408000  0.58597586  1
  O  O180  1  0.48015161  0.82251390  0.08686812  1
  O  O181  1  0.98183663  0.81833418  0.08934171  1
  O  O182  1  0.41540997  0.02999685  0.08531954  1
  O  O183  1  0.91749955  0.03068853  0.08684810  1
  O  O184  1  0.09828480  0.17347431  0.08748441  1
  O  O185  1  0.60055979  0.17537988  0.08526324  1
  O  O186  1  0.33135914  0.12778900  0.74160732  1
  O  O187  1  0.83128555  0.12798074  0.74191515  1
  O  O188  1  0.24218059  0.32778369  0.74512459  1
  O  O189  1  0.74241547  0.32791606  0.74532549  1
  O  O190  1  0.42638619  0.51690798  0.74615084  1
  O  O191  1  0.92590151  0.51661081  0.74648360  1
  O  O192  1  0.33529330  0.54008271  0.24281042  1
  O  O193  1  0.83988633  0.54012116  0.24201716  1
  O  O194  1  0.42662203  0.33777142  0.24615763  1
  O  O195  1  0.93513861  0.33392348  0.24484121  1
  O  O196  1  0.24328111  0.13869254  0.24771560  1
  O  O197  1  0.73990745  0.16959095  0.24653284  1
  O  O198  1  0.32283203  0.48814857  0.92205159  1
  O  O199  1  0.82347000  0.48939301  0.92258564  1
  O  O200  1  0.43292645  0.36971635  0.92036388  1
  O  O201  1  0.93308979  0.37004429  0.92044684  1
  O  O202  1  0.24925190  0.13247910  0.92166751  1
  O  O203  1  0.74961112  0.13362696  0.92214361  1
  O  O204  1  0.31612918  0.15295747  0.42323030  1
  O  O205  1  0.81997219  0.15370280  0.42274332  1
  O  O206  1  0.25033177  0.36522666  0.41999996  1
  O  O207  1  0.74934195  0.36479974  0.42225531  1
  O  O208  1  0.43305726  0.49574972  0.42078176  1
  O  O209  1  0.93246697  0.50777523  0.42027191  1
  O  O210  1  0.17534868  0.47403347  0.07724307  1
  O  O211  1  0.67806427  0.47674878  0.07715872  1
  O  O212  1  0.07521898  0.66602756  0.08059852  1
  O  O213  1  0.57500616  0.66959969  0.08036584  1
  O  O214  1  0.26636060  0.86663763  0.07929465  1
  O  O215  1  0.76869911  0.86678558  0.07788824  1
  O  O216  1  0.17738741  0.87784757  0.57673264  1
  O  O217  1  0.67662462  0.87694974  0.57781350  1
  O  O218  1  0.26712181  0.66735703  0.57765008  1
  O  O219  1  0.76669078  0.66788826  0.57922780  1
  O  O220  1  0.07485326  0.48076206  0.58101893  1
  O  O221  1  0.57603459  0.48135812  0.57981354  1
  O  O222  1  0.14777544  0.80898342  0.25746289  1
  O  O223  1  0.65276687  0.82487426  0.25602909  1
  O  O224  1  0.26563561  0.70113526  0.25576200  1
  O  O225  1  0.76665828  0.68999662  0.25339515  1
  O  O226  1  0.08387472  0.46971957  0.25330100  1
  O  O227  1  0.59334070  0.48259126  0.25794832  1
  O  O228  1  0.15396449  0.48452413  0.75672780  1
  O  O229  1  0.65424082  0.48490534  0.75694753  1
  O  O230  1  0.09287879  0.70360491  0.75837421  1
  O  O231  1  0.59308416  0.70450223  0.75851441  1
  O  O232  1  0.26683604  0.83198410  0.75477257  1
  O  O233  1  0.76687189  0.83212634  0.75493531  1
