# generated using pymatgen
data_Na3AlSn3(PO4)6
_symmetry_space_group_name_H-M   'P 1'
_cell_length_a   8.69577393
_cell_length_b   8.68942598
_cell_length_c   22.51111485
_cell_angle_alpha   89.99353070
_cell_angle_beta   90.00021214
_cell_angle_gamma   120.11869917
_symmetry_Int_Tables_number   1
_chemical_formula_structural   Na3AlSn3(PO4)6
_chemical_formula_sum   'Na9 Al3 Sn9 P18 O72'
_cell_volume   1471.31702755
_cell_formula_units_Z   3
loop_
 _symmetry_equiv_pos_site_id
 _symmetry_equiv_pos_as_xyz
  1  'x, y, z'
loop_
 _atom_site_type_symbol
 _atom_site_label
 _atom_site_symmetry_multiplicity
 _atom_site_fract_x
 _atom_site_fract_y
 _atom_site_fract_z
 _atom_site_occupancy
  Na  Na0  1  0.36575868  0.36350992  0.24731374  1
  Na  Na1  1  0.63785008  0.63431990  0.74815231  1
  Na  Na2  1  0.97101734  0.30086269  0.41445437  1
  Na  Na3  1  0.00079731  0.99198684  0.49863584  1
  Na  Na4  1  0.99993267  0.99993775  0.00170986  1
  Na  Na5  1  0.66734989  0.32549886  0.83287983  1
  Na  Na6  1  0.66713683  0.33332665  0.32922756  1
  Na  Na7  1  0.33286034  0.67470553  0.16533547  1
  Na  Na8  1  0.32613257  0.66753498  0.66545592  1
  Al  Al9  1  0.99909734  0.99354367  0.34973075  1
  Al  Al10  1  0.66703105  0.32821218  0.68478790  1
  Al  Al11  1  0.67257998  0.33273643  0.18560207  1
  Sn  Sn12  1  0.00118800  0.00161385  0.85220671  1
  Sn  Sn13  1  0.00134327  0.00196124  0.64678204  1
  Sn  Sn14  1  0.99785894  0.99793726  0.14772222  1
  Sn  Sn15  1  0.66677056  0.33338111  0.98266394  1
  Sn  Sn16  1  0.66204258  0.33356412  0.48253502  1
  Sn  Sn17  1  0.33309871  0.66672852  0.02247425  1
  Sn  Sn18  1  0.33454448  0.66883148  0.52061575  1
  Sn  Sn19  1  0.33428081  0.67299778  0.31378385  1
  Sn  Sn20  1  0.32887849  0.66720655  0.81546617  1
  P  P21  1  0.29113829  0.00421391  0.25068700  1
  P  P22  1  0.71565126  0.70809355  0.25129131  1
  P  P23  1  0.99012072  0.28513381  0.25187659  1
  P  P24  1  0.29871493  0.29169547  0.74871846  1
  P  P25  1  0.99629775  0.70114204  0.74817127  1
  P  P26  1  0.70792007  0.00905237  0.74889937  1
  P  P27  1  0.95277973  0.33382732  0.58513721  1
  P  P28  1  0.38026267  0.04700084  0.58612714  1
  P  P29  1  0.66635327  0.61993152  0.58653841  1
  P  P30  1  0.95174059  0.61901819  0.08611783  1
  P  P31  1  0.66743720  0.04848278  0.08621212  1
  P  P32  1  0.38047584  0.33262126  0.08671962  1
  P  P33  1  0.62575921  0.66589453  0.91660317  1
  P  P34  1  0.03961046  0.37376821  0.91752908  1
  P  P35  1  0.33391872  0.96007779  0.91740731  1
  P  P36  1  0.63244128  0.95858293  0.41597473  1
  P  P37  1  0.32979747  0.36788632  0.41475954  1
  P  P38  1  0.04089887  0.67566516  0.41605790  1
  O  O39  1  0.20235398  0.03638247  0.30508686  1
  O  O40  1  0.83000910  0.79923338  0.30599087  1
  O  O41  1  0.96839251  0.17440838  0.30831940  1
  O  O42  1  0.22006795  0.17964707  0.80534638  1
  O  O43  1  0.95373360  0.77879987  0.80414436  1
  O  O44  1  0.82043653  0.04059847  0.80547293  1
  O  O45  1  0.78468007  0.95762648  0.69514096  1
  O  O46  1  0.17769250  0.21528948  0.69420520  1
  O  O47  1  0.03586619  0.82237157  0.69382706  1
  O  O48  1  0.78466639  0.82115615  0.19467397  1
  O  O49  1  0.04096851  0.21305317  0.19675403  1
  O  O50  1  0.17838635  0.96537432  0.19415326  1
  O  O51  1  0.85972123  0.35913643  0.63853667  1
  O  O52  1  0.49730752  0.13877483  0.63987280  1
  O  O53  1  0.64132868  0.50681251  0.64195974  1
  O  O54  1  0.86068482  0.50190220  0.14002710  1
  O  O55  1  0.64063515  0.13905873  0.14011911  1
  O  O56  1  0.49385044  0.35840100  0.14220934  1
  O  O57  1  0.45305100  0.29982814  0.02829929  1
  O  O58  1  0.84819068  0.54892692  0.02708058  1
  O  O59  1  0.70092881  0.15181803  0.02717616  1
  O  O60  1  0.44993867  0.15078155  0.52720700  1
  O  O61  1  0.70074893  0.54776330  0.52842401  1
  O  O62  1  0.85170949  0.30146560  0.52513431  1
  O  O63  1  0.54264476  0.69994907  0.97133106  1
  O  O64  1  0.15563444  0.45476308  0.97275560  1
  O  O65  1  0.29884716  0.84428126  0.97268749  1
  O  O66  1  0.55297362  0.84572493  0.47268529  1
  O  O67  1  0.28850975  0.44886142  0.47026515  1
  O  O68  1  0.15409190  0.70750937  0.47271693  1
  O  O69  1  0.11694165  0.62335980  0.36227064  1
  O  O70  1  0.51196211  0.88292087  0.36139065  1
  O  O71  1  0.36749131  0.48491883  0.35874660  1
  O  O72  1  0.11587729  0.48471325  0.86010915  1
  O  O73  1  0.36967507  0.88428522  0.86011700  1
  O  O74  1  0.51816205  0.63331721  0.85787389  1
  O  O75  1  0.02268696  0.83904776  0.40591024  1
  O  O76  1  0.81881067  0.98272544  0.40707806  1
  O  O77  1  0.16019867  0.18565048  0.40655332  1
  O  O78  1  0.02341712  0.18915105  0.91198230  1
  O  O79  1  0.16535000  0.97568515  0.91157393  1
  O  O80  1  0.81071552  0.83435847  0.91135398  1
  O  O81  1  0.97364491  0.16743123  0.58912783  1
  O  O82  1  0.19232495  0.02465041  0.58950865  1
  O  O83  1  0.83221587  0.80832074  0.58966579  1
  O  O84  1  0.97499012  0.80738016  0.08949860  1
  O  O85  1  0.83270225  0.02589059  0.08993412  1
  O  O86  1  0.19173345  0.16750499  0.08992534  1
  O  O87  1  0.68888770  0.17179341  0.73940475  1
  O  O88  1  0.48529870  0.31639203  0.74014148  1
  O  O89  1  0.82704725  0.51873401  0.73974344  1
  O  O90  1  0.68942775  0.51917961  0.24317980  1
  O  O91  1  0.82713397  0.30543058  0.24242378  1
  O  O92  1  0.47573724  0.17397260  0.24293014  1
  O  O93  1  0.64250270  0.49817615  0.92132195  1
  O  O94  1  0.85471223  0.35596790  0.92179207  1
  O  O95  1  0.50109889  0.14558487  0.92181188  1
  O  O96  1  0.65566183  0.14849048  0.42220329  1
  O  O97  1  0.49834606  0.35371948  0.42130956  1
  O  O98  1  0.85737135  0.50061587  0.42251023  1
  O  O99  1  0.36408545  0.50260121  0.08147860  1
  O  O100  1  0.13844677  0.63614033  0.08137205  1
  O  O101  1  0.49784602  0.86114579  0.08137555  1
  O  O102  1  0.36324858  0.86043041  0.58131328  1
  O  O103  1  0.49643765  0.63578409  0.58107781  1
  O  O104  1  0.13985584  0.50299514  0.58053374  1
  O  O105  1  0.31110365  0.83707230  0.25573846  1
  O  O106  1  0.52207098  0.68011226  0.25661762  1
  O  O107  1  0.16518487  0.47239390  0.25701694  1
  O  O108  1  0.32197664  0.48179877  0.75500756  1
  O  O109  1  0.16444254  0.68588890  0.75448623  1
  O  O110  1  0.52428943  0.83345077  0.75529015  1
