# generated using pymatgen
data_Na3MgGaP2SO12
_symmetry_space_group_name_H-M   'P 1'
_cell_length_a   8.89659923
_cell_length_b   8.80908139
_cell_length_c   21.84225092
_cell_angle_alpha   91.09904213
_cell_angle_beta   90.00000000
_cell_angle_gamma   120.32919350
_symmetry_Int_Tables_number   1
_chemical_formula_structural   Na3MgGaP2SO12
_chemical_formula_sum   'Na18 Mg6 Ga6 P12 S6 O72'
_cell_volume   1477.15206638
_cell_formula_units_Z   6
loop_
 _symmetry_equiv_pos_site_id
 _symmetry_equiv_pos_as_xyz
  1  'x, y, z'
loop_
 _atom_site_type_symbol
 _atom_site_label
 _atom_site_symmetry_multiplicity
 _atom_site_fract_x
 _atom_site_fract_y
 _atom_site_fract_z
 _atom_site_occupancy
  Na  Na0  1  0.35952597  0.35797379  0.24745716  1
  Na  Na1  1  0.99723998  0.63169049  0.24558587  1
  Na  Na2  1  0.63445051  0.63169049  0.74558587  1
  Na  Na3  1  0.99844782  0.35797379  0.74745716  1
  Na  Na4  1  0.02619297  0.69130679  0.58079016  1
  Na  Na5  1  0.66390698  0.96502349  0.57891887  1
  Na  Na6  1  0.30111751  0.96502349  0.07891887  1
  Na  Na7  1  0.66511482  0.69130679  0.08079016  1
  Na  Na8  1  0.69285897  0.02464079  0.91412416  1
  Na  Na9  1  0.33057298  0.29835749  0.91225287  1
  Na  Na10  1  0.96778351  0.29835749  0.41225287  1
  Na  Na11  1  0.33178082  0.02464079  0.41412416  1
  Na  Na12  1  0.98269239  0.98643260  0.49747209  1
  Na  Na13  1  0.00374020  0.98643260  0.99747209  1
  Na  Na14  1  0.64935939  0.31976560  0.83080509  1
  Na  Na15  1  0.67040720  0.31976560  0.33080509  1
  Na  Na16  1  0.31602539  0.65309960  0.16413909  1
  Na  Na17  1  0.33707320  0.65309960  0.66413909  1
  Mg  Mg18  1  0.99366382  0.99708958  0.35171274  1
  Mg  Mg19  1  0.00342576  0.99708958  0.85171274  1
  Mg  Mg20  1  0.66033082  0.33042258  0.68504574  1
  Mg  Mg21  1  0.67009276  0.33042258  0.18504574  1
  Mg  Mg22  1  0.32699682  0.66375658  0.01837974  1
  Mg  Mg23  1  0.33675876  0.66375658  0.51837974  1
  Ga  Ga24  1  0.99176923  0.01145557  0.65100068  1
  Ga  Ga25  1  0.01968635  0.01145557  0.15100068  1
  Ga  Ga26  1  0.65843623  0.34478857  0.98433368  1
  Ga  Ga27  1  0.68635335  0.34478857  0.48433368  1
  Ga  Ga28  1  0.32510223  0.67812257  0.31766768  1
  Ga  Ga29  1  0.35301935  0.67812257  0.81766768  1
  P  P30  1  0.29701830  0.99828982  0.25174872  1
  P  P31  1  0.00430853  0.29643760  0.25343743  1
  P  P32  1  0.29212907  0.29643760  0.75343743  1
  P  P33  1  0.70127152  0.99828982  0.75174872  1
  P  P34  1  0.96368530  0.33162282  0.58508172  1
  P  P35  1  0.67097553  0.62977060  0.58677043  1
  P  P36  1  0.95879607  0.62977060  0.08677043  1
  P  P37  1  0.36793852  0.33162282  0.08508172  1
  P  P38  1  0.63035130  0.66495682  0.91841572  1
  P  P39  1  0.33764153  0.96310460  0.92010443  1
  P  P40  1  0.62546207  0.96310460  0.42010443  1
  P  P41  1  0.03460452  0.66495682  0.41841572  1
  S  S42  1  0.70182560  0.70984062  0.24851464  1
  S  S43  1  0.00801503  0.70984062  0.74851464  1
  S  S44  1  0.36849260  0.04317362  0.58184764  1
  S  S45  1  0.67468203  0.04317362  0.08184764  1
  S  S46  1  0.03515860  0.37650762  0.91518164  1
  S  S47  1  0.34134803  0.37650762  0.41518164  1
  O  O48  1  0.21065724  0.02421883  0.30822499  1
  O  O49  1  0.81514108  0.79720990  0.30163166  1
  O  O50  1  0.98363194  0.19539403  0.31143642  1
  O  O51  1  0.21176209  0.19539403  0.81143642  1
  O  O52  1  0.98206882  0.79720990  0.80163166  1
  O  O53  1  0.81356159  0.02421883  0.80822499  1
  O  O54  1  0.77897008  0.95741073  0.69284571  1
  O  O55  1  0.16946804  0.20750024  0.69633974  1
  O  O56  1  0.03088410  0.80980198  0.69135812  1
  O  O57  1  0.77891788  0.80980198  0.19135812  1
  O  O58  1  0.03803219  0.20750024  0.19633974  1
  O  O59  1  0.17844065  0.95741073  0.19284571  1
  O  O60  1  0.87732424  0.35755183  0.64155799  1
  O  O61  1  0.48180808  0.13054290  0.63496466  1
  O  O62  1  0.65029894  0.52872703  0.64476942  1
  O  O63  1  0.87842909  0.52872703  0.14476942  1
  O  O64  1  0.64873582  0.13054290  0.13496466  1
  O  O65  1  0.48022859  0.35755183  0.14155799  1
  O  O66  1  0.44563708  0.29074373  0.02617871  1
  O  O67  1  0.83613504  0.54083324  0.02967274  1
  O  O68  1  0.69755110  0.14313498  0.02469112  1
  O  O69  1  0.44558488  0.14313498  0.52469112  1
  O  O70  1  0.70469919  0.54083324  0.52967274  1
  O  O71  1  0.84510765  0.29074373  0.52617871  1
  O  O72  1  0.54399024  0.69088583  0.97489199  1
  O  O73  1  0.14847408  0.46387690  0.96829866  1
  O  O74  1  0.31696494  0.86206103  0.97810342  1
  O  O75  1  0.54509509  0.86206103  0.47810342  1
  O  O76  1  0.31540182  0.46387690  0.46829866  1
  O  O77  1  0.14689459  0.69088583  0.47489199  1
  O  O78  1  0.11230308  0.62407773  0.35951271  1
  O  O79  1  0.50280104  0.87416724  0.36300674  1
  O  O80  1  0.36421710  0.47646898  0.35802512  1
  O  O81  1  0.11225088  0.47646898  0.85802512  1
  O  O82  1  0.37136519  0.87416724  0.86300674  1
  O  O83  1  0.51177365  0.62407773  0.85951271  1
  O  O84  1  0.02147181  0.83029878  0.41109125  1
  O  O85  1  0.81042255  0.99597684  0.41275849  1
  O  O86  1  0.18210295  0.19746973  0.41119200  1
  O  O87  1  0.01536679  0.19746973  0.91119200  1
  O  O88  1  0.18555430  0.99597684  0.91275849  1
  O  O89  1  0.80882697  0.83029878  0.91109125  1
  O  O90  1  0.97490803  0.15994547  0.58882028  1
  O  O91  1  0.19129309  0.01873898  0.58768378  1
  O  O92  1  0.84621061  0.81682442  0.58968824  1
  O  O93  1  0.97061381  0.81682442  0.08968824  1
  O  O94  1  0.82744589  0.01873898  0.08768378  1
  O  O95  1  0.18503744  0.15994547  0.08882028  1
  O  O96  1  0.68813881  0.16363178  0.74442425  1
  O  O97  1  0.47708955  0.32930984  0.74609149  1
  O  O98  1  0.84876995  0.53080273  0.74452500  1
  O  O99  1  0.68203379  0.53080273  0.24452500  1
  O  O100  1  0.85222130  0.32930984  0.24609149  1
  O  O101  1  0.47549397  0.16363178  0.24442425  1
  O  O102  1  0.64157503  0.49327847  0.92215328  1
  O  O103  1  0.85796009  0.35207198  0.92101678  1
  O  O104  1  0.51287761  0.15015742  0.92302124  1
  O  O105  1  0.63728081  0.15015742  0.42302124  1
  O  O106  1  0.49411289  0.35207198  0.42101678  1
  O  O107  1  0.85170444  0.49327847  0.42215328  1
  O  O108  1  0.35480481  0.49696578  0.07775825  1
  O  O109  1  0.14375555  0.66264384  0.07942549  1
  O  O110  1  0.51543595  0.86413673  0.07785900  1
  O  O111  1  0.34869979  0.86413673  0.57785900  1
  O  O112  1  0.51888730  0.66264384  0.57942549  1
  O  O113  1  0.14215997  0.49696578  0.57775825  1
  O  O114  1  0.30824103  0.82661247  0.25548728  1
  O  O115  1  0.52462609  0.68540598  0.25435078  1
  O  O116  1  0.17954361  0.48349142  0.25635524  1
  O  O117  1  0.30394681  0.48349142  0.75635524  1
  O  O118  1  0.16077889  0.68540598  0.75435078  1
  O  O119  1  0.51837044  0.82661247  0.75548728  1
