# generated using pymatgen
data_Na3NbGa3P5SO24
_symmetry_space_group_name_H-M   'P 1'
_cell_length_a   8.63806048
_cell_length_b   8.62094692
_cell_length_c   22.21594340
_cell_angle_alpha   89.58961809
_cell_angle_beta   90.20349347
_cell_angle_gamma   119.96064222
_symmetry_Int_Tables_number   1
_chemical_formula_structural   Na3NbGa3P5SO24
_chemical_formula_sum   'Na9 Nb3 Ga9 P15 S3 O72'
_cell_volume   1433.26853116
_cell_formula_units_Z   3
loop_
 _symmetry_equiv_pos_site_id
 _symmetry_equiv_pos_as_xyz
  1  'x, y, z'
loop_
 _atom_site_type_symbol
 _atom_site_label
 _atom_site_symmetry_multiplicity
 _atom_site_fract_x
 _atom_site_fract_y
 _atom_site_fract_z
 _atom_site_occupancy
  Na  Na0  1  0.63915253  0.63589263  0.74759160  1
  Na  Na1  1  0.30103046  0.96585183  0.08511357  1
  Na  Na2  1  0.33102142  0.02871283  0.41335629  1
  Na  Na3  1  0.98931204  0.99995715  0.50087322  1
  Na  Na4  1  0.99246665  0.00031548  0.99887469  1
  Na  Na5  1  0.66661165  0.32508022  0.83060394  1
  Na  Na6  1  0.66942635  0.33612504  0.32794018  1
  Na  Na7  1  0.33337308  0.66190133  0.16762086  1
  Na  Na8  1  0.32528464  0.66326034  0.66131563  1
  Nb  Nb9  1  0.66856078  0.33456803  0.97994840  1
  Nb  Nb10  1  0.67828925  0.34290513  0.47942317  1
  Nb  Nb11  1  0.32815316  0.66601974  0.81153762  1
  Ga  Ga12  1  0.00129216  0.00205967  0.35141020  1
  Ga  Ga13  1  0.00135022  0.00165519  0.85190534  1
  Ga  Ga14  1  0.99344316  0.00127187  0.64810077  1
  Ga  Ga15  1  0.00076068  0.99837890  0.14774964  1
  Ga  Ga16  1  0.67421025  0.33646241  0.68565015  1
  Ga  Ga17  1  0.65837688  0.32605381  0.18396140  1
  Ga  Ga18  1  0.33383783  0.66147495  0.01912749  1
  Ga  Ga19  1  0.33405519  0.65660301  0.51717882  1
  Ga  Ga20  1  0.33376556  0.67398732  0.31518483  1
  P  P21  1  0.29221106  -0.00012693  0.24998001  1
  P  P22  1  0.28657091  0.27772994  0.74873142  1
  P  P23  1  0.99642008  0.71599712  0.74851382  1
  P  P24  1  0.71898493  0.01093099  0.74963895  1
  P  P25  1  0.96467201  0.33526255  0.58631761  1
  P  P26  1  0.66621746  0.62992583  0.58655821  1
  P  P27  1  0.95767865  0.62288799  0.08695499  1
  P  P28  1  0.67002842  0.03824220  0.08608075  1
  P  P29  1  0.37405763  0.33843067  0.08578976  1
  P  P30  1  0.62777311  0.67601090  0.91760783  1
  P  P31  1  0.04684984  0.37124975  0.91857629  1
  P  P32  1  0.32504312  0.95300415  0.91871879  1
  P  P33  1  0.62494755  0.94749802  0.41645772  1
  P  P34  1  0.32643530  0.37977771  0.41476331  1
  P  P35  1  0.05315996  0.67233733  0.41548344  1
  S  S36  1  0.70937802  0.70936914  0.25004046  1
  S  S37  1  0.00030797  0.29116818  0.24961200  1
  S  S38  1  0.37300409  0.03902360  0.58466221  1
  O  O39  1  0.20939499  0.03084472  0.30752749  1
  O  O40  1  0.81940208  0.78976853  0.30480298  1
  O  O41  1  0.96712065  0.17948677  0.30468436  1
  O  O42  1  0.20850440  0.17261172  0.80657387  1
  O  O43  1  0.96062382  0.79197666  0.80545120  1
  O  O44  1  0.82552350  0.03570702  0.80686106  1
  O  O45  1  0.78607366  0.95629607  0.69420399  1
  O  O46  1  0.17229991  0.20677080  0.69231562  1
  O  O47  1  0.03637505  0.83040411  0.69189854  1
  O  O48  1  0.78820077  0.82131516  0.19538109  1
  O  O49  1  0.02911578  0.20980095  0.19534884  1
  O  O50  1  0.17753123  0.96879279  0.19251387  1
  O  O51  1  0.87435385  0.36529477  0.64021510  1
  O  O52  1  0.48665187  0.12341830  0.63758875  1
  O  O53  1  0.63282790  0.51144622  0.64261714  1
  O  O54  1  0.87005322  0.50324466  0.14144360  1
  O  O55  1  0.62691214  0.12163447  0.13955552  1
  O  O56  1  0.49209927  0.36929036  0.14057485  1
  O  O57  1  0.46320414  0.30122826  0.02912292  1
  O  O58  1  0.83908411  0.53450430  0.02898620  1
  O  O59  1  0.69885228  0.15985869  0.02848529  1
  O  O60  1  0.45652513  0.15030322  0.52804444  1
  O  O61  1  0.69196166  0.53160688  0.53004294  1
  O  O62  1  0.84136610  0.30597151  0.52877980  1
  O  O63  1  0.53955663  0.70085160  0.97275223  1
  O  O64  1  0.15917624  0.45917832  0.97389720  1
  O  O65  1  0.30087885  0.84403806  0.97600106  1
  O  O66  1  0.54206146  0.84021955  0.47392973  1
  O  O67  1  0.29614638  0.45446208  0.47251632  1
  O  O68  1  0.16631909  0.70761883  0.47247097  1
  O  O69  1  0.12401949  0.62875389  0.35939049  1
  O  O70  1  0.50312665  0.87917942  0.36089600  1
  O  O71  1  0.36889222  0.49648115  0.35862797  1
  O  O72  1  0.13090058  0.49305123  0.86137586  1
  O  O73  1  0.36100786  0.86653746  0.86246788  1
  O  O74  1  0.51002056  0.63774846  0.85953063  1
  O  O75  1  0.02587434  0.83545699  0.40924180  1
  O  O76  1  0.81305810  0.97662853  0.40821540  1
  O  O77  1  0.16810471  0.18622310  0.40909846  1
  O  O78  1  0.02359427  0.18725355  0.91000789  1
  O  O79  1  0.16348445  0.97507902  0.90987243  1
  O  O80  1  0.81286223  0.83618658  0.90958522  1
  O  O81  1  0.97594257  0.16342790  0.58899907  1
  O  O82  1  0.19752495  0.02742611  0.58834947  1
  O  O83  1  0.83966162  0.81059970  0.58884305  1
  O  O84  1  0.97632589  0.81065703  0.08969840  1
  O  O85  1  0.83951196  0.02600058  0.09136559  1
  O  O86  1  0.19190287  0.16317097  0.08954115  1
  O  O87  1  0.68777316  0.16928135  0.74219305  1
  O  O88  1  0.48055106  0.31459838  0.74286815  1
  O  O89  1  0.83183100  0.52581898  0.74359902  1
  O  O90  1  0.69436640  0.53068635  0.24443276  1
  O  O91  1  0.83885054  0.31017303  0.24397678  1
  O  O92  1  0.47983597  0.17009380  0.24406647  1
  O  O93  1  0.64028894  0.50104114  0.92325603  1
  O  O94  1  0.86055844  0.35997968  0.92269615  1
  O  O95  1  0.49938437  0.13984712  0.92289983  1
  O  O96  1  0.64001185  0.13891926  0.42508720  1
  O  O97  1  0.49545373  0.35292723  0.42395990  1
  O  O98  1  0.86079690  0.50303357  0.42307088  1
  O  O99  1  0.35697444  0.50399973  0.07675990  1
  O  O100  1  0.14489910  0.64687431  0.07762551  1
  O  O101  1  0.49826271  0.85751252  0.07638769  1
  O  O102  1  0.35786019  0.86242205  0.57760436  1
  O  O103  1  0.49847964  0.64484873  0.57707488  1
  O  O104  1  0.14505854  0.50525891  0.57632664  1
  O  O105  1  0.30943301  0.82943036  0.25597123  1
  O  O106  1  0.52913164  0.69038934  0.25581694  1
  O  O107  1  0.16356957  0.46940539  0.25558938  1
  O  O108  1  0.31256249  0.47467806  0.75651571  1
  O  O109  1  0.16482254  0.69264065  0.75606047  1
  O  O110  1  0.52711824  0.83577694  0.75751191  1
