# generated using pymatgen
data_Sn2ClF3
_symmetry_space_group_name_H-M   'P 1'
_cell_length_a   7.79623560
_cell_length_b   7.79623560
_cell_length_c   7.79623560
_cell_angle_alpha   90.00000000
_cell_angle_beta   90.00000000
_cell_angle_gamma   90.00000000
_symmetry_Int_Tables_number   1
_chemical_formula_structural   Sn2ClF3
_chemical_formula_sum   'Sn8 Cl4 F12'
_cell_volume   473.86525325
_cell_formula_units_Z   4
loop_
 _symmetry_equiv_pos_site_id
 _symmetry_equiv_pos_as_xyz
  1  'x, y, z'
loop_
 _atom_site_type_symbol
 _atom_site_label
 _atom_site_symmetry_multiplicity
 _atom_site_fract_x
 _atom_site_fract_y
 _atom_site_fract_z
 _atom_site_occupancy
  Sn  Sn0  1  0.09947106  0.90052894  0.40052894  1
  Sn  Sn1  1  0.40052894  0.09947106  0.90052894  1
  Sn  Sn2  1  0.90052894  0.40052894  0.09947106  1
  Sn  Sn3  1  0.59947106  0.59947106  0.59947106  1
  Sn  Sn4  1  0.56968991  0.06968991  0.43031009  1
  Sn  Sn5  1  0.06968991  0.43031009  0.56968991  1
  Sn  Sn6  1  0.43031009  0.56968991  0.06968991  1
  Sn  Sn7  1  0.93031009  0.93031009  0.93031009  1
  Cl  Cl8  1  0.25937799  0.25937799  0.25937799  1
  Cl  Cl9  1  0.74062201  0.75937799  0.24062201  1
  Cl  Cl10  1  0.75937799  0.24062201  0.74062201  1
  Cl  Cl11  1  0.24062201  0.74062201  0.75937799  1
  F  F12  1  0.37100246  0.88217383  0.37360753  1
  F  F13  1  0.87100246  0.61782617  0.62639247  1
  F  F14  1  0.62899754  0.38217383  0.12639247  1
  F  F15  1  0.12899754  0.11782617  0.87360753  1
  F  F16  1  0.38217383  0.12639247  0.62899754  1
  F  F17  1  0.88217383  0.37360753  0.37100246  1
  F  F18  1  0.61782617  0.62639247  0.87100246  1
  F  F19  1  0.87360753  0.12899754  0.11782617  1
  F  F20  1  0.62639247  0.87100246  0.61782617  1
  F  F21  1  0.12639247  0.62899754  0.38217383  1
  F  F22  1  0.37360753  0.37100246  0.88217383  1
  F  F23  1  0.11782617  0.87360753  0.12899754  1
