# generated using pymatgen
data_Tl3VO4
_symmetry_space_group_name_H-M   'P 1'
_cell_length_a   5.89620292
_cell_length_b   6.00356927
_cell_length_c   6.00356972
_cell_angle_alpha   65.20355330
_cell_angle_beta   60.58984840
_cell_angle_gamma   60.58985123
_symmetry_Int_Tables_number   1
_chemical_formula_structural   Tl3VO4
_chemical_formula_sum   'Tl3 V1 O4'
_cell_volume   156.75778975
_cell_formula_units_Z   1
loop_
 _symmetry_equiv_pos_site_id
 _symmetry_equiv_pos_as_xyz
  1  'x, y, z'
loop_
 _atom_site_type_symbol
 _atom_site_label
 _atom_site_symmetry_multiplicity
 _atom_site_fract_x
 _atom_site_fract_y
 _atom_site_fract_z
 _atom_site_occupancy
  Tl  Tl0  1  0.76472752  0.76174170  0.70880226  1
  Tl  Tl1  1  -0.00000000  0.04860832  0.95139168  1
  Tl  Tl2  1  0.23527248  0.29119774  0.23825830  1
  V  V3  1  0.50000000  0.50917932  0.49082068  1
  O  O4  1  0.32723609  0.83127694  0.51425088  1
  O  O5  1  0.67276391  0.48574912  0.16872306  1
  O  O6  1  0.74627097  0.36162343  0.63837657  1
  O  O7  1  0.25372903  0.36162343  0.63837657  1
