# generated using pymatgen
data_Na6Ca6Hf2SiS11O48
_symmetry_space_group_name_H-M   'P 1'
_cell_length_a   18.31683915
_cell_length_b   9.14304780
_cell_length_c   23.93492345
_cell_angle_alpha   90.16794455
_cell_angle_beta   89.85370339
_cell_angle_gamma   119.96268390
_symmetry_Int_Tables_number   1
_chemical_formula_structural   Na6Ca6Hf2SiS11O48
_chemical_formula_sum   'Na18 Ca18 Hf6 Si3 S33 O144'
_cell_volume   3472.68322175
_cell_formula_units_Z   3
loop_
 _symmetry_equiv_pos_site_id
 _symmetry_equiv_pos_as_xyz
  1  'x, y, z'
loop_
 _atom_site_type_symbol
 _atom_site_label
 _atom_site_symmetry_multiplicity
 _atom_site_fract_x
 _atom_site_fract_y
 _atom_site_fract_z
 _atom_site_occupancy
  Na  Na0  1  0.68864898  0.36659582  0.24354870  1
  Na  Na1  1  0.98994356  0.63549770  0.25519469  1
  Na  Na2  1  0.33580329  0.96163975  0.59567044  1
  Na  Na3  1  0.83691846  0.96324203  0.59588991  1
  Na  Na4  1  0.33380957  0.69480831  0.08165194  1
  Na  Na5  1  0.34520393  0.66421917  0.41395345  1
  Na  Na6  1  0.00879143  0.99473499  0.49517221  1
  Na  Na7  1  0.51252303  0.01565813  0.50088949  1
  Na  Na8  1  0.00175322  0.00030454  0.99773414  1
  Na  Na9  1  0.51212845  0.01771837  0.00153910  1
  Na  Na10  1  0.33295688  0.32212529  0.83864324  1
  Na  Na11  1  0.83200115  0.32209745  0.83867835  1
  Na  Na12  1  0.32920256  0.32033365  0.32967265  1
  Na  Na13  1  0.83795518  0.34384829  0.33395056  1
  Na  Na14  1  0.16852971  0.67030115  0.16534931  1
  Na  Na15  1  0.66837328  0.67542707  0.15615312  1
  Na  Na16  1  0.17270071  0.67552928  0.67845656  1
  Na  Na17  1  0.67411963  0.67640925  0.67921743  1
  Ca  Ca18  1  0.99875545  0.99766979  0.35074191  1
  Ca  Ca19  1  0.49860164  0.00082900  0.34854563  1
  Ca  Ca20  1  0.00002188  0.99821227  0.65200213  1
  Ca  Ca21  1  0.50044353  0.99792267  0.65231633  1
  Ca  Ca22  1  0.50456021  0.00770912  0.15256504  1
  Ca  Ca23  1  0.33496333  0.33197366  0.18181992  1
  Ca  Ca24  1  0.83172331  0.32938621  0.17923857  1
  Ca  Ca25  1  0.33049090  0.32454042  0.98375010  1
  Ca  Ca26  1  0.83456503  0.33305603  0.98522435  1
  Ca  Ca27  1  0.33432729  0.33029030  0.48169602  1
  Ca  Ca28  1  0.83250142  0.33752083  0.47832465  1
  Ca  Ca29  1  0.16184471  0.66885832  0.01046398  1
  Ca  Ca30  1  0.66703456  0.66800162  0.01113720  1
  Ca  Ca31  1  0.15941565  0.65826884  0.51997826  1
  Ca  Ca32  1  0.66183815  0.65886123  0.52110764  1
  Ca  Ca33  1  0.16712757  0.66639072  0.31547649  1
  Ca  Ca34  1  0.17088061  0.67576909  0.81603065  1
  Ca  Ca35  1  0.67112144  0.67641695  0.81617095  1
  Hf  Hf36  1  0.99379511  0.00086068  0.84500949  1
  Hf  Hf37  1  0.49438927  0.00146693  0.84577125  1
  Hf  Hf38  1  0.99125336  0.98997522  0.15247636  1
  Hf  Hf39  1  0.33392693  0.32941705  0.69042069  1
  Hf  Hf40  1  0.83402570  0.33028579  0.69012830  1
  Hf  Hf41  1  0.67266068  0.67448276  0.31561034  1
  Si  Si42  1  0.85026961  0.70035547  0.25213488  1
  Si  Si43  1  0.34979239  0.99858490  0.74356842  1
  Si  Si44  1  0.84933575  0.99920676  0.74342598  1
  S  S45  1  0.14395809  0.99885553  0.24705283  1
  S  S46  1  0.64991169  0.99330856  0.25321506  1
  S  S47  1  0.34813241  0.69556806  0.25000029  1
  S  S48  1  0.00105869  0.29537616  0.24737875  1
  S  S49  1  0.50453595  0.31185185  0.25431485  1
  S  S50  1  0.14958976  0.29019381  0.74984998  1
  S  S51  1  0.64949401  0.29007739  0.74991811  1
  S  S52  1  0.99506176  0.69926727  0.74993192  1
  S  S53  1  0.49499694  0.69912176  0.74995214  1
  S  S54  1  0.47693379  0.33364910  0.58675872  1
  S  S55  1  0.97546761  0.33314510  0.58609395  1
  S  S56  1  0.19120302  0.04669657  0.58660986  1
  S  S57  1  0.69185410  0.04900624  0.58536709  1
  S  S58  1  0.33404828  0.62693531  0.58351273  1
  S  S59  1  0.83325944  0.62438235  0.58550759  1
  S  S60  1  0.48310661  0.63438533  0.08334878  1
  S  S61  1  0.98640076  0.64654245  0.08763590  1
  S  S62  1  0.33256207  0.02431428  0.08352448  1
  S  S63  1  0.83719985  0.02861433  0.08502587  1
  S  S64  1  0.17874737  0.32806851  0.08573771  1
  S  S65  1  0.68079263  0.33535328  0.08450448  1
  S  S66  1  0.32338467  0.67539488  0.91548098  1
  S  S67  1  0.82326848  0.67489468  0.91362961  1
  S  S68  1  0.01560102  0.35551327  0.91310696  1
  S  S69  1  0.51596654  0.35653776  0.91291455  1
  S  S70  1  0.16025793  0.97117006  0.91307769  1
  S  S71  1  0.66109846  0.97096408  0.91385214  1
  S  S72  1  0.31706931  0.96245844  0.41906038  1
  S  S73  1  0.81076333  0.95782818  0.41723995  1
  S  S74  1  0.16868973  0.36969324  0.41760665  1
  S  S75  1  0.66637049  0.37712396  0.41304687  1
  S  S76  1  0.01598788  0.66724266  0.41504278  1
  S  S77  1  0.52029658  0.66730464  0.41416237  1
  O  O78  1  0.10906671  0.01979910  0.29911158  1
  O  O79  1  0.60868214  0.02171374  0.30149468  1
  O  O80  1  0.39532355  0.77987087  0.30202017  1
  O  O81  1  0.91202358  0.78315359  0.30350293  1
  O  O82  1  0.49357772  0.20754873  0.30344671  1
  O  O83  1  0.99580579  0.20581325  0.29851230  1
  O  O84  1  0.10712253  0.17758602  0.79938148  1
  O  O85  1  0.60671282  0.17728442  0.79943095  1
  O  O86  1  0.48441275  0.78763201  0.79961064  1
  O  O87  1  0.98468087  0.78835326  0.79961866  1
  O  O88  1  0.41567250  0.02044534  0.79710166  1
  O  O89  1  0.91512760  0.02090326  0.79703870  1
  O  O90  1  0.38875066  0.98718102  0.68474569  1
  O  O91  1  0.88864664  0.98722785  0.68490213  1
  O  O92  1  0.10280089  0.21423835  0.69876944  1
  O  O93  1  0.60277639  0.21432312  0.69880292  1
  O  O94  1  0.00899423  0.79789179  0.69930877  1
  O  O95  1  0.50883603  0.79724480  0.69922823  1
  O  O96  1  0.39299278  0.79565026  0.19988760  1
  O  O97  1  0.89820069  0.82118099  0.19579693  1
  O  O98  1  0.00553536  0.19789874  0.19749626  1
  O  O99  1  0.52422945  0.24384530  0.20396424  1
  O  O100  1  0.08864310  0.99079392  0.19844606  1
  O  O101  1  0.60052441  0.95990266  0.20188268  1
  O  O102  1  0.42772107  0.34143011  0.63652252  1
  O  O103  1  0.92667479  0.34177905  0.63638656  1
  O  O104  1  0.24505267  0.14774651  0.63610023  1
  O  O105  1  0.74460770  0.14820861  0.63530533  1
  O  O106  1  0.33097936  0.52138493  0.63216879  1
  O  O107  1  0.82989685  0.52339542  0.63581399  1
  O  O108  1  0.44292105  0.53684309  0.13445967  1
  O  O109  1  0.94751444  0.55016168  0.13927137  1
  O  O110  1  0.32561717  0.10702559  0.13443939  1
  O  O111  1  0.82747953  0.10858336  0.13554092  1
  O  O112  1  0.23350670  0.35419306  0.13428871  1
  O  O113  1  0.72344061  0.34431955  0.13868177  1
  O  O114  1  0.21390986  0.29810375  0.03433673  1
  O  O115  1  0.72889785  0.32363160  0.03699423  1
  O  O116  1  0.43054839  0.54698764  0.03384273  1
  O  O117  1  0.93425196  0.56988868  0.03806267  1
  O  O118  1  0.33876983  0.12106596  0.03307444  1
  O  O119  1  0.85111139  0.13047210  0.03474022  1
  O  O120  1  0.22978652  0.13835779  0.53496342  1
  O  O121  1  0.73071265  0.14104016  0.53386850  1
  O  O122  1  0.33820418  0.54945806  0.53025044  1
  O  O123  1  0.83623121  0.54041877  0.53413736  1
  O  O124  1  0.42938889  0.31815107  0.53571156  1
  O  O125  1  0.92700222  0.31645930  0.53541571  1
  O  O126  1  0.29143003  0.70471722  0.96914257  1
  O  O127  1  0.78954366  0.70754285  0.96514332  1
  O  O128  1  0.06428041  0.42493628  0.96509412  1
  O  O129  1  0.56458647  0.42622948  0.96466933  1
  O  O130  1  0.14677091  0.87440733  0.96531641  1
  O  O131  1  0.64747544  0.87238029  0.96559572  1
  O  O132  1  0.27592173  0.86797638  0.47097237  1
  O  O133  1  0.77098260  0.86769416  0.46927389  1
  O  O134  1  0.16332987  0.45482092  0.46871691  1
  O  O135  1  0.66015459  0.46038800  0.46366445  1
  O  O136  1  0.06651815  0.67265187  0.46387484  1
  O  O137  1  0.56570254  0.67969272  0.46583308  1
  O  O138  1  0.05592885  0.65851013  0.36170397  1
  O  O139  1  0.56906633  0.66076330  0.36459240  1
  O  O140  1  0.26690359  0.87493127  0.36915726  1
  O  O141  1  0.75626141  0.85154202  0.36821153  1
  O  O142  1  0.17653559  0.47117388  0.36743241  1
  O  O143  1  0.66914095  0.48012136  0.36212570  1
  O  O144  1  0.05789586  0.45957080  0.86448291  1
  O  O145  1  0.55822009  0.45994537  0.86403425  1
  O  O146  1  0.17122562  0.88518735  0.86502553  1
  O  O147  1  0.67197064  0.88626521  0.86516705  1
  O  O148  1  0.26806359  0.65450364  0.86882040  1
  O  O149  1  0.77058726  0.65185234  0.86498013  1
  O  O150  1  0.00853380  0.82146487  0.41721939  1
  O  O151  1  0.50822354  0.81669038  0.41044207  1
  O  O152  1  0.40046944  0.96691508  0.41623860  1
  O  O153  1  0.89473193  0.97731956  0.41166584  1
  O  O154  1  0.09530530  0.19798891  0.41511320  1
  O  O155  1  0.59089538  0.20816703  0.40875163  1
  O  O156  1  0.00822820  0.18183362  0.90470616  1
  O  O157  1  0.50893963  0.18266281  0.90447568  1
  O  O158  1  0.08282264  0.98763546  0.90428723  1
  O  O159  1  0.58339624  0.98727719  0.90478786  1
  O  O160  1  0.40941581  0.83263730  0.90493161  1
  O  O161  1  0.91014059  0.83297523  0.90403912  1
  O  O162  1  0.48422697  0.17910170  0.58959217  1
  O  O163  1  0.98324120  0.17958351  0.58987336  1
  O  O164  1  0.10575648  0.02013578  0.59173699  1
  O  O165  1  0.60598264  0.02224132  0.59000035  1
  O  O166  1  0.40999918  0.79903666  0.58609544  1
  O  O167  1  0.90909072  0.79636346  0.58719402  1
  O  O168  1  0.48595464  0.80153055  0.08678343  1
  O  O169  1  0.99543130  0.82153284  0.09465714  1
  O  O170  1  0.40838009  0.00212405  0.08655708  1
  O  O171  1  0.91707334  0.01572458  0.09218246  1
  O  O172  1  0.09225070  0.17816766  0.09525957  1
  O  O173  1  0.59566232  0.18089207  0.08450925  1
  O  O174  1  0.34723123  0.18287857  0.74166927  1
  O  O175  1  0.84698308  0.18312772  0.74163540  1
  O  O176  1  0.23607804  0.30573220  0.74459923  1
  O  O177  1  0.73576926  0.30516883  0.74485602  1
  O  O178  1  0.41247882  0.53270612  0.74390755  1
  O  O179  1  0.91271359  0.53294708  0.74420174  1
  O  O180  1  0.33948531  0.52520633  0.24821050  1
  O  O181  1  0.83219198  0.50785929  0.24361234  1
  O  O182  1  0.43181008  0.33626413  0.24811817  1
  O  O183  1  0.92598000  0.31628554  0.24210897  1
  O  O184  1  0.23008435  0.14016204  0.23978372  1
  O  O185  1  0.73502615  0.14275275  0.24788579  1
  O  O186  1  0.33675512  0.52896240  0.91937623  1
  O  O187  1  0.83737813  0.52981413  0.91932284  1
  O  O188  1  0.42902192  0.32741674  0.91784486  1
  O  O189  1  0.92906425  0.32805135  0.91861017  1
  O  O190  1  0.23491422  0.14355969  0.91781361  1
  O  O191  1  0.73564688  0.14335722  0.91927416  1
  O  O192  1  0.33083508  0.13607947  0.41988935  1
  O  O193  1  0.81291863  0.12125278  0.41324555  1
  O  O194  1  0.24954638  0.36332761  0.41891827  1
  O  O195  1  0.74436357  0.36754803  0.41111933  1
  O  O196  1  0.43486218  0.51380391  0.41292886  1
  O  O197  1  0.93104097  0.51263830  0.41663804  1
  O  O198  1  0.17302833  0.48526349  0.07982177  1
  O  O199  1  0.67309908  0.48935443  0.08061742  1
  O  O200  1  0.07196780  0.67047910  0.08164242  1
  O  O201  1  0.56929028  0.65937561  0.07871877  1
  O  O202  1  0.25712346  0.84880804  0.08034189  1
  O  O203  1  0.76461418  0.85601360  0.07977018  1
  O  O204  1  0.19166004  0.88367771  0.58759798  1
  O  O205  1  0.69195051  0.88549192  0.58625232  1
  O  O206  1  0.25771817  0.64635408  0.58531405  1
  O  O207  1  0.75692993  0.64496196  0.58652231  1
  O  O208  1  0.05885760  0.48765201  0.58732180  1
  O  O209  1  0.56016155  0.48778679  0.58759810  1
  O  O210  1  0.14157540  0.83242845  0.24564607  1
  O  O211  1  0.65861719  0.83982670  0.26380378  1
  O  O212  1  0.26366311  0.68189289  0.25113482  1
  O  O213  1  0.75453221  0.68162062  0.26013363  1
  O  O214  1  0.07749302  0.46669841  0.24556274  1
  O  O215  1  0.58349280  0.48330366  0.26328654  1
  O  O216  1  0.16097961  0.45845901  0.75831217  1
  O  O217  1  0.66068050  0.45836108  0.75831654  1
  O  O218  1  0.06333733  0.66327403  0.75851944  1
  O  O219  1  0.56312516  0.66254288  0.75843605  1
  O  O220  1  0.25610971  0.84415498  0.75232058  1
  O  O221  1  0.75566765  0.84464626  0.75213289  1
