# generated using pymatgen
data_Ti6CCl14
_symmetry_space_group_name_H-M   'P 1'
_cell_length_a   9.14264582
_cell_length_b   9.14264582
_cell_length_c   11.02880440
_cell_angle_alpha   90.00000000
_cell_angle_beta   90.00000000
_cell_angle_gamma   95.12695249
_symmetry_Int_Tables_number   1
_chemical_formula_structural   Ti6CCl14
_chemical_formula_sum   'Ti12 C2 Cl28'
_cell_volume   918.18710378
_cell_formula_units_Z   2
loop_
 _symmetry_equiv_pos_site_id
 _symmetry_equiv_pos_as_xyz
  1  'x, y, z'
loop_
 _atom_site_type_symbol
 _atom_site_label
 _atom_site_symmetry_multiplicity
 _atom_site_fract_x
 _atom_site_fract_y
 _atom_site_fract_z
 _atom_site_occupancy
  Ti  Ti0  1  0.64088051  0.64088051  0.10039532  1
  Ti  Ti1  1  0.85911949  0.85911949  0.60039532  1
  Ti  Ti2  1  0.14088051  0.14088051  0.39960468  1
  Ti  Ti3  1  0.35911949  0.35911949  0.89960468  1
  Ti  Ti4  1  0.45212839  0.67942494  0.88367222  1
  Ti  Ti5  1  0.04787161  0.82057506  0.38367222  1
  Ti  Ti6  1  0.17942494  0.95212839  0.61632778  1
  Ti  Ti7  1  0.32057506  0.54787161  0.11632778  1
  Ti  Ti8  1  0.54787161  0.32057506  0.11632778  1
  Ti  Ti9  1  0.95212839  0.17942494  0.61632778  1
  Ti  Ti10  1  0.82057506  0.04787161  0.38367222  1
  Ti  Ti11  1  0.67942494  0.45212839  0.88367222  1
  C  C12  1  0.50000000  0.50000000  -0.00000000  1
  C  C13  1  -0.00000000  0.00000000  0.50000000  1
  Cl  Cl14  1  0.60461182  0.10461182  0.25000000  1
  Cl  Cl15  1  0.89538818  0.39538818  0.75000000  1
  Cl  Cl16  1  0.39538818  0.89538818  0.75000000  1
  Cl  Cl17  1  0.10461182  0.60461182  0.25000000  1
  Cl  Cl18  1  0.38727205  0.14259115  0.01142500  1
  Cl  Cl19  1  0.11272795  0.35740885  0.51142500  1
  Cl  Cl20  1  0.64259115  0.88727205  0.48857500  1
  Cl  Cl21  1  0.85740885  0.61272795  0.98857500  1
  Cl  Cl22  1  0.61272795  0.85740885  0.98857500  1
  Cl  Cl23  1  0.88727205  0.64259115  0.48857500  1
  Cl  Cl24  1  0.74776671  0.25223329  -0.00000000  1
  Cl  Cl25  1  0.75223329  0.24776671  0.50000000  1
  Cl  Cl26  1  0.25223329  0.74776671  -0.00000000  1
  Cl  Cl27  1  0.24776671  0.75223329  0.50000000  1
  Cl  Cl28  1  0.14923012  0.14923012  0.76137023  1
  Cl  Cl29  1  0.35076988  0.35076988  0.26137023  1
  Cl  Cl30  1  0.64923012  0.64923012  0.73862977  1
  Cl  Cl31  1  0.85076988  0.85076988  0.23862977  1
  Cl  Cl32  1  0.96803026  0.21174854  0.25662870  1
  Cl  Cl33  1  0.53196974  0.28825146  0.75662870  1
  Cl  Cl34  1  0.71174854  0.46803026  0.24337130  1
  Cl  Cl35  1  0.78825146  0.03196974  0.74337130  1
  Cl  Cl36  1  0.03196974  0.78825146  0.74337130  1
  Cl  Cl37  1  0.46803026  0.71174854  0.24337130  1
  Cl  Cl38  1  0.28825146  0.53196974  0.75662870  1
  Cl  Cl39  1  0.21174854  0.96803026  0.25662870  1
  Cl  Cl40  1  0.14259115  0.38727205  0.01142500  1
  Cl  Cl41  1  0.35740885  0.11272795  0.51142500  1
