# generated using pymatgen
data_NbAl3SiS5O24
_symmetry_space_group_name_H-M   'P 1'
_cell_length_a   8.46221819
_cell_length_b   8.47901561
_cell_length_c   21.95030624
_cell_angle_alpha   89.97649586
_cell_angle_beta   90.06285740
_cell_angle_gamma   119.95455390
_symmetry_Int_Tables_number   1
_chemical_formula_structural   NbAl3SiS5O24
_chemical_formula_sum   'Nb3 Al9 Si3 S15 O72'
_cell_volume   1364.58094759
_cell_formula_units_Z   3
loop_
 _symmetry_equiv_pos_site_id
 _symmetry_equiv_pos_as_xyz
  1  'x, y, z'
loop_
 _atom_site_type_symbol
 _atom_site_label
 _atom_site_symmetry_multiplicity
 _atom_site_fract_x
 _atom_site_fract_y
 _atom_site_fract_z
 _atom_site_occupancy
  Nb  Nb0  1  0.67302695  0.33987792  0.97479367  1
  Nb  Nb1  1  0.33281680  0.67286020  0.30651610  1
  Nb  Nb2  1  0.32928775  0.65490703  0.81193100  1
  Al  Al3  1  0.01016644  0.00381422  0.35243445  1
  Al  Al4  1  0.99490332  0.99916271  0.85798577  1
  Al  Al5  1  0.99901765  0.99893321  0.64504435  1
  Al  Al6  1  0.00676248  0.99668850  0.14379807  1
  Al  Al7  1  0.66816263  0.33393689  0.68666252  1
  Al  Al8  1  0.65715289  0.32396781  0.18668314  1
  Al  Al9  1  0.66531170  0.33300543  0.48128162  1
  Al  Al10  1  0.33735673  0.65888409  0.02123533  1
  Al  Al11  1  0.33318147  0.66512281  0.52212172  1
  Si  Si12  1  0.28660558  0.02369840  0.24757831  1
  Si  Si13  1  0.62869555  0.68392335  0.92075665  1
  Si  Si14  1  0.05657835  0.37108361  0.92062657  1
  S  S15  1  0.72619806  0.71474109  0.24869395  1
  S  S16  1  0.98854374  0.27515022  0.24877061  1
  S  S17  1  0.28716478  0.27536536  0.74703387  1
  S  S18  1  0.99195030  0.71413729  0.74719976  1
  S  S19  1  0.72050636  0.00975307  0.74685228  1
  S  S20  1  0.95478158  0.33311271  0.58323479  1
  S  S21  1  0.37831280  0.04486279  0.58334628  1
  S  S22  1  0.66688789  0.62158084  0.58333407  1
  S  S23  1  0.96043453  0.62627793  0.08678053  1
  S  S24  1  0.66670605  0.03753379  0.08604605  1
  S  S25  1  0.37270314  0.33377906  0.08604666  1
  S  S26  1  0.32364077  0.94816788  0.91789816  1
  S  S27  1  0.62856119  0.96012184  0.41926888  1
  S  S28  1  0.33305073  0.37361182  0.41973359  1
  S  S29  1  0.03887253  0.66585033  0.41989428  1
  O  O30  1  0.19667211  0.03416697  0.31046920  1
  O  O31  1  0.82632677  0.79549249  0.30539617  1
  O  O32  1  0.96030606  0.17020234  0.30510640  1
  O  O33  1  0.20806887  0.16881030  0.80240657  1
  O  O34  1  0.96614946  0.79539117  0.80247245  1
  O  O35  1  0.83036677  0.03846452  0.80176635  1
  O  O36  1  0.80140632  0.97376187  0.69272209  1
  O  O37  1  0.17081685  0.19646422  0.69300596  1
  O  O38  1  0.02498150  0.82925352  0.69284140  1
  O  O39  1  0.79448525  0.83127842  0.19496419  1
  O  O40  1  0.02858906  0.20078302  0.19496647  1
  O  O41  1  0.15453110  0.96265728  0.19020864  1
  O  O42  1  0.87221431  0.36809485  0.63749424  1
  O  O43  1  0.49579596  0.12789753  0.63763541  1
  O  O44  1  0.63191484  0.50403460  0.63762273  1
  O  O45  1  0.87059264  0.50534996  0.13937051  1
  O  O46  1  0.63822907  0.12861110  0.13879018  1
  O  O47  1  0.49463993  0.36734057  0.13873475  1
  O  O48  1  0.45249177  0.29664404  0.03128920  1
  O  O49  1  0.84280823  0.54202408  0.03105046  1
  O  O50  1  0.70173079  0.15319286  0.03079939  1
  O  O51  1  0.46144112  0.16177468  0.52894269  1
  O  O52  1  0.70099174  0.53878690  0.52894425  1
  O  O53  1  0.83765186  0.29932098  0.52881620  1
  O  O54  1  0.53250131  0.71020246  0.97786137  1
  O  O55  1  0.17005019  0.47527012  0.97842744  1
  O  O56  1  0.29538301  0.83980813  0.97250848  1
  O  O57  1  0.53979342  0.83915795  0.47209884  1
  O  O58  1  0.30245782  0.46361476  0.47295151  1
  O  O59  1  0.16169947  0.69937036  0.47246616  1
  O  O60  1  0.12096437  0.62983318  0.36445777  1
  O  O61  1  0.51006673  0.87785048  0.36381662  1
  O  O62  1  0.36942473  0.48884872  0.36457722  1
  O  O63  1  0.12848217  0.50353703  0.85781771  1
  O  O64  1  0.36746057  0.87566037  0.86175729  1
  O  O65  1  0.49751110  0.63257730  0.85813583  1
  O  O66  1  0.01914602  0.82586677  0.40989973  1
  O  O67  1  0.80641656  0.97590209  0.40737240  1
  O  O68  1  0.16739900  0.19619229  0.41086587  1
  O  O69  1  0.03606544  0.18397366  0.90277194  1
  O  O70  1  0.16875696  0.97059677  0.90590365  1
  O  O71  1  0.82382605  0.83789028  0.90324499  1
  O  O72  1  0.97474140  0.17153336  0.59296625  1
  O  O73  1  0.19673948  0.02558765  0.59299099  1
  O  O74  1  0.82868114  0.80300393  0.59285113  1
  O  O75  1  0.96805934  0.80196977  0.09223501  1
  O  O76  1  0.83018587  0.02103406  0.09548245  1
  O  O77  1  0.19155838  0.17267644  0.09360338  1
  O  O78  1  0.69839147  0.17065936  0.73769003  1
  O  O79  1  0.47205565  0.30316265  0.73817083  1
  O  O80  1  0.83223247  0.53028608  0.73831813  1
  O  O81  1  0.70137780  0.53327449  0.24004201  1
  O  O82  1  0.83805503  0.31034564  0.24031772  1
  O  O83  1  0.49198500  0.18040662  0.23876106  1
  O  O84  1  0.63285869  0.49223392  0.92609701  1
  O  O85  1  0.85418208  0.35309526  0.92572189  1
  O  O86  1  0.48949980  0.12933887  0.92452197  1
  O  O87  1  0.64376165  0.13930744  0.42855163  1
  O  O88  1  0.49635871  0.35560098  0.42942303  1
  O  O89  1  0.85987729  0.50078302  0.42883072  1
  O  O90  1  0.35842622  0.49821529  0.07853995  1
  O  O91  1  0.14022290  0.64610066  0.07680174  1
  O  O92  1  0.50049186  0.86115133  0.07711421  1
  O  O93  1  0.35966762  0.86336368  0.57302435  1
  O  O94  1  0.50378551  0.64040717  0.57327341  1
  O  O95  1  0.13628801  0.49617764  0.57317805  1
  O  O96  1  0.30787622  0.83352737  0.25999351  1
  O  O97  1  0.53662217  0.69103936  0.25819091  1
  O  O98  1  0.15890025  0.46024436  0.25816368  1
  O  O99  1  0.30555332  0.46050544  0.75237890  1
  O  O100  1  0.15783869  0.69713735  0.75290127  1
  O  O101  1  0.53577797  0.84796761  0.75353099  1
