# generated using pymatgen
data_Ba2YMgBiO6
_symmetry_space_group_name_H-M   'P 1'
_cell_length_a   6.33993301
_cell_length_b   6.33909343
_cell_length_c   7.05925237
_cell_angle_alpha   63.47899969
_cell_angle_beta   63.31715937
_cell_angle_gamma   59.99561647
_symmetry_Int_Tables_number   1
_chemical_formula_structural   Ba2YMgBiO6
_chemical_formula_sum   'Ba2 Y1 Mg1 Bi1 O6'
_cell_volume   210.29600218
_cell_formula_units_Z   1
loop_
 _symmetry_equiv_pos_site_id
 _symmetry_equiv_pos_as_xyz
  1  'x, y, z'
loop_
 _atom_site_type_symbol
 _atom_site_label
 _atom_site_symmetry_multiplicity
 _atom_site_fract_x
 _atom_site_fract_y
 _atom_site_fract_z
 _atom_site_occupancy
  Ba  Ba0  1  0.81500247  0.81106896  0.55892611  1
  Ba  Ba1  1  0.21675488  0.21615445  0.35033579  1
  Y  Y2  1  0.47120377  0.47035461  0.58723785  1
  Mg  Mg3  1  0.62264686  0.61712765  0.13757863  1
  Bi  Bi4  1  0.01366383  0.01296085  0.95971148  1
  O  O5  1  0.73117688  0.72544124  0.28209999  1
  O  O6  1  0.26128189  0.72544124  0.28209999  1
  O  O7  1  0.77742535  0.24754072  0.73344664  1
  O  O8  1  0.24498071  0.78406193  0.72597665  1
  O  O9  1  0.24158729  0.24754072  0.73344664  1
  O  O10  1  0.72927607  0.25689064  0.28455723  1
