# generated using pymatgen
data_NaTiInSi(SO6)2
_symmetry_space_group_name_H-M   'P 1'
_cell_length_a   8.84270768
_cell_length_b   8.87045739
_cell_length_c   23.07613220
_cell_angle_alpha   90.23446478
_cell_angle_beta   90.00000000
_cell_angle_gamma   119.89656954
_symmetry_Int_Tables_number   1
_chemical_formula_structural   NaTiInSi(SO6)2
_chemical_formula_sum   'Na6 Ti6 In6 Si6 S12 O72'
_cell_volume   1569.17647262
_cell_formula_units_Z   6
loop_
 _symmetry_equiv_pos_site_id
 _symmetry_equiv_pos_as_xyz
  1  'x, y, z'
loop_
 _atom_site_type_symbol
 _atom_site_label
 _atom_site_symmetry_multiplicity
 _atom_site_fract_x
 _atom_site_fract_y
 _atom_site_fract_z
 _atom_site_occupancy
  Na  Na0  1  0.00960951  0.00285276  0.50163893  1
  Na  Na1  1  0.99324325  0.00285276  0.00163893  1
  Na  Na2  1  0.67957983  0.33625388  0.83458136  1
  Na  Na3  1  0.65667504  0.33625388  0.33458136  1
  Na  Na4  1  0.33582738  0.67698482  0.16780152  1
  Na  Na5  1  0.34115645  0.67698482  0.66780152  1
  Ti  Ti6  1  0.02706119  0.01686571  0.35404936  1
  Ti  Ti7  1  0.98980452  0.01686571  0.85404936  1
  Ti  Ti8  1  0.65519118  0.30398208  0.68718868  1
  Ti  Ti9  1  0.64879190  0.30398208  0.18718868  1
  Ti  Ti10  1  0.32876191  0.66390074  0.02029180  1
  Ti  Ti11  1  0.33513783  0.66390074  0.52029180  1
  In  In12  1  0.99846188  0.99576936  0.64893421  1
  In  In13  1  0.99730748  0.99576936  0.14893421  1
  In  In14  1  0.67566222  0.32891360  0.98174333  1
  In  In15  1  0.65325238  0.32891360  0.48174333  1
  In  In16  1  0.33722069  0.67035756  0.31512321  1
  In  In17  1  0.33313586  0.67035756  0.81512321  1
  Si  Si18  1  0.28981462  0.99575235  0.24870032  1
  Si  Si19  1  0.70593773  0.99575235  0.74870032  1
  Si  Si20  1  0.36845299  0.03128012  0.58281943  1
  Si  Si21  1  0.66282813  0.03128012  0.08281943  1
  Si  Si22  1  0.04593886  0.38119733  0.91638235  1
  Si  Si23  1  0.33525746  0.38119733  0.41638235  1
  S  S24  1  0.71179693  0.70523985  0.25080833  1
  S  S25  1  0.99563205  0.28967358  0.25039198  1
  S  S26  1  0.29404153  0.28967358  0.75039198  1
  S  S27  1  0.99344292  0.70523985  0.75080833  1
  S  S28  1  0.95810135  0.33807154  0.58291327  1
  S  S29  1  0.66312673  0.62172388  0.58355792  1
  S  S30  1  0.95859815  0.62172388  0.08355792  1
  S  S31  1  0.37997119  0.33807154  0.08291327  1
  S  S32  1  0.62680072  0.66921233  0.91780618  1
  S  S33  1  0.32715165  0.95652644  0.91755278  1
  S  S34  1  0.62937379  0.95652644  0.41755278  1
  S  S35  1  0.04241061  0.66921233  0.41780618  1
  O  O36  1  0.19491671  0.03065069  0.30716433  1
  O  O37  1  0.82031402  0.79424295  0.30269882  1
  O  O38  1  0.96820223  0.17871013  0.30263955  1
  O  O39  1  0.21050790  0.17871013  0.80263955  1
  O  O40  1  0.97392893  0.79424295  0.80269882  1
  O  O41  1  0.83573397  0.03065069  0.80716433  1
  O  O42  1  0.78969702  0.96957743  0.69149381  1
  O  O43  1  0.19212716  0.21599532  0.69738857  1
  O  O44  1  0.02722011  0.80851598  0.69740687  1
  O  O45  1  0.78129587  0.80851598  0.19740687  1
  O  O46  1  0.02386816  0.21599532  0.19738857  1
  O  O47  1  0.17988041  0.96957743  0.19149381  1
  O  O48  1  0.87311893  0.36329382  0.63548683  1
  O  O49  1  0.50121292  0.13551739  0.64082232  1
  O  O50  1  0.63825751  0.51409142  0.63541310  1
  O  O51  1  0.87583491  0.51409142  0.13541310  1
  O  O52  1  0.63430547  0.13551739  0.14082232  1
  O  O53  1  0.49017589  0.36329382  0.13548683  1
  O  O54  1  0.45607878  0.31332248  0.02955732  1
  O  O55  1  0.85554222  0.55230222  0.03018732  1
  O  O56  1  0.69745788  0.14928703  0.02678959  1
  O  O57  1  0.45183014  0.14928703  0.52678959  1
  O  O58  1  0.69676100  0.55230222  0.53018732  1
  O  O59  1  0.85724470  0.31332248  0.52955732  1
  O  O60  1  0.54406269  0.69948276  0.96980049  1
  O  O61  1  0.17391342  0.48022152  0.97374074  1
  O  O62  1  0.30795937  0.84585480  0.96942784  1
  O  O63  1  0.53789444  0.84585480  0.46942784  1
  O  O64  1  0.30630710  0.48022152  0.47374074  1
  O  O65  1  0.15541907  0.69948276  0.46980049  1
  O  O66  1  0.11421497  0.64106070  0.36429482  1
  O  O67  1  0.52349295  0.88861539  0.36471204  1
  O  O68  1  0.35853623  0.48739961  0.35797530  1
  O  O69  1  0.12886238  0.48739961  0.85797530  1
  O  O70  1  0.36512144  0.88861539  0.86471204  1
  O  O71  1  0.52684473  0.64106070  0.86429482  1
  O  O72  1  0.02330595  0.82843247  0.41135863  1
  O  O73  1  0.80038699  0.96368908  0.41169617  1
  O  O74  1  0.15123812  0.18364092  0.40778011  1
  O  O75  1  0.03240279  0.18364092  0.90778011  1
  O  O76  1  0.16330208  0.96368908  0.91169617  1
  O  O77  1  0.80512652  0.82843247  0.91135863  1
  O  O78  1  0.98103223  0.18486318  0.58843720  1
  O  O79  1  0.17718014  0.01016385  0.59032144  1
  O  O80  1  0.81317052  0.80021750  0.58805211  1
  O  O81  1  0.98704698  0.80021750  0.08805211  1
  O  O82  1  0.83298371  0.01016385  0.09032144  1
  O  O83  1  0.20383095  0.18486318  0.08843720  1
  O  O84  1  0.69737555  0.18112586  0.74136772  1
  O  O85  1  0.47192729  0.30643655  0.74443314  1
  O  O86  1  0.83178426  0.53197369  0.74400713  1
  O  O87  1  0.70019043  0.53197369  0.24400713  1
  O  O88  1  0.83451027  0.30643655  0.24443314  1
  O  O89  1  0.48375131  0.18112586  0.24136772  1
  O  O90  1  0.64494157  0.51345233  0.92536304  1
  O  O91  1  0.84992103  0.35127564  0.91883696  1
  O  O92  1  0.47714542  0.13566267  0.92375909  1
  O  O93  1  0.65851825  0.13566267  0.42375909  1
  O  O94  1  0.50135561  0.35127564  0.41883696  1
  O  O95  1  0.86851175  0.51345233  0.42536304  1
  O  O96  1  0.36587861  0.50006828  0.07794959  1
  O  O97  1  0.13598635  0.63538685  0.07656377  1
  O  O98  1  0.48244279  0.84039707  0.07302914  1
  O  O99  1  0.35795329  0.84039707  0.57302914  1
  O  O100  1  0.49939951  0.63538685  0.57656377  1
  O  O101  1  0.13418867  0.50006828  0.57794959  1
  O  O102  1  0.32080354  0.83340886  0.25658304  1
  O  O103  1  0.53342133  0.68162284  0.25513546  1
  O  O104  1  0.14864131  0.46548280  0.25604162  1
  O  O105  1  0.31684049  0.46548280  0.75604162  1
  O  O106  1  0.14820050  0.68162284  0.75513546  1
  O  O107  1  0.51260432  0.83340886  0.75658304  1
