# generated using pymatgen
data_NaCa2Ta2P3(SO8)3
_symmetry_space_group_name_H-M   'P 1'
_cell_length_a   9.00382993
_cell_length_b   8.98476071
_cell_length_c   23.10963416
_cell_angle_alpha   90.11444911
_cell_angle_beta   89.98638885
_cell_angle_gamma   120.03612703
_symmetry_Int_Tables_number   1
_chemical_formula_structural   NaCa2Ta2P3(SO8)3
_chemical_formula_sum   'Na3 Ca6 Ta6 P9 S9 O72'
_cell_volume   1618.44613479
_cell_formula_units_Z   3
loop_
 _symmetry_equiv_pos_site_id
 _symmetry_equiv_pos_as_xyz
  1  'x, y, z'
loop_
 _atom_site_type_symbol
 _atom_site_label
 _atom_site_symmetry_multiplicity
 _atom_site_fract_x
 _atom_site_fract_y
 _atom_site_fract_z
 _atom_site_occupancy
  Na  Na0  1  0.97382856  0.00126213  0.00081464  1
  Na  Na1  1  0.69200209  0.36236580  0.83421698  1
  Na  Na2  1  0.64838551  0.31878306  0.34479494  1
  Ca  Ca3  1  0.99394572  0.99902292  0.86164676  1
  Ca  Ca4  1  0.99456192  0.99705449  0.14505779  1
  Ca  Ca5  1  0.68156149  0.34007393  0.67820104  1
  Ca  Ca6  1  0.67184972  0.33887089  0.97177483  1
  Ca  Ca7  1  0.66895639  0.32456022  0.48806473  1
  Ca  Ca8  1  0.34193821  0.66940546  0.30643679  1
  Ta  Ta9  1  0.99803167  0.99434362  0.35449813  1
  Ta  Ta10  1  0.00067667  0.99743491  0.64930229  1
  Ta  Ta11  1  0.66044674  0.32353566  0.18996898  1
  Ta  Ta12  1  0.33797016  0.66551109  0.02583628  1
  Ta  Ta13  1  0.33422492  0.65829980  0.51180051  1
  Ta  Ta14  1  0.32743465  0.66009497  0.80924174  1
  P  P15  1  0.29021977  0.01463131  0.24942346  1
  P  P16  1  0.72265819  0.69936314  0.24920074  1
  P  P17  1  0.00489558  0.71291284  0.75376168  1
  P  P18  1  0.98320331  0.33624303  0.58383813  1
  P  P19  1  0.65824020  0.04448300  0.08015452  1
  P  P20  1  0.60688296  0.66608701  0.91627891  1
  P  P21  1  0.05823817  0.39156022  0.91767484  1
  P  P22  1  0.63139857  0.95748902  0.41341380  1
  P  P23  1  0.32681259  0.36339821  0.41185452  1
  S  S24  1  0.97973829  0.27833197  0.25095290  1
  S  S25  1  0.28812892  0.29287557  0.75173162  1
  S  S26  1  0.70302565  0.99054006  0.75112036  1
  S  S27  1  0.35218880  0.01539316  0.58380813  1
  S  S28  1  0.66401107  0.64685799  0.58349632  1
  S  S29  1  0.96277938  0.61605407  0.08220672  1
  S  S30  1  0.38634029  0.34495484  0.08261778  1
  S  S31  1  0.33352258  0.93915566  0.91687246  1
  S  S32  1  0.04528323  0.67550426  0.41491564  1
  O  O33  1  0.19795771  0.04514198  0.30373463  1
  O  O34  1  0.84628319  0.79680882  0.30392080  1
  O  O35  1  0.95024205  0.16209654  0.30250297  1
  O  O36  1  0.21228308  0.19801405  0.80371085  1
  O  O37  1  0.98725302  0.79829144  0.80662475  1
  O  O38  1  0.80430249  0.02029226  0.80262549  1
  O  O39  1  0.79622588  0.97053463  0.69916533  1
  O  O40  1  0.17478084  0.20265700  0.69986628  1
  O  O41  1  0.02474670  0.83196434  0.69897813  1
  O  O42  1  0.79720949  0.80168766  0.19574558  1
  O  O43  1  0.00587091  0.20981330  0.19803537  1
  O  O44  1  0.20169986  0.00642699  0.19436377  1
  O  O45  1  0.92200072  0.38903154  0.63661672  1
  O  O46  1  0.45978939  0.08209684  0.63506640  1
  O  O47  1  0.61985313  0.53793520  0.63421987  1
  O  O48  1  0.87675731  0.50810563  0.13459018  1
  O  O49  1  0.63747673  0.13969585  0.13641843  1
  O  O50  1  0.49515124  0.36784397  0.13563859  1
  O  O51  1  0.46430472  0.32647153  0.03098853  1
  O  O52  1  0.86272202  0.54145753  0.03038988  1
  O  O53  1  0.67409030  0.14718214  0.02761943  1
  O  O54  1  0.41312961  0.12948191  0.53443474  1
  O  O55  1  0.71388077  0.58549215  0.53350009  1
  O  O56  1  0.86440951  0.27677395  0.53268219  1
  O  O57  1  0.50158747  0.66267953  0.97249580  1
  O  O58  1  0.15848899  0.50036985  0.97233773  1
  O  O59  1  0.33476846  0.84434084  0.97007402  1
  O  O60  1  0.52969141  0.83527661  0.46839334  1
  O  O61  1  0.30776893  0.46862010  0.46729270  1
  O  O62  1  0.15944826  0.69669039  0.46761984  1
  O  O63  1  0.11667481  0.64603159  0.36360252  1
  O  O64  1  0.52301813  0.87980766  0.36140109  1
  O  O65  1  0.34606769  0.46804188  0.36008816  1
  O  O66  1  0.16348063  0.49328328  0.86048977  1
  O  O67  1  0.33142290  0.84276659  0.86256641  1
  O  O68  1  0.50781419  0.67522761  0.86068860  1
  O  O69  1  0.04719886  0.84530892  0.41052745  1
  O  O70  1  0.80640639  0.95458683  0.40526958  1
  O  O71  1  0.15076693  0.18697554  0.40596249  1
  O  O72  1  0.05767358  0.22379175  0.92201509  1
  O  O73  1  0.17698843  0.94841809  0.91972835  1
  O  O74  1  0.77765903  0.82974947  0.92248349  1
  O  O75  1  0.01266245  0.18076679  0.60341685  1
  O  O76  1  0.17431544  0.99037708  0.59930588  1
  O  O77  1  0.81436434  0.82569214  0.59900034  1
  O  O78  1  0.00338008  0.79406549  0.08772613  1
  O  O79  1  0.80226807  0.00583074  0.08609331  1
  O  O80  1  0.21033844  0.20615837  0.08869793  1
  O  O81  1  0.66626315  0.12904889  0.74109034  1
  O  O82  1  0.46118658  0.32511647  0.74141054  1
  O  O83  1  0.85874570  0.53169595  0.74440678  1
  O  O84  1  0.72525418  0.52173947  0.23959277  1
  O  O85  1  0.80835050  0.27850516  0.24485045  1
  O  O86  1  0.47758188  0.19293253  0.24249539  1
  O  O87  1  0.60732799  0.49893034  0.91051340  1
  O  O88  1  0.88808894  0.38442750  0.91035727  1
  O  O89  1  0.49047872  0.10454676  0.91302143  1
  O  O90  1  0.67300476  0.13974180  0.42514339  1
  O  O91  1  0.47171625  0.33043766  0.42554736  1
  O  O92  1  0.87114552  0.53883486  0.42666419  1
  O  O93  1  0.37854271  0.51198438  0.07871322  1
  O  O94  1  0.13482559  0.62071606  0.07662792  1
  O  O95  1  0.48354158  0.86230278  0.07426293  1
  O  O96  1  0.32036515  0.83977169  0.56910765  1
  O  O97  1  0.51835979  0.67788507  0.56971169  1
  O  O98  1  0.16612951  0.48875234  0.56549934  1
  O  O99  1  0.33036296  0.87660371  0.26099972  1
  O  O100  1  0.54145861  0.64731919  0.26155402  1
  O  O101  1  0.11054030  0.45222865  0.26163764  1
  O  O102  1  0.29607003  0.46720981  0.75508605  1
  O  O103  1  0.17947260  0.70640896  0.75926014  1
  O  O104  1  0.53446451  0.82291728  0.75541754  1
