# generated using pymatgen
data_K3Mn2Cl7
_symmetry_space_group_name_H-M   'P 1'
_cell_length_a   5.00990705
_cell_length_b   5.00990594
_cell_length_c   13.23558888
_cell_angle_alpha   100.91109577
_cell_angle_beta   100.91109205
_cell_angle_gamma   90.00059489
_symmetry_Int_Tables_number   1
_chemical_formula_structural   K3Mn2Cl7
_chemical_formula_sum   'K3 Mn2 Cl7'
_cell_volume   320.07836643
_cell_formula_units_Z   1
loop_
 _symmetry_equiv_pos_site_id
 _symmetry_equiv_pos_as_xyz
  1  'x, y, z'
loop_
 _atom_site_type_symbol
 _atom_site_label
 _atom_site_symmetry_multiplicity
 _atom_site_fract_x
 _atom_site_fract_y
 _atom_site_fract_z
 _atom_site_occupancy
  K  K0  1  0.00000000  0.00000003  0.00000000  1
  K  K1  1  0.18133979  0.18133986  0.36261741  1
  K  K2  1  0.81866019  0.81865901  0.63738258  1
  Mn  Mn3  1  0.39976143  0.39976120  0.79955305  1
  Mn  Mn4  1  0.60023858  0.60023953  0.20044696  1
  Cl  Cl5  1  0.90322751  0.40322656  0.80644215  1
  Cl  Cl6  1  0.40322652  0.90322749  0.80644215  1
  Cl  Cl7  1  0.09677247  0.59677347  0.19355786  1
  Cl  Cl8  1  0.59677348  0.09677274  0.19355784  1
  Cl  Cl9  1  0.69729035  0.69729036  0.39464162  1
  Cl  Cl10  1  0.50000000  0.50000004  -0.00000000  1
  Cl  Cl11  1  0.30270968  0.30270970  0.60535839  1
