# generated using pymatgen
data_Na4CaSi2GeSO12
_symmetry_space_group_name_H-M   'P 1'
_cell_length_a   9.59277924
_cell_length_b   9.28473450
_cell_length_c   22.16220821
_cell_angle_alpha   95.17445849
_cell_angle_beta   90.00000000
_cell_angle_gamma   121.10371015
_symmetry_Int_Tables_number   1
_chemical_formula_structural   Na4CaSi2GeSO12
_chemical_formula_sum   'Na24 Ca6 Si12 Ge6 S6 O72'
_cell_volume   1680.72471905
_cell_formula_units_Z   6
loop_
 _symmetry_equiv_pos_site_id
 _symmetry_equiv_pos_as_xyz
  1  'x, y, z'
loop_
 _atom_site_type_symbol
 _atom_site_label
 _atom_site_symmetry_multiplicity
 _atom_site_fract_x
 _atom_site_fract_y
 _atom_site_fract_z
 _atom_site_occupancy
  Na  Na0  1  0.66296652  0.02007939  0.25209628  1
  Na  Na1  1  0.36951009  0.36740169  0.24832309  1
  Na  Na2  1  0.98605000  0.63397748  0.23887335  1
  Na  Na3  1  0.64792748  0.63397748  0.73887335  1
  Na  Na4  1  0.99789160  0.36740169  0.74832309  1
  Na  Na5  1  0.35711287  0.02007939  0.75209628  1
  Na  Na6  1  0.32963352  0.35341239  0.58542928  1
  Na  Na7  1  0.03617709  0.70073469  0.58165609  1
  Na  Na8  1  0.65271700  0.96731048  0.57220635  1
  Na  Na9  1  0.31459448  0.96731048  0.07220635  1
  Na  Na10  1  0.66455860  0.70073469  0.08165609  1
  Na  Na11  1  0.02377987  0.35341239  0.08542928  1
  Na  Na12  1  0.99629952  0.68674639  0.91876328  1
  Na  Na13  1  0.70284309  0.03406869  0.91499009  1
  Na  Na14  1  0.31938300  0.30064448  0.90554035  1
  Na  Na15  1  0.98126048  0.30064448  0.40554035  1
  Na  Na16  1  0.33122460  0.03406869  0.41499009  1
  Na  Na17  1  0.69044587  0.68674639  0.41876328  1
  Na  Na18  1  0.99310755  0.98746901  0.49926265  1
  Na  Na19  1  0.99436145  0.98746901  0.99926265  1
  Na  Na20  1  0.65977455  0.32080201  0.83259565  1
  Na  Na21  1  0.66102845  0.32080201  0.33259565  1
  Na  Na22  1  0.32644055  0.65413601  0.16592965  1
  Na  Na23  1  0.32769445  0.65413601  0.66592965  1
  Ca  Ca24  1  -0.00067153  0.99651815  0.34952758  1
  Ca  Ca25  1  0.99718968  0.99651815  0.84952758  1
  Ca  Ca26  1  0.66599547  0.32985115  0.68286058  1
  Ca  Ca27  1  0.66385668  0.32985115  0.18286058  1
  Ca  Ca28  1  0.33266147  0.66318515  0.01619458  1
  Ca  Ca29  1  0.33052268  0.66318515  0.51619458  1
  Si  Si30  1  0.30507775  0.99579592  0.25357458  1
  Si  Si31  1  0.02194596  0.30500202  0.25325863  1
  Si  Si32  1  0.28305606  0.30500202  0.75325863  1
  Si  Si33  1  0.69071817  0.99579592  0.75357458  1
  Si  Si34  1  0.97174475  0.32912892  0.58690758  1
  Si  Si35  1  0.68861296  0.63833502  0.58659163  1
  Si  Si36  1  0.94972306  0.63833502  0.08659163  1
  Si  Si37  1  0.35738517  0.32912892  0.08690758  1
  Si  Si38  1  0.63841075  0.66246292  0.92024158  1
  Si  Si39  1  0.35527896  0.97166902  0.91992563  1
  Si  Si40  1  0.61638906  0.97166902  0.41992563  1
  Si  Si41  1  0.02405117  0.66246292  0.42024158  1
  Ge  Ge42  1  0.95570338  0.02697422  0.64706592  1
  Ge  Ge43  1  0.07127084  0.02697422  0.14706592  1
  Ge  Ge44  1  0.62237038  0.36030722  0.98039892  1
  Ge  Ge45  1  0.73793784  0.36030722  0.48039892  1
  Ge  Ge46  1  0.28903638  0.69364122  0.31373292  1
  Ge  Ge47  1  0.40460384  0.69364122  0.81373292  1
  S  S48  1  0.68280839  0.70210649  0.24936261  1
  S  S49  1  0.01929810  0.70210649  0.74936261  1
  S  S50  1  0.34947539  0.03543949  0.58269561  1
  S  S51  1  0.68596510  0.03543949  0.08269561  1
  S  S52  1  0.01614139  0.36877349  0.91602961  1
  S  S53  1  0.35263110  0.36877349  0.41602961  1
  O  O54  1  0.22002754  0.01231423  0.31297869  1
  O  O55  1  0.75840719  0.79015377  0.30945568  1
  O  O56  1  0.98662037  0.19805259  0.30929561  1
  O  O57  1  0.21143222  0.19805259  0.80929561  1
  O  O58  1  0.03174658  0.79015377  0.80945568  1
  O  O59  1  0.79228669  0.01231423  0.81297869  1
  O  O60  1  0.78069448  0.97610256  0.68963272  1
  O  O61  1  0.13844521  0.19648014  0.69044883  1
  O  O62  1  0.01035587  0.79360330  0.69964469  1
  O  O63  1  0.78324742  0.79360330  0.19964469  1
  O  O64  1  0.05803493  0.19648014  0.19044883  1
  O  O65  1  0.19540808  0.97610256  0.18963272  1
  O  O66  1  0.88669454  0.34564723  0.64631169  1
  O  O67  1  0.42507419  0.12348677  0.64278868  1
  O  O68  1  0.65328737  0.53138559  0.64262861  1
  O  O69  1  0.87809922  0.53138559  0.14262861  1
  O  O70  1  0.69841358  0.12348677  0.14278868  1
  O  O71  1  0.45895369  0.34564723  0.14631169  1
  O  O72  1  0.44736148  0.30943556  0.02296572  1
  O  O73  1  0.80511221  0.52981314  0.02378183  1
  O  O74  1  0.67702287  0.12693630  0.03297769  1
  O  O75  1  0.44991442  0.12693630  0.53297769  1
  O  O76  1  0.72470193  0.52981314  0.52378183  1
  O  O77  1  0.86207508  0.30943556  0.52296572  1
  O  O78  1  0.55336054  0.67898123  0.97964569  1
  O  O79  1  0.09174019  0.45682077  0.97612268  1
  O  O80  1  0.31995337  0.86471959  0.97596261  1
  O  O81  1  0.54476522  0.86471959  0.47596261  1
  O  O82  1  0.36507958  0.45682077  0.47612268  1
  O  O83  1  0.12561969  0.67898123  0.47964569  1
  O  O84  1  0.11402748  0.64276956  0.35629972  1
  O  O85  1  0.47177821  0.86314714  0.35711583  1
  O  O86  1  0.34368887  0.46027030  0.36631169  1
  O  O87  1  0.11658042  0.46027030  0.86631169  1
  O  O88  1  0.39136793  0.86314714  0.85711583  1
  O  O89  1  0.52874108  0.64276956  0.85629972  1
  O  O90  1  0.97957987  0.80670780  0.41699592  1
  O  O91  1  0.79730553  0.00953408  0.40875096  1
  O  O92  1  0.20258326  0.19773738  0.41727366  1
  O  O93  1  0.99515412  0.19773738  0.91727366  1
  O  O94  1  0.21222855  0.00953408  0.90875096  1
  O  O95  1  0.82712793  0.80670780  0.91699592  1
  O  O96  1  0.95322611  0.13549632  0.58278603  1
  O  O97  1  0.18761300  0.02129170  0.57543519  1
  O  O98  1  0.87334155  0.82720177  0.59595735  1
  O  O99  1  0.95386022  0.82720177  0.09595735  1
  O  O100  1  0.83367870  0.02129170  0.07543519  1
  O  O101  1  0.18227020  0.13549632  0.08278603  1
  O  O102  1  0.64624687  0.14004080  0.75032892  1
  O  O103  1  0.46397253  0.34286708  0.74208396  1
  O  O104  1  0.86925026  0.53107038  0.75060666  1
  O  O105  1  0.66182112  0.53107038  0.25060666  1
  O  O106  1  0.87889555  0.34286708  0.24208396  1
  O  O107  1  0.49379493  0.14004080  0.25032892  1
  O  O108  1  0.61989311  0.46882932  0.91611903  1
  O  O109  1  0.85428000  0.35462470  0.90876819  1
  O  O110  1  0.54000855  0.16053477  0.92929035  1
  O  O111  1  0.62052722  0.16053477  0.42929035  1
  O  O112  1  0.50034570  0.35462470  0.40876819  1
  O  O113  1  0.84893720  0.46882932  0.41611903  1
  O  O114  1  0.31291287  0.47337480  0.08366292  1
  O  O115  1  0.13063853  0.67620108  0.07541796  1
  O  O116  1  0.53591626  0.86440438  0.08394066  1
  O  O117  1  0.32848712  0.86440438  0.58394066  1
  O  O118  1  0.54556155  0.67620108  0.57541796  1
  O  O119  1  0.16046093  0.47337480  0.58366292  1
  O  O120  1  0.28655911  0.80216332  0.24945303  1
  O  O121  1  0.52094600  0.68795870  0.24210219  1
  O  O122  1  0.20667455  0.49386877  0.26262435  1
  O  O123  1  0.28719322  0.49386877  0.76262435  1
  O  O124  1  0.16701170  0.68795870  0.74210219  1
  O  O125  1  0.51560320  0.80216332  0.74945303  1
