# generated using pymatgen
data_Na2TaGaSi(PO6)2
_symmetry_space_group_name_H-M   'P 1'
_cell_length_a   8.78017912
_cell_length_b   8.78017882
_cell_length_c   22.40470457
_cell_angle_alpha   89.58001487
_cell_angle_beta   90.41998513
_cell_angle_gamma   119.70381892
_symmetry_Int_Tables_number   1
_chemical_formula_structural   Na2TaGaSi(PO6)2
_chemical_formula_sum   'Na12 Ta6 Ga6 Si6 P12 O72'
_cell_volume   1500.20090856
_cell_formula_units_Z   6
loop_
 _symmetry_equiv_pos_site_id
 _symmetry_equiv_pos_as_xyz
  1  'x, y, z'
loop_
 _atom_site_type_symbol
 _atom_site_label
 _atom_site_symmetry_multiplicity
 _atom_site_fract_x
 _atom_site_fract_y
 _atom_site_fract_z
 _atom_site_occupancy
  Na  Na0  1  0.99217905  0.62909780  0.24795679  1
  Na  Na1  1  0.37090220  0.00782095  0.74795679  1
  Na  Na2  1  0.65864215  0.96497909  0.58301401  1
  Na  Na3  1  0.03502091  0.34135785  0.08301401  1
  Na  Na4  1  0.97428049  0.67464904  0.91649266  1
  Na  Na5  1  0.32535096  0.02571951  0.41649266  1
  Na  Na6  1  0.00072166  0.99785161  0.49576940  1
  Na  Na7  1  0.00214839  0.99927834  0.99576940  1
  Na  Na8  1  0.66771966  0.33047774  0.82915130  1
  Na  Na9  1  0.66952226  0.33228034  0.32915130  1
  Na  Na10  1  0.34253837  0.67246656  0.16235020  1
  Na  Na11  1  0.32753344  0.65746163  0.66235020  1
  Ta  Ta12  1  0.00288278  0.00015513  0.64612277  1
  Ta  Ta13  1  0.99984487  0.99711722  0.14612277  1
  Ta  Ta14  1  0.66157270  0.33036679  0.97925516  1
  Ta  Ta15  1  0.66963321  0.33842730  0.47925516  1
  Ta  Ta16  1  0.32942005  0.66025217  0.31244208  1
  Ta  Ta17  1  0.33974783  0.67057995  0.81244208  1
  Ga  Ga18  1  0.99148309  0.99760587  0.35219977  1
  Ga  Ga19  1  0.00239413  0.00851691  0.85219977  1
  Ga  Ga20  1  0.66930498  0.32912936  0.68484957  1
  Ga  Ga21  1  0.67087064  0.33069502  0.18484957  1
  Ga  Ga22  1  0.33160809  0.67504692  0.01862651  1
  Ga  Ga23  1  0.32495308  0.66839191  0.51862651  1
  Si  Si24  1  0.99123301  0.28119424  0.25143117  1
  Si  Si25  1  0.71880576  0.00876699  0.75143117  1
  Si  Si26  1  0.37670609  0.03961085  0.58401879  1
  Si  Si27  1  0.96038915  0.62329391  0.08401879  1
  Si  Si28  1  0.32804828  0.95745337  0.91694856  1
  Si  Si29  1  0.04254663  0.67195172  0.41694856  1
  P  P30  1  0.29652137  0.01002214  0.25194128  1
  P  P31  1  0.71037293  0.70927975  0.25111664  1
  P  P32  1  0.29072025  0.28962707  0.75111664  1
  P  P33  1  0.98997786  0.70347863  0.75194128  1
  P  P34  1  0.96147853  0.34215954  0.58487020  1
  P  P35  1  0.66108308  0.61727822  0.58511039  1
  P  P36  1  0.65784046  0.03852147  0.08487020  1
  P  P37  1  0.38272178  0.33891692  0.08511039  1
  P  P38  1  0.62232413  0.67196770  0.91915652  1
  P  P39  1  0.04816765  0.37375935  0.91837577  1
  P  P40  1  0.62624065  0.95183235  0.41837577  1
  P  P41  1  0.32803230  0.37767587  0.41915652  1
  O  O42  1  0.21266762  0.03053556  0.30789881  1
  O  O43  1  0.82968230  0.78945791  0.30524049  1
  O  O44  1  0.96889121  0.16531190  0.30897933  1
  O  O45  1  0.21054209  0.17031770  0.80524049  1
  O  O46  1  0.96946444  0.78733238  0.80789881  1
  O  O47  1  0.83468810  0.03110879  0.80897933  1
  O  O48  1  0.79982951  0.96928630  0.69039149  1
  O  O49  1  0.17058703  0.20060965  0.69468274  1
  O  O50  1  0.03415361  0.83109485  0.69628401  1
  O  O51  1  0.79939035  0.82941297  0.19468274  1
  O  O52  1  0.03071370  0.20017049  0.19039149  1
  O  O53  1  0.16890515  0.96584639  0.19628401  1
  O  O54  1  0.87631287  0.36749551  0.63956652  1
  O  O55  1  0.49756898  0.12670249  0.64249417  1
  O  O56  1  0.63778908  0.50643289  0.64031952  1
  O  O57  1  0.87329751  0.50243102  0.14249417  1
  O  O58  1  0.63250449  0.12368713  0.13956652  1
  O  O59  1  0.49356711  0.36221092  0.14031952  1
  O  O60  1  0.46503049  0.30191009  0.02854567  1
  O  O61  1  0.83514749  0.53259433  0.02412312  1
  O  O62  1  0.69857606  0.16297631  0.02884028  1
  O  O63  1  0.46740567  0.16485251  0.52412312  1
  O  O64  1  0.69808991  0.53496951  0.52854567  1
  O  O65  1  0.83702369  0.30142394  0.52884028  1
  O  O66  1  0.53449498  0.69435838  0.97372229  1
  O  O67  1  0.15409442  0.45471343  0.97506304  1
  O  O68  1  0.29019030  0.83017845  0.97313035  1
  O  O69  1  0.54528657  0.84590558  0.47506304  1
  O  O70  1  0.30564162  0.46550502  0.47372229  1
  O  O71  1  0.16982155  0.70980970  0.47313035  1
  O  O72  1  0.13390460  0.63675479  0.35713291  1
  O  O73  1  0.50280720  0.86837286  0.36285856  1
  O  O74  1  0.36507641  0.49610313  0.36196788  1
  O  O75  1  0.13162714  0.49719280  0.86285856  1
  O  O76  1  0.36324521  0.86609540  0.85713291  1
  O  O77  1  0.50389687  0.63492359  0.86196788  1
  O  O78  1  0.02749507  0.84707042  0.40742474  1
  O  O79  1  0.80953101  0.97756132  0.41068117  1
  O  O80  1  0.17494934  0.19283007  0.41097008  1
  O  O81  1  0.02243868  0.19046899  0.91068117  1
  O  O82  1  0.15292958  0.97250493  0.90742474  1
  O  O83  1  0.80716993  0.82505066  0.91097008  1
  O  O84  1  0.96787011  0.16529922  0.58992386  1
  O  O85  1  0.18210230  0.02344330  0.59022552  1
  O  O86  1  0.82983689  0.80574638  0.59029047  1
  O  O87  1  0.97655670  0.81789770  0.09022552  1
  O  O88  1  0.83470078  0.03212989  0.08992386  1
  O  O89  1  0.19425362  0.17016311  0.09029047  1
  O  O90  1  0.68055589  0.17067160  0.74441626  1
  O  O91  1  0.47256964  0.31034196  0.74240008  1
  O  O92  1  0.83170075  0.52343772  0.74158449  1
  O  O93  1  0.68965804  0.52743036  0.24240008  1
  O  O94  1  0.82932840  0.31944411  0.24441626  1
  O  O95  1  0.47656228  0.16829925  0.24158449  1
  O  O96  1  0.64128595  0.50180688  0.92341750  1
  O  O97  1  0.86312403  0.36467235  0.92358753  1
  O  O98  1  0.50681521  0.14982469  0.92338760  1
  O  O99  1  0.63532765  0.13687597  0.42358753  1
  O  O100  1  0.49819312  0.35871405  0.42341750  1
  O  O101  1  0.85017531  0.49318479  0.42338760  1
  O  O102  1  0.35374981  0.49441806  0.07586016  1
  O  O103  1  0.15012352  0.63623977  0.07699134  1
  O  O104  1  0.50442669  0.85561173  0.07611836  1
  O  O105  1  0.36376023  0.84987648  0.57699134  1
  O  O106  1  0.50558194  0.64625019  0.57586016  1
  O  O107  1  0.14438827  0.49557331  0.57611836  1
  O  O108  1  0.30766746  0.83574260  0.25655120  1
  O  O109  1  0.52944683  0.69830210  0.25686711  1
  O  O110  1  0.17197391  0.48230451  0.25686182  1
  O  O111  1  0.30169790  0.47055317  0.75686711  1
  O  O112  1  0.16425740  0.69233254  0.75655120  1
  O  O113  1  0.51769549  0.82802609  0.75686182  1
