# generated using pymatgen
data_YNbSi(SO6)2
_symmetry_space_group_name_H-M   'P 1'
_cell_length_a   9.14919732
_cell_length_b   9.15385756
_cell_length_c   23.24752585
_cell_angle_alpha   90.22959928
_cell_angle_beta   90.00000000
_cell_angle_gamma   119.98316051
_symmetry_Int_Tables_number   1
_chemical_formula_structural   YNbSi(SO6)2
_chemical_formula_sum   'Y6 Nb6 Si6 S12 O72'
_cell_volume   1686.41142584
_cell_formula_units_Z   6
loop_
 _symmetry_equiv_pos_site_id
 _symmetry_equiv_pos_as_xyz
  1  'x, y, z'
loop_
 _atom_site_type_symbol
 _atom_site_label
 _atom_site_symmetry_multiplicity
 _atom_site_fract_x
 _atom_site_fract_y
 _atom_site_fract_z
 _atom_site_occupancy
  Y  Y0  1  0.99596942  0.00746487  0.36072057  1
  Y  Y1  1  0.01149546  0.00746487  0.86072057  1
  Y  Y2  1  0.66841847  0.33490948  0.69378131  1
  Y  Y3  1  0.66649201  0.33490948  0.19378131  1
  Y  Y4  1  0.32842741  0.66800491  0.02732509  1
  Y  Y5  1  0.33957650  0.66800491  0.52732509  1
  Nb  Nb6  1  0.00822302  0.01816555  0.64331662  1
  Nb  Nb7  1  0.00994253  0.01816555  0.14331662  1
  Nb  Nb8  1  0.65198099  0.32918881  0.97647951  1
  Nb  Nb9  1  0.67720882  0.32918881  0.47647951  1
  Nb  Nb10  1  0.33992456  0.67254904  0.31015559  1
  Nb  Nb11  1  0.33262348  0.67254904  0.81015559  1
  Si  Si12  1  0.01555531  0.29690589  0.25136100  1
  Si  Si13  1  0.28135058  0.29690589  0.75136100  1
  Si  Si14  1  0.94777508  0.32471838  0.58424475  1
  Si  Si15  1  0.37694430  0.32471838  0.08424475  1
  Si  Si16  1  0.34509956  0.95576508  0.91760582  1
  Si  Si17  1  0.61066452  0.95576508  0.41760582  1
  S  S18  1  0.27569950  0.98037313  0.24980598  1
  S  S19  1  0.70759984  0.72243830  0.25034913  1
  S  S20  1  0.01483845  0.72243830  0.75034913  1
  S  S21  1  0.70467363  0.98037313  0.74980598  1
  S  S22  1  0.37212780  0.05690253  0.58243499  1
  S  S23  1  0.68721981  0.62831313  0.58393933  1
  S  S24  1  0.94109432  0.62831313  0.08393933  1
  S  S25  1  0.68477573  0.05690253  0.08243499  1
  S  S26  1  0.60900338  0.65113112  0.91592192  1
  S  S27  1  0.03797095  0.39343283  0.91585943  1
  S  S28  1  0.35546088  0.39343283  0.41585943  1
  S  S29  1  0.04212674  0.65113112  0.41592192  1
  O  O30  1  0.20412287  0.00679477  0.30175515  1
  O  O31  1  0.80848992  0.79319513  0.30210882  1
  O  O32  1  0.99353121  0.17858833  0.30350658  1
  O  O33  1  0.18505712  0.17858833  0.80350658  1
  O  O34  1  0.98470521  0.79319513  0.80210882  1
  O  O35  1  0.80267190  0.00679477  0.80175515  1
  O  O36  1  0.78625722  0.95154163  0.69801304  1
  O  O37  1  0.15089023  0.19077109  0.69274351  1
  O  O38  1  0.04365174  0.82794870  0.69863727  1
  O  O39  1  0.78429696  0.82794870  0.19863727  1
  O  O40  1  0.03988087  0.19077109  0.19274351  1
  O  O41  1  0.16528442  0.95154163  0.19801304  1
  O  O42  1  0.85681519  0.34107952  0.63909986  1
  O  O43  1  0.47198699  0.12957335  0.63415226  1
  O  O44  1  0.65423126  0.52286086  0.63457683  1
  O  O45  1  0.86863060  0.52286086  0.13457683  1
  O  O46  1  0.65758736  0.12957335  0.13415226  1
  O  O47  1  0.48426532  0.34107952  0.13909986  1
  O  O48  1  0.47984353  0.29822011  0.02637578  1
  O  O49  1  0.83583925  0.54560836  0.03126768  1
  O  O50  1  0.71593151  0.16681680  0.03094567  1
  O  O51  1  0.45088629  0.16681680  0.53094567  1
  O  O52  1  0.70977011  0.54560836  0.53126768  1
  O  O53  1  0.81837757  0.29822011  0.52637578  1
  O  O54  1  0.53602600  0.67588714  0.96780245  1
  O  O55  1  0.14569917  0.46221542  0.96640533  1
  O  O56  1  0.33153220  0.85294354  0.97331295  1
  O  O57  1  0.52141034  0.85294354  0.47331295  1
  O  O58  1  0.31651526  0.46221542  0.46640533  1
  O  O59  1  0.13986015  0.67588714  0.46780245  1
  O  O60  1  0.12094113  0.61845301  0.36414019  1
  O  O61  1  0.48398407  0.85670335  0.36056280  1
  O  O62  1  0.37772696  0.50196158  0.36385327  1
  O  O63  1  0.12423362  0.50196158  0.86385327  1
  O  O64  1  0.37271827  0.85670335  0.86056280  1
  O  O65  1  0.49751088  0.61845301  0.86414019  1
  O  O66  1  0.01437592  0.79204912  0.40572138  1
  O  O67  1  0.79797085  0.99504393  0.40845074  1
  O  O68  1  0.22105137  0.21966452  0.40581673  1
  O  O69  1  -0.00138685  0.21966452  0.90581673  1
  O  O70  1  0.19707308  0.99504393  0.90845074  1
  O  O71  1  0.77767320  0.79204912  0.90572138  1
  O  O72  1  0.95148919  0.14029990  0.59414003  1
  O  O73  1  0.19844667  0.04160826  0.59069555  1
  O  O74  1  0.84570908  0.79477970  0.59397069  1
  O  O75  1  0.94907062  0.79477970  0.09397069  1
  O  O76  1  0.84316159  0.04160826  0.09069555  1
  O  O77  1  0.18881071  0.14029990  0.09414003  1
  O  O78  1  0.67065459  0.11785203  0.74048286  1
  O  O79  1  0.46453894  0.33148181  0.73757686  1
  O  O80  1  0.87832516  0.54944530  0.74234589  1
  O  O81  1  0.67112114  0.54944530  0.24234589  1
  O  O82  1  0.86694387  0.33148181  0.23757686  1
  O  O83  1  0.44719844  0.11785203  0.24048286  1
  O  O84  1  0.62631899  0.49393722  0.92363739  1
  O  O85  1  0.87468457  0.39197779  0.92542467  1
  O  O86  1  0.52647883  0.14750322  0.92842611  1
  O  O87  1  0.62102539  0.14750322  0.42842611  1
  O  O88  1  0.51729422  0.39197779  0.42542467  1
  O  O89  1  0.86761922  0.49393722  0.42363739  1
  O  O90  1  0.33303406  0.46636028  0.07052618  1
  O  O91  1  0.11309600  0.65981617  0.07557107  1
  O  O92  1  0.54634850  0.88553406  0.07369061  1
  O  O93  1  0.33918456  0.88553406  0.57369061  1
  O  O94  1  0.54671917  0.65981617  0.57557107  1
  O  O95  1  0.13332521  0.46636028  0.57052618  1
  O  O96  1  0.28478676  0.81851806  0.25744144  1
  O  O97  1  0.53564461  0.71063742  0.25948822  1
  O  O98  1  0.19231260  0.48206545  0.26403313  1
  O  O99  1  0.28975185  0.48206545  0.76403313  1
  O  O100  1  0.17499181  0.71063742  0.75948822  1
  O  O101  1  0.53373029  0.81851806  0.75744144  1
