# generated using pymatgen
data_Na2MgMn2O4
_symmetry_space_group_name_H-M   'P 1'
_cell_length_a   3.17108712
_cell_length_b   5.56056959
_cell_length_c   6.36001732
_cell_angle_alpha   89.91775463
_cell_angle_beta   90.00000000
_cell_angle_gamma   90.00000000
_symmetry_Int_Tables_number   1
_chemical_formula_structural   Na2MgMn2O4
_chemical_formula_sum   'Na2 Mg1 Mn2 O4'
_cell_volume   112.14639163
_cell_formula_units_Z   1
loop_
 _symmetry_equiv_pos_site_id
 _symmetry_equiv_pos_as_xyz
  1  'x, y, z'
loop_
 _atom_site_type_symbol
 _atom_site_label
 _atom_site_symmetry_multiplicity
 _atom_site_fract_x
 _atom_site_fract_y
 _atom_site_fract_z
 _atom_site_occupancy
  Na  Na0  1  0.25000100  0.19369634  0.15473679  1
  Na  Na1  1  0.74999900  0.91357789  0.90385355  1
  Mg  Mg2  1  0.25000000  0.53605233  0.86397399  1
  Mn  Mn3  1  0.25000100  0.16103198  0.58078324  1
  Mn  Mn4  1  0.74999900  0.66769177  0.37174932  1
  O  O5  1  0.74999900  0.27898553  0.39614454  1
  O  O6  1  0.25000100  0.78230671  0.62864458  1
  O  O7  1  0.74999900  0.31314878  0.85450954  1
  O  O8  1  0.25000100  0.73683367  0.13102244  1
