# generated using pymatgen
data_MgV4O5F7
_symmetry_space_group_name_H-M   'P 1'
_cell_length_a   5.15613143
_cell_length_b   5.56592874
_cell_length_c   8.97323018
_cell_angle_alpha   71.18435003
_cell_angle_beta   89.97739471
_cell_angle_gamma   61.27864386
_symmetry_Int_Tables_number   1
_chemical_formula_structural   MgV4O5F7
_chemical_formula_sum   'Mg1 V4 O5 F7'
_cell_volume   210.02803229
_cell_formula_units_Z   1
loop_
 _symmetry_equiv_pos_site_id
 _symmetry_equiv_pos_as_xyz
  1  'x, y, z'
loop_
 _atom_site_type_symbol
 _atom_site_label
 _atom_site_symmetry_multiplicity
 _atom_site_fract_x
 _atom_site_fract_y
 _atom_site_fract_z
 _atom_site_occupancy
  Mg  Mg0  1  0.45345700  0.09533500  0.15194600  1
  V  V1  1  0.73579400  0.46430700  0.26653000  1
  V  V2  1  0.47597700  0.01771500  0.50932800  1
  V  V3  1  0.28234000  0.50722600  0.75335700  1
  V  V4  1  0.01697500  0.99938100  0.98991700  1
  O  O5  1  0.42600400  0.77058600  0.08992900  1
  O  O6  1  0.42444900  0.76656000  0.66614300  1
  O  O7  1  0.55142900  0.23102800  0.31562100  1
  O  O8  1  0.55511000  0.25785700  0.92845800  1
  O  O9  1  0.05301900  0.26017300  0.41629400  1
  F  F10  1  0.92902000  0.76281400  0.58095000  1
  F  F11  1  0.89677900  0.78147400  0.17600200  1
  F  F12  1  0.99926500  0.26480200  0.11831800  1
  F  F13  1  0.50508200  0.77033000  0.37155300  1
  F  F14  1  0.47724500  0.27608700  0.61720100  1
  F  F15  1  0.02903900  0.74438900  0.87214800  1
  F  F16  1  0.07026500  0.26743300  0.80844700  1
