# generated using pymatgen
data_Na5Sc2In2P5SO24
_symmetry_space_group_name_H-M   'P 1'
_cell_length_a   8.99637609
_cell_length_b   9.02747412
_cell_length_c   22.93935663
_cell_angle_alpha   90.20626305
_cell_angle_beta   89.90797004
_cell_angle_gamma   119.88384174
_symmetry_Int_Tables_number   1
_chemical_formula_structural   Na5Sc2In2P5SO24
_chemical_formula_sum   'Na15 Sc6 In6 P15 S3 O72'
_cell_volume   1615.28828073
_cell_formula_units_Z   3
loop_
 _symmetry_equiv_pos_site_id
 _symmetry_equiv_pos_as_xyz
  1  'x, y, z'
loop_
 _atom_site_type_symbol
 _atom_site_label
 _atom_site_symmetry_multiplicity
 _atom_site_fract_x
 _atom_site_fract_y
 _atom_site_fract_z
 _atom_site_occupancy
  Na  Na0  1  0.64238056  0.00067992  0.25032185  1
  Na  Na1  1  0.99781185  0.36287577  0.74979685  1
  Na  Na2  1  0.36466499  -0.00003391  0.75066582  1
  Na  Na3  1  0.03110008  0.69911262  0.58233922  1
  Na  Na4  1  0.66530873  0.96730683  0.58355420  1
  Na  Na5  1  0.30261168  0.97248546  0.08207199  1
  Na  Na6  1  0.03016262  0.33261775  0.08379941  1
  Na  Na7  1  0.97402942  0.66555919  0.91683127  1
  Na  Na8  1  0.70332441  0.67067704  0.41747068  1
  Na  Na9  1  0.01390113  0.01263949  0.49968137  1
  Na  Na10  1  0.99796888  0.00653616  0.99916813  1
  Na  Na11  1  0.65727370  0.32650516  0.83386372  1
  Na  Na12  1  0.67977264  0.33843019  0.33336794  1
  Na  Na13  1  0.33643965  0.65196252  0.16756305  1
  Na  Na14  1  0.34287824  0.65609337  0.66662318  1
  Sc  Sc15  1  0.99219788  0.99755746  0.35028167  1
  Sc  Sc16  1  0.98891097  0.99571936  0.14983676  1
  Sc  Sc17  1  0.67380986  0.34899504  0.18410514  1
  Sc  Sc18  1  0.67057874  0.32530811  0.48213809  1
  Sc  Sc19  1  0.33347592  0.66475454  0.01825213  1
  Sc  Sc20  1  0.32143635  0.65995517  0.31534558  1
  In  In21  1  0.00586572  0.01059832  0.85057538  1
  In  In22  1  0.00353189  0.00415213  0.65011095  1
  In  In23  1  0.66473291  0.34067221  0.68201993  1
  In  In24  1  0.66164993  0.32306973  0.98459066  1
  In  In25  1  0.33132363  0.66673626  0.51477890  1
  In  In26  1  0.33683439  0.66797026  0.81745323  1
  P  P27  1  0.70379208  0.70470884  0.25165660  1
  P  P28  1  0.00035716  0.29345584  0.24909233  1
  P  P29  1  0.29827929  0.29831175  0.75026047  1
  P  P30  1  0.99800160  0.70256643  0.75117026  1
  P  P31  1  0.70243405  0.99928916  0.74889230  1
  P  P32  1  0.96328518  0.33411914  0.58397754  1
  P  P33  1  0.37212279  0.03977800  0.58316440  1
  P  P34  1  0.66454635  0.62797523  0.58078582  1
  P  P35  1  0.96125901  0.63059378  0.08157414  1
  P  P36  1  0.66548714  0.03775035  0.08568309  1
  P  P37  1  0.37187021  0.33283050  0.08441566  1
  P  P38  1  0.03653393  0.37055720  0.91757251  1
  P  P39  1  0.33387826  0.96297919  0.91699283  1
  P  P40  1  0.62666822  0.96129358  0.41494199  1
  P  P41  1  0.03594650  0.66808792  0.41695890  1
  S  S42  1  0.29406547  0.00088740  0.24966236  1
  S  S43  1  0.62992534  0.66623775  0.91745784  1
  S  S44  1  0.33233405  0.37029592  0.41571101  1
  O  O45  1  0.20844843  0.02181195  0.30108234  1
  O  O46  1  0.81193654  0.78738058  0.30730569  1
  O  O47  1  0.97351794  0.17501924  0.30157147  1
  O  O48  1  0.22207466  0.18411391  0.80438573  1
  O  O49  1  0.97319249  0.78366040  0.80699054  1
  O  O50  1  0.81895361  0.03268213  0.80217977  1
  O  O51  1  0.77715980  0.97201108  0.69159411  1
  O  O52  1  0.18308479  0.22218864  0.69576790  1
  O  O53  1  0.03064465  0.81271276  0.69556787  1
  O  O54  1  0.79400613  0.82315321  0.19891253  1
  O  O55  1  0.02516046  0.21215121  0.19279430  1
  O  O56  1  0.19297833  0.97725182  0.19577791  1
  O  O57  1  0.89103075  0.36692383  0.64115944  1
  O  O58  1  0.47613865  0.11062522  0.64042299  1
  O  O59  1  0.63837019  0.52472931  0.63655385  1
  O  O60  1  0.87323576  0.50882753  0.13346624  1
  O  O61  1  0.63331953  0.12009158  0.14020923  1
  O  O62  1  0.48676362  0.35879742  0.13740178  1
  O  O63  1  0.44452437  0.29354059  0.02917254  1
  O  O64  1  0.85858134  0.55870383  0.02466943  1
  O  O65  1  0.70883241  0.15332408  0.03148782  1
  O  O66  1  0.46605858  0.15347060  0.53079022  1
  O  O67  1  0.69092688  0.54227999  0.52626368  1
  O  O68  1  0.84387772  0.30760436  0.53180474  1
  O  O69  1  0.54247977  0.68617046  0.96904954  1
  O  O70  1  0.14835629  0.46233671  0.97181191  1
  O  O71  1  0.31198369  0.84921453  0.97094226  1
  O  O72  1  0.55562434  0.84986028  0.47103080  1
  O  O73  1  0.30099868  0.44134520  0.46979095  1
  O  O74  1  0.13609781  0.69571432  0.47469647  1
  O  O75  1  0.13021768  0.64238864  0.36521703  1
  O  O76  1  0.51539745  0.86979018  0.36095378  1
  O  O77  1  0.36017653  0.48327019  0.36516229  1
  O  O78  1  0.11485783  0.47688111  0.86113428  1
  O  O79  1  0.35851516  0.88508995  0.85995672  1
  O  O80  1  0.53063268  0.64168374  0.86349315  1
  O  O81  1  0.01420565  0.82769635  0.40901761  1
  O  O82  1  0.80715758  0.97642061  0.40875323  1
  O  O83  1  0.18202714  0.19764524  0.40764519  1
  O  O84  1  0.01741620  0.19112515  0.91497496  1
  O  O85  1  0.15967717  0.96316547  0.91456855  1
  O  O86  1  0.80345347  0.82124009  0.91422235  1
  O  O87  1  0.97020891  0.16586216  0.58645423  1
  O  O88  1  0.18765205  0.01277069  0.58592301  1
  O  O89  1  0.83204416  0.80807310  0.58511240  1
  O  O90  1  0.99318951  0.81388904  0.09122854  1
  O  O91  1  0.82876450  0.02167148  0.09206268  1
  O  O92  1  0.19013124  0.17056856  0.09177569  1
  O  O93  1  0.68534927  0.16355034  0.74524831  1
  O  O94  1  0.47443032  0.30859143  0.74477360  1
  O  O95  1  0.84317177  0.51917081  0.74655797  1
  O  O96  1  0.68501453  0.52638305  0.24449512  1
  O  O97  1  0.83091031  0.30111646  0.24407897  1
  O  O98  1  0.46945155  0.15247465  0.24505102  1
  O  O99  1  0.65335595  0.51479528  0.92219249  1
  O  O100  1  0.86084872  0.36597642  0.92194473  1
  O  O101  1  0.49109471  0.14366819  0.92112786  1
  O  O102  1  0.64362178  0.13892960  0.42138860  1
  O  O103  1  0.49273406  0.36168987  0.42121996  1
  O  O104  1  0.85179123  0.50940731  0.42107408  1
  O  O105  1  0.34529227  0.48953197  0.07802071  1
  O  O106  1  0.14271952  0.64511713  0.07714743  1
  O  O107  1  0.50088639  0.86205326  0.07709671  1
  O  O108  1  0.35498321  0.85849971  0.57813221  1
  O  O109  1  0.50946826  0.65832573  0.57658975  1
  O  O110  1  0.13977681  0.49821188  0.57712790  1
  O  O111  1  0.31600638  0.84715650  0.25519521  1
  O  O112  1  0.52704959  0.69693733  0.25708451  1
  O  O113  1  0.15897521  0.47274948  0.25658383  1
  O  O114  1  0.30935062  0.47480155  0.75647043  1
  O  O115  1  0.16409870  0.68711724  0.75457632  1
  O  O116  1  0.51940634  0.84282816  0.75460140  1
