# generated using pymatgen
data_Na14Sc6Ta2Si9(SO16)3
_symmetry_space_group_name_H-M   'P 1'
_cell_length_a   18.33671058
_cell_length_b   9.16300294
_cell_length_c   22.59360424
_cell_angle_alpha   90.01257808
_cell_angle_beta   89.80502242
_cell_angle_gamma   119.94248441
_symmetry_Int_Tables_number   1
_chemical_formula_structural   Na14Sc6Ta2Si9(SO16)3
_chemical_formula_sum   'Na42 Sc18 Ta6 Si27 S9 O144'
_cell_volume   3289.45286601
_cell_formula_units_Z   3
loop_
 _symmetry_equiv_pos_site_id
 _symmetry_equiv_pos_as_xyz
  1  'x, y, z'
loop_
 _atom_site_type_symbol
 _atom_site_label
 _atom_site_symmetry_multiplicity
 _atom_site_fract_x
 _atom_site_fract_y
 _atom_site_fract_z
 _atom_site_occupancy
  Na  Na0  1  0.81417575  0.00524716  0.24379717  1
  Na  Na1  1  0.69012749  0.37325523  0.24303214  1
  Na  Na2  1  0.50038739  0.62160058  0.24608039  1
  Na  Na3  1  0.31272479  0.62125652  0.74370699  1
  Na  Na4  1  0.99412095  0.36523993  0.74780455  1
  Na  Na5  1  0.18766733  0.00709938  0.74301970  1
  Na  Na6  1  0.15428338  0.33899814  0.58379811  1
  Na  Na7  1  0.65948617  0.34585318  0.58746665  1
  Na  Na8  1  0.01664390  0.69241922  0.58457331  1
  Na  Na9  1  0.51270402  0.68047550  0.58355397  1
  Na  Na10  1  0.32502105  0.97333607  0.58715825  1
  Na  Na11  1  0.83025874  0.97200715  0.58924882  1
  Na  Na12  1  0.15669091  0.97027433  0.08331386  1
  Na  Na13  1  0.65850454  0.96879987  0.07878143  1
  Na  Na14  1  0.32915941  0.68619138  0.08357381  1
  Na  Na15  1  0.82709485  0.68324096  0.08333174  1
  Na  Na16  1  0.01222915  0.34372207  0.08036748  1
  Na  Na17  1  0.51718125  0.34699524  0.07811230  1
  Na  Na18  1  0.48829918  0.67007975  0.91595726  1
  Na  Na19  1  0.98138895  0.65401646  0.91039463  1
  Na  Na20  1  0.35777565  0.05104402  0.91240953  1
  Na  Na21  1  0.85427657  0.05120501  0.91345562  1
  Na  Na22  1  0.16136767  0.29905950  0.91633389  1
  Na  Na23  1  0.66425527  0.28996784  0.92314696  1
  Na  Na24  1  0.48191930  0.31169125  0.41589299  1
  Na  Na25  1  0.98681307  0.30311501  0.42131989  1
  Na  Na26  1  0.16234820  0.03775855  0.42735355  1
  Na  Na27  1  0.66263587  0.01993097  0.42238943  1
  Na  Na28  1  0.35256258  0.65397503  0.42330878  1
  Na  Na29  1  0.85715867  0.66526121  0.41615219  1
  Na  Na30  1  0.00558300  0.00196037  0.50257986  1
  Na  Na31  1  0.50248992  0.99108919  0.50268374  1
  Na  Na32  1  0.00137357  0.01232914  0.99803137  1
  Na  Na33  1  0.50554820  0.00927994  0.99461078  1
  Na  Na34  1  0.34500389  0.33673491  0.82240287  1
  Na  Na35  1  0.83463774  0.32465045  0.82753945  1
  Na  Na36  1  0.33427032  0.33186841  0.33366142  1
  Na  Na37  1  0.84576728  0.35435153  0.32370228  1
  Na  Na38  1  0.16438954  0.66399506  0.16067014  1
  Na  Na39  1  0.66904258  0.66687405  0.16410083  1
  Na  Na40  1  0.16655788  0.66871859  0.66578813  1
  Na  Na41  1  0.66993591  0.67175023  0.66452944  1
  Sc  Sc42  1  0.00050733  0.99927968  0.35058076  1
  Sc  Sc43  1  0.50302270  0.00276878  0.34874561  1
  Sc  Sc44  1  0.99877714  0.00610398  0.84613125  1
  Sc  Sc45  1  0.50085819  0.00350515  0.85012668  1
  Sc  Sc46  1  0.33645281  0.33361089  0.68527985  1
  Sc  Sc47  1  0.83451245  0.33426713  0.68422444  1
  Sc  Sc48  1  0.33398255  0.32373686  0.18187750  1
  Sc  Sc49  1  0.83785977  0.34048891  0.18602778  1
  Sc  Sc50  1  0.33887151  0.33579175  0.98747752  1
  Sc  Sc51  1  0.83594535  0.32760518  0.98428400  1
  Sc  Sc52  1  0.33541643  0.34331759  0.48602572  1
  Sc  Sc53  1  0.83777665  0.34024021  0.48870864  1
  Sc  Sc54  1  0.16207253  0.65256971  0.02168275  1
  Sc  Sc55  1  0.66059994  0.66361708  0.02031479  1
  Sc  Sc56  1  0.16069284  0.65758569  0.52123989  1
  Sc  Sc57  1  0.66220322  0.67239248  0.52196769  1
  Sc  Sc58  1  0.65985282  0.66117067  0.30621733  1
  Sc  Sc59  1  0.15904217  0.65713195  0.80645862  1
  Ta  Ta60  1  0.99783538  0.99653606  0.64951980  1
  Ta  Ta61  1  0.49760830  0.99340761  0.64755873  1
  Ta  Ta62  1  0.99731866  0.00287941  0.14670395  1
  Ta  Ta63  1  0.50498946  0.01164409  0.14568887  1
  Ta  Ta64  1  0.15866012  0.64800682  0.31334960  1
  Ta  Ta65  1  0.66206175  0.67885526  0.81069088  1
  Si  Si66  1  0.64800290  0.00289093  0.25053994  1
  Si  Si67  1  0.85377710  0.70610775  0.25311174  1
  Si  Si68  1  -0.00008735  0.29005529  0.25160687  1
  Si  Si69  1  0.49426407  0.28846904  0.25330622  1
  Si  Si70  1  0.14765308  0.29170043  0.75084443  1
  Si  Si71  1  0.99556290  0.70296475  0.75350646  1
  Si  Si72  1  0.49826777  0.70800069  0.75202955  1
  Si  Si73  1  0.35321928  0.00103248  0.75322462  1
  Si  Si74  1  0.85010078  0.99739900  0.75123822  1
  Si  Si75  1  0.47947363  0.32881185  0.58123875  1
  Si  Si76  1  0.98030004  0.32865374  0.58481605  1
  Si  Si77  1  0.18548813  0.04089663  0.58352982  1
  Si  Si78  1  0.68728518  0.04512290  0.58296270  1
  Si  Si79  1  0.33218067  0.62717884  0.58461326  1
  Si  Si80  1  0.83368242  0.62990466  0.58233621  1
  Si  Si81  1  0.47976074  0.63033933  0.08617131  1
  Si  Si82  1  0.97960375  0.62986335  0.08162994  1
  Si  Si83  1  0.33326101  0.03438178  0.08208227  1
  Si  Si84  1  0.83171793  0.03764844  0.08490947  1
  Si  Si85  1  0.18827854  0.33053085  0.08397010  1
  Si  Si86  1  0.68963894  0.33747645  0.08327755  1
  Si  Si87  1  0.01871921  0.36860392  0.91659385  1
  Si  Si88  1  0.51991437  0.37314096  0.91713271  1
  Si  Si89  1  0.66678573  0.96576177  0.91869716  1
  Si  Si90  1  0.16712141  0.36880309  0.41834470  1
  Si  Si91  1  0.01741951  0.66518416  0.41856305  1
  Si  Si92  1  0.51801932  0.66668153  0.41531838  1
  S  S93  1  0.14785195  0.99589162  0.25078787  1
  S  S94  1  0.35061006  0.70961092  0.25082726  1
  S  S95  1  0.64624136  0.29787492  0.75045080  1
  S  S96  1  0.31235776  0.66488321  0.91677965  1
  S  S97  1  0.81074047  0.66672593  0.91602948  1
  S  S98  1  0.16797049  0.96127087  0.91728018  1
  S  S99  1  0.31016793  0.95224751  0.41402618  1
  S  S100  1  0.81199637  0.95921412  0.41571910  1
  S  S101  1  0.66730237  0.37323653  0.41592668  1
  O  O102  1  0.10611636  0.01105792  0.30473631  1
  O  O103  1  0.60115920  0.02320751  0.30903076  1
  O  O104  1  0.40205204  0.79129224  0.30380454  1
  O  O105  1  0.90745189  0.79604657  0.31242253  1
  O  O106  1  0.48598119  0.18179519  0.31300318  1
  O  O107  1  0.99353004  0.18659417  0.31098063  1
  O  O108  1  0.10473705  0.18133936  0.81050055  1
  O  O109  1  0.60526903  0.19780575  0.80434858  1
  O  O110  1  0.49124867  0.79891625  0.81142649  1
  O  O111  1  0.98926362  0.79287116  0.81401949  1
  O  O112  1  0.40697655  0.01945938  0.81284234  1
  O  O113  1  0.90628475  0.02445653  0.81003644  1
  O  O114  1  0.40886906  0.98207060  0.69602407  1
  O  O115  1  0.89919725  0.97404062  0.69284073  1
  O  O116  1  0.08303431  0.18829807  0.69422460  1
  O  O117  1  0.59296205  0.21322260  0.69679527  1
  O  O118  1  0.00702881  0.82853035  0.69547860  1
  O  O119  1  0.51449841  0.83360905  0.69376058  1
  O  O120  1  0.39155837  0.81010999  0.19676574  1
  O  O121  1  0.90916539  0.83689183  0.19623176  1
  O  O122  1  0.01588670  0.19801398  0.19377952  1
  O  O123  1  0.50347701  0.18079526  0.19588969  1
  O  O124  1  0.09598575  0.97138809  0.19761285  1
  O  O125  1  0.58270619  0.97885455  0.19422161  1
  O  O126  1  0.43665460  0.37448817  0.63458296  1
  O  O127  1  0.93809486  0.36541315  0.64123750  1
  O  O128  1  0.24519723  0.12558316  0.64042753  1
  O  O129  1  0.75057934  0.13384570  0.63673528  1
  O  O130  1  0.31555875  0.51233003  0.64228239  1
  O  O131  1  0.81220758  0.49908426  0.63587539  1
  O  O132  1  0.43724217  0.51230220  0.14399439  1
  O  O133  1  0.93729645  0.50036884  0.13597532  1
  O  O134  1  0.31329519  0.12216980  0.13711685  1
  O  O135  1  0.81552520  0.11811542  0.14348238  1
  O  O136  1  0.25064373  0.36741236  0.13941484  1
  O  O137  1  0.74442184  0.36296168  0.14196674  1
  O  O138  1  0.22588180  0.29183699  0.02355116  1
  O  O139  1  0.72484109  0.29040029  0.02407492  1
  O  O140  1  0.42133558  0.55295530  0.02718723  1
  O  O141  1  0.92118208  0.56181506  0.02223847  1
  O  O142  1  0.35786070  0.15578269  0.02346504  1
  O  O143  1  0.85618432  0.15840363  0.02651507  1
  O  O144  1  0.22513328  0.15847285  0.52332334  1
  O  O145  1  0.72310310  0.15443420  0.52086957  1
  O  O146  1  0.35672405  0.55615078  0.52504110  1
  O  O147  1  0.85463001  0.55613529  0.52129091  1
  O  O148  1  0.42205721  0.28164069  0.52074913  1
  O  O149  1  0.92297788  0.29235193  0.52469905  1
  O  O150  1  0.27284235  0.68738651  0.97097899  1
  O  O151  1  0.77186531  0.68751337  0.97100731  1
  O  O152  1  0.07718345  0.45806105  0.97534235  1
  O  O153  1  0.57514632  0.45781128  0.97662479  1
  O  O154  1  0.16131049  0.86164793  0.97106789  1
  O  O155  1  0.65380057  0.84799749  0.97606778  1
  O  O156  1  0.27212472  0.85534275  0.46861064  1
  O  O157  1  0.77223636  0.85681687  0.46947615  1
  O  O158  1  0.15465120  0.46291231  0.47452748  1
  O  O159  1  0.65890655  0.45720116  0.46940066  1
  O  O160  1  0.07680802  0.69416134  0.47498181  1
  O  O161  1  0.57850027  0.70096545  0.47316866  1
  O  O162  1  0.07427403  0.64856528  0.35981977  1
  O  O163  1  0.56544741  0.64438436  0.35680153  1
  O  O164  1  0.25685220  0.86100644  0.36089157  1
  O  O165  1  0.76171635  0.87399565  0.36227785  1
  O  O166  1  0.17684347  0.50052225  0.35973697  1
  O  O167  1  0.67688832  0.47436516  0.36194229  1
  O  O168  1  0.06665686  0.48793587  0.85887855  1
  O  O169  1  0.57639288  0.50110149  0.86114511  1
  O  O170  1  0.17836359  0.88015656  0.86358384  1
  O  O171  1  0.67675048  0.85646269  0.86071978  1
  O  O172  1  0.26216855  0.64948409  0.86379582  1
  O  O173  1  0.75795438  0.65192810  0.86375678  1
  O  O174  1  0.00889324  0.83356403  0.41147658  1
  O  O175  1  0.50418307  0.83472323  0.41190802  1
  O  O176  1  0.39533786  0.97078499  0.40932097  1
  O  O177  1  0.89897539  0.98199207  0.41301965  1
  O  O178  1  0.08265004  0.18428776  0.41132886  1
  O  O179  1  0.58811721  0.20169662  0.41375413  1
  O  O180  1  0.00790217  0.17667653  0.91508862  1
  O  O181  1  0.50935490  0.18451246  0.91168926  1
  O  O182  1  0.08991023  0.97461600  0.91572129  1
  O  O183  1  0.58160414  0.98078376  0.91197891  1
  O  O184  1  0.39945322  0.81646984  0.91424769  1
  O  O185  1  0.89669901  0.81740157  0.91223865  1
  O  O186  1  0.49124809  0.16095325  0.59428782  1
  O  O187  1  0.98871666  0.15684895  0.59123507  1
  O  O188  1  0.08940502  0.02017490  0.59180820  1
  O  O189  1  0.59279235  0.02904063  0.59329765  1
  O  O190  1  0.42126612  0.81949773  0.59233231  1
  O  O191  1  0.92026670  0.81734090  0.59142563  1
  O  O192  1  0.48640618  0.81809801  0.09477915  1
  O  O193  1  0.99203799  0.82239623  0.09515270  1
  O  O194  1  0.41857976  0.01680956  0.09389083  1
  O  O195  1  0.92124473  0.02317599  0.09250587  1
  O  O196  1  0.09406185  0.15751834  0.09437448  1
  O  O197  1  0.59110519  0.16309667  0.09155513  1
  O  O198  1  0.33929020  0.16006565  0.74607353  1
  O  O199  1  0.84092723  0.16280131  0.74475936  1
  O  O200  1  0.24020839  0.31249030  0.74535864  1
  O  O201  1  0.72943659  0.31446488  0.74545237  1
  O  O202  1  0.41500989  0.52862342  0.74492202  1
  O  O203  1  0.91672377  0.51345419  0.74767077  1
  O  O204  1  0.34146926  0.54076000  0.24707901  1
  O  O205  1  0.83976337  0.51863603  0.24622878  1
  O  O206  1  0.41577665  0.32421092  0.24845874  1
  O  O207  1  0.91700435  0.30493833  0.24535557  1
  O  O208  1  0.23124224  0.14813696  0.24624617  1
  O  O209  1  0.73974414  0.16801888  0.24645491  1
  O  O210  1  0.31898778  0.50889397  0.92058158  1
  O  O211  1  0.81667864  0.51055515  0.91751093  1
  O  O212  1  0.42767559  0.36530586  0.91690362  1
  O  O213  1  0.92611712  0.35766179  0.92036231  1
  O  O214  1  0.24391468  0.13481798  0.92025303  1
  O  O215  1  0.75281687  0.14910850  0.91750229  1
  O  O216  1  0.31709338  0.12018066  0.41524047  1
  O  O217  1  0.81858805  0.12800832  0.41928668  1
  O  O218  1  0.25301613  0.35729976  0.41612503  1
  O  O219  1  0.74204644  0.35059930  0.41867879  1
  O  O220  1  0.42522884  0.49231887  0.41960890  1
  O  O221  1  0.92665464  0.48949545  0.41651855  1
  O  O222  1  0.17332215  0.49229728  0.07916216  1
  O  O223  1  0.67337117  0.49627865  0.07809930  1
  O  O224  1  0.07619101  0.66291568  0.07550388  1
  O  O225  1  0.57417337  0.65763817  0.08061693  1
  O  O226  1  0.25333685  0.84539062  0.07488536  1
  O  O227  1  0.75517949  0.84493800  0.07694144  1
  O  O228  1  0.17325783  0.85191438  0.57721726  1
  O  O229  1  0.67160861  0.85236654  0.57856434  1
  O  O230  1  0.25596725  0.66786179  0.57624632  1
  O  O231  1  0.75378979  0.66172321  0.57401938  1
  O  O232  1  0.07489824  0.49189983  0.58008519  1
  O  O233  1  0.57591948  0.48859419  0.57455306  1
  O  O234  1  0.15803932  0.84148773  0.25615958  1
  O  O235  1  0.65139585  0.82796931  0.25043900  1
  O  O236  1  0.26603030  0.69830628  0.25612757  1
  O  O237  1  0.76262112  0.70150028  0.25301785  1
  O  O238  1  0.08902386  0.48719489  0.25618553  1
  O  O239  1  0.58496759  0.46790080  0.25101679  1
  O  O240  1  0.15198952  0.47482541  0.75104413  1
  O  O241  1  0.65300262  0.46732165  0.75518330  1
  O  O242  1  0.08593511  0.70170571  0.75129142  1
  O  O243  1  0.58586779  0.69039516  0.75610366  1
  O  O244  1  0.26278216  0.82308308  0.75330820  1
  O  O245  1  0.75752053  0.81654644  0.75826017  1
