# generated using pymatgen
data_MgV2(PO5)2
_symmetry_space_group_name_H-M   'P 1'
_cell_length_a   5.38463400
_cell_length_b   6.21230100
_cell_length_c   6.21230100
_cell_angle_alpha   90.00000000
_cell_angle_beta   90.00000000
_cell_angle_gamma   90.00000000
_symmetry_Int_Tables_number   1
_chemical_formula_structural   MgV2(PO5)2
_chemical_formula_sum   'Mg1 V2 P2 O10'
_cell_volume   207.80747688
_cell_formula_units_Z   1
loop_
 _symmetry_equiv_pos_site_id
 _symmetry_equiv_pos_as_xyz
  1  'x, y, z'
loop_
 _atom_site_type_symbol
 _atom_site_label
 _atom_site_symmetry_multiplicity
 _atom_site_fract_x
 _atom_site_fract_y
 _atom_site_fract_z
 _atom_site_occupancy
  Mg  Mg0  1  0.50000000  0.75000000  0.25000000  1
  V  V1  1  0.74623700  0.75000000  0.75000000  1
  V  V2  1  0.25376300  0.25000000  0.25000000  1
  P  P3  1  0.00000000  0.25000000  0.75000000  1
  P  P4  1  0.00000000  0.75000000  0.25000000  1
  O  O5  1  0.84036500  0.45113700  0.69936300  1
  O  O6  1  0.84036500  0.04886300  0.80063700  1
  O  O7  1  0.81232400  0.70070900  0.06780700  1
  O  O8  1  0.81232400  0.79929100  0.43219300  1
  O  O9  1  0.18767600  0.56780700  0.29929100  1
  O  O10  1  0.18767600  0.93219300  0.20070900  1
  O  O11  1  0.15963500  0.30063700  0.95113700  1
  O  O12  1  0.15963500  0.19936300  0.54886300  1
  O  O13  1  0.44211600  0.75000000  0.75000000  1
  O  O14  1  0.55788400  0.25000000  0.25000000  1
