# generated using pymatgen
data_ScH3NCl3
_symmetry_space_group_name_H-M   'P 1'
_cell_length_a   7.06122258
_cell_length_b   9.20107562
_cell_length_c   9.29379491
_cell_angle_alpha   72.59581729
_cell_angle_beta   77.48536468
_cell_angle_gamma   79.77647571
_symmetry_Int_Tables_number   1
_chemical_formula_structural   ScH3NCl3
_chemical_formula_sum   'Sc4 H12 N4 Cl12'
_cell_volume   558.36216960
_cell_formula_units_Z   4
loop_
 _symmetry_equiv_pos_site_id
 _symmetry_equiv_pos_as_xyz
  1  'x, y, z'
loop_
 _atom_site_type_symbol
 _atom_site_label
 _atom_site_symmetry_multiplicity
 _atom_site_fract_x
 _atom_site_fract_y
 _atom_site_fract_z
 _atom_site_occupancy
  Sc  Sc0  1  0.91631047  0.30559013  0.06128671  1
  Sc  Sc1  1  0.08368953  0.69440987  0.93871329  1
  Sc  Sc2  1  0.60025669  0.19126775  0.44926190  1
  Sc  Sc3  1  0.39974331  0.80873225  0.55073810  1
  H  H4  1  0.29633778  0.41541078  0.51400042  1
  H  H5  1  0.70366222  0.58458922  0.48599958  1
  H  H6  1  0.19224697  0.27582903  0.50131785  1
  H  H7  1  0.80775303  0.72417097  0.49868215  1
  H  H8  1  0.27148269  0.26171844  0.65843284  1
  H  H9  1  0.72851731  0.73828156  0.34156716  1
  H  H10  1  0.57070713  0.23590961  0.00535270  1
  H  H11  1  0.42929287  0.76409039  0.99464730  1
  H  H12  1  0.73287265  0.24457638  0.84897298  1
  H  H13  1  0.26712735  0.75542362  0.15102702  1
  H  H14  1  0.74068452  0.09139151  0.99418548  1
  H  H15  1  0.25931548  0.90860849  0.00581452  1
  N  N16  1  0.30420405  0.29840137  0.54147474  1
  N  N17  1  0.28490410  0.79129772  0.03413987  1
  N  N18  1  0.71509590  0.20870228  0.96586013  1
  N  N19  1  0.69579595  0.70159863  0.45852526  1
  Cl  Cl20  1  0.90912651  0.08553818  0.29767989  1
  Cl  Cl21  1  0.41475384  0.04849891  0.33504652  1
  Cl  Cl22  1  0.20024030  0.18119844  0.93267644  1
  Cl  Cl23  1  0.79975970  0.81880156  0.06732356  1
  Cl  Cl24  1  0.76321769  0.31070209  0.57585466  1
  Cl  Cl25  1  0.23678231  0.68929791  0.42414534  1
  Cl  Cl26  1  0.89446842  0.54312014  0.84225870  1
  Cl  Cl27  1  0.10553158  0.45687986  0.15774130  1
  Cl  Cl28  1  0.39742526  0.58730759  0.78635904  1
  Cl  Cl29  1  0.09087349  0.91446182  0.70232011  1
  Cl  Cl30  1  0.60257474  0.41269241  0.21364096  1
  Cl  Cl31  1  0.58524616  0.95150109  0.66495348  1
