# generated using pymatgen
data_Na3LaSi2SnSO12
_symmetry_space_group_name_H-M   'P 1'
_cell_length_a   9.51820841
_cell_length_b   9.51820804
_cell_length_c   23.03133065
_cell_angle_alpha   88.31012640
_cell_angle_beta   91.68987358
_cell_angle_gamma   119.90496654
_symmetry_Int_Tables_number   1
_chemical_formula_structural   Na3LaSi2SnSO12
_chemical_formula_sum   'Na18 La6 Si12 Sn6 S6 O72'
_cell_volume   1807.68595991
_cell_formula_units_Z   6
loop_
 _symmetry_equiv_pos_site_id
 _symmetry_equiv_pos_as_xyz
  1  'x, y, z'
loop_
 _atom_site_type_symbol
 _atom_site_label
 _atom_site_symmetry_multiplicity
 _atom_site_fract_x
 _atom_site_fract_y
 _atom_site_fract_z
 _atom_site_occupancy
  Na  Na0  1  0.63519628  0.99378071  0.24011575  1
  Na  Na1  1  0.99247229  0.63906485  0.24598224  1
  Na  Na2  1  0.00621929  0.36480372  0.74011575  1
  Na  Na3  1  0.36093515  0.00752771  0.74598224  1
  Na  Na4  1  0.30186328  0.32711371  0.57344875  1
  Na  Na5  1  0.65913929  0.97239785  0.57931524  1
  Na  Na6  1  0.67288629  0.69813672  0.07344875  1
  Na  Na7  1  0.02760215  0.34086071  0.07931524  1
  Na  Na8  1  0.96852928  0.66044771  0.90678275  1
  Na  Na9  1  0.32580529  0.30573185  0.91264924  1
  Na  Na10  1  0.33955229  0.03147072  0.40678275  1
  Na  Na11  1  0.69426815  0.67419471  0.41264924  1
  Na  Na12  1  0.00281884  0.02750399  0.49991505  1
  Na  Na13  1  0.97249601  0.99718116  0.99991505  1
  Na  Na14  1  0.66948584  0.36083699  0.83324805  1
  Na  Na15  1  0.63916301  0.33051416  0.33324805  1
  Na  Na16  1  0.33615184  0.69417099  0.16658205  1
  Na  Na17  1  0.30582901  0.66384816  0.66658205  1
  La  La18  1  0.00576975  0.01710370  0.35034355  1
  La  La19  1  0.98289630  0.99423025  0.85034355  1
  La  La20  1  0.67243675  0.35043670  0.68367655  1
  La  La21  1  0.64956330  0.32756325  0.18367655  1
  La  La22  1  0.33910275  0.68377070  0.01701055  1
  La  La23  1  0.31622930  0.66089725  0.51701055  1
  Si  Si24  1  0.29068221  0.97817048  0.25597770  1
  Si  Si25  1  0.69752016  0.70350848  0.25280283  1
  Si  Si26  1  0.29649152  0.30247984  0.75280283  1
  Si  Si27  1  0.02182952  0.70931779  0.75597770  1
  Si  Si28  1  0.95734921  0.31150348  0.58931070  1
  Si  Si29  1  0.36418716  0.03684148  0.58613583  1
  Si  Si30  1  0.96315852  0.63581284  0.08613583  1
  Si  Si31  1  0.68849652  0.04265079  0.08931070  1
  Si  Si32  1  0.62401521  0.64483748  0.92264470  1
  Si  Si33  1  0.03085316  0.37017548  0.91946983  1
  Si  Si34  1  0.62982452  0.96914684  0.41946983  1
  Si  Si35  1  0.35516252  0.37598479  0.42264470  1
  Sn  Sn36  1  0.02954736  0.00918470  0.64834067  1
  Sn  Sn37  1  0.99081530  0.97045264  0.14834067  1
  Sn  Sn38  1  0.69621436  0.34251770  0.98167367  1
  Sn  Sn39  1  0.65748230  0.30378564  0.48167367  1
  Sn  Sn40  1  0.36288036  0.67585170  0.31500767  1
  Sn  Sn41  1  0.32414830  0.63711964  0.81500767  1
  S  S42  1  0.02271464  0.32144549  0.24514026  1
  S  S43  1  0.67855451  0.97728536  0.74514026  1
  S  S44  1  0.68938164  0.65477849  0.57847326  1
  S  S45  1  0.34522151  0.31061836  0.07847326  1
  S  S46  1  0.35604764  0.98811249  0.91180726  1
  S  S47  1  0.01188751  0.64395236  0.41180726  1
  O  O48  1  0.22112727  -0.00042385  0.31576918  1
  O  O49  1  0.79503234  0.79059145  0.31134467  1
  O  O50  1  0.00192392  0.22511482  0.29824941  1
  O  O51  1  0.20940855  0.20496766  0.81134467  1
  O  O52  1  0.00042385  0.77887273  0.81576918  1
  O  O53  1  0.77488518  -0.00192392  0.79824941  1
  O  O54  1  0.76091770  0.96613430  0.69302197  1
  O  O55  1  0.17559446  0.21259793  0.69431315  1
  O  O56  1  0.04588202  0.83899552  0.69953417  1
  O  O57  1  0.78740207  0.82440554  0.19431315  1
  O  O58  1  0.03386570  0.23908230  0.19302197  1
  O  O59  1  0.16100448  0.95411798  0.19953417  1
  O  O60  1  0.88779427  0.33290915  0.64910218  1
  O  O61  1  0.46169934  0.12392445  0.64467767  1
  O  O62  1  0.66859092  0.55844782  0.63158241  1
  O  O63  1  0.87607555  0.53830066  0.14467767  1
  O  O64  1  0.66709085  0.11220573  0.14910218  1
  O  O65  1  0.44155218  0.33140908  0.13158241  1
  O  O66  1  0.42758470  0.29946730  0.02635497  1
  O  O67  1  0.84226146  0.54593093  0.02764615  1
  O  O68  1  0.71254902  0.17232852  0.03286717  1
  O  O69  1  0.45406907  0.15773854  0.52764615  1
  O  O70  1  0.70053270  0.57241530  0.52635497  1
  O  O71  1  0.82767148  0.28745098  0.53286717  1
  O  O72  1  0.55446027  0.66624315  0.98243618  1
  O  O73  1  0.12836534  0.45725845  0.97801167  1
  O  O74  1  0.33525692  0.89178182  0.96491641  1
  O  O75  1  0.54274155  0.87163466  0.47801167  1
  O  O76  1  0.33375685  0.44553973  0.48243618  1
  O  O77  1  0.10821818  0.66474308  0.46491641  1
  O  O78  1  0.09425070  0.63280130  0.35968897  1
  O  O79  1  0.50892746  0.87926493  0.36098015  1
  O  O80  1  0.37921502  0.50566252  0.36620117  1
  O  O81  1  0.12073507  0.49107254  0.86098015  1
  O  O82  1  0.36719870  0.90574930  0.85968897  1
  O  O83  1  0.49433748  0.62078498  0.86620117  1
  O  O84  1  -0.01135210  0.78755270  0.40941365  1
  O  O85  1  0.80593235  0.98134785  0.41705745  1
  O  O86  1  0.21326082  0.18845186  0.41514006  1
  O  O87  1  0.01865215  0.19406765  0.91705745  1
  O  O88  1  0.21244730  0.01135210  0.90941365  1
  O  O89  1  0.81154814  0.78673918  0.91514006  1
  O  O90  1  0.95095592  0.12954981  0.58979010  1
  O  O91  1  0.18559639  0.03357920  0.58455278  1
  O  O92  1  0.83979534  0.81813397  0.58319536  1
  O  O93  1  0.96642080  0.81440361  0.08455278  1
  O  O94  1  0.87045019  0.04904408  0.08979010  1
  O  O95  1  0.18186603  0.16020466  0.08319536  1
  O  O96  1  0.65531490  0.12088570  0.74274665  1
  O  O97  1  0.47259935  0.31468085  0.75039045  1
  O  O98  1  0.87992782  0.52178486  0.74847306  1
  O  O99  1  0.68531915  0.52740065  0.25039045  1
  O  O100  1  0.87911430  0.34468510  0.24274665  1
  O  O101  1  0.47821514  0.12007218  0.24847306  1
  O  O102  1  0.61762292  0.46288281  0.92312310  1
  O  O103  1  0.85226339  0.36691220  0.91788578  1
  O  O104  1  0.50646234  0.15146697  0.91652836  1
  O  O105  1  0.63308780  0.14773661  0.41788578  1
  O  O106  1  0.53711719  0.38237708  0.42312310  1
  O  O107  1  0.84853303  0.49353766  0.41652836  1
  O  O108  1  0.32198090  0.45421970  0.07608065  1
  O  O109  1  0.13926535  0.64801485  0.08372445  1
  O  O110  1  0.54659382  0.85511886  0.08180706  1
  O  O111  1  0.35198515  0.86073465  0.58372445  1
  O  O112  1  0.54578030  0.67801910  0.57608065  1
  O  O113  1  0.14488114  0.45340618  0.58180706  1
  O  O114  1  0.28428892  0.79621681  0.25645710  1
  O  O115  1  0.51892939  0.70024620  0.25121978  1
  O  O116  1  0.17312834  0.48480097  0.24986236  1
  O  O117  1  0.29975380  0.48107061  0.75121978  1
  O  O118  1  0.20378319  0.71571108  0.75645710  1
  O  O119  1  0.51519903  0.82687166  0.74986236  1
