# generated using pymatgen
data_Na3Nb2Si3Sn2(PO8)3
_symmetry_space_group_name_H-M   'P 1'
_cell_length_a   8.89818077
_cell_length_b   8.87018888
_cell_length_c   22.84146256
_cell_angle_alpha   90.18348383
_cell_angle_beta   89.72542841
_cell_angle_gamma   119.96950599
_symmetry_Int_Tables_number   1
_chemical_formula_structural   Na3Nb2Si3Sn2(PO8)3
_chemical_formula_sum   'Na9 Nb6 Si9 Sn6 P9 O72'
_cell_volume   1561.76909065
_cell_formula_units_Z   3
loop_
 _symmetry_equiv_pos_site_id
 _symmetry_equiv_pos_as_xyz
  1  'x, y, z'
loop_
 _atom_site_type_symbol
 _atom_site_label
 _atom_site_symmetry_multiplicity
 _atom_site_fract_x
 _atom_site_fract_y
 _atom_site_fract_z
 _atom_site_occupancy
  Na  Na0  1  0.99920609  0.63352249  0.25045288  1
  Na  Na1  1  0.66543478  0.96578438  0.58364664  1
  Na  Na2  1  0.66741599  0.69986820  0.08294968  1
  Na  Na3  1  0.00915171  0.99932361  0.50045563  1
  Na  Na4  1  0.00759473  0.00696352  0.99909382  1
  Na  Na5  1  0.66722759  0.33392210  0.83326084  1
  Na  Na6  1  0.66121403  0.32815091  0.33328807  1
  Na  Na7  1  0.33323168  0.66657874  0.16664553  1
  Na  Na8  1  0.32638615  0.66401179  0.66743654  1
  Nb  Nb9  1  0.99284239  0.99149420  0.35564777  1
  Nb  Nb10  1  0.99012445  0.99407956  0.85459946  1
  Nb  Nb11  1  0.66622492  0.33006831  0.68953418  1
  Nb  Nb12  1  0.67353235  0.34065226  0.97735987  1
  Nb  Nb13  1  0.66316811  0.33088532  0.47734141  1
  Nb  Nb14  1  0.33152576  0.66560150  0.81216729  1
  Si  Si15  1  0.70235333  0.70721313  0.24838956  1
  Si  Si16  1  0.00103455  0.71114712  0.74944907  1
  Si  Si17  1  0.71149838  0.99729074  0.74833838  1
  Si  Si18  1  0.37074392  0.04188625  0.58357324  1
  Si  Si19  1  0.96387715  0.62604735  0.08475950  1
  Si  Si20  1  0.61781481  0.66647924  0.91803814  1
  Si  Si21  1  0.04763410  0.37724405  0.91695094  1
  Si  Si22  1  0.61971882  0.95290999  0.41765337  1
  Si  Si23  1  0.04666214  0.66483126  0.41590410  1
  Sn  Sn24  1  0.00558943  0.99780555  0.64796723  1
  Sn  Sn25  1  0.00141237  0.00187714  0.14707112  1
  Sn  Sn26  1  0.66538077  0.33155413  0.18614878  1
  Sn  Sn27  1  0.32772211  0.66581233  0.01817801  1
  Sn  Sn28  1  0.33071133  0.66750280  0.51901990  1
  Sn  Sn29  1  0.33796622  0.66811011  0.31522244  1
  P  P30  1  0.29144627  0.00222722  0.24994488  1
  P  P31  1  0.00094386  0.28858872  0.24997251  1
  P  P32  1  0.28646169  0.28738564  0.75021064  1
  P  P33  1  0.95774954  0.33634325  0.58336423  1
  P  P34  1  0.66503784  0.62051242  0.58345863  1
  P  P35  1  0.66610721  0.04507103  0.08312884  1
  P  P36  1  0.37532121  0.33099487  0.08312395  1
  P  P37  1  0.33277553  0.95665598  0.91651496  1
  P  P38  1  0.33170472  0.37719812  0.41704454  1
  O  O39  1  0.20370785  0.02985139  0.30445419  1
  O  O40  1  0.83622097  0.80631482  0.30457937  1
  O  O41  1  0.97730971  0.17473831  0.30424224  1
  O  O42  1  0.20433667  0.17339055  0.80435200  1
  O  O43  1  0.97132754  0.80338110  0.80697956  1
  O  O44  1  0.83537976  0.03111795  0.80547748  1
  O  O45  1  0.78862360  0.96622341  0.68787624  1
  O  O46  1  0.17807100  0.21595833  0.69414406  1
  O  O47  1  0.04255764  0.82718254  0.69126435  1
  O  O48  1  0.78758550  0.82190897  0.18930759  1
  O  O49  1  0.03453113  0.21314579  0.19381883  1
  O  O50  1  0.17712968  0.96578062  0.19478084  1
  O  O51  1  0.86868565  0.36166712  0.63840456  1
  O  O52  1  0.50215949  0.14077737  0.63950707  1
  O  O53  1  0.64352462  0.50888979  0.63807376  1
  O  O54  1  0.87868811  0.51118429  0.14387681  1
  O  O55  1  0.63193514  0.12033776  0.13940167  1
  O  O56  1  0.48982054  0.36751700  0.13848177  1
  O  O57  1  0.46355414  0.30380222  0.02872331  1
  O  O58  1  0.82995852  0.52644198  0.02846813  1
  O  O59  1  0.68942195  0.15891282  0.02898891  1
  O  O60  1  0.47514967  0.16643144  0.52691702  1
  O  O61  1  0.69244049  0.53415146  0.52845631  1
  O  O62  1  0.83997801  0.30627055  0.52921532  1
  O  O63  1  0.54782278  0.70525177  0.97866566  1
  O  O64  1  0.16043532  0.45441867  0.97528764  1
  O  O65  1  0.29684173  0.84660822  0.97219350  1
  O  O66  1  0.55285728  0.84232695  0.47798741  1
  O  O67  1  0.29638625  0.45173096  0.47274633  1
  O  O68  1  0.16240658  0.70516932  0.47389385  1
  O  O69  1  0.11656488  0.62598875  0.35494930  1
  O  O70  1  0.50451368  0.87863099  0.35966424  1
  O  O71  1  0.37042280  0.48844850  0.36190708  1
  O  O72  1  0.13453435  0.50065061  0.85960395  1
  O  O73  1  0.36373126  0.87040145  0.86222909  1
  O  O74  1  0.49816877  0.63833732  0.86096695  1
  O  O75  1  0.02551582  0.83928206  0.40736827  1
  O  O76  1  0.81778050  0.98366908  0.40752556  1
  O  O77  1  0.17217230  0.19336782  0.40845552  1
  O  O78  1  0.02445518  0.18480952  0.90752984  1
  O  O79  1  0.17373454  0.97943226  0.90778621  1
  O  O80  1  0.81392290  0.83362745  0.90907585  1
  O  O81  1  0.96410505  0.16479132  0.58848310  1
  O  O82  1  0.18363690  0.03031586  0.58651509  1
  O  O83  1  0.82502183  0.80711038  0.58716938  1
  O  O84  1  0.96707464  0.81334778  0.08686894  1
  O  O85  1  0.83148101  0.02772410  0.08727910  1
  O  O86  1  0.19357826  0.16887252  0.08863595  1
  O  O87  1  0.69072917  0.17161847  0.74222703  1
  O  O88  1  0.47067194  0.30893246  0.74212965  1
  O  O89  1  0.82625840  0.51903679  0.74191655  1
  O  O90  1  0.69923358  0.51974231  0.24636116  1
  O  O91  1  0.83526993  0.30601021  0.24592668  1
  O  O92  1  0.47355559  0.16456597  0.24458644  1
  O  O93  1  0.63800078  0.49193644  0.92450291  1
  O  O94  1  0.85108727  0.35280325  0.92495836  1
  O  O95  1  0.49733482  0.13788778  0.92397297  1
  O  O96  1  0.64704973  0.15012432  0.42603910  1
  O  O97  1  0.49537361  0.35722204  0.42489601  1
  O  O98  1  0.84966803  0.49935373  0.42594857  1
  O  O99  1  0.36678237  0.50127680  0.07805329  1
  O  O100  1  0.15450603  0.64746724  0.07857503  1
  O  O101  1  0.50809151  0.85792716  0.07765242  1
  O  O102  1  0.36832806  0.85605204  0.58023129  1
  O  O103  1  0.50039789  0.63813731  0.57898699  1
  O  O104  1  0.13900398  0.49625474  0.57852765  1
  O  O105  1  0.30024833  0.83228471  0.25517402  1
  O  O106  1  0.51203129  0.68605284  0.25503005  1
  O  O107  1  0.15881766  0.47545128  0.25549035  1
  O  O108  1  0.31139607  0.47204553  0.75797283  1
  O  O109  1  0.16904707  0.68582267  0.75901840  1
  O  O110  1  0.51924091  0.83007339  0.75860245  1
