# generated using pymatgen
data_Lu(BH4)3
_symmetry_space_group_name_H-M   'P 1'
_cell_length_a   10.61973600
_cell_length_b   10.61973600
_cell_length_c   10.61973600
_cell_angle_alpha   90.00000000
_cell_angle_beta   90.00000000
_cell_angle_gamma   90.00000000
_symmetry_Int_Tables_number   1
_chemical_formula_structural   Lu(BH4)3
_chemical_formula_sum   'Lu8 B24 H96'
_cell_volume   1197.68100498
_cell_formula_units_Z   8
loop_
 _symmetry_equiv_pos_site_id
 _symmetry_equiv_pos_as_xyz
  1  'x, y, z'
loop_
 _atom_site_type_symbol
 _atom_site_label
 _atom_site_symmetry_multiplicity
 _atom_site_fract_x
 _atom_site_fract_y
 _atom_site_fract_z
 _atom_site_occupancy
  Lu  Lu0  1  0.21725200  0.21725200  0.21725200  1
  Lu  Lu1  1  0.71725200  0.28274800  0.78274800  1
  Lu  Lu2  1  0.78274800  0.71725200  0.28274800  1
  Lu  Lu3  1  0.28274800  0.78274800  0.71725200  1
  Lu  Lu4  1  0.78274800  0.78274800  0.78274800  1
  Lu  Lu5  1  0.28274800  0.71725200  0.21725200  1
  Lu  Lu6  1  0.21725200  0.28274800  0.71725200  1
  Lu  Lu7  1  0.71725200  0.21725200  0.28274800  1
  B  B8  1  0.19212800  0.24771500  0.96787100  1
  B  B9  1  0.69212800  0.25228500  0.03212900  1
  B  B10  1  0.80787200  0.74771500  0.53212900  1
  B  B11  1  0.30787200  0.75228500  0.46787100  1
  B  B12  1  0.24771500  0.96787100  0.19212800  1
  B  B13  1  0.25228500  0.03212900  0.69212800  1
  B  B14  1  0.74771500  0.53212900  0.80787200  1
  B  B15  1  0.75228500  0.46787100  0.30787200  1
  B  B16  1  0.96787100  0.19212800  0.24771500  1
  B  B17  1  0.03212900  0.69212800  0.25228500  1
  B  B18  1  0.53212900  0.80787200  0.74771500  1
  B  B19  1  0.46787100  0.30787200  0.75228500  1
  B  B20  1  0.80787200  0.75228500  0.03212900  1
  B  B21  1  0.30787200  0.74771500  0.96787100  1
  B  B22  1  0.19212800  0.25228500  0.46787100  1
  B  B23  1  0.69212800  0.24771500  0.53212900  1
  B  B24  1  0.75228500  0.03212900  0.80787200  1
  B  B25  1  0.74771500  0.96787100  0.30787200  1
  B  B26  1  0.25228500  0.46787100  0.19212800  1
  B  B27  1  0.24771500  0.53212900  0.69212800  1
  B  B28  1  0.03212900  0.80787200  0.75228500  1
  B  B29  1  0.96787100  0.30787200  0.74771500  1
  B  B30  1  0.46787100  0.19212800  0.25228500  1
  B  B31  1  0.53212900  0.69212800  0.24771500  1
  H  H32  1  0.29197000  0.25483300  0.02579200  1
  H  H33  1  0.79197000  0.24516700  0.97420800  1
  H  H34  1  0.70803000  0.75483300  0.47420800  1
  H  H35  1  0.20803000  0.74516700  0.52579200  1
  H  H36  1  0.25483300  0.02579200  0.29197000  1
  H  H37  1  0.24516700  0.97420800  0.79197000  1
  H  H38  1  0.75483300  0.47420800  0.70803000  1
  H  H39  1  0.74516700  0.52579200  0.20803000  1
  H  H40  1  0.02579200  0.29197000  0.25483300  1
  H  H41  1  0.97420800  0.79197000  0.24516700  1
  H  H42  1  0.47420800  0.70803000  0.75483300  1
  H  H43  1  0.52579200  0.20803000  0.74516700  1
  H  H44  1  0.70803000  0.74516700  0.97420800  1
  H  H45  1  0.20803000  0.75483300  0.02579200  1
  H  H46  1  0.29197000  0.24516700  0.52579200  1
  H  H47  1  0.79197000  0.25483300  0.47420800  1
  H  H48  1  0.74516700  0.97420800  0.70803000  1
  H  H49  1  0.75483300  0.02579200  0.20803000  1
  H  H50  1  0.24516700  0.52579200  0.29197000  1
  H  H51  1  0.25483300  0.47420800  0.79197000  1
  H  H52  1  0.97420800  0.70803000  0.74516700  1
  H  H53  1  0.02579200  0.20803000  0.75483300  1
  H  H54  1  0.52579200  0.29197000  0.24516700  1
  H  H55  1  0.47420800  0.79197000  0.25483300  1
  H  H56  1  0.10117200  0.22431000  0.03567900  1
  H  H57  1  0.60117200  0.27569000  0.96432100  1
  H  H58  1  0.89882800  0.72431000  0.46432100  1
  H  H59  1  0.39882800  0.77569000  0.53567900  1
  H  H60  1  0.22431000  0.03567900  0.10117200  1
  H  H61  1  0.27569000  0.96432100  0.60117200  1
  H  H62  1  0.72431000  0.46432100  0.89882800  1
  H  H63  1  0.77569000  0.53567900  0.39882800  1
  H  H64  1  0.03567900  0.10117200  0.22431000  1
  H  H65  1  0.96432100  0.60117200  0.27569000  1
  H  H66  1  0.46432100  0.89882800  0.72431000  1
  H  H67  1  0.53567900  0.39882800  0.77569000  1
  H  H68  1  0.89882800  0.77569000  0.96432100  1
  H  H69  1  0.39882800  0.72431000  0.03567900  1
  H  H70  1  0.10117200  0.27569000  0.53567900  1
  H  H71  1  0.60117200  0.22431000  0.46432100  1
  H  H72  1  0.77569000  0.96432100  0.89882800  1
  H  H73  1  0.72431000  0.03567900  0.39882800  1
  H  H74  1  0.27569000  0.53567900  0.10117200  1
  H  H75  1  0.22431000  0.46432100  0.60117200  1
  H  H76  1  0.96432100  0.89882800  0.77569000  1
  H  H77  1  0.03567900  0.39882800  0.72431000  1
  H  H78  1  0.53567900  0.10117200  0.27569000  1
  H  H79  1  0.46432100  0.60117200  0.22431000  1
  H  H80  1  0.17322000  0.35019700  0.91808100  1
  H  H81  1  0.67322000  0.14980300  0.08191900  1
  H  H82  1  0.82678000  0.85019700  0.58191900  1
  H  H83  1  0.32678000  0.64980300  0.41808100  1
  H  H84  1  0.35019700  0.91808100  0.17322000  1
  H  H85  1  0.14980300  0.08191900  0.67322000  1
  H  H86  1  0.85019700  0.58191900  0.82678000  1
  H  H87  1  0.64980300  0.41808100  0.32678000  1
  H  H88  1  0.91808100  0.17322000  0.35019700  1
  H  H89  1  0.08191900  0.67322000  0.14980300  1
  H  H90  1  0.58191900  0.82678000  0.85019700  1
  H  H91  1  0.41808100  0.32678000  0.64980300  1
  H  H92  1  0.82678000  0.64980300  0.08191900  1
  H  H93  1  0.32678000  0.85019700  0.91808100  1
  H  H94  1  0.17322000  0.14980300  0.41808100  1
  H  H95  1  0.67322000  0.35019700  0.58191900  1
  H  H96  1  0.64980300  0.08191900  0.82678000  1
  H  H97  1  0.85019700  0.91808100  0.32678000  1
  H  H98  1  0.14980300  0.41808100  0.17322000  1
  H  H99  1  0.35019700  0.58191900  0.67322000  1
  H  H100  1  0.08191900  0.82678000  0.64980300  1
  H  H101  1  0.91808100  0.32678000  0.85019700  1
  H  H102  1  0.41808100  0.17322000  0.14980300  1
  H  H103  1  0.58191900  0.67322000  0.35019700  1
  H  H104  1  0.20248300  0.16099000  0.89204400  1
  H  H105  1  0.70248300  0.33901000  0.10795600  1
  H  H106  1  0.79751700  0.66099000  0.60795600  1
  H  H107  1  0.29751700  0.83901000  0.39204400  1
  H  H108  1  0.16099000  0.89204400  0.20248300  1
  H  H109  1  0.33901000  0.10795600  0.70248300  1
  H  H110  1  0.66099000  0.60795600  0.79751700  1
  H  H111  1  0.83901000  0.39204400  0.29751700  1
  H  H112  1  0.89204400  0.20248300  0.16099000  1
  H  H113  1  0.10795600  0.70248300  0.33901000  1
  H  H114  1  0.60795600  0.79751700  0.66099000  1
  H  H115  1  0.39204400  0.29751700  0.83901000  1
  H  H116  1  0.79751700  0.83901000  0.10795600  1
  H  H117  1  0.29751700  0.66099000  0.89204400  1
  H  H118  1  0.20248300  0.33901000  0.39204400  1
  H  H119  1  0.70248300  0.16099000  0.60795600  1
  H  H120  1  0.83901000  0.10795600  0.79751700  1
  H  H121  1  0.66099000  0.89204400  0.29751700  1
  H  H122  1  0.33901000  0.39204400  0.20248300  1
  H  H123  1  0.16099000  0.60795600  0.70248300  1
  H  H124  1  0.10795600  0.79751700  0.83901000  1
  H  H125  1  0.89204400  0.29751700  0.66099000  1
  H  H126  1  0.39204400  0.20248300  0.33901000  1
  H  H127  1  0.60795600  0.70248300  0.16099000  1
