# generated using pymatgen
data_MgCd2(CoO3)2
_symmetry_space_group_name_H-M   'P 1'
_cell_length_a   6.21992716
_cell_length_b   6.22011824
_cell_length_c   6.21995203
_cell_angle_alpha   48.15589182
_cell_angle_beta   48.15630820
_cell_angle_gamma   48.15577986
_symmetry_Int_Tables_number   1
_chemical_formula_structural   MgCd2(CoO3)2
_chemical_formula_sum   'Mg1 Cd2 Co2 O6'
_cell_volume   122.39068996
_cell_formula_units_Z   1
loop_
 _symmetry_equiv_pos_site_id
 _symmetry_equiv_pos_as_xyz
  1  'x, y, z'
loop_
 _atom_site_type_symbol
 _atom_site_label
 _atom_site_symmetry_multiplicity
 _atom_site_fract_x
 _atom_site_fract_y
 _atom_site_fract_z
 _atom_site_occupancy
  Mg  Mg0  1  0.50000000  0.50000000  0.50000000  1
  Cd  Cd1  1  0.33302600  0.33301900  0.33302100  1
  Cd  Cd2  1  0.66697400  0.66698100  0.66697900  1
  Co  Co3  1  0.16104800  0.16104300  0.16104500  1
  Co  Co4  1  0.83895200  0.83895700  0.83895500  1
  O  O5  1  0.08091300  0.77999400  0.44538000  1
  O  O6  1  0.55462500  0.91907400  0.22002100  1
  O  O7  1  0.22002300  0.55460400  0.91908800  1
  O  O8  1  0.77997700  0.44539600  0.08091200  1
  O  O9  1  0.44537500  0.08092600  0.77997900  1
  O  O10  1  0.91908700  0.22000700  0.55462000  1
