# generated using pymatgen
data_K4MgV2O7
_symmetry_space_group_name_H-M   'P 1'
_cell_length_a   6.83037653
_cell_length_b   6.83037749
_cell_length_c   7.30178596
_cell_angle_alpha   76.98726283
_cell_angle_beta   76.98725959
_cell_angle_gamma   52.81587519
_symmetry_Int_Tables_number   1
_chemical_formula_structural   K4MgV2O7
_chemical_formula_sum   'K4 Mg1 V2 O7'
_cell_volume   262.68463976
_cell_formula_units_Z   1
loop_
 _symmetry_equiv_pos_site_id
 _symmetry_equiv_pos_as_xyz
  1  'x, y, z'
loop_
 _atom_site_type_symbol
 _atom_site_label
 _atom_site_symmetry_multiplicity
 _atom_site_fract_x
 _atom_site_fract_y
 _atom_site_fract_z
 _atom_site_occupancy
  K  K0  1  0.71862455  0.71862455  0.25143484  1
  K  K1  1  0.30222708  0.30222708  0.81123186  1
  K  K2  1  0.92328930  0.92328930  0.59203429  1
  K  K3  1  0.03591820  0.03591820  0.05925301  1
  Mg  Mg4  1  0.18414220  0.18414220  0.46104141  1
  V  V5  1  0.62364312  0.62364312  0.75784222  1
  V  V6  1  0.39292948  0.39292948  0.19629986  1
  O  O7  1  0.73341679  0.73341679  0.87351036  1
  O  O8  1  0.87537554  0.37927410  0.61156489  1
  O  O9  1  0.23673179  0.23673179  0.18741750  1
  O  O10  1  0.64792875  0.16046102  0.31762781  1
  O  O11  1  0.37927410  0.87537554  0.61156489  1
  O  O12  1  0.48395507  0.48395507  0.94262026  1
  O  O13  1  0.16046102  0.64792875  0.31762781  1
