# generated using pymatgen
data_Ba2Mg(CoO3)2
_symmetry_space_group_name_H-M   'P 1'
_cell_length_a   5.83286679
_cell_length_b   5.83249221
_cell_length_c   5.52132658
_cell_angle_alpha   90.07371029
_cell_angle_beta   89.84559297
_cell_angle_gamma   120.01004709
_symmetry_Int_Tables_number   1
_chemical_formula_structural   Ba2Mg(CoO3)2
_chemical_formula_sum   'Ba2 Mg1 Co2 O6'
_cell_volume   162.65399622
_cell_formula_units_Z   1
loop_
 _symmetry_equiv_pos_site_id
 _symmetry_equiv_pos_as_xyz
  1  'x, y, z'
loop_
 _atom_site_type_symbol
 _atom_site_label
 _atom_site_symmetry_multiplicity
 _atom_site_fract_x
 _atom_site_fract_y
 _atom_site_fract_z
 _atom_site_occupancy
  Ba  Ba0  1  0.66677600  0.33366000  0.99980600  1
  Ba  Ba1  1  0.33340000  0.66653600  0.50055500  1
  Mg  Mg2  1  0.66665500  0.33316800  0.49976300  1
  Co  Co3  1  0.00004400  0.99996500  0.23414800  1
  Co  Co4  1  0.99993900  0.00008000  0.76582200  1
  O  O5  1  0.70000000  0.84999300  0.00048600  1
  O  O6  1  0.84782600  0.15215000  0.50081100  1
  O  O7  1  0.14991400  0.85009100  0.99936300  1
  O  O8  1  0.14994400  0.30001800  0.99987900  1
  O  O9  1  0.84776000  0.69546700  0.50001300  1
  O  O10  1  0.30440600  0.15221000  0.49935000  1
