# generated using pymatgen
data_Na2MgZrP2SO12
_symmetry_space_group_name_H-M   'P 1'
_cell_length_a   8.98159519
_cell_length_b   8.92713431
_cell_length_c   22.82586483
_cell_angle_alpha   90.09146712
_cell_angle_beta   90.00000000
_cell_angle_gamma   120.20201223
_symmetry_Int_Tables_number   1
_chemical_formula_structural   Na2MgZrP2SO12
_chemical_formula_sum   'Na12 Mg6 Zr6 P12 S6 O72'
_cell_volume   1581.73971785
_cell_formula_units_Z   6
loop_
 _symmetry_equiv_pos_site_id
 _symmetry_equiv_pos_as_xyz
  1  'x, y, z'
loop_
 _atom_site_type_symbol
 _atom_site_label
 _atom_site_symmetry_multiplicity
 _atom_site_fract_x
 _atom_site_fract_y
 _atom_site_fract_z
 _atom_site_occupancy
  Na  Na0  1  0.99550168  0.63097013  0.24518707  1
  Na  Na1  1  0.63546844  0.63097013  0.74518707  1
  Na  Na2  1  0.66216868  0.96430313  0.57852007  1
  Na  Na3  1  0.30213544  0.96430313  0.07852007  1
  Na  Na4  1  0.32883468  0.29763713  0.91185407  1
  Na  Na5  1  0.96880144  0.29763713  0.41185407  1
  Na  Na6  1  0.99785222  0.97978326  0.49380717  1
  Na  Na7  1  0.98193104  0.97978326  0.99380717  1
  Na  Na8  1  0.66451922  0.31311626  0.82714017  1
  Na  Na9  1  0.64859804  0.31311626  0.32714017  1
  Na  Na10  1  0.33118522  0.64645026  0.16047417  1
  Na  Na11  1  0.31526404  0.64645026  0.66047417  1
  Mg  Mg12  1  0.00045735  0.99696594  0.35105839  1
  Mg  Mg13  1  0.99650859  0.99696594  0.85105839  1
  Mg  Mg14  1  0.66712435  0.33029894  0.68439139  1
  Mg  Mg15  1  0.66317559  0.33029894  0.18439139  1
  Mg  Mg16  1  0.33379035  0.66363294  0.01772539  1
  Mg  Mg17  1  0.32984159  0.66363294  0.51772539  1
  Zr  Zr18  1  0.00193395  0.01021968  0.64786268  1
  Zr  Zr19  1  0.00828573  0.01021968  0.14786268  1
  Zr  Zr20  1  0.66860095  0.34355268  0.98119568  1
  Zr  Zr21  1  0.67495273  0.34355268  0.48119568  1
  Zr  Zr22  1  0.33526695  0.67688668  0.31452968  1
  Zr  Zr23  1  0.34161873  0.67688668  0.81452968  1
  P  P24  1  0.29692467  0.01004902  0.25141446  1
  P  P25  1  0.99396617  0.29179182  0.25396319  1
  P  P26  1  0.29782565  0.29179182  0.75396319  1
  P  P27  1  0.71312435  0.01004902  0.75141446  1
  P  P28  1  0.96359167  0.34338202  0.58474746  1
  P  P29  1  0.66063317  0.62512482  0.58729619  1
  P  P30  1  0.96449265  0.62512482  0.08729619  1
  P  P31  1  0.37979135  0.34338202  0.08474746  1
  P  P32  1  0.63025767  0.67671602  0.91808146  1
  P  P33  1  0.32729917  0.95845882  0.92063019  1
  P  P34  1  0.63115865  0.95845882  0.42063019  1
  P  P35  1  0.04645735  0.67671602  0.41808146  1
  S  S36  1  0.70855694  0.70704043  0.25078524  1
  S  S37  1  0.99848349  0.70704043  0.75078524  1
  S  S38  1  0.37522394  0.04037343  0.58411824  1
  S  S39  1  0.66515049  0.04037343  0.08411824  1
  S  S40  1  0.04188994  0.37370743  0.91745224  1
  S  S41  1  0.33181649  0.37370743  0.41745224  1
  O  O42  1  0.20196479  0.02278861  0.30380174  1
  O  O43  1  0.81480679  0.79005344  0.30242204  1
  O  O44  1  0.97485227  0.18834952  0.30914601  1
  O  O45  1  0.21349725  0.18834952  0.80914601  1
  O  O46  1  0.97524666  0.79005344  0.80242204  1
  O  O47  1  0.82082382  0.02278861  0.80380174  1
  O  O48  1  0.78975223  0.97033308  0.69437481  1
  O  O49  1  0.18212692  0.20087697  0.69869588  1
  O  O50  1  0.02595212  0.81391481  0.69719969  1
  O  O51  1  0.78796270  0.81391481  0.19719969  1
  O  O52  1  0.01875005  0.20087697  0.19869588  1
  O  O53  1  0.18058085  0.97033308  0.19437481  1
  O  O54  1  0.86863179  0.35612161  0.63713474  1
  O  O55  1  0.48147379  0.12338644  0.63575504  1
  O  O56  1  0.64151927  0.52168252  0.64247901  1
  O  O57  1  0.88016425  0.52168252  0.14247901  1
  O  O58  1  0.64191366  0.12338644  0.13575504  1
  O  O59  1  0.48749082  0.35612161  0.13713474  1
  O  O60  1  0.45641923  0.30366608  0.02770781  1
  O  O61  1  0.84879392  0.53420997  0.03202888  1
  O  O62  1  0.69261912  0.14724781  0.03053269  1
  O  O63  1  0.45462970  0.14724781  0.53053269  1
  O  O64  1  0.68541705  0.53420997  0.53202888  1
  O  O65  1  0.84724785  0.30366608  0.52770781  1
  O  O66  1  0.53529779  0.68945561  0.97046874  1
  O  O67  1  0.14813979  0.45672044  0.96908904  1
  O  O68  1  0.30818527  0.85501652  0.97581301  1
  O  O69  1  0.54683025  0.85501652  0.47581301  1
  O  O70  1  0.30857966  0.45672044  0.46908904  1
  O  O71  1  0.15415682  0.68945561  0.47046874  1
  O  O72  1  0.12308523  0.63700008  0.36104181  1
  O  O73  1  0.51545992  0.86754397  0.36536288  1
  O  O74  1  0.35928512  0.48058181  0.36386669  1
  O  O75  1  0.12129570  0.48058181  0.86386669  1
  O  O76  1  0.35208305  0.86754397  0.86536288  1
  O  O77  1  0.51391385  0.63700008  0.86104181  1
  O  O78  1  0.02044955  0.83057948  0.40979524  1
  O  O79  1  0.81457119  0.98998180  0.41233647  1
  O  O80  1  0.17564077  0.20124429  0.41084641  1
  O  O81  1  0.02560352  0.20124429  0.91084641  1
  O  O82  1  0.17541061  0.98998180  0.91233647  1
  O  O83  1  0.81012993  0.83057948  0.90979524  1
  O  O84  1  0.97264241  0.16914912  0.58881102  1
  O  O85  1  0.20018016  0.02049328  0.58892852  1
  O  O86  1  0.82996580  0.81011532  0.58956394  1
  O  O87  1  0.98014952  0.81011532  0.08956394  1
  O  O88  1  0.82031313  0.02049328  0.08892852  1
  O  O89  1  0.19650671  0.16914912  0.08881102  1
  O  O90  1  0.68711655  0.16391248  0.74312824  1
  O  O91  1  0.48123819  0.32331480  0.74566947  1
  O  O92  1  0.84230777  0.53457729  0.74417941  1
  O  O93  1  0.69227052  0.53457729  0.24417941  1
  O  O94  1  0.84207761  0.32331480  0.24566947  1
  O  O95  1  0.47679693  0.16391248  0.24312824  1
  O  O96  1  0.63930941  0.50248212  0.92214402  1
  O  O97  1  0.86684716  0.35382628  0.92226152  1
  O  O98  1  0.49663280  0.14344832  0.92289694  1
  O  O99  1  0.64681652  0.14344832  0.42289694  1
  O  O100  1  0.48698013  0.35382628  0.42226152  1
  O  O101  1  0.86317371  0.50248212  0.42214402  1
  O  O102  1  0.35378255  0.49724648  0.07646224  1
  O  O103  1  0.14790419  0.65664880  0.07900347  1
  O  O104  1  0.50897377  0.86791129  0.07751341  1
  O  O105  1  0.35893652  0.86791129  0.57751341  1
  O  O106  1  0.50874361  0.65664880  0.57900347  1
  O  O107  1  0.14346293  0.49724648  0.57646224  1
  O  O108  1  0.30597541  0.83581612  0.25547802  1
  O  O109  1  0.53351316  0.68716028  0.25559552  1
  O  O110  1  0.16329880  0.47678232  0.25623094  1
  O  O111  1  0.31348252  0.47678232  0.75623094  1
  O  O112  1  0.15364613  0.68716028  0.75559552  1
  O  O113  1  0.52983971  0.83581612  0.75547802  1
