# generated using pymatgen
data_Na10Nb4In4Si9(SO16)3
_symmetry_space_group_name_H-M   'P 1'
_cell_length_a   18.25581253
_cell_length_b   9.09257595
_cell_length_c   22.81452165
_cell_angle_alpha   90.06003566
_cell_angle_beta   89.67678328
_cell_angle_gamma   119.79405748
_symmetry_Int_Tables_number   1
_chemical_formula_structural   Na10Nb4In4Si9(SO16)3
_chemical_formula_sum   'Na30 Nb12 In12 Si27 S9 O144'
_cell_volume   3286.39547043
_cell_formula_units_Z   3
loop_
 _symmetry_equiv_pos_site_id
 _symmetry_equiv_pos_as_xyz
  1  'x, y, z'
loop_
 _atom_site_type_symbol
 _atom_site_label
 _atom_site_symmetry_multiplicity
 _atom_site_fract_x
 _atom_site_fract_y
 _atom_site_fract_z
 _atom_site_occupancy
  Na  Na0  1  0.18571666  0.36323687  0.24502277  1
  Na  Na1  1  0.68571487  0.36394064  0.24465192  1
  Na  Na2  1  0.18624013  0.00868645  0.74449891  1
  Na  Na3  1  0.68496455  0.00642410  0.74442577  1
  Na  Na4  1  0.65154923  0.34309065  0.58129571  1
  Na  Na5  1  0.02132285  0.70159396  0.57742289  1
  Na  Na6  1  0.51931494  0.68880158  0.58114966  1
  Na  Na7  1  0.32659383  0.96994118  0.58510293  1
  Na  Na8  1  0.15219070  0.96161091  0.08126056  1
  Na  Na9  1  0.65220251  0.96150930  0.08106102  1
  Na  Na10  1  0.32706941  0.68614373  0.08390336  1
  Na  Na11  1  0.82721567  0.68658412  0.08385775  1
  Na  Na12  1  0.02057749  0.35085425  0.08099589  1
  Na  Na13  1  0.52056701  0.35102268  0.08088719  1
  Na  Na14  1  0.48840533  0.67468954  0.91470366  1
  Na  Na15  1  0.98834822  0.67465424  0.91546523  1
  Na  Na16  1  0.35218091  0.66657002  0.41169875  1
  Na  Na17  1  0.85272460  0.67457431  0.41091998  1
  Na  Na18  1  0.01198305  0.02009763  0.49417114  1
  Na  Na19  1  0.51034044  0.01016224  0.49334709  1
  Na  Na20  1  0.00706245  0.01954221  0.99255837  1
  Na  Na21  1  0.50729972  0.01980495  0.99232806  1
  Na  Na22  1  0.34058856  0.33267438  0.82835107  1
  Na  Na23  1  0.83964624  0.33090555  0.82979893  1
  Na  Na24  1  0.34320394  0.33775222  0.32989592  1
  Na  Na25  1  0.84464613  0.33651509  0.32714929  1
  Na  Na26  1  0.16640695  0.67300275  0.16298622  1
  Na  Na27  1  0.66656685  0.67302340  0.16252706  1
  Na  Na28  1  0.17298047  0.65926035  0.66378524  1
  Na  Na29  1  0.67109000  0.66984985  0.66032265  1
  Nb  Nb30  1  0.99501770  0.98415690  0.64667610  1
  Nb  Nb31  1  0.49289809  0.98350174  0.64357755  1
  Nb  Nb32  1  0.99445269  0.00100161  0.14528945  1
  Nb  Nb33  1  0.49414123  0.00086188  0.14508436  1
  Nb  Nb34  1  0.33376434  0.32217320  0.98027893  1
  Nb  Nb35  1  0.83364476  0.32208370  0.98038310  1
  Nb  Nb36  1  0.33394185  0.33881926  0.48159080  1
  Nb  Nb37  1  0.82901287  0.34181065  0.47752353  1
  Nb  Nb38  1  0.16058649  0.64415273  0.31265930  1
  Nb  Nb39  1  0.66024495  0.64711699  0.31201913  1
  Nb  Nb40  1  0.16253539  0.67788806  0.81251135  1
  Nb  Nb41  1  0.66156706  0.67767445  0.81196064  1
  In  In42  1  0.00182166  0.99963852  0.35199645  1
  In  In43  1  0.50084469  0.99819820  0.35164847  1
  In  In44  1  0.99890999  0.00699595  0.85129485  1
  In  In45  1  0.49907338  0.00705557  0.85117873  1
  In  In46  1  0.33812055  0.33638729  0.68424901  1
  In  In47  1  0.83565608  0.33330708  0.68561372  1
  In  In48  1  0.33903007  0.34214684  0.18472980  1
  In  In49  1  0.83914226  0.34245317  0.18449404  1
  In  In50  1  0.16367314  0.66336735  0.01589934  1
  In  In51  1  0.66372377  0.66333387  0.01574503  1
  In  In52  1  0.16522656  0.66413114  0.51609392  1
  In  In53  1  0.66479713  0.66875053  0.51820104  1
  Si  Si54  1  0.35205937  0.70670832  0.25314156  1
  Si  Si55  1  0.85249255  0.70726056  0.25347279  1
  Si  Si56  1  0.99475655  0.28590726  0.25134401  1
  Si  Si57  1  0.49457519  0.28553588  0.25142102  1
  Si  Si58  1  0.99532489  0.70190414  0.75293318  1
  Si  Si59  1  0.49400449  0.70302834  0.75248067  1
  Si  Si60  1  0.35283656  0.99914610  0.75149045  1
  Si  Si61  1  0.85287232  0.99866428  0.75167293  1
  Si  Si62  1  0.48000316  0.33189655  0.58283882  1
  Si  Si63  1  0.18616899  0.04452872  0.58493957  1
  Si  Si64  1  0.68904090  0.04247527  0.58596967  1
  Si  Si65  1  0.32716704  0.61751651  0.58472749  1
  Si  Si66  1  0.83195724  0.62539768  0.58429653  1
  Si  Si67  1  0.47987411  0.62752856  0.08171963  1
  Si  Si68  1  0.97991337  0.62775563  0.08168493  1
  Si  Si69  1  0.33098945  0.03973112  0.08496342  1
  Si  Si70  1  0.83108431  0.03961132  0.08502634  1
  Si  Si71  1  0.18826242  0.33159462  0.08522593  1
  Si  Si72  1  0.68825063  0.33165721  0.08529895  1
  Si  Si73  1  0.01976216  0.36955214  0.91799597  1
  Si  Si74  1  0.51992565  0.36956107  0.91798248  1
  Si  Si75  1  0.16696962  0.96755627  0.91809046  1
  Si  Si76  1  0.66696284  0.96734310  0.91806760  1
  Si  Si77  1  0.16516194  0.36431106  0.41869182  1
  Si  Si78  1  0.66206163  0.36751860  0.41826618  1
  Si  Si79  1  0.02048067  0.66685294  0.41916781  1
  Si  Si80  1  0.51933385  0.66662819  0.41851898  1
  S  S81  1  0.14596325  0.99477541  0.24863624  1
  S  S82  1  0.64607144  0.99526114  0.24878860  1
  S  S83  1  0.14483937  0.29443762  0.74897012  1
  S  S84  1  0.64574335  0.29700138  0.74910928  1
  S  S85  1  0.97850846  0.32784897  0.58243727  1
  S  S86  1  0.31134320  0.66200947  0.91648993  1
  S  S87  1  0.81136386  0.66193311  0.91638389  1
  S  S88  1  0.31112032  0.96156796  0.41591390  1
  S  S89  1  0.81091609  0.96074386  0.41627772  1
  O  O90  1  0.10742561  0.02372760  0.30145654  1
  O  O91  1  0.60759406  0.02382344  0.30163596  1
  O  O92  1  0.40586248  0.78479321  0.31129357  1
  O  O93  1  0.90602293  0.78517078  0.31181221  1
  O  O94  1  0.49264016  0.18319053  0.30798352  1
  O  O95  1  0.99155416  0.18183716  0.30769930  1
  O  O96  1  0.10864359  0.18988349  0.80236093  1
  O  O97  1  0.60804018  0.18962127  0.80167149  1
  O  O98  1  0.49235990  0.79438539  0.81203888  1
  O  O99  1  0.98994638  0.79064377  0.81182382  1
  O  O100  1  0.41020107  0.03096739  0.80689020  1
  O  O101  1  0.91010844  0.03187354  0.80729408  1
  O  O102  1  0.40220318  0.97448477  0.69151628  1
  O  O103  1  0.90597353  0.97753672  0.69333754  1
  O  O104  1  0.09007944  0.20992693  0.69680973  1
  O  O105  1  0.59365587  0.21710600  0.69554639  1
  O  O106  1  0.01527328  0.83306081  0.69416235  1
  O  O107  1  0.51528095  0.83393043  0.69395336  1
  O  O108  1  0.40418555  0.83244804  0.19410287  1
  O  O109  1  0.90426503  0.83226005  0.19434625  1
  O  O110  1  0.01563707  0.19946587  0.19187091  1
  O  O111  1  0.51591704  0.19960658  0.19204451  1
  O  O112  1  0.09275360  0.97090597  0.19518809  1
  O  O113  1  0.59301109  0.97045014  0.19535143  1
  O  O114  1  0.44221214  0.37518610  0.63887374  1
  O  O115  1  0.94209130  0.35884451  0.63616580  1
  O  O116  1  0.24114173  0.11293279  0.64379032  1
  O  O117  1  0.73933639  0.12121035  0.64546180  1
  O  O118  1  0.31416141  0.51016913  0.64197059  1
  O  O119  1  0.81840170  0.50692007  0.63912253  1
  O  O120  1  0.44187965  0.50703628  0.13736502  1
  O  O121  1  0.94196265  0.50725370  0.13732208  1
  O  O122  1  0.30877378  0.11680017  0.14009884  1
  O  O123  1  0.80869058  0.11675506  0.14008697  1
  O  O124  1  0.24116239  0.36653065  0.14468016  1
  O  O125  1  0.74109786  0.36653112  0.14481440  1
  O  O126  1  0.23833444  0.29938467  0.02887129  1
  O  O127  1  0.73834981  0.29943689  0.02897259  1
  O  O128  1  0.41678041  0.53974288  0.02365110  1
  O  O129  1  0.91686926  0.53969013  0.02360294  1
  O  O130  1  0.35235364  0.16975925  0.02677097  1
  O  O131  1  0.85235113  0.16977698  0.02682605  1
  O  O132  1  0.23771589  0.16984055  0.52763546  1
  O  O133  1  0.74142665  0.17587060  0.52918619  1
  O  O134  1  0.34913706  0.53508203  0.52549812  1
  O  O135  1  0.85173847  0.53620616  0.52464734  1
  O  O136  1  0.41446501  0.29707447  0.52629526  1
  O  O137  1  0.92512735  0.30403593  0.53030523  1
  O  O138  1  0.27574869  0.68584893  0.97189286  1
  O  O139  1  0.77607506  0.68592503  0.97195495  1
  O  O140  1  0.06993111  0.44620711  0.97827274  1
  O  O141  1  0.56988173  0.44572960  0.97839511  1
  O  O142  1  0.15193445  0.85484838  0.97592203  1
  O  O143  1  0.65225812  0.85525154  0.97606074  1
  O  O144  1  0.27604632  0.86457889  0.47127736  1
  O  O145  1  0.77383857  0.85654044  0.46970657  1
  O  O146  1  0.15565029  0.45991769  0.47406141  1
  O  O147  1  0.65873171  0.45774422  0.47719425  1
  O  O148  1  0.07075078  0.69604832  0.47938576  1
  O  O149  1  0.57255192  0.69949633  0.47739564  1
  O  O150  1  0.07425391  0.64581845  0.36238317  1
  O  O151  1  0.57439595  0.64674540  0.36148078  1
  O  O152  1  0.25680844  0.87118772  0.36480793  1
  O  O153  1  0.75772586  0.87923608  0.36389880  1
  O  O154  1  0.18153921  0.49494964  0.35870582  1
  O  O155  1  0.68237270  0.49800285  0.35964762  1
  O  O156  1  0.07371065  0.50593981  0.86208758  1
  O  O157  1  0.57381918  0.50616529  0.86222491  1
  O  O158  1  0.18061290  0.86666733  0.85909457  1
  O  O159  1  0.68074608  0.86727602  0.85908345  1
  O  O160  1  0.25743326  0.64470046  0.86533389  1
  O  O161  1  0.75790349  0.64472413  0.86534692  1
  O  O162  1  0.99728555  0.81635681  0.41273527  1
  O  O163  1  0.49811455  0.81936275  0.41230923  1
  O  O164  1  0.39547105  0.97644421  0.41136752  1
  O  O165  1  0.89528809  0.97760813  0.41146309  1
  O  O166  1  0.08480212  0.17969103  0.41188756  1
  O  O167  1  0.58492589  0.18027988  0.41189315  1
  O  O168  1  0.00489189  0.18143168  0.91286967  1
  O  O169  1  0.50492887  0.18139101  0.91268324  1
  O  O170  1  0.08061073  0.97303501  0.91037601  1
  O  O171  1  0.58080674  0.97395642  0.91097739  1
  O  O172  1  0.39791948  0.80772676  0.91234541  1
  O  O173  1  0.89832451  0.80797738  0.91240021  1
  O  O174  1  0.48525186  0.15408846  0.58962165  1
  O  O175  1  0.98715770  0.17364537  0.58870349  1
  O  O176  1  0.09082520  0.02829181  0.59155639  1
  O  O177  1  0.59515393  0.03736530  0.59048702  1
  O  O178  1  0.42061448  0.80663057  0.58973991  1
  O  O179  1  0.92317914  0.81087730  0.59042607  1
  O  O180  1  0.48581738  0.81657285  0.09058162  1
  O  O181  1  0.98571628  0.81654574  0.09047271  1
  O  O182  1  0.42161120  0.03430929  0.09030570  1
  O  O183  1  0.92161215  0.03411094  0.09038527  1
  O  O184  1  0.09420703  0.15431214  0.09085740  1
  O  O185  1  0.59426329  0.15434479  0.09093468  1
  O  O186  1  0.32828946  0.14682700  0.74639336  1
  O  O187  1  0.83023605  0.14907055  0.74551061  1
  O  O188  1  0.22861371  0.30997626  0.74289123  1
  O  O189  1  0.73002252  0.31279532  0.74445617  1
  O  O190  1  0.41514253  0.51704150  0.74829518  1
  O  O191  1  0.91777140  0.51545273  0.74516352  1
  O  O192  1  0.32944562  0.51138479  0.24706649  1
  O  O193  1  0.82957523  0.51139720  0.24751124  1
  O  O194  1  0.41558110  0.31355295  0.24738177  1
  O  O195  1  0.91559726  0.31372439  0.24713023  1
  O  O196  1  0.22924587  0.14788413  0.24344004  1
  O  O197  1  0.72946064  0.14765544  0.24368144  1
  O  O198  1  0.31826921  0.50410204  0.91941567  1
  O  O199  1  0.81870657  0.50428894  0.91949995  1
  O  O200  1  0.42875509  0.37515842  0.92215971  1
  O  O201  1  0.92869065  0.37538655  0.92190849  1
  O  O202  1  0.25487924  0.15347716  0.92275237  1
  O  O203  1  0.75500033  0.15373551  0.92274855  1
  O  O204  1  0.31812108  0.13143089  0.41957169  1
  O  O205  1  0.81932723  0.13272344  0.42298077  1
  O  O206  1  0.25693003  0.36522727  0.42223664  1
  O  O207  1  0.75564044  0.36556938  0.42246226  1
  O  O208  1  0.42523696  0.48842755  0.42267747  1
  O  O209  1  0.92582628  0.48533968  0.42456258  1
  O  O210  1  0.17557789  0.49486908  0.07746055  1
  O  O211  1  0.67564213  0.49498595  0.07752952  1
  O  O212  1  0.07583764  0.66126207  0.07879890  1
  O  O213  1  0.57584535  0.66118378  0.07881756  1
  O  O214  1  0.25608061  0.84776516  0.07572559  1
  O  O215  1  0.75607264  0.84768113  0.07577926  1
  O  O216  1  0.17058634  0.85147432  0.57771911  1
  O  O217  1  0.66906300  0.85026842  0.57944535  1
  O  O218  1  0.25629924  0.67285311  0.57723657  1
  O  O219  1  0.75144280  0.64766640  0.57660334  1
  O  O220  1  0.06289687  0.48110392  0.57796761  1
  O  O221  1  0.57498431  0.48956930  0.57837666  1
  O  O222  1  0.15338545  0.83972062  0.25460857  1
  O  O223  1  0.65360285  0.83971442  0.25484045  1
  O  O224  1  0.25761007  0.69899561  0.25798063  1
  O  O225  1  0.75784565  0.69897020  0.25830686  1
  O  O226  1  0.08750602  0.47665541  0.25639039  1
  O  O227  1  0.58779827  0.47679475  0.25672497  1
  O  O228  1  0.15212562  0.46494983  0.75523520  1
  O  O229  1  0.65367403  0.46745387  0.75614525  1
  O  O230  1  0.08855324  0.69986640  0.75610610  1
  O  O231  1  0.58776493  0.69903854  0.75670960  1
  O  O232  1  0.25803111  0.81709154  0.75805024  1
  O  O233  1  0.75826101  0.81898330  0.75766304  1
