# generated using pymatgen
data_NaCaGe3P3(SO8)3
_symmetry_space_group_name_H-M   'P 1'
_cell_length_a   8.54403573
_cell_length_b   8.52932910
_cell_length_c   22.18250252
_cell_angle_alpha   90.23845145
_cell_angle_beta   90.32158344
_cell_angle_gamma   120.18272775
_symmetry_Int_Tables_number   1
_chemical_formula_structural   NaCaGe3P3(SO8)3
_chemical_formula_sum   'Na3 Ca3 Ge9 P9 S9 O72'
_cell_volume   1397.31871452
_cell_formula_units_Z   3
loop_
 _symmetry_equiv_pos_site_id
 _symmetry_equiv_pos_as_xyz
  1  'x, y, z'
loop_
 _atom_site_type_symbol
 _atom_site_label
 _atom_site_symmetry_multiplicity
 _atom_site_fract_x
 _atom_site_fract_y
 _atom_site_fract_z
 _atom_site_occupancy
  Na  Na0  1  0.65523781  0.33230983  0.83399525  1
  Na  Na1  1  0.67484772  0.32806659  0.33572775  1
  Na  Na2  1  0.32908979  0.67529501  0.16168475  1
  Ca  Ca3  1  0.66240518  0.33860626  0.68801919  1
  Ca  Ca4  1  0.67101446  0.33020519  0.18297092  1
  Ca  Ca5  1  0.33413644  0.67429936  0.31584537  1
  Ge  Ge6  1  0.99254176  0.99214406  0.36108713  1
  Ge  Ge7  1  0.00548769  0.00409391  0.86228327  1
  Ge  Ge8  1  0.99818559  0.00163170  0.64749906  1
  Ge  Ge9  1  0.99259395  0.99275525  0.13655600  1
  Ge  Ge10  1  0.67852008  0.33549416  0.97986384  1
  Ge  Ge11  1  0.67905397  0.34638263  0.48831300  1
  Ge  Ge12  1  0.33545708  0.67353742  0.01177495  1
  Ge  Ge13  1  0.34487326  0.67968543  0.51243279  1
  Ge  Ge14  1  0.33225023  0.65688987  0.81653427  1
  P  P15  1  0.26758924  0.28517220  0.75543290  1
  P  P16  1  0.66165284  0.63846854  0.58377400  1
  P  P17  1  0.97178258  0.63041838  0.07974665  1
  P  P18  1  0.66082288  0.02972076  0.07934939  1
  P  P19  1  0.62242192  0.66187678  0.91559430  1
  P  P20  1  0.04521643  0.38114434  0.91569655  1
  P  P21  1  0.34088453  0.95805735  0.91450235  1
  P  P22  1  0.63726698  0.98087048  0.41817412  1
  P  P23  1  0.03107681  0.66224624  0.41790252  1
  S  S24  1  0.26901668  0.00225204  0.24944610  1
  S  S25  1  0.72365537  0.72341354  0.24934739  1
  S  S26  1  0.00130892  0.26849278  0.25008774  1
  S  S27  1  0.01957697  0.72804256  0.75560831  1
  S  S28  1  0.70769143  0.98066969  0.75541168  1
  S  S29  1  0.97840245  0.34059281  0.58257641  1
  S  S30  1  0.36304175  0.02948790  0.58202087  1
  S  S31  1  0.36514810  0.33572740  0.07909287  1
  S  S32  1  0.33745456  0.36423660  0.41898263  1
  O  O33  1  0.17748003  0.00269856  0.30750027  1
  O  O34  1  0.81773121  0.81469182  0.30817611  1
  O  O35  1  0.00083592  0.17528972  0.30803915  1
  O  O36  1  0.17416765  0.16544943  0.81049909  1
  O  O37  1  0.98261359  0.80934015  0.80887711  1
  O  O38  1  0.81984649  0.00608628  0.80948492  1
  O  O39  1  0.78649035  0.95459704  0.69770450  1
  O  O40  1  0.15710424  0.19857528  0.69464549  1
  O  O41  1  0.03765794  0.82935672  0.69772158  1
  O  O42  1  0.81777653  0.81921579  0.19289978  1
  O  O43  1  -0.00003722  0.17475659  0.19247764  1
  O  O44  1  0.17410112  0.00014928  0.19186874  1
  O  O45  1  0.91143871  0.38048911  0.63664054  1
  O  O46  1  0.47085136  0.09340716  0.63644146  1
  O  O47  1  0.61385797  0.52729181  0.63937721  1
  O  O48  1  0.91447568  0.52783889  0.13773891  1
  O  O49  1  0.60970024  0.08294505  0.13718055  1
  O  O50  1  0.46742689  0.37643323  0.13513133  1
  O  O51  1  0.45034263  0.29706868  0.02676102  1
  O  O52  1  0.83437420  0.53893728  0.02562787  1
  O  O53  1  0.70031473  0.16315154  0.02540754  1
  O  O54  1  0.44911552  0.15373606  0.52945802  1
  O  O55  1  0.70854232  0.54816515  0.52964515  1
  O  O56  1  0.84718580  0.29375624  0.53013542  1
  O  O57  1  0.53819680  0.70233972  0.96981633  1
  O  O58  1  0.16972738  0.46471562  0.97074897  1
  O  O59  1  0.29991862  0.83776566  0.96987569  1
  O  O60  1  0.54436147  0.84183068  0.46997897  1
  O  O61  1  0.29975623  0.45322311  0.47059372  1
  O  O62  1  0.16548295  0.69903947  0.47149066  1
  O  O63  1  0.08260384  0.60852542  0.36022062  1
  O  O64  1  0.53349468  0.92740632  0.35971348  1
  O  O65  1  0.38037469  0.46657667  0.36355197  1
  O  O66  1  0.12227288  0.50605544  0.85971115  1
  O  O67  1  0.38633746  0.87554510  0.85876763  1
  O  O68  1  0.49758750  0.61333121  0.85851519  1
  O  O69  1  0.01669712  0.83751785  0.41256174  1
  O  O70  1  0.83005074  0.00340791  0.41248951  1
  O  O71  1  0.17386920  0.18087937  0.41346099  1
  O  O72  1  0.02055299  0.18998946  0.90874232  1
  O  O73  1  0.17107374  0.97640177  0.90664944  1
  O  O74  1  0.81218147  0.83085549  0.90649360  1
  O  O75  1  0.99515291  0.17406706  0.58892547  1
  O  O76  1  0.17989253  0.01155701  0.58930801  1
  O  O77  1  0.83632465  0.83160703  0.59294707  1
  O  O78  1  0.99420684  0.82429360  0.08616840  1
  O  O79  1  0.83606180  0.01533933  0.08600661  1
  O  O80  1  0.18009465  0.17179323  0.08510448  1
  O  O81  1  0.68864634  0.14039282  0.75176805  1
  O  O82  1  0.45395398  0.30670612  0.75407269  1
  O  O83  1  0.86722989  0.54339037  0.75254219  1
  O  O84  1  0.71230943  0.54735786  0.25188687  1
  O  O85  1  0.83591769  0.27851382  0.25290766  1
  O  O86  1  0.44464924  0.16910245  0.25215245  1
  O  O87  1  0.64136231  0.49158365  0.92544889  1
  O  O88  1  0.85517974  0.36187122  0.92370837  1
  O  O89  1  0.50968052  0.15016130  0.92416030  1
  O  O90  1  0.65941836  0.16779070  0.43606430  1
  O  O91  1  0.49338039  0.33757556  0.43279181  1
  O  O92  1  0.83830501  0.50331784  0.43296039  1
  O  O93  1  0.34056611  0.49397755  0.06799836  1
  O  O94  1  0.16117159  0.65676522  0.06559631  1
  O  O95  1  0.50233016  0.83552525  0.06565229  1
  O  O96  1  0.33507110  0.84584714  0.56878899  1
  O  O97  1  0.50089611  0.66362231  0.56522420  1
  O  O98  1  0.15682875  0.49500414  0.56683575  1
  O  O99  1  0.27881571  0.83621666  0.24684124  1
  O  O100  1  0.54876556  0.71445096  0.24738084  1
  O  O101  1  0.16802826  0.44397206  0.24839197  1
  O  O102  1  0.26950782  0.46840940  0.76086085  1
  O  O103  1  0.19516309  0.73275941  0.76107072  1
  O  O104  1  0.53011733  0.80924169  0.75961183  1
