# generated using pymatgen
data_MgFe12(OF)12
_symmetry_space_group_name_H-M   'P 1'
_cell_length_a   9.66672160
_cell_length_b   14.57194273
_cell_length_c   3.07717363
_cell_angle_alpha   90.00258252
_cell_angle_beta   90.07308427
_cell_angle_gamma   90.15615745
_symmetry_Int_Tables_number   1
_chemical_formula_structural   MgFe12(OF)12
_chemical_formula_sum   'Mg1 Fe12 O12 F12'
_cell_volume   433.45767951
_cell_formula_units_Z   1
loop_
 _symmetry_equiv_pos_site_id
 _symmetry_equiv_pos_as_xyz
  1  'x, y, z'
loop_
 _atom_site_type_symbol
 _atom_site_label
 _atom_site_symmetry_multiplicity
 _atom_site_fract_x
 _atom_site_fract_y
 _atom_site_fract_z
 _atom_site_occupancy
  Mg  Mg0  1  0.26305900  0.00374500  0.47955100  1
  Fe  Fe1  1  0.98723400  0.99715200  0.98941100  1
  Fe  Fe2  1  0.00849400  0.33714900  0.99983900  1
  Fe  Fe3  1  0.99964300  0.66276200  0.00133900  1
  Fe  Fe4  1  0.22867000  0.18476300  0.49768500  1
  Fe  Fe5  1  0.24524500  0.48565400  0.50136100  1
  Fe  Fe6  1  0.25014200  0.83254300  0.50429600  1
  Fe  Fe7  1  0.49969400  0.34919400  0.00031000  1
  Fe  Fe8  1  0.53443700  0.99288600  0.98515600  1
  Fe  Fe9  1  0.51738500  0.66016700  0.99903900  1
  Fe  Fe10  1  0.75342900  0.15073100  0.48964300  1
  Fe  Fe11  1  0.72618000  0.49672100  0.50046100  1
  Fe  Fe12  1  0.72751100  0.82372400  0.49343800  1
  O  O13  1  0.08567100  0.27178100  0.49974400  1
  O  O14  1  0.08843800  0.93573000  0.49068600  1
  O  O15  1  0.18376800  0.10068000  0.99434000  1
  O  O16  1  0.14688500  0.43460400  0.00140500  1
  O  O17  1  0.34698500  0.92722100  0.98327000  1
  O  O18  1  0.40318200  0.40149500  0.50019900  1
  O  O19  1  0.61175300  0.93294300  0.48661000  1
  O  O20  1  0.59433000  0.59699100  0.49932800  1
  O  O21  1  0.65677700  0.10363000  0.98952700  1
  O  O22  1  0.65908000  0.43101600  0.00035500  1
  O  O23  1  0.64567800  0.76297900  0.99441500  1
  O  O24  1  0.90735600  0.06655900  0.48967200  1
  F  F25  1  0.10614700  0.59422400  0.50177600  1
  F  F26  1  0.15244300  0.75903300  0.00606700  1
  F  F27  1  0.34331900  0.24293100  0.99791200  1
  F  F28  1  0.34315200  0.56496800  0.00058800  1
  F  F29  1  0.42437500  0.08189900  0.48999000  1
  F  F30  1  0.40258200  0.72571400  0.49970300  1
  F  F31  1  0.58895400  0.27105600  0.49805500  1
  F  F32  1  0.84171400  0.23986100  0.99710400  1
  F  F33  1  0.84461800  0.88826100  0.99150300  1
  F  F34  1  0.84644500  0.56033300  0.00095200  1
  F  F35  1  0.89993300  0.40208500  0.50000200  1
  F  F36  1  0.89243800  0.73144100  0.49943700  1
