# generated using pymatgen
data_TlAgSe
_symmetry_space_group_name_H-M   'P 1'
_cell_length_a   4.66301900
_cell_length_b   8.43302557
_cell_length_c   7.57223970
_cell_angle_alpha   90.00000000
_cell_angle_beta   90.00000000
_cell_angle_gamma   90.00000000
_symmetry_Int_Tables_number   1
_chemical_formula_structural   TlAgSe
_chemical_formula_sum   'Tl4 Ag4 Se4'
_cell_volume   297.76589607
_cell_formula_units_Z   4
loop_
 _symmetry_equiv_pos_site_id
 _symmetry_equiv_pos_as_xyz
  1  'x, y, z'
loop_
 _atom_site_type_symbol
 _atom_site_label
 _atom_site_symmetry_multiplicity
 _atom_site_fract_x
 _atom_site_fract_y
 _atom_site_fract_z
 _atom_site_occupancy
  Tl  Tl0  1  0.25000000  0.99516980  0.81886253  1
  Tl  Tl1  1  0.75000000  0.00483020  0.18113747  1
  Tl  Tl2  1  0.25000000  0.49516980  0.68113747  1
  Tl  Tl3  1  0.75000000  0.50483020  0.31886253  1
  Ag  Ag4  1  0.75000000  0.32572206  0.91349844  1
  Ag  Ag5  1  0.25000000  0.67427794  0.08650156  1
  Ag  Ag6  1  0.75000000  0.82572206  0.58650156  1
  Ag  Ag7  1  0.25000000  0.17427794  0.41349844  1
  Se  Se8  1  0.25000000  0.81895880  0.39977892  1
  Se  Se9  1  0.75000000  0.18104120  0.60022108  1
  Se  Se10  1  0.25000000  0.31895880  0.10022108  1
  Se  Se11  1  0.75000000  0.68104120  0.89977892  1
