# generated using pymatgen
data_K4HgAs2
_symmetry_space_group_name_H-M   'P 1'
_cell_length_a   9.86616261
_cell_length_b   9.86616249
_cell_length_c   9.86616259
_cell_angle_alpha   33.96341440
_cell_angle_beta   33.96341815
_cell_angle_gamma   33.96341797
_symmetry_Int_Tables_number   1
_chemical_formula_structural   K4HgAs2
_chemical_formula_sum   'K4 Hg1 As2'
_cell_volume   267.16520351
_cell_formula_units_Z   1
loop_
 _symmetry_equiv_pos_site_id
 _symmetry_equiv_pos_as_xyz
  1  'x, y, z'
loop_
 _atom_site_type_symbol
 _atom_site_label
 _atom_site_symmetry_multiplicity
 _atom_site_fract_x
 _atom_site_fract_y
 _atom_site_fract_z
 _atom_site_occupancy
  K  K0  1  0.20773479  0.20773479  0.20773479  1
  K  K1  1  0.79226521  0.79226521  0.79226521  1
  K  K2  1  0.38868213  0.38868213  0.38868213  1
  K  K3  1  0.61131787  0.61131787  0.61131787  1
  Hg  Hg4  1  -0.00000000  0.00000000  0.00000000  1
  As  As5  1  0.91056311  0.91056311  0.91056311  1
  As  As6  1  0.08943689  0.08943689  0.08943689  1
