# generated using pymatgen
data_Na2MgMn2O8
_symmetry_space_group_name_H-M   'P 1'
_cell_length_a   5.73591922
_cell_length_b   5.73591922
_cell_length_c   7.55996077
_cell_angle_alpha   90.00000000
_cell_angle_beta   90.00000000
_cell_angle_gamma   57.52508322
_symmetry_Int_Tables_number   1
_chemical_formula_structural   Na2MgMn2O8
_chemical_formula_sum   'Na2 Mg1 Mn2 O8'
_cell_volume   209.83399644
_cell_formula_units_Z   1
loop_
 _symmetry_equiv_pos_site_id
 _symmetry_equiv_pos_as_xyz
  1  'x, y, z'
loop_
 _atom_site_type_symbol
 _atom_site_label
 _atom_site_symmetry_multiplicity
 _atom_site_fract_x
 _atom_site_fract_y
 _atom_site_fract_z
 _atom_site_occupancy
  Na  Na0  1  0.08910102  0.08910102  0.00676376  1
  Na  Na1  1  0.08910102  0.08910102  0.49323624  1
  Mg  Mg2  1  0.82705956  0.82705956  0.75000000  1
  Mn  Mn3  1  0.55926389  0.55926389  0.75000000  1
  Mn  Mn4  1  0.41079899  0.41079899  0.25000000  1
  O  O5  1  0.26285771  0.74493751  0.25000000  1
  O  O6  1  0.20679946  0.73856353  0.75000000  1
  O  O7  1  0.67338125  0.67338125  0.57968989  1
  O  O8  1  0.31862740  0.31862740  0.07491747  1
  O  O9  1  0.31862740  0.31862740  0.42508253  1
  O  O10  1  0.67338125  0.67338125  0.92031011  1
  O  O11  1  0.74493751  0.26285771  0.25000000  1
  O  O12  1  0.73856353  0.20679946  0.75000000  1
