# generated using pymatgen
data_Na7MgIn3Si3(SO8)3
_symmetry_space_group_name_H-M   'P 1'
_cell_length_a   9.23821896
_cell_length_b   9.21699573
_cell_length_c   22.58303408
_cell_angle_alpha   90.33190726
_cell_angle_beta   89.96898060
_cell_angle_gamma   119.79934868
_symmetry_Int_Tables_number   1
_chemical_formula_structural   Na7MgIn3Si3(SO8)3
_chemical_formula_sum   'Na21 Mg3 In9 Si9 S9 O72'
_cell_volume   1668.61540638
_cell_formula_units_Z   3
loop_
 _symmetry_equiv_pos_site_id
 _symmetry_equiv_pos_as_xyz
  1  'x, y, z'
loop_
 _atom_site_type_symbol
 _atom_site_label
 _atom_site_symmetry_multiplicity
 _atom_site_fract_x
 _atom_site_fract_y
 _atom_site_fract_z
 _atom_site_occupancy
  Na  Na0  1  0.63724322  0.99412282  0.24103477  1
  Na  Na1  1  0.38756768  0.37853583  0.23790379  1
  Na  Na2  1  0.98179219  0.63261075  0.25550614  1
  Na  Na3  1  0.62439620  0.62812190  0.73752988  1
  Na  Na4  1  0.99530865  0.34591896  0.74863958  1
  Na  Na5  1  0.38691739  0.02005049  0.75717589  1
  Na  Na6  1  0.01733680  0.69688247  0.57556695  1
  Na  Na7  1  0.66845888  0.95364851  0.58479630  1
  Na  Na8  1  0.31764491  0.98403682  0.08006358  1
  Na  Na9  1  0.65480825  0.69661857  0.09298403  1
  Na  Na10  1  0.68952147  0.03516683  0.91737447  1
  Na  Na11  1  0.33407298  0.28603975  0.91865069  1
  Na  Na12  1  0.95982464  0.30041390  0.41087951  1
  Na  Na13  1  0.33403998  0.01722782  0.41467077  1
  Na  Na14  1  0.72396763  0.68748167  0.41599826  1
  Na  Na15  1  0.98395282  0.98164250  0.49549111  1
  Na  Na16  1  0.01165693  0.01272526  0.00530041  1
  Na  Na17  1  0.65087108  0.31570007  0.82949029  1
  Na  Na18  1  0.68012305  0.34849196  0.33155760  1
  Na  Na19  1  0.34776088  0.66006828  0.16111261  1
  Na  Na20  1  0.35469537  0.64979630  0.66766198  1
  Mg  Mg21  1  0.98416472  0.97885707  0.35293192  1
  Mg  Mg22  1  0.65240034  0.33422854  0.68575959  1
  Mg  Mg23  1  0.65752843  0.33813114  0.17693776  1
  In  In24  1  0.00888590  0.00434154  0.84750250  1
  In  In25  1  0.99483065  0.00280627  0.65292793  1
  In  In26  1  0.98659797  0.00525053  0.14804575  1
  In  In27  1  0.64808913  0.31203510  0.98959422  1
  In  In28  1  0.67625249  0.34790089  0.48403312  1
  In  In29  1  0.33236261  0.67339028  0.01992384  1
  In  In30  1  0.34909239  0.67110618  0.51504705  1
  In  In31  1  0.34844480  0.68163068  0.32021739  1
  In  In32  1  0.34181042  0.67293132  0.81675698  1
  Si  Si33  1  0.70094871  0.69528032  0.25171610  1
  Si  Si34  1  0.30023641  0.29996763  0.75142807  1
  Si  Si35  1  0.70042570  0.00293495  0.75021815  1
  Si  Si36  1  0.66849425  0.63338076  0.58587142  1
  Si  Si37  1  0.66867112  0.03752672  0.08501487  1
  Si  Si38  1  0.36043741  0.33329355  0.08424511  1
  Si  Si39  1  0.32574505  0.96264348  0.91696843  1
  Si  Si40  1  0.64204031  0.97729083  0.41790778  1
  Si  Si41  1  0.04312401  0.66922901  0.41715467  1
  S  S42  1  0.29135086  0.00105812  0.25111664  1
  S  S43  1  0.00457399  0.29981315  0.25367312  1
  S  S44  1  0.99761697  0.69674866  0.74785704  1
  S  S45  1  0.96452900  0.33510929  0.58465412  1
  S  S46  1  0.37002062  0.03892739  0.58476226  1
  S  S47  1  0.95676219  0.62162111  0.08525994  1
  S  S48  1  0.63741102  0.66512617  0.91704855  1
  S  S49  1  0.03425989  0.37335113  0.91607915  1
  S  S50  1  0.32762507  0.36189485  0.41447085  1
  O  O51  1  0.21007417  0.02169438  0.30446495  1
  O  O52  1  0.81339629  0.78197510  0.31027546  1
  O  O53  1  0.98871792  0.19977784  0.30690087  1
  O  O54  1  0.22865619  0.18720026  0.81156854  1
  O  O55  1  0.96521967  0.77516959  0.79999226  1
  O  O56  1  0.81559039  0.02928247  0.80991466  1
  O  O57  1  0.77379325  0.95582119  0.69128084  1
  O  O58  1  0.17163005  0.21128841  0.69576061  1
  O  O59  1  0.03171325  0.80215152  0.69409788  1
  O  O60  1  0.78062045  0.81534685  0.19272570  1
  O  O61  1  0.03659999  0.22480633  0.20037314  1
  O  O62  1  0.19175587  0.98169544  0.19702172  1
  O  O63  1  0.87598402  0.34976286  0.63688944  1
  O  O64  1  0.47583705  0.12592630  0.63641597  1
  O  O65  1  0.65756098  0.52673992  0.64330962  1
  O  O66  1  0.87620117  0.52679680  0.13936380  1
  O  O67  1  0.65122338  0.13540517  0.14233709  1
  O  O68  1  0.48177790  0.37101562  0.14118630  1
  O  O69  1  0.43537472  0.30284340  0.02160917  1
  O  O70  1  0.85399750  0.54230401  0.03146546  1
  O  O71  1  0.69833505  0.13609165  0.02159458  1
  O  O72  1  0.44494880  0.12969481  0.52869900  1
  O  O73  1  0.69786563  0.55706789  0.52329031  1
  O  O74  1  0.86449243  0.30918256  0.52925936  1
  O  O75  1  0.55411060  0.68932760  0.96960083  1
  O  O76  1  0.14610695  0.45843420  0.96684593  1
  O  O77  1  0.30794058  0.85636557  0.97670729  1
  O  O78  1  0.56446979  0.85313853  0.47520426  1
  O  O79  1  0.29539603  0.43817550  0.46737399  1
  O  O80  1  0.15326314  0.68912970  0.47762292  1
  O  O81  1  0.12440803  0.62675593  0.35891337  1
  O  O82  1  0.52243096  0.90363880  0.35863470  1
  O  O83  1  0.36248889  0.46887161  0.36133441  1
  O  O84  1  0.11084722  0.46187098  0.85973103  1
  O  O85  1  0.35755352  0.87933981  0.85729864  1
  O  O86  1  0.53087892  0.63072016  0.86285587  1
  O  O87  1  0.03464545  0.84205321  0.41319588  1
  O  O88  1  0.83059054  0.00689381  0.41118096  1
  O  O89  1  0.17992374  0.19534107  0.40649524  1
  O  O90  1  0.01335946  0.20061095  0.91514808  1
  O  O91  1  0.16238587  0.99052461  0.91444760  1
  O  O92  1  0.79859455  0.82258678  0.91118966  1
  O  O93  1  0.98367596  0.18412642  0.58657257  1
  O  O94  1  0.19825549  0.01407862  0.58859730  1
  O  O95  1  0.84321424  0.82455575  0.58583862  1
  O  O96  1  0.97793990  0.79382524  0.08801903  1
  O  O97  1  0.81907485  0.99043872  0.08397507  1
  O  O98  1  0.18498461  0.15226401  0.09056563  1
  O  O99  1  0.68985206  0.17444534  0.74365797  1
  O  O100  1  0.48760100  0.32708616  0.74518269  1
  O  O101  1  0.85036674  0.52842933  0.74133886  1
  O  O102  1  0.68342294  0.50851749  0.24450199  1
  O  O103  1  0.85023596  0.31136930  0.24824090  1
  O  O104  1  0.46250912  0.14845748  0.24744188  1
  O  O105  1  0.65906634  0.51694692  0.92310676  1
  O  O106  1  0.86760094  0.35892013  0.92078738  1
  O  O107  1  0.50041232  0.15095147  0.91744220  1
  O  O108  1  0.64466237  0.15778750  0.42565799  1
  O  O109  1  0.47819895  0.34329901  0.42163798  1
  O  O110  1  0.85232599  0.50507327  0.41827489  1
  O  O111  1  0.34591109  0.50384728  0.07769231  1
  O  O112  1  0.12560167  0.64083864  0.08189026  1
  O  O113  1  0.48985199  0.85420058  0.08414572  1
  O  O114  1  0.35452607  0.86797256  0.58315907  1
  O  O115  1  0.50249693  0.65927072  0.58200858  1
  O  O116  1  0.12835324  0.49204187  0.58103603  1
  O  O117  1  0.30296389  0.84361489  0.25318488  1
  O  O118  1  0.50794890  0.67475692  0.25412913  1
  O  O119  1  0.15314588  0.47295277  0.25640452  1
  O  O120  1  0.30771253  0.48418123  0.75590536  1
  O  O121  1  0.14802675  0.67929233  0.75508974  1
  O  O122  1  0.51124044  0.83719777  0.75309134  1
