# generated using pymatgen
data_LaTaP2SO12
_symmetry_space_group_name_H-M   'P 1'
_cell_length_a   9.28341733
_cell_length_b   9.25741248
_cell_length_c   22.75378136
_cell_angle_alpha   90.77362727
_cell_angle_beta   90.00000000
_cell_angle_gamma   120.09296730
_symmetry_Int_Tables_number   1
_chemical_formula_structural   LaTaP2SO12
_chemical_formula_sum   'La6 Ta6 P12 S6 O72'
_cell_volume   1691.69164427
_cell_formula_units_Z   6
loop_
 _symmetry_equiv_pos_site_id
 _symmetry_equiv_pos_as_xyz
  1  'x, y, z'
loop_
 _atom_site_type_symbol
 _atom_site_label
 _atom_site_symmetry_multiplicity
 _atom_site_fract_x
 _atom_site_fract_y
 _atom_site_fract_z
 _atom_site_occupancy
  La  La0  1  0.99804813  0.00281527  0.36918432  1
  La  La1  1  0.00476714  0.00281527  0.86918432  1
  La  La2  1  0.66471513  0.33614827  0.70251732  1
  La  La3  1  0.67143414  0.33614827  0.20251732  1
  La  La4  1  0.33138113  0.66948227  0.03585132  1
  La  La5  1  0.33810014  0.66948227  0.53585132  1
  Ta  Ta6  1  0.99060608  0.00682942  0.64346843  1
  Ta  Ta7  1  0.01622334  0.00682942  0.14346843  1
  Ta  Ta8  1  0.65727308  0.34016242  0.97680143  1
  Ta  Ta9  1  0.68289034  0.34016242  0.47680143  1
  Ta  Ta10  1  0.32393908  0.67349642  0.31013543  1
  Ta  Ta11  1  0.34955634  0.67349642  0.81013543  1
  P  P12  1  0.26260760  0.96807441  0.24935313  1
  P  P13  1  0.03935377  0.29756393  0.25031958  1
  P  P14  1  0.25821016  0.29756393  0.75031958  1
  P  P15  1  0.70546681  0.96807441  0.74935313  1
  P  P16  1  0.92927460  0.30140741  0.58268613  1
  P  P17  1  0.70602077  0.63089693  0.58365258  1
  P  P18  1  0.92487716  0.63089693  0.08365258  1
  P  P19  1  0.37213381  0.30140741  0.08268613  1
  P  P20  1  0.59594060  0.63474141  0.91602013  1
  P  P21  1  0.37268677  0.96423093  0.91698658  1
  P  P22  1  0.59154316  0.96423093  0.41698658  1
  P  P23  1  0.03879981  0.63474141  0.41602013  1
  S  S24  1  0.69339530  0.73824083  0.24953941  1
  S  S25  1  0.04484553  0.73824083  0.74953941  1
  S  S26  1  0.36006230  0.07157383  0.58287241  1
  S  S27  1  0.71151253  0.07157383  0.08287241  1
  S  S28  1  0.02672830  0.40490783  0.91620641  1
  S  S29  1  0.37817853  0.40490783  0.41620641  1
  O  O30  1  0.19138062  0.00158092  0.30326949  1
  O  O31  1  0.79365477  0.80124138  0.30273456  1
  O  O32  1  0.00316927  0.19356111  0.30406829  1
  O  O33  1  0.19039183  0.19356111  0.80406829  1
  O  O34  1  0.00758661  0.80124138  0.80273456  1
  O  O35  1  0.81020030  0.00158092  0.80326949  1
  O  O36  1  0.79768159  0.94033329  0.69460379  1
  O  O37  1  0.13650942  0.19907376  0.69600507  1
  O  O38  1  0.06739027  0.84616238  0.69809449  1
  O  O39  1  0.77877211  0.84616238  0.19809449  1
  O  O40  1  0.06256434  0.19907376  0.19600507  1
  O  O41  1  0.14265170  0.94033329  0.19460379  1
  O  O42  1  0.85804762  0.33491392  0.63660249  1
  O  O43  1  0.46032177  0.13457438  0.63606756  1
  O  O44  1  0.66983627  0.52689411  0.63740129  1
  O  O45  1  0.85705883  0.52689411  0.13740129  1
  O  O46  1  0.67425361  0.13457438  0.13606756  1
  O  O47  1  0.47686730  0.33491392  0.13660249  1
  O  O48  1  0.46434859  0.27366629  0.02793679  1
  O  O49  1  0.80317642  0.53240676  0.02933807  1
  O  O50  1  0.73405727  0.17949538  0.03142749  1
  O  O51  1  0.44543911  0.17949538  0.53142749  1
  O  O52  1  0.72923134  0.53240676  0.52933807  1
  O  O53  1  0.80931870  0.27366629  0.52793679  1
  O  O54  1  0.52471362  0.66824792  0.96993649  1
  O  O55  1  0.12698777  0.46790838  0.96940156  1
  O  O56  1  0.33650227  0.86022811  0.97073529  1
  O  O57  1  0.52372483  0.86022811  0.47073529  1
  O  O58  1  0.34091961  0.46790838  0.46940156  1
  O  O59  1  0.14353330  0.66824792  0.46993649  1
  O  O60  1  0.13101459  0.60700029  0.36127079  1
  O  O61  1  0.46984242  0.86574076  0.36267207  1
  O  O62  1  0.40072327  0.51282938  0.36476149  1
  O  O63  1  0.11210511  0.51282938  0.86476149  1
  O  O64  1  0.39589734  0.86574076  0.86267207  1
  O  O65  1  0.47598470  0.60700029  0.86127079  1
  O  O66  1  0.99050081  0.76264518  0.40208046  1
  O  O67  1  0.76709134  0.00894153  0.40238083  1
  O  O68  1  0.25018923  0.23125619  0.40546798  1
  O  O69  1  0.98106696  0.23125619  0.90546798  1
  O  O70  1  0.24185018  0.00894153  0.90238083  1
  O  O71  1  0.77214437  0.76264518  0.90208046  1
  O  O72  1  0.92831191  0.12847666  0.59186272  1
  O  O73  1  0.19677675  0.07044287  0.59270199  1
  O  O74  1  0.87543877  0.80276087  0.59486546  1
  O  O75  1  0.92732209  0.80276087  0.09486546  1
  O  O76  1  0.87366612  0.07044287  0.09270199  1
  O  O77  1  0.20016474  0.12847666  0.09186272  1
  O  O78  1  0.65716781  0.09597818  0.73541346  1
  O  O79  1  0.43375834  0.34227453  0.73571383  1
  O  O80  1  0.91685623  0.56458919  0.73880098  1
  O  O81  1  0.64773396  0.56458919  0.23880098  1
  O  O82  1  0.90851718  0.34227453  0.23571383  1
  O  O83  1  0.43881137  0.09597818  0.23541346  1
  O  O84  1  0.59497891  0.46180966  0.92519572  1
  O  O85  1  0.86344375  0.40377587  0.92603499  1
  O  O86  1  0.54210577  0.13609387  0.92819846  1
  O  O87  1  0.59398909  0.13609387  0.42819846  1
  O  O88  1  0.54033312  0.40377587  0.42603499  1
  O  O89  1  0.86683174  0.46180966  0.42519572  1
  O  O90  1  0.32383381  0.42931218  0.06874746  1
  O  O91  1  0.10042434  0.67560853  0.06904783  1
  O  O92  1  0.58352223  0.89792319  0.07213498  1
  O  O93  1  0.31439996  0.89792319  0.57213498  1
  O  O94  1  0.57518318  0.67560853  0.56904783  1
  O  O95  1  0.10547737  0.42931218  0.56874746  1
  O  O96  1  0.26164491  0.79514366  0.25852972  1
  O  O97  1  0.53010975  0.73710987  0.25936899  1
  O  O98  1  0.20877177  0.46942787  0.26153246  1
  O  O99  1  0.26065509  0.46942787  0.76153246  1
  O  O100  1  0.20699912  0.73710987  0.75936899  1
  O  O101  1  0.53349774  0.79514366  0.75852972  1
