# generated using pymatgen
data_La2MgFe2(MoO6)2
_symmetry_space_group_name_H-M   'P 1'
_cell_length_a   5.57168828
_cell_length_b   5.47759360
_cell_length_c   7.91094932
_cell_angle_alpha   90.31075336
_cell_angle_beta   90.26554878
_cell_angle_gamma   91.93148103
_symmetry_Int_Tables_number   1
_chemical_formula_structural   La2MgFe2(MoO6)2
_chemical_formula_sum   'La2 Mg1 Fe2 Mo2 O12'
_cell_volume   241.29424975
_cell_formula_units_Z   1
loop_
 _symmetry_equiv_pos_site_id
 _symmetry_equiv_pos_as_xyz
  1  'x, y, z'
loop_
 _atom_site_type_symbol
 _atom_site_label
 _atom_site_symmetry_multiplicity
 _atom_site_fract_x
 _atom_site_fract_y
 _atom_site_fract_z
 _atom_site_occupancy
  La  La0  1  0.04008400  0.00450600  0.24817400  1
  La  La1  1  0.44751300  0.48601600  0.75050900  1
  Mg  Mg2  1  0.96038900  0.98649600  0.74491300  1
  Fe  Fe3  1  0.50413100  0.99363000  0.00182500  1
  Fe  Fe4  1  0.98704900  0.50047700  0.49915600  1
  Mo  Mo5  1  0.50816400  0.99214000  0.49561200  1
  Mo  Mo6  1  0.99074700  0.50386600  0.00283400  1
  O  O7  1  0.01516000  0.60938600  0.74954700  1
  O  O8  1  0.19148300  0.18705900  0.93988400  1
  O  O9  1  0.19294400  0.19386900  0.55840000  1
  O  O10  1  0.28624500  0.69151300  0.02607300  1
  O  O11  1  0.30278700  0.71274500  0.47822900  1
  O  O12  1  0.47533500  0.06247500  0.24860600  1
  O  O13  1  0.56019800  0.91967700  0.75124000  1
  O  O14  1  0.69939600  0.28950100  0.54568800  1
  O  O15  1  0.71676200  0.29585300  0.95290100  1
  O  O16  1  0.81546100  0.81619200  0.47005500  1
  O  O17  1  0.80469000  0.80398800  0.03483300  1
  O  O18  1  0.98955500  0.42981500  0.25189700  1
