# generated using pymatgen
data_Na6Ta2In6Si5S7O48
_symmetry_space_group_name_H-M   'P 1'
_cell_length_a   17.96401552
_cell_length_b   9.04310524
_cell_length_c   23.31385696
_cell_angle_alpha   89.98011857
_cell_angle_beta   90.49176236
_cell_angle_gamma   120.25925555
_symmetry_Int_Tables_number   1
_chemical_formula_structural   Na6Ta2In6Si5S7O48
_chemical_formula_sum   'Na18 Ta6 In18 Si15 S21 O144'
_cell_volume   3271.18164522
_cell_formula_units_Z   3
loop_
 _symmetry_equiv_pos_site_id
 _symmetry_equiv_pos_as_xyz
  1  'x, y, z'
loop_
 _atom_site_type_symbol
 _atom_site_label
 _atom_site_symmetry_multiplicity
 _atom_site_fract_x
 _atom_site_fract_y
 _atom_site_fract_z
 _atom_site_occupancy
  Na  Na0  1  0.99062653  0.67870918  0.90904381  1
  Na  Na1  1  0.34916035  0.03453108  0.91375091  1
  Na  Na2  1  0.17118123  0.30428545  0.91104005  1
  Na  Na3  1  0.49046049  0.30360705  0.42079705  1
  Na  Na4  1  0.66999051  0.03521941  0.41566101  1
  Na  Na5  1  0.84637860  0.66187010  0.41797909  1
  Na  Na6  1  0.99968761  0.99971439  0.49224001  1
  Na  Na7  1  0.49609291  0.99619281  0.49919923  1
  Na  Na8  1  0.99708179  0.00333097  0.99488139  1
  Na  Na9  1  0.49915139  0.99908012  0.98906255  1
  Na  Na10  1  0.33869761  0.34715717  0.83864035  1
  Na  Na11  1  0.82681779  0.32096105  0.81768227  1
  Na  Na12  1  0.32934598  0.33681413  0.32242583  1
  Na  Na13  1  0.83537462  0.32568248  0.34502083  1
  Na  Na14  1  0.17324215  0.67473207  0.16799410  1
  Na  Na15  1  0.66535321  0.66880221  0.16782282  1
  Na  Na16  1  0.16898224  0.66467630  0.66653671  1
  Na  Na17  1  0.65991166  0.65441966  0.65932305  1
  Ta  Ta18  1  0.99560688  0.98725586  0.65491245  1
  Ta  Ta19  1  0.50043281  0.01784222  0.64278329  1
  Ta  Ta20  1  0.00089250  0.99764156  0.14724996  1
  Ta  Ta21  1  0.49483279  0.00281094  0.15454524  1
  Ta  Ta22  1  0.16590393  0.67628632  0.31163733  1
  Ta  Ta23  1  0.66283934  0.65050527  0.80846047  1
  In  In24  1  0.00158316  0.99438748  0.35558134  1
  In  In25  1  0.49848540  0.00812738  0.34636967  1
  In  In26  1  0.99893107  0.98820807  0.84515444  1
  In  In27  1  0.50187037  0.00892547  0.85310903  1
  In  In28  1  0.33919669  0.34897129  0.67683873  1
  In  In29  1  0.83230966  0.33070264  0.68950770  1
  In  In30  1  0.33279805  0.33360073  0.19040506  1
  In  In31  1  0.83218418  0.32165356  0.18017707  1
  In  In32  1  0.34618972  0.35444332  0.97632625  1
  In  In33  1  0.82662215  0.30625071  0.98528476  1
  In  In34  1  0.33617089  0.35132600  0.49213480  1
  In  In35  1  0.84371779  0.33347355  0.47797874  1
  In  In36  1  0.17223937  0.68394056  0.00979155  1
  In  In37  1  0.66785223  0.67171587  0.01903968  1
  In  In38  1  0.16777779  0.66424993  0.51999116  1
  In  In39  1  0.66632248  0.65172222  0.51442265  1
  In  In40  1  0.66772523  0.65083435  0.31530078  1
  In  In41  1  0.17045298  0.68703000  0.81282111  1
  Si  Si42  1  0.14247541  -0.00022328  0.25184093  1
  Si  Si43  1  0.35217229  0.70624157  0.25411483  1
  Si  Si44  1  0.50575822  0.31058984  0.25248642  1
  Si  Si45  1  0.64280652  0.28128183  0.75158074  1
  Si  Si46  1  0.00511437  0.69915024  0.75243831  1
  Si  Si47  1  0.85293295  0.99849781  0.75448075  1
  Si  Si48  1  0.48593779  0.34686432  0.58078668  1
  Si  Si49  1  0.32939329  0.63269018  0.58613335  1
  Si  Si50  1  0.83114928  0.03020827  0.08461706  1
  Si  Si51  1  0.31291627  0.66956720  0.91351558  1
  Si  Si52  1  0.52691529  0.38004043  0.91877630  1
  Si  Si53  1  0.16247198  0.96516771  0.91931828  1
  Si  Si54  1  0.81003132  0.95000297  0.41438893  1
  Si  Si55  1  0.66370374  0.35925995  0.41670434  1
  Si  Si56  1  0.02558727  0.67026362  0.41906678  1
  S  S57  1  0.64804884  0.00372905  0.24778948  1
  S  S58  1  0.85551716  0.70320180  0.24458566  1
  S  S59  1  0.00051033  0.29018977  0.24980288  1
  S  S60  1  0.14987114  0.29335640  0.74785153  1
  S  S61  1  0.49976595  0.70875096  0.75148435  1
  S  S62  1  0.35500376  0.00575862  0.74533016  1
  S  S63  1  0.97989166  0.32328218  0.58693017  1
  S  S64  1  0.17908383  0.03540175  0.58565060  1
  S  S65  1  0.68419056  0.03853878  0.58449564  1
  S  S66  1  0.83815394  0.63513562  0.58522530  1
  S  S67  1  0.48003699  0.63634966  0.08675097  1
  S  S68  1  0.98306162  0.63391384  0.08424510  1
  S  S69  1  0.33537052  0.03693230  0.08507034  1
  S  S70  1  0.18244846  0.33355056  0.08439463  1
  S  S71  1  0.68110595  0.32663535  0.08541639  1
  S  S72  1  0.81101942  0.65914927  0.91746693  1
  S  S73  1  0.01538246  0.37028500  0.91822698  1
  S  S74  1  0.66905176  0.95739376  0.91440613  1
  S  S75  1  0.30981720  0.96041800  0.41549333  1
  S  S76  1  0.17147940  0.38365009  0.41464368  1
  S  S77  1  0.51443079  0.66282591  0.41581346  1
  O  O78  1  0.09919773  0.03059791  0.30582586  1
  O  O79  1  0.61146156  0.02001047  0.30189566  1
  O  O80  1  0.41099673  0.78797714  0.30960856  1
  O  O81  1  0.90250699  0.77367216  0.29881228  1
  O  O82  1  0.49325916  0.21080692  0.31215571  1
  O  O83  1  0.98621561  0.19055158  0.30139420  1
  O  O84  1  0.11366139  0.20352235  0.80280411  1
  O  O85  1  0.60382189  0.17356620  0.80828579  1
  O  O86  1  0.48923630  0.78406476  0.80428341  1
  O  O87  1  0.99285414  0.77080849  0.81347284  1
  O  O88  1  0.40080433  0.02625486  0.80064646  1
  O  O89  1  0.91149245  0.03632759  0.81072968  1
  O  O90  1  0.40631547  0.99520156  0.69641732  1
  O  O91  1  0.90387165  0.97069917  0.69760755  1
  O  O92  1  0.08960152  0.18713765  0.69837886  1
  O  O93  1  0.58137256  0.18667482  0.69525369  1
  O  O94  1  0.01158992  0.83508004  0.69858462  1
  O  O95  1  0.51136543  0.81204076  0.70000569  1
  O  O96  1  0.40363134  0.83626338  0.19676367  1
  O  O97  1  0.90712739  0.82074010  0.19512264  1
  O  O98  1  0.00997187  0.19980665  0.19781519  1
  O  O99  1  0.51214256  0.18897875  0.19730960  1
  O  O100  1  0.08079209  0.97143641  0.19413038  1
  O  O101  1  0.58995558  0.99200292  0.19722634  1
  O  O102  1  0.44086193  0.35820660  0.63828497  1
  O  O103  1  0.93678073  0.34642746  0.63617328  1
  O  O104  1  0.23285378  0.11734931  0.63686392  1
  O  O105  1  0.73911812  0.12641451  0.63448348  1
  O  O106  1  0.30816206  0.51362492  0.64197590  1
  O  O107  1  0.82989549  0.52787297  0.63436186  1
  O  O108  1  0.43711067  0.52695130  0.13612560  1
  O  O109  1  0.93924534  0.53173816  0.13495953  1
  O  O110  1  0.32710720  0.12669833  0.13455260  1
  O  O111  1  0.81619288  0.11222116  0.14151897  1
  O  O112  1  0.23754676  0.35779662  0.13460123  1
  O  O113  1  0.73604521  0.35543494  0.13645248  1
  O  O114  1  0.21340007  0.29676333  0.03124117  1
  O  O115  1  0.71913333  0.30113043  0.03230819  1
  O  O116  1  0.42865639  0.56782136  0.03298981  1
  O  O117  1  0.93148824  0.56476627  0.03064144  1
  O  O118  1  0.34845173  0.12948242  0.03048340  1
  O  O119  1  0.85870918  0.15132311  0.02787583  1
  O  O120  1  0.21555364  0.13633973  0.53235526  1
  O  O121  1  0.71680276  0.13965225  0.53096954  1
  O  O122  1  0.35453077  0.57188841  0.52719316  1
  O  O123  1  0.85174380  0.56829937  0.53042061  1
  O  O124  1  0.42947631  0.29646090  0.52064543  1
  O  O125  1  0.92865434  0.28889468  0.53295721  1
  O  O126  1  0.28101573  0.71731149  0.97353871  1
  O  O127  1  0.77422236  0.68081320  0.96965822  1
  O  O128  1  0.06792322  0.44555185  0.97160454  1
  O  O129  1  0.58054791  0.46530224  0.97664845  1
  O  O130  1  0.12877981  0.83256628  0.97393692  1
  O  O131  1  0.66440305  0.87211329  0.96904884  1
  O  O132  1  0.27175879  0.86416999  0.46755837  1
  O  O133  1  0.77182595  0.83190912  0.47182858  1
  O  O134  1  0.16373469  0.46077068  0.46797442  1
  O  O135  1  0.63282932  0.43037942  0.46978163  1
  O  O136  1  0.08144882  0.69293042  0.47543862  1
  O  O137  1  0.56740716  0.69204920  0.46831610  1
  O  O138  1  0.07907084  0.65179311  0.36227006  1
  O  O139  1  0.55414035  0.63798467  0.36393469  1
  O  O140  1  0.25715641  0.86122822  0.36249402  1
  O  O141  1  0.74757151  0.87519249  0.35696835  1
  O  O142  1  0.17909458  0.49109475  0.36274636  1
  O  O143  1  0.68815087  0.47811120  0.35975454  1
  O  O144  1  0.05563108  0.47539595  0.86699306  1
  O  O145  1  0.58068067  0.50651140  0.86286318  1
  O  O146  1  0.18467693  0.88557766  0.86429567  1
  O  O147  1  0.67746968  0.86549097  0.86351143  1
  O  O148  1  0.24564633  0.61859052  0.85905996  1
  O  O149  1  0.75817337  0.64423668  0.86475454  1
  O  O150  1  0.01052152  0.83277351  0.41545483  1
  O  O151  1  0.50568939  0.81724760  0.41086494  1
  O  O152  1  0.39743328  0.98343624  0.41096581  1
  O  O153  1  0.90494006  0.96572579  0.40913276  1
  O  O154  1  0.09149530  0.21460750  0.40977487  1
  O  O155  1  0.58015228  0.16004405  0.41217459  1
  O  O156  1  0.00458877  0.19729277  0.91348065  1
  O  O157  1  0.51080456  0.18672278  0.91514920  1
  O  O158  1  0.07974602  0.99926922  0.91263390  1
  O  O159  1  0.59077024  0.96983464  0.91084031  1
  O  O160  1  0.40698643  0.84244086  0.90730133  1
  O  O161  1  0.89931113  0.81147884  0.91257564  1
  O  O162  1  0.49397752  0.16764147  0.59115338  1
  O  O163  1  0.98985031  0.16769991  0.59563824  1
  O  O164  1  0.09170202  0.02281006  0.59333179  1
  O  O165  1  0.59543868  0.01847241  0.59434422  1
  O  O166  1  0.41853383  0.82138668  0.60078645  1
  O  O167  1  0.91989986  0.81235836  0.59388277  1
  O  O168  1  0.49029226  0.81215521  0.09545489  1
  O  O169  1  0.99194939  0.81128548  0.09219536  1
  O  O170  1  0.41606726  0.02040253  0.09370559  1
  O  O171  1  0.91874522  0.01164910  0.09874587  1
  O  O172  1  0.09322655  0.17254963  0.09564537  1
  O  O173  1  0.59494031  0.16350573  0.09297165  1
  O  O174  1  0.34431848  0.15700246  0.73855247  1
  O  O175  1  0.83555205  0.15096969  0.74226635  1
  O  O176  1  0.23356948  0.30179699  0.74087441  1
  O  O177  1  0.73944422  0.32561066  0.74254739  1
  O  O178  1  0.42658606  0.53123028  0.74687386  1
  O  O179  1  0.91887177  0.52049456  0.74230270  1
  O  O180  1  0.33514057  0.51899928  0.24190977  1
  O  O181  1  0.84895578  0.53508747  0.23486888  1
  O  O182  1  0.41943759  0.31609543  0.24195809  1
  O  O183  1  0.92890068  0.32333825  0.24098009  1
  O  O184  1  0.23800468  0.15107033  0.24151849  1
  O  O185  1  0.73241850  0.16460904  0.24206813  1
  O  O186  1  0.31678015  0.49375429  0.92002443  1
  O  O187  1  0.82025007  0.50245971  0.92024926  1
  O  O188  1  0.43066503  0.35855546  0.91483414  1
  O  O189  1  0.93034566  0.36540880  0.92341404  1
  O  O190  1  0.25020813  0.15025137  0.92875251  1
  O  O191  1  0.74856647  0.13361415  0.91458264  1
  O  O192  1  0.31475251  0.12921323  0.41475625  1
  O  O193  1  0.81651522  0.13583351  0.42121872  1
  O  O194  1  0.24978994  0.36648446  0.41666466  1
  O  O195  1  0.75110334  0.34739043  0.42629594  1
  O  O196  1  0.42839051  0.50131508  0.42058758  1
  O  O197  1  0.92977970  0.49926999  0.41609508  1
  O  O198  1  0.16623704  0.47857348  0.07993717  1
  O  O199  1  0.66774672  0.47324622  0.08133864  1
  O  O200  1  0.07007559  0.65608230  0.08152896  1
  O  O201  1  0.56723681  0.65885390  0.08194820  1
  O  O202  1  0.25968899  0.85983601  0.08319175  1
  O  O203  1  0.74974365  0.83662291  0.07877179  1
  O  O204  1  0.16485667  0.86069355  0.58152320  1
  O  O205  1  0.67189778  0.86576045  0.57988356  1
  O  O206  1  0.24920758  0.66889957  0.58041544  1
  O  O207  1  0.76501498  0.66458952  0.58319527  1
  O  O208  1  0.06670671  0.47510186  0.58218926  1
  O  O209  1  0.58214678  0.51398945  0.57964174  1
  O  O210  1  0.14652965  0.81690760  0.25980043  1
  O  O211  1  0.65350821  0.84799695  0.24446621  1
  O  O212  1  0.25780170  0.69802478  0.26026858  1
  O  O213  1  0.77260492  0.69677455  0.24236973  1
  O  O214  1  0.08378492  0.46168227  0.25355848  1
  O  O215  1  0.59486450  0.49410823  0.24768130  1
  O  O216  1  0.15346246  0.45838674  0.74532949  1
  O  O217  1  0.64533342  0.47221339  0.75904583  1
  O  O218  1  0.09453032  0.69552724  0.74736652  1
  O  O219  1  0.58318933  0.69827867  0.75762310  1
  O  O220  1  0.27227389  0.84331871  0.74374119  1
  O  O221  1  0.75894291  0.81729014  0.76259434  1
