# generated using pymatgen
data_Na2HfSi2SnSO12
_symmetry_space_group_name_H-M   'P 1'
_cell_length_a   9.00306265
_cell_length_b   8.99804223
_cell_length_c   23.01771688
_cell_angle_alpha   90.18300114
_cell_angle_beta   89.72489038
_cell_angle_gamma   119.97143403
_symmetry_Int_Tables_number   1
_chemical_formula_structural   Na2HfSi2SnSO12
_chemical_formula_sum   'Na12 Hf6 Si12 Sn6 S6 O72'
_cell_volume   1615.29156411
_cell_formula_units_Z   6
loop_
 _symmetry_equiv_pos_site_id
 _symmetry_equiv_pos_as_xyz
  1  'x, y, z'
loop_
 _atom_site_type_symbol
 _atom_site_label
 _atom_site_symmetry_multiplicity
 _atom_site_fract_x
 _atom_site_fract_y
 _atom_site_fract_z
 _atom_site_occupancy
  Na  Na0  1  0.99514376  0.62715698  0.25302630  1
  Na  Na1  1  0.37351706  0.00579341  0.75211119  1
  Na  Na2  1  0.66200883  0.96058098  0.58626593  1
  Na  Na3  1  0.03905200  0.33813168  0.08609073  1
  Na  Na4  1  0.32771507  0.29351470  0.91914587  1
  Na  Na5  1  0.70582247  0.67167984  0.41894297  1
  Na  Na6  1  0.00901997  0.99267298  0.50038753  1
  Na  Na7  1  0.00834153  0.99054026  0.00096922  1
  Na  Na8  1  0.67501667  0.32478733  0.83346620  1
  Na  Na9  1  0.67480519  0.32367924  0.33437063  1
  Na  Na10  1  0.34341095  0.65848149  0.16764042  1
  Na  Na11  1  0.34247091  0.65690699  0.66724337  1
  Hf  Hf12  1  0.00461033  0.01550513  0.85281667  1
  Hf  Hf13  1  0.67174239  0.34822395  0.18712144  1
  Hf  Hf14  1  0.66624596  0.33277197  0.98131462  1
  Hf  Hf15  1  0.31750526  0.66185917  0.02002996  1
  Hf  Hf16  1  0.33822817  0.68162011  0.51997488  1
  Hf  Hf17  1  0.33545915  0.66659408  0.81365513  1
  Si  Si18  1  0.70440645  0.71305127  0.25017921  1
  Si  Si19  1  0.00164960  0.29039789  0.25016359  1
  Si  Si20  1  0.28965097  0.29423668  0.74856390  1
  Si  Si21  1  0.71120562  0.00391418  0.74762012  1
  Si  Si22  1  0.37142820  0.04625155  0.58326238  1
  Si  Si23  1  0.66791946  0.62305628  0.58316590  1
  Si  Si24  1  0.95565838  0.63160610  0.08394729  1
  Si  Si25  1  0.37323111  0.33236534  0.08354347  1
  Si  Si26  1  0.03750618  0.37778611  0.91639340  1
  Si  Si27  1  0.33211954  0.95856251  0.91567969  1
  Si  Si28  1  0.62304333  0.96350643  0.41625827  1
  Si  Si29  1  0.04256155  0.66809008  0.41528113  1
  Sn  Sn30  1  0.98400589  0.99302338  0.35276098  1
  Sn  Sn31  1  0.00071606  0.99674143  0.64778052  1
  Sn  Sn32  1  0.00175327  0.00053268  0.14842718  1
  Sn  Sn33  1  0.65091502  0.32637169  0.68576292  1
  Sn  Sn34  1  0.66903078  0.33348759  0.48131509  1
  Sn  Sn35  1  0.33393654  0.66465784  0.31505305  1
  S  S36  1  0.29290989  0.00241142  0.25086059  1
  S  S37  1  0.99675565  0.70561165  0.75064536  1
  S  S38  1  0.95967130  0.33596043  0.58407394  1
  S  S39  1  0.66414999  0.04138512  0.08377434  1
  S  S40  1  0.62516557  0.66921658  0.91721426  1
  S  S41  1  0.33000149  0.37239097  0.41711367  1
  O  O42  1  0.21647164  0.03226108  0.30359053  1
  O  O43  1  0.82782231  0.78024671  0.30820488  1
  O  O44  1  0.97591435  0.17482965  0.30777421  1
  O  O45  1  0.20774957  0.17074074  0.80627340  1
  O  O46  1  0.97048935  0.78590766  0.80213702  1
  O  O47  1  0.82779224  0.02438976  0.80411256  1
  O  O48  1  0.78865219  0.96762398  0.68793945  1
  O  O49  1  0.17186511  0.20222158  0.69188551  1
  O  O50  1  0.03370588  0.81319055  0.69758529  1
  O  O51  1  0.79591510  0.82976978  0.19311240  1
  O  O52  1  0.03579604  0.21304896  0.18993659  1
  O  O53  1  0.18377120  0.96716757  0.19855807  1
  O  O54  1  0.88351638  0.36580521  0.63674230  1
  O  O55  1  0.49417697  0.11303639  0.64142315  1
  O  O56  1  0.64259469  0.50841683  0.64097468  1
  O  O57  1  0.87621025  0.50703996  0.14130843  1
  O  O58  1  0.63851328  0.11999144  0.13620662  1
  O  O59  1  0.49183877  0.35181554  0.13937249  1
  O  O60  1  0.45747644  0.30304721  0.02449788  1
  O  O61  1  0.83777821  0.53227358  0.02801070  1
  O  O62  1  0.69370250  0.15097549  0.03180592  1
  O  O63  1  0.46336700  0.16342620  0.52635168  1
  O  O64  1  0.70228857  0.54535271  0.52304075  1
  O  O65  1  0.85032477  0.30078477  0.53173440  1
  O  O66  1  0.54637729  0.69536781  0.96939223  1
  O  O67  1  0.16109509  0.45731361  0.97406452  1
  O  O68  1  0.31284892  0.84044767  0.97198425  1
  O  O69  1  0.54110918  0.83917684  0.47359764  1
  O  O70  1  0.30436370  0.45275151  0.46891902  1
  O  O71  1  0.16006692  0.68898736  0.47140077  1
  O  O72  1  0.12010400  0.63353697  0.35526859  1
  O  O73  1  0.50616754  0.87141611  0.35927769  1
  O  O74  1  0.36469363  0.47980023  0.36417759  1
  O  O75  1  0.13842746  0.49624518  0.86069738  1
  O  O76  1  0.36184003  0.87312781  0.85699815  1
  O  O77  1  0.51602312  0.63765665  0.86507585  1
  O  O78  1  0.02435777  0.84284058  0.41026970  1
  O  O79  1  0.81132188  0.97223177  0.41367879  1
  O  O80  1  0.17818445  0.19963514  0.41063329  1
  O  O81  1  0.02641173  0.18922441  0.91111171  1
  O  O82  1  0.15996906  0.97714601  0.90997607  1
  O  O83  1  0.79704528  0.81785421  0.90933593  1
  O  O84  1  0.97023254  0.17572141  0.58857120  1
  O  O85  1  0.18081070  0.02341138  0.58941435  1
  O  O86  1  0.83283916  0.82201314  0.58836106  1
  O  O87  1  0.97647022  0.82114886  0.08996649  1
  O  O88  1  0.82482006  0.03179788  0.08745952  1
  O  O89  1  0.17490849  0.16649037  0.08856024  1
  O  O90  1  0.69346414  0.17891924  0.74326855  1
  O  O91  1  0.47848922  0.30405735  0.74676399  1
  O  O92  1  0.84575635  0.53292555  0.74383304  1
  O  O93  1  0.69140722  0.52365862  0.24391561  1
  O  O94  1  0.83051815  0.31067709  0.24374428  1
  O  O95  1  0.46450221  0.15167286  0.24340374  1
  O  O96  1  0.63598006  0.50925044  0.92236350  1
  O  O97  1  0.84875698  0.35520573  0.92352238  1
  O  O98  1  0.49622036  0.15489825  0.92227517  1
  O  O99  1  0.64406482  0.15366226  0.42299762  1
  O  O100  1  0.48984323  0.36106232  0.42165520  1
  O  O101  1  0.84377108  0.50359073  0.42151992  1
  O  O102  1  0.35391671  0.50401726  0.07735373  1
  O  O103  1  0.14359053  0.64194385  0.07812258  1
  O  O104  1  0.51495731  0.86922564  0.07637600  1
  O  O105  1  0.35803930  0.85655393  0.57698530  1
  O  O106  1  0.49703099  0.64395015  0.57663080  1
  O  O107  1  0.13113277  0.48546089  0.57643196  1
  O  O108  1  0.30340229  0.84208708  0.25549111  1
  O  O109  1  0.51398092  0.69071307  0.25656770  1
  O  O110  1  0.16650758  0.48945073  0.25539545  1
  O  O111  1  0.31207643  0.48347154  0.75601791  1
  O  O112  1  0.15595101  0.69320675  0.75635666  1
  O  O113  1  0.51481182  0.84061688  0.75482357  1
