# generated using pymatgen
data_TaBi4ClO8
_symmetry_space_group_name_H-M   'P 1'
_cell_length_a   5.47500400
_cell_length_b   5.52374689
_cell_length_c   28.94630290
_cell_angle_alpha   90.00000000
_cell_angle_beta   90.00000000
_cell_angle_gamma   90.00000000
_symmetry_Int_Tables_number   1
_chemical_formula_structural   TaBi4ClO8
_chemical_formula_sum   'Ta4 Bi16 Cl4 O32'
_cell_volume   875.40961672
_cell_formula_units_Z   4
loop_
 _symmetry_equiv_pos_site_id
 _symmetry_equiv_pos_as_xyz
  1  'x, y, z'
loop_
 _atom_site_type_symbol
 _atom_site_label
 _atom_site_symmetry_multiplicity
 _atom_site_fract_x
 _atom_site_fract_y
 _atom_site_fract_z
 _atom_site_occupancy
  Ta  Ta0  1  0.00000000  0.98886283  0.75000000  1
  Ta  Ta1  1  0.50000000  0.48886283  0.75000000  1
  Ta  Ta2  1  0.00000000  0.01113717  0.25000000  1
  Ta  Ta3  1  0.50000000  0.51113717  0.25000000  1
  Bi  Bi4  1  0.49122540  0.48195410  0.06794447  1
  Bi  Bi5  1  0.47858013  0.06101863  0.84315226  1
  Bi  Bi6  1  0.97858013  0.56101863  0.65684774  1
  Bi  Bi7  1  0.47858013  0.93898137  0.34315226  1
  Bi  Bi8  1  0.97858013  0.43898137  0.15684774  1
  Bi  Bi9  1  0.50877460  0.51804590  0.93205553  1
  Bi  Bi10  1  0.00877460  0.01804590  0.56794447  1
  Bi  Bi11  1  0.50877460  0.48195410  0.43205553  1
  Bi  Bi12  1  0.02141987  0.43898137  0.34315226  1
  Bi  Bi13  1  0.52141987  0.06101863  0.65684774  1
  Bi  Bi14  1  0.02141987  0.56101863  0.84315226  1
  Bi  Bi15  1  0.52141987  0.93898137  0.15684774  1
  Bi  Bi16  1  0.99122540  0.01804590  0.93205553  1
  Bi  Bi17  1  0.49122540  0.51804590  0.56794447  1
  Bi  Bi18  1  0.99122540  0.98195410  0.43205553  1
  Bi  Bi19  1  0.00877460  0.98195410  0.06794447  1
  Cl  Cl20  1  0.50000000  0.00000000  0.50000000  1
  Cl  Cl21  1  0.00000000  0.50000000  0.50000000  1
  Cl  Cl22  1  0.50000000  0.00000000  0.00000000  1
  Cl  Cl23  1  0.00000000  0.50000000  0.00000000  1
  O  O24  1  0.24644764  0.28800773  0.23553402  1
  O  O25  1  0.74644764  0.21199227  0.76446598  1
  O  O26  1  0.24644764  0.71199227  0.73553402  1
  O  O27  1  0.74644764  0.78800773  0.26446598  1
  O  O28  1  0.75355236  0.28800773  0.26446598  1
  O  O29  1  0.25355236  0.21199227  0.73553402  1
  O  O30  1  0.75355236  0.71199227  0.76446598  1
  O  O31  1  0.25355236  0.78800773  0.23553402  1
  O  O32  1  0.40543444  0.55895645  0.31578755  1
  O  O33  1  0.90543444  0.94104355  0.68421245  1
  O  O34  1  0.40543444  0.44104355  0.81578755  1
  O  O35  1  0.90543444  0.05895645  0.18421245  1
  O  O36  1  0.59456556  0.55895645  0.18421245  1
  O  O37  1  0.09456556  0.94104355  0.81578755  1
  O  O38  1  0.59456556  0.44104355  0.68421245  1
  O  O39  1  0.09456556  0.05895645  0.31578755  1
  O  O40  1  0.74891707  0.24329551  0.10504707  1
  O  O41  1  0.24891707  0.25670449  0.89495293  1
  O  O42  1  0.74891707  0.75670449  0.60504707  1
  O  O43  1  0.24891707  0.74329551  0.39495293  1
  O  O44  1  0.24489103  0.23530817  0.10611423  1
  O  O45  1  0.74489103  0.26469183  0.89388577  1
  O  O46  1  0.24489103  0.76469183  0.60611423  1
  O  O47  1  0.74489103  0.73530817  0.39388577  1
  O  O48  1  0.75510897  0.23530817  0.39388577  1
  O  O49  1  0.25510897  0.26469183  0.60611423  1
  O  O50  1  0.75510897  0.76469183  0.89388577  1
  O  O51  1  0.25510897  0.73530817  0.10611423  1
  O  O52  1  0.25108293  0.24329551  0.39495293  1
  O  O53  1  0.75108293  0.25670449  0.60504707  1
  O  O54  1  0.25108293  0.75670449  0.89495293  1
  O  O55  1  0.75108293  0.74329551  0.10504707  1
