# generated using pymatgen
data_Na2Ta4Si5SO24
_symmetry_space_group_name_H-M   'P 1'
_cell_length_a   8.86519527
_cell_length_b   8.88861575
_cell_length_c   22.89608568
_cell_angle_alpha   90.01303223
_cell_angle_beta   90.08526286
_cell_angle_gamma   120.06768454
_symmetry_Int_Tables_number   1
_chemical_formula_structural   Na2Ta4Si5SO24
_chemical_formula_sum   'Na6 Ta12 Si15 S3 O72'
_cell_volume   1561.40997063
_cell_formula_units_Z   3
loop_
 _symmetry_equiv_pos_site_id
 _symmetry_equiv_pos_as_xyz
  1  'x, y, z'
loop_
 _atom_site_type_symbol
 _atom_site_label
 _atom_site_symmetry_multiplicity
 _atom_site_fract_x
 _atom_site_fract_y
 _atom_site_fract_z
 _atom_site_occupancy
  Na  Na0  1  0.00111290  0.99735645  0.50177039  1
  Na  Na1  1  0.00550731  0.99719051  0.99675375  1
  Na  Na2  1  0.66203534  0.32588856  0.82981802  1
  Na  Na3  1  0.67170243  0.33546528  0.34042529  1
  Na  Na4  1  0.32965156  0.65579599  0.16804458  1
  Na  Na5  1  0.33705807  0.66549963  0.66318909  1
  Ta  Ta6  1  0.98454800  0.99692731  0.35991272  1
  Ta  Ta7  1  0.00548617  0.01277858  0.85617285  1
  Ta  Ta8  1  0.99582216  0.01078863  0.64154245  1
  Ta  Ta9  1  0.99956215  0.00338537  0.14535439  1
  Ta  Ta10  1  0.65731881  0.32321379  0.68543163  1
  Ta  Ta11  1  0.67897734  0.35482947  0.18941848  1
  Ta  Ta12  1  0.66077127  0.34291606  0.97456338  1
  Ta  Ta13  1  0.66758754  0.33547250  0.47868024  1
  Ta  Ta14  1  0.32508218  0.65646148  0.01908474  1
  Ta  Ta15  1  0.33294417  0.66552839  0.52265661  1
  Ta  Ta16  1  0.33268157  0.65554496  0.31543773  1
  Ta  Ta17  1  0.34066291  0.66676015  0.81193709  1
  Si  Si18  1  0.71076349  0.72010884  0.25063150  1
  Si  Si19  1  -0.00000245  0.28783731  0.25044055  1
  Si  Si20  1  0.28945592  0.28881199  0.74948063  1
  Si  Si21  1  0.71320512  0.00285085  0.74981178  1
  Si  Si22  1  0.95268869  0.33960234  0.58327172  1
  Si  Si23  1  0.37615288  0.04274505  0.58163766  1
  Si  Si24  1  0.66686655  0.61923720  0.58384904  1
  Si  Si25  1  0.95796982  0.62486175  0.08208453  1
  Si  Si26  1  0.38012407  0.33457392  0.08365121  1
  Si  Si27  1  0.62297627  0.67452822  0.91700099  1
  Si  Si28  1  0.04328806  0.38110726  0.91494050  1
  Si  Si29  1  0.33198189  0.94985420  0.91663233  1
  Si  Si30  1  0.61056350  0.95344973  0.41725178  1
  Si  Si31  1  0.33445162  0.37637207  0.41861746  1
  Si  Si32  1  0.04733083  0.66643786  0.41671998  1
  S  S33  1  0.28823308  0.00048449  0.24917154  1
  S  S34  1  0.00005132  0.71391987  0.75027080  1
  S  S35  1  0.66570532  0.04711218  0.08396229  1
  O  O36  1  0.21205625  0.03100731  0.30149549  1
  O  O37  1  0.83648517  0.80566835  0.30657632  1
  O  O38  1  0.97529572  0.16505787  0.30617202  1
  O  O39  1  0.19649743  0.16704363  0.80735921  1
  O  O40  1  0.97621255  0.79537107  0.80363460  1
  O  O41  1  0.83328809  0.02202328  0.80733372  1
  O  O42  1  0.80424805  0.96986255  0.69323909  1
  O  O43  1  0.16626418  0.18925497  0.69346863  1
  O  O44  1  0.02671713  0.81886597  0.69759906  1
  O  O45  1  0.81122844  0.83424421  0.19251320  1
  O  O46  1  0.02730359  0.19346160  0.19241762  1
  O  O47  1  0.17874891  0.97668213  0.19568693  1
  O  O48  1  0.86137216  0.36232606  0.64189814  1
  O  O49  1  0.49752737  0.13419990  0.64049410  1
  O  O50  1  0.63884127  0.49839829  0.64156592  1
  O  O51  1  0.86485200  0.50224645  0.14049252  1
  O  O52  1  0.64307574  0.12799843  0.13698667  1
  O  O53  1  0.50053160  0.35283694  0.14069269  1
  O  O54  1  0.47107821  0.30267507  0.02673007  1
  O  O55  1  0.83242449  0.52420108  0.02673315  1
  O  O56  1  0.69568090  0.15175569  0.03106719  1
  O  O57  1  0.46771465  0.16713681  0.52546639  1
  O  O58  1  0.69732494  0.52974151  0.52624532  1
  O  O59  1  0.83218548  0.30354064  0.52576408  1
  O  O60  1  0.53135020  0.69859956  0.97516266  1
  O  O61  1  0.16488492  0.46752526  0.97382760  1
  O  O62  1  0.30503318  0.83058931  0.97484562  1
  O  O63  1  0.52740021  0.83119460  0.47383122  1
  O  O64  1  0.29928874  0.46645632  0.47410743  1
  O  O65  1  0.16845979  0.69796017  0.47371010  1
  O  O66  1  0.13971810  0.63918327  0.35812771  1
  O  O67  1  0.49864861  0.86038150  0.35771800  1
  O  O68  1  0.36324407  0.49654876  0.35931442  1
  O  O69  1  0.13423092  0.50189261  0.85866005  1
  O  O70  1  0.36217808  0.85969667  0.85947839  1
  O  O71  1  0.49935598  0.63629073  0.85964865  1
  O  O72  1  0.03041357  0.84033684  0.40608938  1
  O  O73  1  0.80563715  0.97172470  0.40991850  1
  O  O74  1  0.16364380  0.18594995  0.40625057  1
  O  O75  1  0.02718885  0.18989657  0.90991781  1
  O  O76  1  0.16086879  0.97071928  0.90858927  1
  O  O77  1  0.81664867  0.83804226  0.90857812  1
  O  O78  1  0.97162659  0.16451331  0.58999945  1
  O  O79  1  0.18519365  0.02213748  0.59298206  1
  O  O80  1  0.84052845  0.81008010  0.59309715  1
  O  O81  1  0.97452210  0.81488787  0.09219633  1
  O  O82  1  0.82569548  0.02811875  0.09032742  1
  O  O83  1  0.18565953  0.16319692  0.09224421  1
  O  O84  1  0.69796496  0.17790844  0.74440631  1
  O  O85  1  0.48493271  0.31504996  0.74427118  1
  O  O86  1  0.84363736  0.53837281  0.74566135  1
  O  O87  1  0.68854925  0.52322927  0.24225818  1
  O  O88  1  0.82078081  0.29781653  0.24007434  1
  O  O89  1  0.46435944  0.15614023  0.24033430  1
  O  O90  1  0.63786350  0.49759978  0.92349119  1
  O  O91  1  0.85093827  0.35448776  0.92680071  1
  O  O92  1  0.50460664  0.14160147  0.92696997  1
  O  O93  1  0.63909592  0.14690072  0.42228388  1
  O  O94  1  0.50667943  0.35927420  0.42257193  1
  O  O95  1  0.85506584  0.49611027  0.42266512  1
  O  O96  1  0.36425375  0.50921230  0.07719908  1
  O  O97  1  0.15201824  0.64791900  0.07711015  1
  O  O98  1  0.51203095  0.87055808  0.07890589  1
  O  O99  1  0.35992359  0.85357341  0.57642819  1
  O  O100  1  0.49595889  0.64013178  0.57657282  1
  O  O101  1  0.14589075  0.50652002  0.57730404  1
  O  O102  1  0.30371105  0.84361660  0.25285869  1
  O  O103  1  0.51805502  0.69756626  0.25482363  1
  O  O104  1  0.16744688  0.48361398  0.25546332  1
  O  O105  1  0.30205334  0.47843059  0.75749503  1
  O  O106  1  0.15794275  0.69559639  0.75662645  1
  O  O107  1  0.51754908  0.83154930  0.75755029  1
