# generated using pymatgen
data_Zr(IO3)4
_symmetry_space_group_name_H-M   'P 1'
_cell_length_a   8.41292966
_cell_length_b   8.41292966
_cell_length_c   7.39343847
_cell_angle_alpha   90.00000000
_cell_angle_beta   90.00000000
_cell_angle_gamma   90.00000000
_symmetry_Int_Tables_number   1
_chemical_formula_structural   Zr(IO3)4
_chemical_formula_sum   'Zr2 I8 O24'
_cell_volume   523.28824450
_cell_formula_units_Z   2
loop_
 _symmetry_equiv_pos_site_id
 _symmetry_equiv_pos_as_xyz
  1  'x, y, z'
loop_
 _atom_site_type_symbol
 _atom_site_label
 _atom_site_symmetry_multiplicity
 _atom_site_fract_x
 _atom_site_fract_y
 _atom_site_fract_z
 _atom_site_occupancy
  Zr  Zr0  1  0.00000000  0.50000000  0.05701969  1
  Zr  Zr1  1  0.50000000  -0.00000000  0.94298031  1
  I  I2  1  0.75220665  0.71866546  0.72746982  1
  I  I3  1  0.78133454  0.25220665  0.72746982  1
  I  I4  1  0.28133454  0.75220665  0.27253018  1
  I  I5  1  0.25220665  0.21866546  0.27253018  1
  I  I6  1  0.74779335  0.78133454  0.27253018  1
  I  I7  1  0.71866546  0.24779335  0.27253018  1
  I  I8  1  0.24779335  0.28133454  0.72746982  1
  I  I9  1  0.21866546  0.74779335  0.72746982  1
  O  O10  1  0.20391707  0.59028920  0.90172643  1
  O  O11  1  0.09028920  0.29608293  0.90172643  1
  O  O12  1  0.90971080  0.70391707  0.90172643  1
  O  O13  1  0.79608293  0.40971080  0.90172643  1
  O  O14  1  0.29608293  0.90971080  0.09827357  1
  O  O15  1  0.40971080  0.20391707  0.09827357  1
  O  O16  1  0.59028920  0.79608293  0.09827357  1
  O  O17  1  0.70391707  0.09028920  0.09827357  1
  O  O18  1  0.42522795  0.79332327  0.78051367  1
  O  O19  1  0.29332327  0.07477205  0.78051367  1
  O  O20  1  0.74881061  0.39945348  0.55218070  1
  O  O21  1  0.89945348  0.75118939  0.55218070  1
  O  O22  1  0.10054652  0.24881061  0.55218070  1
  O  O23  1  0.25118939  0.60054652  0.55218070  1
  O  O24  1  0.75118939  0.10054652  0.44781930  1
  O  O25  1  0.60054652  0.74881061  0.44781930  1
  O  O26  1  0.39945348  0.25118939  0.44781930  1
  O  O27  1  0.24881061  0.89945348  0.44781930  1
  O  O28  1  0.92522795  0.29332327  0.21948633  1
  O  O29  1  0.79332327  0.57477205  0.21948633  1
  O  O30  1  0.20667673  0.42522795  0.21948633  1
  O  O31  1  0.07477205  0.70667673  0.21948633  1
  O  O32  1  0.57477205  0.20667673  0.78051367  1
  O  O33  1  0.70667673  0.92522795  0.78051367  1
