# generated using pymatgen
data_NaMg2Ge2PS5O24
_symmetry_space_group_name_H-M   'P 1'
_cell_length_a   8.48592902
_cell_length_b   8.51393347
_cell_length_c   22.09220221
_cell_angle_alpha   89.81253107
_cell_angle_beta   89.78548878
_cell_angle_gamma   120.06674687
_symmetry_Int_Tables_number   1
_chemical_formula_structural   NaMg2Ge2PS5O24
_chemical_formula_sum   'Na3 Mg6 Ge6 P3 S15 O72'
_cell_volume   1381.32562611
_cell_formula_units_Z   3
loop_
 _symmetry_equiv_pos_site_id
 _symmetry_equiv_pos_as_xyz
  1  'x, y, z'
loop_
 _atom_site_type_symbol
 _atom_site_label
 _atom_site_symmetry_multiplicity
 _atom_site_fract_x
 _atom_site_fract_y
 _atom_site_fract_z
 _atom_site_occupancy
  Na  Na0  1  0.67077361  0.33338651  0.82948871  1
  Na  Na1  1  0.65988503  0.33423937  0.33240669  1
  Na  Na2  1  0.33744954  0.67064935  0.16477340  1
  Mg  Mg3  1  0.00006057  0.00357526  0.85607288  1
  Mg  Mg4  1  0.66612660  0.33236112  0.68376299  1
  Mg  Mg5  1  0.66219749  0.33353895  0.19016540  1
  Mg  Mg6  1  0.66753409  0.33503461  0.48661929  1
  Mg  Mg7  1  0.33143786  0.66365954  0.01891125  1
  Mg  Mg8  1  0.33426416  0.66717019  0.52487917  1
  Ge  Ge9  1  0.00184691  0.99442733  0.35316799  1
  Ge  Ge10  1  0.99869383  0.99942330  0.64631800  1
  Ge  Ge11  1  0.99746110  0.98940678  0.14727696  1
  Ge  Ge12  1  0.67304716  0.33363352  0.97862792  1
  Ge  Ge13  1  0.34175934  0.67717866  0.31416869  1
  Ge  Ge14  1  0.32199429  0.65890914  0.81390830  1
  P  P15  1  0.28299703  0.99403485  0.25154278  1
  P  P16  1  0.71244312  0.71692244  0.25189432  1
  P  P17  1  0.04272088  0.37867452  0.91856082  1
  S  S18  1  0.00616609  0.28855777  0.25103474  1
  S  S19  1  0.28924206  0.29463157  0.75121333  1
  S  S20  1  0.00577207  0.71272352  0.75165171  1
  S  S21  1  0.70169317  0.99073502  0.75210390  1
  S  S22  1  0.95898266  0.32569507  0.58544019  1
  S  S23  1  0.36702542  0.04069749  0.58538925  1
  S  S24  1  0.67419575  0.63320440  0.58539446  1
  S  S25  1  0.95395783  0.62631194  0.08504838  1
  S  S26  1  0.67497812  0.04583692  0.08551856  1
  S  S27  1  0.37193500  0.32551523  0.08487449  1
  S  S28  1  0.61988728  0.66049978  0.91752810  1
  S  S29  1  0.33852544  0.95902287  0.91767195  1
  S  S30  1  0.63063100  0.95973007  0.41458008  1
  S  S31  1  0.32671699  0.37325726  0.41328848  1
  S  S32  1  0.04518468  0.66933652  0.41449442  1
  O  O33  1  0.19755365  0.03063654  0.30809612  1
  O  O34  1  0.82941129  0.80655677  0.30859084  1
  O  O35  1  0.97315053  0.17583569  0.30636096  1
  O  O36  1  0.20707909  0.18324606  0.80438976  1
  O  O37  1  0.97834662  0.79486870  0.80492237  1
  O  O38  1  0.81319486  0.01842246  0.80470099  1
  O  O39  1  0.78008114  0.95485107  0.69564255  1
  O  O40  1  0.17391815  0.21633686  0.69538171  1
  O  O41  1  0.04048287  0.82739511  0.69539289  1
  O  O42  1  0.79156647  0.84103412  0.19405371  1
  O  O43  1  0.04413209  0.21070682  0.19583937  1
  O  O44  1  0.16068568  0.95392213  0.19403562  1
  O  O45  1  0.87737291  0.35227476  0.63957614  1
  O  O46  1  0.47552272  0.12155222  0.63922508  1
  O  O47  1  0.64638398  0.52409777  0.63941302  1
  O  O48  1  0.87046611  0.51573018  0.13844329  1
  O  O49  1  0.64686192  0.12883842  0.13858286  1
  O  O50  1  0.48201847  0.35168670  0.13797864  1
  O  O51  1  0.45170604  0.29077987  0.02829486  1
  O  O52  1  0.84038935  0.54739688  0.02882047  1
  O  O53  1  0.70883273  0.15923728  0.02859335  1
  O  O54  1  0.44252732  0.15409340  0.53068501  1
  O  O55  1  0.71326741  0.55916302  0.53082963  1
  O  O56  1  0.84598683  0.28804803  0.53109216  1
  O  O57  1  0.54078550  0.68732692  0.97164233  1
  O  O58  1  0.14967795  0.46605250  0.97394596  1
  O  O59  1  0.32001198  0.85745429  0.97222672  1
  O  O60  1  0.54559078  0.84251467  0.46586008  1
  O  O61  1  0.29656240  0.45616747  0.46525415  1
  O  O62  1  0.15895669  0.69862929  0.46609429  1
  O  O63  1  0.12579617  0.63553341  0.35668690  1
  O  O64  1  0.51606459  0.88265283  0.35666661  1
  O  O65  1  0.36331759  0.48978923  0.35540741  1
  O  O66  1  0.12112946  0.50843033  0.85961863  1
  O  O67  1  0.38684305  0.88598675  0.86206160  1
  O  O68  1  0.50089521  0.61855792  0.86186092  1
  O  O69  1  0.03520878  0.84086536  0.40721904  1
  O  O70  1  0.81231658  0.97121815  0.40583650  1
  O  O71  1  0.15406402  0.19329250  0.40488397  1
  O  O72  1  0.01397044  0.19421321  0.90693494  1
  O  O73  1  0.18189637  0.97839701  0.90801165  1
  O  O74  1  0.80043511  0.81034520  0.90749624  1
  O  O75  1  0.97181017  0.15374603  0.59316749  1
  O  O76  1  0.18186640  0.02806815  0.59320094  1
  O  O77  1  0.84603398  0.81829150  0.59298011  1
  O  O78  1  0.96263356  0.80867501  0.08924501  1
  O  O79  1  0.84824294  0.03688107  0.09057557  1
  O  O80  1  0.18723364  0.15478530  0.09062503  1
  O  O81  1  0.67568529  0.14700039  0.74421380  1
  O  O82  1  0.47236505  0.32159317  0.74339839  1
  O  O83  1  0.85048518  0.52967960  0.74422343  1
  O  O84  1  0.69490062  0.53313252  0.24653168  1
  O  O85  1  0.84676228  0.30828638  0.24508611  1
  O  O86  1  0.47096656  0.15567989  0.24625436  1
  O  O87  1  0.62792984  0.48458816  0.92314861  1
  O  O88  1  0.84692659  0.36709046  0.92307824  1
  O  O89  1  0.50897456  0.14858319  0.92242910  1
  O  O90  1  0.65482885  0.14126582  0.41858504  1
  O  O91  1  0.48406334  0.34746897  0.41682648  1
  O  O92  1  0.86199569  0.51220365  0.41782474  1
  O  O93  1  0.34836477  0.48340101  0.07816649  1
  O  O94  1  0.13832926  0.65638158  0.07851655  1
  O  O95  1  0.51840585  0.86312343  0.07812147  1
  O  O96  1  0.33811480  0.85911751  0.57662440  1
  O  O97  1  0.52063328  0.66131621  0.57654956  1
  O  O98  1  0.14129393  0.47869866  0.57651900  1
  O  O99  1  0.28928494  0.81311127  0.25799468  1
  O  O100  1  0.52065470  0.70291578  0.25765238  1
  O  O101  1  0.17533247  0.46989097  0.25651289  1
  O  O102  1  0.30213143  0.47856761  0.75661621  1
  O  O103  1  0.18066892  0.70509490  0.75591136  1
  O  O104  1  0.51770105  0.81857605  0.75832694  1
