# generated using pymatgen
data_Na3LaSiSn(PO6)2
_symmetry_space_group_name_H-M   'P 1'
_cell_length_a   9.42570402
_cell_length_b   9.42570122
_cell_length_c   22.75650913
_cell_angle_alpha   90.21193766
_cell_angle_beta   89.78807085
_cell_angle_gamma   119.74958515
_symmetry_Int_Tables_number   1
_chemical_formula_structural   Na3LaSiSn(PO6)2
_chemical_formula_sum   'Na18 La6 Si6 Sn6 P12 O72'
_cell_volume   1755.29502998
_cell_formula_units_Z   6
loop_
 _symmetry_equiv_pos_site_id
 _symmetry_equiv_pos_as_xyz
  1  'x, y, z'
loop_
 _atom_site_type_symbol
 _atom_site_label
 _atom_site_symmetry_multiplicity
 _atom_site_fract_x
 _atom_site_fract_y
 _atom_site_fract_z
 _atom_site_occupancy
  Na  Na0  1  0.00193637  0.98875392  0.50312719  1
  Na  Na1  1  0.01124679  0.99806482  0.00312717  1
  Na  Na2  1  0.66633725  0.32038152  0.83655950  1
  Na  Na3  1  0.67961789  0.33366220  0.33656004  1
  Na  Na4  1  0.34915731  0.67771408  0.16985209  1
  Na  Na5  1  0.32228967  0.65084610  0.66985534  1
  Na  Na6  1  0.35711465  0.35515962  0.24782853  1
  Na  Na7  1  0.00323751  0.64203662  0.24671543  1
  Na  Na8  1  0.64483962  0.64288408  0.74782856  1
  Na  Na9  1  0.35796112  0.99676061  0.74671562  1
  Na  Na10  1  0.03886295  0.70240568  0.57856164  1
  Na  Na11  1  0.65454271  0.97303545  0.58507465  1
  Na  Na12  1  0.29759135  0.96113427  0.07856093  1
  Na  Na13  1  0.02696600  0.34545964  0.08507442  1
  Na  Na14  1  0.97921998  0.68093330  0.91918446  1
  Na  Na15  1  0.68669038  0.02031481  0.91048418  1
  Na  Na16  1  0.97968642  0.31331027  0.41048504  1
  Na  Na17  1  0.31906754  0.02077868  0.41918492  1
  La  La18  1  0.97919122  0.98635137  0.35031717  1
  La  La19  1  0.01364984  0.02080822  0.85031715  1
  La  La20  1  0.67075413  0.32815643  0.68472334  1
  La  La21  1  0.67184478  0.32924691  0.18472317  1
  La  La22  1  0.33913211  0.66095548  0.01664630  1
  La  La23  1  0.33904343  0.66086676  0.51664735  1
  Si  Si24  1  0.01901492  0.31237921  0.25285169  1
  Si  Si25  1  0.68762058  0.98098494  0.75285171  1
  Si  Si26  1  0.35597539  0.04105622  0.58432633  1
  Si  Si27  1  0.95894395  0.64402493  0.08432615  1
  Si  Si28  1  0.34987802  0.97673805  0.92059044  1
  Si  Si29  1  0.02326212  0.65012188  0.42059039  1
  Sn  Sn30  1  0.00603860  0.01093659  0.65000818  1
  Sn  Sn31  1  0.98906390  0.99396138  0.15000832  1
  Sn  Sn32  1  0.66310595  0.33874574  0.98293344  1
  Sn  Sn33  1  0.66125495  0.33689488  0.48293394  1
  Sn  Sn34  1  0.33071610  0.66282103  0.31658592  1
  Sn  Sn35  1  0.33717827  0.66928340  0.81658583  1
  P  P36  1  0.28632569  0.97882581  0.25131634  1
  P  P37  1  0.68230639  0.70596662  0.24729501  1
  P  P38  1  0.29403342  0.31769358  0.74729502  1
  P  P39  1  0.02117407  0.71367438  0.75131632  1
  P  P40  1  0.95661090  0.31081363  0.57861488  1
  P  P41  1  0.69204081  0.64854731  0.58724349  1
  P  P42  1  0.68918645  0.04338902  0.07861483  1
  P  P43  1  0.35145257  0.30795912  0.08724345  1
  P  P44  1  0.62869686  0.64594905  0.91099315  1
  P  P45  1  0.01956799  0.38041120  0.91861986  1
  P  P46  1  0.61958884  0.98043231  0.41861984  1
  P  P47  1  0.35405099  0.37130343  0.41099302  1
  O  O48  1  0.20912393  0.99323114  0.30831786  1
  O  O49  1  0.78916228  0.76402490  0.30186425  1
  O  O50  1  0.01033166  0.22347877  0.31381016  1
  O  O51  1  0.23597532  0.21083769  0.80186425  1
  O  O52  1  0.00676930  0.79087542  0.80831754  1
  O  O53  1  0.77652067  0.98966763  0.81381002  1
  O  O54  1  0.79473309  0.96784147  0.69439999  1
  O  O55  1  0.18458996  0.22489588  0.69289491  1
  O  O56  1  0.04627513  0.83012021  0.69708982  1
  O  O57  1  0.77510363  0.81540983  0.19289503  1
  O  O58  1  0.03215857  0.20526689  0.19440011  1
  O  O59  1  0.16987925  0.95372477  0.19708962  1
  O  O60  1  0.88177447  0.34262383  0.63289306  1
  O  O61  1  0.45722204  0.11246765  0.64424313  1
  O  O62  1  0.67499018  0.56412953  0.64569447  1
  O  O63  1  0.88753274  0.54277818  0.14424322  1
  O  O64  1  0.65737558  0.11822520  0.13289309  1
  O  O65  1  0.43587040  0.32500965  0.14569464  1
  O  O66  1  0.45255135  0.29270408  0.03437648  1
  O  O67  1  0.84320617  0.54291835  0.02514411  1
  O  O68  1  0.71006991  0.15377713  0.02315797  1
  O  O69  1  0.45708167  0.15679374  0.52514427  1
  O  O70  1  0.70729580  0.54744878  0.53437678  1
  O  O71  1  0.84622328  0.28993026  0.52315801  1
  O  O72  1  0.55088237  0.67566820  0.96448353  1
  O  O73  1  0.10108655  0.44148073  0.97814753  1
  O  O74  1  0.33412440  0.88018149  0.98060972  1
  O  O75  1  0.55851954  0.89891346  0.47814760  1
  O  O76  1  0.32433176  0.44911795  0.46448367  1
  O  O77  1  0.11981859  0.66587520  0.48060966  1
  O  O78  1  0.12367290  0.62317429  0.36263644  1
  O  O79  1  0.50514259  0.87183097  0.36700813  1
  O  O80  1  0.37179300  0.47468870  0.35394423  1
  O  O81  1  0.12816903  0.49485738  0.86700810  1
  O  O82  1  0.37682623  0.87632710  0.86263619  1
  O  O83  1  0.52531092  0.62820658  0.85394420  1
  O  O84  1  0.01040534  0.81511412  0.41628573  1
  O  O85  1  0.79918291  0.02549212  0.41228297  1
  O  O86  1  0.20957482  0.19484088  0.40742915  1
  O  O87  1  0.97450788  0.20081706  0.91228290  1
  O  O88  1  0.18488557  0.98959457  0.91628578  1
  O  O89  1  0.80515825  0.79042453  0.90742934  1
  O  O90  1  0.94892503  0.14020639  0.58412697  1
  O  O91  1  0.17235623  0.02661310  0.58753571  1
  O  O92  1  0.85922158  0.81555107  0.58658206  1
  O  O93  1  0.97338670  0.82764391  0.08753570  1
  O  O94  1  0.85979400  0.05107471  0.08412699  1
  O  O95  1  0.18444850  0.14077802  0.08658203  1
  O  O96  1  0.64474868  0.12838238  0.75095350  1
  O  O97  1  0.47356886  0.36212008  0.73951030  1
  O  O98  1  0.86895947  0.54549679  0.74556743  1
  O  O99  1  0.63787990  0.52643143  0.23951032  1
  O  O100  1  0.87161782  0.35525129  0.25095341  1
  O  O101  1  0.45450323  0.13104043  0.24556747  1
  O  O102  1  0.63589818  0.48402421  0.91669511  1
  O  O103  1  0.85594234  0.38792511  0.91669625  1
  O  O104  1  0.52589510  0.15612424  0.92207441  1
  O  O105  1  0.61207486  0.14405791  0.41669628  1
  O  O106  1  0.51597600  0.36410193  0.41669522  1
  O  O107  1  0.84387539  0.47410489  0.42207457  1
  O  O108  1  0.31163569  0.44651791  0.08090549  1
  O  O109  1  0.14492472  0.67170452  0.07969563  1
  O  O110  1  0.54920655  0.86788582  0.07440691  1
  O  O111  1  0.32829577  0.85507515  0.57969551  1
  O  O112  1  0.55348263  0.68836405  0.58090545  1
  O  O113  1  0.13211408  0.45079312  0.57440688  1
  O  O114  1  0.29614044  0.81648731  0.25286711  1
  O  O115  1  0.52017898  0.71244553  0.25443379  1
  O  O116  1  0.19775744  0.49085409  0.25077956  1
  O  O117  1  0.28755449  0.47982051  0.75443369  1
  O  O118  1  0.18351326  0.70386020  0.75286715  1
  O  O119  1  0.50914629  0.80224303  0.75077971  1
