# generated using pymatgen
data_Na3HfTiSi2PO12
_symmetry_space_group_name_H-M   'P 1'
_cell_length_a   9.02519820
_cell_length_b   9.01575305
_cell_length_c   22.15211395
_cell_angle_alpha   89.54073110
_cell_angle_beta   90.37994302
_cell_angle_gamma   119.88462667
_symmetry_Int_Tables_number   1
_chemical_formula_structural   Na3HfTiSi2PO12
_chemical_formula_sum   'Na18 Hf6 Ti6 Si12 P6 O72'
_cell_volume   1562.76015764
_cell_formula_units_Z   6
loop_
 _symmetry_equiv_pos_site_id
 _symmetry_equiv_pos_as_xyz
  1  'x, y, z'
loop_
 _atom_site_type_symbol
 _atom_site_label
 _atom_site_symmetry_multiplicity
 _atom_site_fract_x
 _atom_site_fract_y
 _atom_site_fract_z
 _atom_site_occupancy
  Na  Na0  1  0.00342145  0.99616669  0.50138632  1
  Na  Na1  1  0.01498188  0.00141585  0.00342660  1
  Na  Na2  1  0.66757206  0.32292560  0.82985784  1
  Na  Na3  1  0.68002315  0.33470876  0.34099405  1
  Na  Na4  1  0.33128976  0.65464669  0.16783173  1
  Na  Na5  1  0.33672118  0.66451831  0.66142126  1
  Na  Na6  1  0.63084086  0.99902147  0.25228274  1
  Na  Na7  1  0.99823120  0.62607899  0.25348587  1
  Na  Na8  1  0.99400586  0.36397285  0.74494242  1
  Na  Na9  1  0.36886298  0.00570272  0.74973458  1
  Na  Na10  1  0.29369349  0.33414283  0.58001778  1
  Na  Na11  1  0.66777574  0.96338711  0.58561566  1
  Na  Na12  1  0.66829526  0.69239664  0.08726347  1
  Na  Na13  1  0.03289380  0.33374409  0.08923352  1
  Na  Na14  1  0.97715271  0.66950503  0.91835389  1
  Na  Na15  1  0.32757681  0.29874357  0.92030123  1
  Na  Na16  1  0.33404928  0.03789819  0.41676392  1
  Na  Na17  1  0.70171297  0.66615901  0.42283097  1
  Hf  Hf18  1  0.99760394  0.00506265  0.85153000  1
  Hf  Hf19  1  0.66454503  0.33695048  0.19140409  1
  Hf  Hf20  1  0.66140025  0.32699482  0.97989768  1
  Hf  Hf21  1  0.32946410  0.67000696  0.02124730  1
  Hf  Hf22  1  0.32890940  0.65902120  0.31409068  1
  Hf  Hf23  1  0.33915409  0.67054197  0.80836633  1
  Ti  Ti24  1  0.98821709  0.99773155  0.35772591  1
  Ti  Ti25  1  0.99524429  0.99299350  0.64387717  1
  Ti  Ti26  1  0.00788609  0.00368235  0.14798984  1
  Ti  Ti27  1  0.65290346  0.32863266  0.68411038  1
  Ti  Ti28  1  0.67352156  0.33928322  0.48183095  1
  Ti  Ti29  1  0.33726995  0.67945260  0.51977528  1
  Si  Si30  1  0.71316795  0.71434405  0.25180414  1
  Si  Si31  1  0.00417555  0.28544795  0.25003450  1
  Si  Si32  1  0.29195736  0.29116040  0.74484680  1
  Si  Si33  1  0.70739256  0.00255867  0.74192521  1
  Si  Si34  1  0.37239842  0.04237722  0.58114314  1
  Si  Si35  1  0.66934585  0.62560236  0.58055525  1
  Si  Si36  1  0.96151699  0.63331132  0.08565891  1
  Si  Si37  1  0.36689189  0.32629799  0.08228230  1
  Si  Si38  1  0.03751867  0.37325235  0.91496297  1
  Si  Si39  1  0.33734952  0.96402832  0.91067349  1
  Si  Si40  1  0.62697576  0.96522296  0.41755883  1
  Si  Si41  1  0.03850329  0.66275188  0.41595028  1
  P  P42  1  0.28457569  0.00137442  0.25505778  1
  P  P43  1  0.98935170  0.70390371  0.74824178  1
  P  P44  1  0.95963822  0.33967116  0.58479265  1
  P  P45  1  0.66892362  0.03922865  0.08883629  1
  P  P46  1  0.62651076  0.67001797  0.91886438  1
  P  P47  1  0.33105866  0.37262340  0.42229152  1
  O  O48  1  0.20289465  0.01023113  0.31458948  1
  O  O49  1  0.82834163  0.80827767  0.31291909  1
  O  O50  1  0.99609154  0.16535090  0.30797957  1
  O  O51  1  0.20907713  0.17610735  0.80611594  1
  O  O52  1  0.97719285  0.78348595  0.80836991  1
  O  O53  1  0.82777631  0.02218716  0.79979894  1
  O  O54  1  0.80417656  0.98738224  0.68148759  1
  O  O55  1  0.16861926  0.18578764  0.68726573  1
  O  O56  1  0.00713021  0.82560374  0.69497070  1
  O  O57  1  0.81289933  0.82952268  0.19214349  1
  O  O58  1  0.01318083  0.19356821  0.18773477  1
  O  O59  1  0.17327660  0.99182319  0.19991433  1
  O  O60  1  0.87830840  0.35177617  0.64413508  1
  O  O61  1  0.49641995  0.13039629  0.64095087  1
  O  O62  1  0.64871445  0.49355514  0.63599496  1
  O  O63  1  0.87112665  0.50989528  0.14504888  1
  O  O64  1  0.65291468  0.11768543  0.14847236  1
  O  O65  1  0.49638883  0.34690813  0.13748804  1
  O  O66  1  0.45073281  0.31167633  0.01898846  1
  O  O67  1  0.84138524  0.53815346  0.02634709  1
  O  O68  1  0.68140691  0.15623652  0.03510311  1
  O  O69  1  0.47286063  0.16788444  0.52352162  1
  O  O70  1  0.68510221  0.53441008  0.51888500  1
  O  O71  1  0.83783222  0.32220271  0.53128963  1
  O  O72  1  0.54838506  0.68353347  0.97865478  1
  O  O73  1  0.15550759  0.46585362  0.97490492  1
  O  O74  1  0.32557118  0.84196302  0.96724114  1
  O  O75  1  0.53290097  0.83423855  0.47565097  1
  O  O76  1  0.31778643  0.45698271  0.48056060  1
  O  O77  1  0.17571830  0.68227561  0.46980177  1
  O  O78  1  0.11804224  0.64124707  0.35286105  1
  O  O79  1  0.50845380  0.87491502  0.35785512  1
  O  O80  1  0.35066375  0.49052509  0.36752467  1
  O  O81  1  0.13437935  0.48839987  0.85494526  1
  O  O82  1  0.34975614  0.87724786  0.84776836  1
  O  O83  1  0.51031725  0.65609785  0.86478443  1
  O  O84  1  0.02881165  0.84098195  0.41663845  1
  O  O85  1  0.81439958  0.97549500  0.41337955  1
  O  O86  1  0.17488687  0.19040854  0.41641703  1
  O  O87  1  0.02329823  0.18578886  0.91215269  1
  O  O88  1  0.15904418  0.97169767  0.91324449  1
  O  O89  1  0.80862112  0.82316724  0.91275633  1
  O  O90  1  0.97437971  0.17379949  0.58211795  1
  O  O91  1  0.18536645  0.02763542  0.58622791  1
  O  O92  1  0.83519149  0.81887055  0.58601550  1
  O  O93  1  0.97460796  0.82026416  0.09068427  1
  O  O94  1  0.83448666  0.02732724  0.08660737  1
  O  O95  1  0.17375962  0.16235399  0.08908093  1
  O  O96  1  0.69224626  0.17739680  0.74220673  1
  O  O97  1  0.48180813  0.30852508  0.73977252  1
  O  O98  1  0.83731956  0.52213450  0.74281043  1
  O  O99  1  0.69871592  0.52582892  0.25074193  1
  O  O100  1  0.82709231  0.29625483  0.25268466  1
  O  O101  1  0.46910048  0.15485565  0.25070001  1
  O  O102  1  0.63790875  0.50323077  0.91766607  1
  O  O103  1  0.85342052  0.36539100  0.91941963  1
  O  O104  1  0.49903143  0.15803037  0.91550617  1
  O  O105  1  0.64042371  0.15095557  0.42487113  1
  O  O106  1  0.49674794  0.35865705  0.42041572  1
  O  O107  1  0.84567195  0.49888442  0.42359120  1
  O  O108  1  0.35517564  0.50269355  0.08318229  1
  O  O109  1  0.14867963  0.64781553  0.08116380  1
  O  O110  1  0.51486191  0.85614049  0.08295150  1
  O  O111  1  0.36067346  0.85435911  0.57539307  1
  O  O112  1  0.49422795  0.64000512  0.58003252  1
  O  O113  1  0.14187651  0.49489659  0.57832281  1
  O  O114  1  0.29836246  0.83503255  0.25183957  1
  O  O115  1  0.52685537  0.70256589  0.25414119  1
  O  O116  1  0.16617105  0.48021032  0.25193802  1
  O  O117  1  0.30020580  0.47575420  0.74772525  1
  O  O118  1  0.15807544  0.69374796  0.74711989  1
  O  O119  1  0.51469019  0.83679293  0.74534400  1
