# generated using pymatgen
data_Cs4SiSe4
_symmetry_space_group_name_H-M   'P 1'
_cell_length_a   14.32036780
_cell_length_b   14.32036780
_cell_length_c   14.32036780
_cell_angle_alpha   90.00000000
_cell_angle_beta   90.00000000
_cell_angle_gamma   90.00000000
_symmetry_Int_Tables_number   1
_chemical_formula_structural   Cs4SiSe4
_chemical_formula_sum   'Cs32 Si8 Se32'
_cell_volume   2936.71983966
_cell_formula_units_Z   8
loop_
 _symmetry_equiv_pos_site_id
 _symmetry_equiv_pos_as_xyz
  1  'x, y, z'
loop_
 _atom_site_type_symbol
 _atom_site_label
 _atom_site_symmetry_multiplicity
 _atom_site_fract_x
 _atom_site_fract_y
 _atom_site_fract_z
 _atom_site_occupancy
  Cs  Cs0  1  0.34730715  0.34730715  0.34730715  1
  Cs  Cs1  1  0.15269285  0.84730715  0.15269285  1
  Cs  Cs2  1  0.84730715  0.15269285  0.15269285  1
  Cs  Cs3  1  0.15269285  0.15269285  0.84730715  1
  Cs  Cs4  1  0.34730715  0.65269285  0.65269285  1
  Cs  Cs5  1  0.65269285  0.65269285  0.34730715  1
  Cs  Cs6  1  0.65269285  0.34730715  0.65269285  1
  Cs  Cs7  1  0.84730715  0.84730715  0.84730715  1
  Cs  Cs8  1  0.34783220  0.13565573  0.08408246  1
  Cs  Cs9  1  0.34783220  0.86434427  0.91591754  1
  Cs  Cs10  1  0.13565573  0.08408246  0.34783220  1
  Cs  Cs11  1  0.86434427  0.08408246  0.65216780  1
  Cs  Cs12  1  0.08408246  0.34783220  0.13565573  1
  Cs  Cs13  1  0.91591754  0.65216780  0.13565573  1
  Cs  Cs14  1  0.15216780  0.41591754  0.63565573  1
  Cs  Cs15  1  0.15216780  0.58408246  0.36434427  1
  Cs  Cs16  1  0.84783220  0.41591754  0.36434427  1
  Cs  Cs17  1  0.58408246  0.36434427  0.15216780  1
  Cs  Cs18  1  0.36434427  0.84783220  0.41591754  1
  Cs  Cs19  1  0.36434427  0.15216780  0.58408246  1
  Cs  Cs20  1  0.41591754  0.63565573  0.15216780  1
  Cs  Cs21  1  0.63565573  0.15216780  0.41591754  1
  Cs  Cs22  1  0.41591754  0.36434427  0.84783220  1
  Cs  Cs23  1  0.58408246  0.63565573  0.84783220  1
  Cs  Cs24  1  0.63565573  0.84783220  0.58408246  1
  Cs  Cs25  1  0.91591754  0.34783220  0.86434427  1
  Cs  Cs26  1  0.08408246  0.65216780  0.86434427  1
  Cs  Cs27  1  0.13565573  0.91591754  0.65216780  1
  Cs  Cs28  1  0.86434427  0.91591754  0.34783220  1
  Cs  Cs29  1  0.65216780  0.86434427  0.08408246  1
  Cs  Cs30  1  0.65216780  0.13565573  0.91591754  1
  Cs  Cs31  1  0.84783220  0.58408246  0.63565573  1
  Si  Si32  1  -0.00000000  0.25000000  0.50000000  1
  Si  Si33  1  -0.00000000  0.75000000  0.50000000  1
  Si  Si34  1  0.50000000  -0.00000000  0.75000000  1
  Si  Si35  1  0.50000000  -0.00000000  0.25000000  1
  Si  Si36  1  0.75000000  0.50000000  -0.00000000  1
  Si  Si37  1  -0.00000000  -0.00000000  -0.00000000  1
  Si  Si38  1  0.50000000  0.50000000  0.50000000  1
  Si  Si39  1  0.25000000  0.50000000  -0.00000000  1
  Se  Se40  1  0.09999614  0.16201541  0.58936882  1
  Se  Se41  1  0.33798459  0.59999614  0.91063118  1
  Se  Se42  1  0.40000386  0.08936882  0.33798459  1
  Se  Se43  1  0.59999614  0.08936882  0.66201541  1
  Se  Se44  1  0.08936882  0.33798459  0.40000386  1
  Se  Se45  1  0.91063118  0.66201541  0.40000386  1
  Se  Se46  1  0.16201541  0.41063118  0.90000386  1
  Se  Se47  1  0.16201541  0.58936882  0.09999614  1
  Se  Se48  1  0.83798459  0.41063118  0.09999614  1
  Se  Se49  1  0.59245739  0.59245739  0.59245739  1
  Se  Se50  1  0.09999614  0.83798459  0.41063118  1
  Se  Se51  1  0.33798459  0.40000386  0.08936882  1
  Se  Se52  1  0.41063118  0.90000386  0.16201541  1
  Se  Se53  1  0.90000386  0.16201541  0.41063118  1
  Se  Se54  1  0.41063118  0.09999614  0.83798459  1
  Se  Se55  1  0.58936882  0.90000386  0.83798459  1
  Se  Se56  1  0.90000386  0.83798459  0.58936882  1
  Se  Se57  1  0.91063118  0.33798459  0.59999614  1
  Se  Se58  1  0.08936882  0.66201541  0.59999614  1
  Se  Se59  1  0.40000386  0.91063118  0.66201541  1
  Se  Se60  1  0.59999614  0.91063118  0.33798459  1
  Se  Se61  1  0.66201541  0.59999614  0.08936882  1
  Se  Se62  1  0.66201541  0.40000386  0.91063118  1
  Se  Se63  1  0.83798459  0.58936882  0.90000386  1
  Se  Se64  1  0.90754261  0.09245739  0.90754261  1
  Se  Se65  1  0.90754261  0.90754261  0.09245739  1
  Se  Se66  1  0.09245739  0.90754261  0.90754261  1
  Se  Se67  1  0.40754261  0.40754261  0.59245739  1
  Se  Se68  1  0.59245739  0.40754261  0.40754261  1
  Se  Se69  1  0.40754261  0.59245739  0.40754261  1
  Se  Se70  1  0.09245739  0.09245739  0.09245739  1
  Se  Se71  1  0.58936882  0.09999614  0.16201541  1
