# generated using pymatgen
data_Na9Nb4Zn2Si6(PO12)3
_symmetry_space_group_name_H-M   'P 1'
_cell_length_a   15.77329255
_cell_length_b   27.15514539
_cell_length_c   9.03662619
_cell_angle_alpha   89.92404863
_cell_angle_beta   125.01618247
_cell_angle_gamma   90.03671148
_symmetry_Int_Tables_number   1
_chemical_formula_structural   Na9Nb4Zn2Si6(PO12)3
_chemical_formula_sum   'Na36 Nb16 Zn8 Si24 P12 O144'
_cell_volume   3169.99828605
_cell_formula_units_Z   4
loop_
 _symmetry_equiv_pos_site_id
 _symmetry_equiv_pos_as_xyz
  1  'x, y, z'
loop_
 _atom_site_type_symbol
 _atom_site_label
 _atom_site_symmetry_multiplicity
 _atom_site_fract_x
 _atom_site_fract_y
 _atom_site_fract_z
 _atom_site_occupancy
  Na  Na0  1  0.25873758  0.24516135  0.03024850  1
  Na  Na1  1  0.25100517  0.59027983  0.02004739  1
  Na  Na2  1  0.26048141  0.91291767  0.02648767  1
  Na  Na3  1  0.75023089  0.25161040  0.50369091  1
  Na  Na4  1  0.74655463  0.58158265  0.50114217  1
  Na  Na5  1  0.75858774  0.91664448  0.52318050  1
  Na  Na6  1  0.75100517  0.09027983  0.02004739  1
  Na  Na7  1  0.76048141  0.41291767  0.02648767  1
  Na  Na8  1  0.75873758  0.74516135  0.03024850  1
  Na  Na9  1  0.24655463  0.08158265  0.50114217  1
  Na  Na10  1  0.25858774  0.41664448  0.52318050  1
  Na  Na11  1  0.25023089  0.75161040  0.50369091  1
  Na  Na12  1  0.48622469  0.02664744  0.71684407  1
  Na  Na13  1  0.49084161  0.36999785  0.74934829  1
  Na  Na14  1  0.48596697  0.69620641  0.72412810  1
  Na  Na15  1  0.49067806  0.29492448  0.25570926  1
  Na  Na16  1  0.49926553  0.62616952  0.26766407  1
  Na  Na17  1  0.50047850  0.95708534  0.27713437  1
  Na  Na18  1  0.98596697  0.19620641  0.72412810  1
  Na  Na19  1  0.98622469  0.52664744  0.71684407  1
  Na  Na20  1  0.99084161  0.86999785  0.74934829  1
  Na  Na21  1  0.99926553  0.12616952  0.26766407  1
  Na  Na22  1  0.00047850  0.45708534  0.27713437  1
  Na  Na23  1  0.99067806  0.79492448  0.25570926  1
  Na  Na24  1  0.81730335  0.98107819  0.21167051  1
  Na  Na25  1  0.20732518  0.30864680  0.29613056  1
  Na  Na26  1  0.19854439  0.97398659  0.27830482  1
  Na  Na27  1  0.20053178  0.35919132  0.78784713  1
  Na  Na28  1  0.81983379  0.01894197  0.71666217  1
  Na  Na29  1  0.81585417  0.69531670  0.68308199  1
  Na  Na30  1  0.31730335  0.48107819  0.21167051  1
  Na  Na31  1  0.69854439  0.47398659  0.27830482  1
  Na  Na32  1  0.70732518  0.80864680  0.29613056  1
  Na  Na33  1  0.70053178  0.85919132  0.78784713  1
  Na  Na34  1  0.31585417  0.19531670  0.68308199  1
  Na  Na35  1  0.31983379  0.51894197  0.71666217  1
  Nb  Nb36  1  0.10513885  0.24987673  0.57821133  1
  Nb  Nb37  1  0.10667151  0.58416041  0.56807442  1
  Nb  Nb38  1  0.10608662  0.91573438  0.56763940  1
  Nb  Nb39  1  0.89122043  0.24977417  0.93292697  1
  Nb  Nb40  1  0.89573703  0.58231352  0.94101650  1
  Nb  Nb41  1  0.10585400  0.08427219  0.06020654  1
  Nb  Nb42  1  0.10530959  0.41708333  0.06169006  1
  Nb  Nb43  1  0.10592709  0.75032263  0.06204860  1
  Nb  Nb44  1  0.60667151  0.08416041  0.56807442  1
  Nb  Nb45  1  0.60608662  0.41573438  0.56763940  1
  Nb  Nb46  1  0.60513885  0.74987673  0.57821133  1
  Nb  Nb47  1  0.39573703  0.08231352  0.94101650  1
  Nb  Nb48  1  0.39122043  0.74977417  0.93292697  1
  Nb  Nb49  1  0.60592709  0.25032263  0.06204860  1
  Nb  Nb50  1  0.60585400  0.58427219  0.06020654  1
  Nb  Nb51  1  0.60530959  0.91708333  0.06169006  1
  Zn  Zn52  1  0.89726962  0.91598300  0.94588664  1
  Zn  Zn53  1  0.89497155  0.08716462  0.43750473  1
  Zn  Zn54  1  0.90108792  0.41701306  0.45970996  1
  Zn  Zn55  1  0.89924848  0.74981866  0.44312483  1
  Zn  Zn56  1  0.39726962  0.41598300  0.94588664  1
  Zn  Zn57  1  0.39924848  0.24981866  0.44312483  1
  Zn  Zn58  1  0.39497155  0.58716462  0.43750473  1
  Zn  Zn59  1  0.40108792  0.91701306  0.45970996  1
  Si  Si60  1  0.99415055  0.32080152  0.74204204  1
  Si  Si61  1  0.49415055  0.82080152  0.74204204  1
  Si  Si62  1  0.35258439  0.29879097  0.75326214  1
  Si  Si63  1  0.35261055  0.63084531  0.75152244  1
  Si  Si64  1  0.35074020  0.96408473  0.74653889  1
  Si  Si65  1  0.64031119  0.29773757  0.73156460  1
  Si  Si66  1  0.64554389  0.63101130  0.73571863  1
  Si  Si67  1  0.64613191  0.96729524  0.73912850  1
  Si  Si68  1  0.64798256  0.03427614  0.24759920  1
  Si  Si69  1  0.64340794  0.70036131  0.24722070  1
  Si  Si70  1  0.35308686  0.03574437  0.25672644  1
  Si  Si71  1  0.34958408  0.36946594  0.24827308  1
  Si  Si72  1  0.35259307  0.70360364  0.25688831  1
  Si  Si73  1  0.85261055  0.13084531  0.75152244  1
  Si  Si74  1  0.85074020  0.46408473  0.74653889  1
  Si  Si75  1  0.85258439  0.79879097  0.75326214  1
  Si  Si76  1  0.14554389  0.13101130  0.73571863  1
  Si  Si77  1  0.14613191  0.46729524  0.73912850  1
  Si  Si78  1  0.14031119  0.79773757  0.73156460  1
  Si  Si79  1  0.14340794  0.20036131  0.24722070  1
  Si  Si80  1  0.14798256  0.53427614  0.24759920  1
  Si  Si81  1  0.85259307  0.20360364  0.25688831  1
  Si  Si82  1  0.85308686  0.53574437  0.25672644  1
  Si  Si83  1  0.84958408  0.86946594  0.24827308  1
  P  P84  1  0.00094956  0.65348695  0.74675321  1
  P  P85  1  0.00157696  0.98668793  0.74130955  1
  P  P86  1  0.00217827  0.01285047  0.24250931  1
  P  P87  1  0.00143181  0.34613557  0.24958126  1
  P  P88  1  0.00194753  0.68060198  0.24716622  1
  P  P89  1  0.50094956  0.15348695  0.74675321  1
  P  P90  1  0.50157696  0.48668793  0.74130955  1
  P  P91  1  0.50194753  0.18060198  0.24716622  1
  P  P92  1  0.50217827  0.51285047  0.24250931  1
  P  P93  1  0.50143181  0.84613557  0.24958126  1
  P  P94  1  0.64026113  0.36636649  0.23926938  1
  P  P95  1  0.14026113  0.86636649  0.23926938  1
  O  O96  1  0.15015187  0.19240579  0.74963378  1
  O  O97  1  0.14728204  0.52930300  0.74650366  1
  O  O98  1  0.14493353  0.85926500  0.73919724  1
  O  O99  1  0.84554526  0.19052969  0.77360836  1
  O  O100  1  0.84758105  0.52478354  0.77976037  1
  O  O101  1  0.84146062  0.85772408  0.75466110  1
  O  O102  1  0.84892421  0.14505265  0.24586908  1
  O  O103  1  0.84235103  0.47707589  0.24051381  1
  O  O104  1  0.84038626  0.81077756  0.25277394  1
  O  O105  1  0.14393909  0.13880058  0.24133185  1
  O  O106  1  0.14005005  0.47327260  0.24434302  1
  O  O107  1  0.14715145  0.80815655  0.24979886  1
  O  O108  1  0.64728204  0.02930300  0.74650366  1
  O  O109  1  0.64493353  0.35926500  0.73919724  1
  O  O110  1  0.65015187  0.69240579  0.74963378  1
  O  O111  1  0.34758105  0.02478354  0.77976037  1
  O  O112  1  0.34146062  0.35772408  0.75466110  1
  O  O113  1  0.34554526  0.69052969  0.77360836  1
  O  O114  1  0.34038626  0.31077756  0.25277394  1
  O  O115  1  0.34892421  0.64505265  0.24586908  1
  O  O116  1  0.34235103  0.97707589  0.24051381  1
  O  O117  1  0.64715145  0.30815655  0.24979886  1
  O  O118  1  0.64393909  0.63880058  0.24133185  1
  O  O119  1  0.64005005  0.97327260  0.24434302  1
  O  O120  1  0.42870882  0.18315929  0.57910079  1
  O  O121  1  0.43543532  0.51806726  0.57378207  1
  O  O122  1  0.42605250  0.85274983  0.56675538  1
  O  O123  1  0.56348856  0.18741833  0.91868369  1
  O  O124  1  0.56577718  0.52010576  0.91709877  1
  O  O125  1  0.56958318  0.85640848  0.92661618  1
  O  O126  1  0.56136647  0.14552378  0.41631214  1
  O  O127  1  0.56420719  0.47719949  0.41095393  1
  O  O128  1  0.56570148  0.81290088  0.42411530  1
  O  O129  1  0.44706411  0.14705204  0.07701626  1
  O  O130  1  0.44103629  0.48287845  0.06885149  1
  O  O131  1  0.45016266  0.81173995  0.08379379  1
  O  O132  1  0.93543532  0.01806726  0.57378207  1
  O  O133  1  0.92605250  0.35274983  0.56675538  1
  O  O134  1  0.92870882  0.68315929  0.57910079  1
  O  O135  1  0.06577718  0.02010576  0.91709877  1
  O  O136  1  0.06958318  0.35640848  0.92661618  1
  O  O137  1  0.06348856  0.68741833  0.91868369  1
  O  O138  1  0.06570148  0.31290088  0.42411530  1
  O  O139  1  0.06136647  0.64552378  0.41631214  1
  O  O140  1  0.06420719  0.97719949  0.41095393  1
  O  O141  1  0.95016266  0.31173995  0.08379379  1
  O  O142  1  0.94706411  0.64705204  0.07701626  1
  O  O143  1  0.94103629  0.98287845  0.06885149  1
  O  O144  1  0.25479224  0.27259088  0.74903660  1
  O  O145  1  0.25513272  0.60464198  0.74180059  1
  O  O146  1  0.25306273  0.93812784  0.73298035  1
  O  O147  1  0.74960224  0.27841367  0.76942984  1
  O  O148  1  0.75509685  0.61493238  0.76531011  1
  O  O149  1  0.74651587  0.94899513  0.75077330  1
  O  O150  1  0.74428017  0.05169185  0.24761197  1
  O  O151  1  0.73242224  0.39082988  0.25628536  1
  O  O152  1  0.73535126  0.72587903  0.25194997  1
  O  O153  1  0.25275223  0.05998948  0.24251508  1
  O  O154  1  0.25545896  0.39690097  0.25348875  1
  O  O155  1  0.25199887  0.72955345  0.23852825  1
  O  O156  1  0.75513272  0.10464198  0.74180059  1
  O  O157  1  0.75306273  0.43812784  0.73298035  1
  O  O158  1  0.75479224  0.77259088  0.74903660  1
  O  O159  1  0.25509685  0.11493238  0.76531011  1
  O  O160  1  0.24651587  0.44899513  0.75077330  1
  O  O161  1  0.24960224  0.77841367  0.76942984  1
  O  O162  1  0.23535126  0.22587903  0.25194997  1
  O  O163  1  0.24428017  0.55169185  0.24761197  1
  O  O164  1  0.23242224  0.89082988  0.25628536  1
  O  O165  1  0.75199887  0.22955345  0.23852825  1
  O  O166  1  0.75275223  0.55998948  0.24251508  1
  O  O167  1  0.75545896  0.89690097  0.25348875  1
  O  O168  1  0.34758548  0.28034746  0.58041910  1
  O  O169  1  0.35780255  0.62265681  0.58322578  1
  O  O170  1  0.34912371  0.96337251  0.56785533  1
  O  O171  1  0.63155619  0.28342473  0.90514946  1
  O  O172  1  0.63790280  0.61562813  0.90943637  1
  O  O173  1  0.64471708  0.95259167  0.92249197  1
  O  O174  1  0.64578305  0.04988238  0.42660710  1
  O  O175  1  0.63531088  0.38114619  0.40525583  1
  O  O176  1  0.64146623  0.71408814  0.42749009  1
  O  O177  1  0.35691680  0.05802275  0.08895966  1
  O  O178  1  0.33742979  0.38847776  0.06834657  1
  O  O179  1  0.35697537  0.72531884  0.09098380  1
  O  O180  1  0.85780255  0.12265681  0.58322578  1
  O  O181  1  0.84912371  0.46337251  0.56785533  1
  O  O182  1  0.84758548  0.78034746  0.58041910  1
  O  O183  1  0.13790280  0.11562813  0.90943637  1
  O  O184  1  0.14471708  0.45259167  0.92249197  1
  O  O185  1  0.13155619  0.78342473  0.90514946  1
  O  O186  1  0.14146623  0.21408814  0.42749009  1
  O  O187  1  0.14578305  0.54988238  0.42660710  1
  O  O188  1  0.13531088  0.88114619  0.40525583  1
  O  O189  1  0.85697537  0.22531884  0.09098380  1
  O  O190  1  0.85691680  0.55802275  0.08895966  1
  O  O191  1  0.83742979  0.88847776  0.06834657  1
  O  O192  1  0.46159262  0.27466857  0.93771888  1
  O  O193  1  0.46064580  0.60667412  0.93515535  1
  O  O194  1  0.46118255  0.94203074  0.92457922  1
  O  O195  1  0.54301831  0.27763300  0.54712363  1
  O  O196  1  0.54665551  0.61146665  0.55262796  1
  O  O197  1  0.54030013  0.94845535  0.56385942  1
  O  O198  1  0.53525839  0.05481222  0.07405308  1
  O  O199  1  0.53956117  0.38105351  0.06375592  1
  O  O200  1  0.52970196  0.71767689  0.07193011  1
  O  O201  1  0.46261601  0.05718974  0.43876536  1
  O  O202  1  0.46173153  0.39194048  0.42961251  1
  O  O203  1  0.46147139  0.72475503  0.44451152  1
  O  O204  1  0.96064580  0.10667412  0.93515535  1
  O  O205  1  0.96118255  0.44203074  0.92457922  1
  O  O206  1  0.96159262  0.77466857  0.93771888  1
  O  O207  1  0.04665551  0.11146665  0.55262796  1
  O  O208  1  0.04030013  0.44845535  0.56385942  1
  O  O209  1  0.04301831  0.77763300  0.54712363  1
  O  O210  1  0.02970196  0.21767689  0.07193011  1
  O  O211  1  0.03525839  0.55481222  0.07405308  1
  O  O212  1  0.03956117  0.88105351  0.06375592  1
  O  O213  1  0.96147139  0.22475503  0.44451152  1
  O  O214  1  0.96261601  0.55718974  0.43876536  1
  O  O215  1  0.96173153  0.89194048  0.42961251  1
  O  O216  1  0.08465322  0.28769337  0.74406673  1
  O  O217  1  0.08197565  0.62161474  0.74483013  1
  O  O218  1  0.08460474  0.95455708  0.73991009  1
  O  O219  1  0.92709380  0.27991772  0.76826387  1
  O  O220  1  0.93087024  0.61702449  0.76784562  1
  O  O221  1  0.93169167  0.95072594  0.75701539  1
  O  O222  1  0.92900332  0.04715751  0.25218086  1
  O  O223  1  0.92450429  0.38019845  0.24389373  1
  O  O224  1  0.92318282  0.71350026  0.24326602  1
  O  O225  1  0.08999257  0.04334080  0.25007631  1
  O  O226  1  0.08676577  0.37698818  0.25044243  1
  O  O227  1  0.08450947  0.71235166  0.24707339  1
  O  O228  1  0.58197565  0.12161474  0.74483013  1
  O  O229  1  0.58460474  0.45455708  0.73991009  1
  O  O230  1  0.58465322  0.78769337  0.74406673  1
  O  O231  1  0.43087024  0.11702449  0.76784562  1
  O  O232  1  0.43169167  0.45072594  0.75701539  1
  O  O233  1  0.42709380  0.77991772  0.76826387  1
  O  O234  1  0.42318282  0.21350026  0.24326602  1
  O  O235  1  0.42900332  0.54715751  0.25218086  1
  O  O236  1  0.42450429  0.88019845  0.24389373  1
  O  O237  1  0.58450947  0.21235166  0.24707339  1
  O  O238  1  0.58999257  0.54334080  0.25007631  1
  O  O239  1  0.58676577  0.87698818  0.25044243  1
