# generated using pymatgen
data_Gd2MgCr2O8
_symmetry_space_group_name_H-M   'P 1'
_cell_length_a   6.10226196
_cell_length_b   6.25521093
_cell_length_c   6.24183644
_cell_angle_alpha   107.92148244
_cell_angle_beta   105.14727880
_cell_angle_gamma   117.17321495
_symmetry_Int_Tables_number   1
_chemical_formula_structural   Gd2MgCr2O8
_chemical_formula_sum   'Gd2 Mg1 Cr2 O8'
_cell_volume   177.50300603
_cell_formula_units_Z   1
loop_
 _symmetry_equiv_pos_site_id
 _symmetry_equiv_pos_as_xyz
  1  'x, y, z'
loop_
 _atom_site_type_symbol
 _atom_site_label
 _atom_site_symmetry_multiplicity
 _atom_site_fract_x
 _atom_site_fract_y
 _atom_site_fract_z
 _atom_site_occupancy
  Gd  Gd0  1  0.13949100  0.88576800  0.29252600  1
  Gd  Gd1  1  0.86445400  0.14872200  0.74544900  1
  Mg  Mg2  1  0.98279200  0.71915700  0.73195500  1
  Cr  Cr3  1  0.39693100  0.61848000  0.75328500  1
  Cr  Cr4  1  0.60110000  0.35163100  0.21373100  1
  O  O5  1  0.79033200  0.72868800  0.42903500  1
  O  O6  1  0.35777600  0.81739400  0.60521100  1
  O  O7  1  0.76106800  0.77773000  0.91552300  1
  O  O8  1  0.82462400  0.38527900  0.07777000  1
  O  O9  1  0.65103300  0.26275600  0.46852300  1
  O  O10  1  0.17236400  0.25425200  0.56078100  1
  O  O11  1  0.23693600  0.14467800  0.01077300  1
  O  O12  1  0.21068600  0.64157700  0.94196900  1
