# generated using pymatgen
data_Mg2Ta2SiS5O24
_symmetry_space_group_name_H-M   'P 1'
_cell_length_a   8.78270434
_cell_length_b   8.77438975
_cell_length_c   22.57652793
_cell_angle_alpha   90.02641628
_cell_angle_beta   89.99350111
_cell_angle_gamma   119.98040306
_symmetry_Int_Tables_number   1
_chemical_formula_structural   Mg2Ta2SiS5O24
_chemical_formula_sum   'Mg6 Ta6 Si3 S15 O72'
_cell_volume   1507.01871369
_cell_formula_units_Z   3
loop_
 _symmetry_equiv_pos_site_id
 _symmetry_equiv_pos_as_xyz
  1  'x, y, z'
loop_
 _atom_site_type_symbol
 _atom_site_label
 _atom_site_symmetry_multiplicity
 _atom_site_fract_x
 _atom_site_fract_y
 _atom_site_fract_z
 _atom_site_occupancy
  Mg  Mg0  1  0.99789211  0.00112103  0.35700640  1
  Mg  Mg1  1  0.00095407  0.00247484  0.85228802  1
  Mg  Mg2  1  0.99764572  0.00411294  0.64346485  1
  Mg  Mg3  1  0.67636201  0.33677185  0.68855743  1
  Mg  Mg4  1  0.66407328  0.33487029  0.18820257  1
  Mg  Mg5  1  0.33145276  0.66337105  0.02186358  1
  Ta  Ta6  1  0.00389861  0.00552972  0.14121231  1
  Ta  Ta7  1  0.65591582  0.33091664  0.97767951  1
  Ta  Ta8  1  0.67464468  0.32492644  0.47912083  1
  Ta  Ta9  1  0.34039917  0.66966390  0.52645105  1
  Ta  Ta10  1  0.34077363  0.67464346  0.31016259  1
  Ta  Ta11  1  0.32909352  0.66289554  0.80793620  1
  Si  Si12  1  0.95600441  0.32544135  0.58931742  1
  Si  Si13  1  0.38637200  0.34997123  0.08738527  1
  Si  Si14  1  0.62974362  0.95570060  0.41717980  1
  S  S15  1  0.28590310  0.00169176  0.25121603  1
  S  S16  1  0.71646197  0.70995369  0.25111933  1
  S  S17  1  0.99659454  0.28616222  0.25048352  1
  S  S18  1  0.29201664  0.28240272  0.75055734  1
  S  S19  1  0.99286288  0.71280740  0.75088377  1
  S  S20  1  0.71470816  0.00460920  0.75129827  1
  S  S21  1  0.37754874  0.04862747  0.58474701  1
  S  S22  1  0.67103827  0.61864843  0.58456273  1
  S  S23  1  0.95419472  0.61787922  0.08437437  1
  S  S24  1  0.66294760  0.04580033  0.08406257  1
  S  S25  1  0.62383253  0.67283151  0.91685351  1
  S  S26  1  0.04600750  0.37730859  0.91731580  1
  S  S27  1  0.32991240  0.95023364  0.91739261  1
  S  S28  1  0.33361535  0.38119505  0.41669148  1
  S  S29  1  0.04898079  0.66909944  0.41633842  1
  O  O30  1  0.20345660  0.02412911  0.30342402  1
  O  O31  1  0.82057310  0.79500925  0.30319654  1
  O  O32  1  0.97362712  0.17920909  0.30202808  1
  O  O33  1  0.21306231  0.18379590  0.80471026  1
  O  O34  1  0.97871696  0.79706589  0.80466720  1
  O  O35  1  0.81689877  0.02659182  0.80477362  1
  O  O36  1  0.77880431  0.95681164  0.69912780  1
  O  O37  1  0.18026798  0.21612803  0.69853935  1
  O  O38  1  0.03736740  0.82216605  0.69810781  1
  O  O39  1  0.78999197  0.82405406  0.19726641  1
  O  O40  1  0.02912696  0.20055210  0.19596118  1
  O  O41  1  0.16901650  0.96716444  0.19739045  1
  O  O42  1  0.87266786  0.38043422  0.64047695  1
  O  O43  1  0.48788612  0.12136417  0.63614120  1
  O  O44  1  0.62562953  0.50685675  0.63610804  1
  O  O45  1  0.87866218  0.51177474  0.13672758  1
  O  O46  1  0.64443765  0.12751019  0.13702651  1
  O  O47  1  0.49710449  0.35650403  0.14226134  1
  O  O48  1  0.47702034  0.30199769  0.02629051  1
  O  O49  1  0.83736920  0.53665658  0.03029287  1
  O  O50  1  0.70618405  0.16497991  0.02995363  1
  O  O51  1  0.46381883  0.15976903  0.52948413  1
  O  O52  1  0.68532746  0.53118884  0.52900512  1
  O  O53  1  0.83149297  0.30946733  0.52616807  1
  O  O54  1  0.54341588  0.69729556  0.96896401  1
  O  O55  1  0.15322566  0.46121882  0.96870473  1
  O  O56  1  0.30811733  0.84786110  0.97004318  1
  O  O57  1  0.51498229  0.82933658  0.47177866  1
  O  O58  1  0.30412616  0.46554593  0.46912117  1
  O  O59  1  0.15713674  0.68921038  0.46888891  1
  O  O60  1  0.12669008  0.62853700  0.36246613  1
  O  O61  1  0.49044753  0.85588680  0.35864564  1
  O  O62  1  0.35976537  0.49713291  0.36270515  1
  O  O63  1  0.12986327  0.49483568  0.86325995  1
  O  O64  1  0.36437948  0.86872865  0.86411082  1
  O  O65  1  0.50629872  0.63255194  0.86363805  1
  O  O66  1  0.03660274  0.82419429  0.40695524  1
  O  O67  1  0.81306193  0.97667157  0.40712414  1
  O  O68  1  0.18382034  0.21006412  0.40701548  1
  O  O69  1  0.02174734  0.20397096  0.90588507  1
  O  O70  1  0.18566944  0.98213292  0.90702798  1
  O  O71  1  0.79904660  0.81807073  0.90582932  1
  O  O72  1  0.97985533  0.16027839  0.58867322  1
  O  O73  1  0.20217735  0.02095325  0.58897201  1
  O  O74  1  0.82313102  0.79111429  0.58962559  1
  O  O75  1  0.96004022  0.79481560  0.09334338  1
  O  O76  1  0.82760836  0.02789469  0.09201007  1
  O  O77  1  0.18712094  0.15618619  0.09508153  1
  O  O78  1  0.67745788  0.14648445  0.74392688  1
  O  O79  1  0.47048016  0.31798786  0.74242712  1
  O  O80  1  0.84637754  0.53587349  0.74553063  1
  O  O81  1  0.69017506  0.53574253  0.24275746  1
  O  O82  1  0.84862808  0.31076548  0.23882070  1
  O  O83  1  0.46259472  0.14347918  0.24203393  1
  O  O84  1  0.64029467  0.50566925  0.92495437  1
  O  O85  1  0.86821109  0.36423395  0.92479440  1
  O  O86  1  0.50150388  0.13009346  0.92426666  1
  O  O87  1  0.62600962  0.14205620  0.42561816  1
  O  O88  1  0.49815796  0.37716466  0.42434862  1
  O  O89  1  0.87030513  0.51046229  0.42400280  1
  O  O90  1  0.34559656  0.49810057  0.07169628  1
  O  O91  1  0.12970312  0.65467721  0.07200886  1
  O  O92  1  0.51541402  0.87504731  0.07211934  1
  O  O93  1  0.36274081  0.86995700  0.57270916  1
  O  O94  1  0.50830747  0.63894564  0.57316392  1
  O  O95  1  0.14558951  0.50379259  0.56760061  1
  O  O96  1  0.29197943  0.82934464  0.25743789  1
  O  O97  1  0.53139248  0.69144892  0.25903385  1
  O  O98  1  0.16118757  0.46363734  0.25732724  1
  O  O99  1  0.31046346  0.47090647  0.76240071  1
  O  O100  1  0.16178004  0.69155109  0.76228360  1
  O  O101  1  0.52695837  0.83524769  0.76401413  1
