# generated using pymatgen
data_Na3Mg2Ti2P3(SO8)3
_symmetry_space_group_name_H-M   'P 1'
_cell_length_a   8.68445512
_cell_length_b   8.65721625
_cell_length_c   22.40323933
_cell_angle_alpha   90.11688282
_cell_angle_beta   89.87891544
_cell_angle_gamma   119.93121422
_symmetry_Int_Tables_number   1
_chemical_formula_structural   Na3Mg2Ti2P3(SO8)3
_chemical_formula_sum   'Na9 Mg6 Ti6 P9 S9 O72'
_cell_volume   1459.69340785
_cell_formula_units_Z   3
loop_
 _symmetry_equiv_pos_site_id
 _symmetry_equiv_pos_as_xyz
  1  'x, y, z'
loop_
 _atom_site_type_symbol
 _atom_site_label
 _atom_site_symmetry_multiplicity
 _atom_site_fract_x
 _atom_site_fract_y
 _atom_site_fract_z
 _atom_site_occupancy
  Na  Na0  1  0.66519451  0.69257558  0.08267156  1
  Na  Na1  1  0.33293845  0.29969154  0.91729175  1
  Na  Na2  1  0.33278702  0.03299595  0.41710162  1
  Na  Na3  1  0.99257750  0.99990768  0.50060702  1
  Na  Na4  1  0.00209157  0.99801585  0.00021417  1
  Na  Na5  1  0.67774218  0.33513482  0.83227540  1
  Na  Na6  1  0.67650357  0.34119988  0.33186717  1
  Na  Na7  1  0.32047782  0.66185205  0.16405749  1
  Na  Na8  1  0.33411446  0.67049897  0.66308192  1
  Mg  Mg9  1  0.99413978  0.99962169  0.34923849  1
  Mg  Mg10  1  0.99359453  0.99494969  0.84894550  1
  Mg  Mg11  1  0.67210953  0.33616770  0.98361095  1
  Mg  Mg12  1  0.66919123  0.33636341  0.48322222  1
  Mg  Mg13  1  0.32207393  0.66276764  0.02135526  1
  Mg  Mg14  1  0.33416216  0.66946945  0.52132735  1
  Ti  Ti15  1  0.00783744  0.99891963  0.65014831  1
  Ti  Ti16  1  0.01558872  0.00625802  0.15057117  1
  Ti  Ti17  1  0.65777569  0.32129422  0.68723606  1
  Ti  Ti18  1  0.67157369  0.34561988  0.18689718  1
  Ti  Ti19  1  0.33228037  0.66267199  0.30772346  1
  Ti  Ti20  1  0.33238417  0.67074914  0.80740717  1
  P  P21  1  0.29571784  0.00433239  0.25265557  1
  P  P22  1  0.71285388  0.71313787  0.25021149  1
  P  P23  1  0.99535425  0.28688490  0.25088738  1
  P  P24  1  0.29071662  0.28932309  0.75192907  1
  P  P25  1  0.99414590  0.70603165  0.75072723  1
  P  P26  1  0.71437511  0.00121567  0.75025631  1
  P  P27  1  0.37365177  0.04128164  0.58208471  1
  P  P28  1  0.95931793  0.62602657  0.08363432  1
  P  P29  1  0.37433912  0.32969595  0.08223947  1
  S  S30  1  0.95592799  0.33070869  0.58404023  1
  S  S31  1  0.66867020  0.62445533  0.58424619  1
  S  S32  1  0.66914069  0.04530190  0.08390003  1
  S  S33  1  0.62522453  0.67075091  0.91681774  1
  S  S34  1  0.04211565  0.37700714  0.91579910  1
  S  S35  1  0.33310175  0.95535933  0.91639320  1
  S  S36  1  0.62516742  0.95442174  0.41656056  1
  S  S37  1  0.33260762  0.37836730  0.41670413  1
  S  S38  1  0.04227801  0.66443548  0.41642479  1
  O  O39  1  0.22074192  0.03551949  0.30929855  1
  O  O40  1  0.82201897  0.78602676  0.30564866  1
  O  O41  1  0.96394443  0.18012401  0.30666472  1
  O  O42  1  0.22108661  0.18486678  0.80909221  1
  O  O43  1  0.96261483  0.78269879  0.80636779  1
  O  O44  1  0.82074275  0.03783175  0.80642217  1
  O  O45  1  0.79789404  0.96814244  0.69414976  1
  O  O46  1  0.17064905  0.20151715  0.69638132  1
  O  O47  1  0.03157229  0.82815874  0.69474852  1
  O  O48  1  0.79043904  0.82355829  0.19239485  1
  O  O49  1  0.03090717  0.20183717  0.19480016  1
  O  O50  1  0.17218755  0.96911866  0.19692782  1
  O  O51  1  0.86947927  0.35676485  0.63777381  1
  O  O52  1  0.49534143  0.14405271  0.63719558  1
  O  O53  1  0.64613124  0.51401025  0.63780585  1
  O  O54  1  0.86163232  0.50667403  0.13936363  1
  O  O55  1  0.64297262  0.12848859  0.13763748  1
  O  O56  1  0.49749550  0.35563879  0.13681100  1
  O  O57  1  0.44412245  0.29344548  0.02445514  1
  O  O58  1  0.83998683  0.55151288  0.02922168  1
  O  O59  1  0.69888219  0.15050276  0.02976116  1
  O  O60  1  0.44624264  0.15045631  0.52523681  1
  O  O61  1  0.70148546  0.55026124  0.53000040  1
  O  O62  1  0.84957518  0.30128174  0.53007203  1
  O  O63  1  0.54404514  0.69241490  0.97201719  1
  O  O64  1  0.15399862  0.45721541  0.96898583  1
  O  O65  1  0.30950823  0.84884971  0.96984302  1
  O  O66  1  0.54152018  0.84831695  0.47028804  1
  O  O67  1  0.30876181  0.46134854  0.47033327  1
  O  O68  1  0.15410076  0.69543734  0.46956222  1
  O  O69  1  0.13131293  0.64200820  0.36188726  1
  O  O70  1  0.50816765  0.86748837  0.36258523  1
  O  O71  1  0.35476349  0.48929413  0.36222277  1
  O  O72  1  0.13184741  0.48916494  0.86155969  1
  O  O73  1  0.35454832  0.86570278  0.86181587  1
  O  O74  1  0.50699152  0.64255987  0.86366847  1
  O  O75  1  0.02819142  0.82821013  0.41023612  1
  O  O76  1  0.80211230  0.97446267  0.41025826  1
  O  O77  1  0.17530625  0.19699249  0.41105975  1
  O  O78  1  0.02837328  0.19921216  0.90965669  1
  O  O79  1  0.17542783  0.97868237  0.91078854  1
  O  O80  1  0.80213991  0.82809593  0.91053941  1
  O  O81  1  0.97211468  0.16728042  0.59195359  1
  O  O82  1  0.18758187  0.02602223  0.59440184  1
  O  O83  1  0.83029161  0.80594456  0.59204078  1
  O  O84  1  0.97086424  0.81163345  0.09450973  1
  O  O85  1  0.82914433  0.02179849  0.09061885  1
  O  O86  1  0.18661878  0.16383224  0.09344610  1
  O  O87  1  0.68473987  0.16269541  0.73921147  1
  O  O88  1  0.47926497  0.31710907  0.73966382  1
  O  O89  1  0.83627403  0.51903612  0.73805855  1
  O  O90  1  0.68260744  0.52100496  0.24067541  1
  O  O91  1  0.83572943  0.31470180  0.23925365  1
  O  O92  1  0.48074929  0.16327634  0.23943405  1
  O  O93  1  0.63517626  0.50345304  0.91921339  1
  O  O94  1  0.86586940  0.36065482  0.92033287  1
  O  O95  1  0.49463360  0.13507966  0.91897492  1
  O  O96  1  0.63620449  0.13232104  0.42010836  1
  O  O97  1  0.49413432  0.35980042  0.41936335  1
  O  O98  1  0.86581374  0.50411218  0.42096988  1
  O  O99  1  0.36359774  0.50142620  0.08028135  1
  O  O100  1  0.14273599  0.64664359  0.08104172  1
  O  O101  1  0.51208090  0.86340080  0.07894434  1
  O  O102  1  0.35430148  0.85682421  0.58137039  1
  O  O103  1  0.50868666  0.64167829  0.57975788  1
  O  O104  1  0.13436988  0.48915309  0.57964697  1
  O  O105  1  0.31065306  0.83154838  0.25778243  1
  O  O106  1  0.52131221  0.68854899  0.25787637  1
  O  O107  1  0.16620469  0.47709196  0.25728667  1
  O  O108  1  0.31153126  0.47933787  0.75767468  1
  O  O109  1  0.16637278  0.68932566  0.75721668  1
  O  O110  1  0.52256658  0.83382287  0.75765544  1
