# generated using pymatgen
data_Ba2SmMgSbO6
_symmetry_space_group_name_H-M   'P 1'
_cell_length_a   6.31534670
_cell_length_b   7.60875672
_cell_length_c   6.31534686
_cell_angle_alpha   65.20990357
_cell_angle_beta   59.97991316
_cell_angle_gamma   65.20990817
_symmetry_Int_Tables_number   1
_chemical_formula_structural   Ba2SmMgSbO6
_chemical_formula_sum   'Ba2 Sm1 Mg1 Sb1 O6'
_cell_volume   229.91220746
_cell_formula_units_Z   1
loop_
 _symmetry_equiv_pos_site_id
 _symmetry_equiv_pos_as_xyz
  1  'x, y, z'
loop_
 _atom_site_type_symbol
 _atom_site_label
 _atom_site_symmetry_multiplicity
 _atom_site_fract_x
 _atom_site_fract_y
 _atom_site_fract_z
 _atom_site_occupancy
  Ba  Ba0  1  0.82703053  0.51094442  0.82703053  1
  Ba  Ba1  1  0.27941406  0.15797000  0.27941406  1
  Sm  Sm2  1  0.00403955  0.98568537  0.00403955  1
  Mg  Mg3  1  0.59198288  0.21762054  0.59198288  1
  Sb  Sb4  1  0.44898024  0.65343472  0.44898024  1
  O  O5  1  0.25086903  0.80088921  0.70780822  1
  O  O6  1  0.24558897  0.81568390  0.24558897  1
  O  O7  1  0.76558183  0.22219556  0.76558183  1
  O  O8  1  0.23953674  0.22463504  0.76416796  1
  O  O9  1  0.76416796  0.22463504  0.23953674  1
  O  O10  1  0.70780822  0.80088921  0.25086903  1
