# generated using pymatgen
data_Na6La3TaSi2(PO6)4
_symmetry_space_group_name_H-M   'P 1'
_cell_length_a   16.55508950
_cell_length_b   9.45477927
_cell_length_c   9.60183009
_cell_angle_alpha   90.41966683
_cell_angle_beta   125.32025433
_cell_angle_gamma   89.63680432
_symmetry_Int_Tables_number   1
_chemical_formula_structural   Na6La3TaSi2(PO6)4
_chemical_formula_sum   'Na12 La6 Ta2 Si4 P8 O48'
_cell_volume   1226.24849812
_cell_formula_units_Z   2
loop_
 _symmetry_equiv_pos_site_id
 _symmetry_equiv_pos_as_xyz
  1  'x, y, z'
loop_
 _atom_site_type_symbol
 _atom_site_label
 _atom_site_symmetry_multiplicity
 _atom_site_fract_x
 _atom_site_fract_y
 _atom_site_fract_z
 _atom_site_occupancy
  Na  Na0  1  0.25164452  0.75075263  0.99883864  1
  Na  Na1  1  0.74862819  0.75874458  0.50041918  1
  Na  Na2  1  0.75164452  0.25075263  0.99883864  1
  Na  Na3  1  0.24862819  0.25874458  0.50041918  1
  Na  Na4  1  0.50421620  0.06836710  0.75172816  1
  Na  Na5  1  0.50380218  0.91474168  0.24504488  1
  Na  Na6  1  0.00421620  0.56836710  0.75172816  1
  Na  Na7  1  0.00380218  0.41474168  0.24504488  1
  Na  Na8  1  0.18263451  0.91785820  0.30478655  1
  Na  Na9  1  0.81348090  0.09586083  0.70602602  1
  Na  Na10  1  0.68263451  0.41785820  0.30478655  1
  Na  Na11  1  0.31348090  0.59586083  0.70602602  1
  La  La12  1  0.10157674  0.76497379  0.56429526  1
  La  La13  1  0.89804612  0.23795593  0.44027232  1
  La  La14  1  0.10699241  0.25325754  0.05359841  1
  La  La15  1  0.60157674  0.26497379  0.56429526  1
  La  La16  1  0.39804612  0.73795593  0.44027232  1
  La  La17  1  0.60699241  0.75325754  0.05359841  1
  Ta  Ta18  1  0.89738594  0.74516819  0.94945049  1
  Ta  Ta19  1  0.39738594  0.24516819  0.94945049  1
  Si  Si20  1  0.35085054  0.91425977  0.75714438  1
  Si  Si21  1  0.64803901  0.11151304  0.24980910  1
  Si  Si22  1  0.85085054  0.41425977  0.75714438  1
  Si  Si23  1  0.14803901  0.61151304  0.24980910  1
  P  P24  1  0.99379741  0.93332206  0.77055409  1
  P  P25  1  0.99017100  0.04302021  0.22780362  1
  P  P26  1  0.49379741  0.43332206  0.77055409  1
  P  P27  1  0.49017100  0.54302021  0.22780362  1
  P  P28  1  0.66024258  0.89585769  0.74734680  1
  P  P29  1  0.35586171  0.09575831  0.24363233  1
  P  P30  1  0.16024258  0.39585769  0.74734680  1
  P  P31  1  0.85586171  0.59575831  0.24363233  1
  O  O32  1  0.17075585  0.55844265  0.74871365  1
  O  O33  1  0.84891715  0.59053832  0.78351329  1
  O  O34  1  0.85114278  0.43370019  0.21705354  1
  O  O35  1  0.14937701  0.43950269  0.25268629  1
  O  O36  1  0.67075585  0.05844265  0.74871365  1
  O  O37  1  0.34891715  0.09053832  0.78351329  1
  O  O38  1  0.35114278  0.93370019  0.21705354  1
  O  O39  1  0.64937701  0.93950269  0.25268629  1
  O  O40  1  0.42968053  0.52788202  0.60888507  1
  O  O41  1  0.55581565  0.52460093  0.92815108  1
  O  O42  1  0.54356204  0.45729069  0.39339880  1
  O  O43  1  0.43787521  0.43415449  0.07443938  1
  O  O44  1  0.92968053  0.02788202  0.60888507  1
  O  O45  1  0.05581565  0.02460093  0.92815108  1
  O  O46  1  0.04356204  0.95729069  0.39339880  1
  O  O47  1  0.93787521  0.93415449  0.07443938  1
  O  O48  1  0.26463711  0.83641674  0.75842804  1
  O  O49  1  0.75629121  0.82949343  0.77859698  1
  O  O50  1  0.72660575  0.19360951  0.22716677  1
  O  O51  1  0.26897194  0.15096061  0.24347079  1
  O  O52  1  0.76463711  0.33641674  0.75842804  1
  O  O53  1  0.25629121  0.32949343  0.77859698  1
  O  O54  1  0.22660575  0.69360951  0.22716677  1
  O  O55  1  0.76897194  0.65096061  0.24347079  1
  O  O56  1  0.34682354  0.89095298  0.58130854  1
  O  O57  1  0.65079731  0.86022242  0.89247563  1
  O  O58  1  0.66473087  0.16618557  0.42550604  1
  O  O59  1  0.35882785  0.16517566  0.09373800  1
  O  O60  1  0.84682354  0.39095298  0.58130854  1
  O  O61  1  0.15079731  0.36022242  0.89247563  1
  O  O62  1  0.16473087  0.66618557  0.42550604  1
  O  O63  1  0.85882785  0.66517566  0.09373800  1
  O  O64  1  0.45765946  0.86040563  0.91882111  1
  O  O65  1  0.56839298  0.83999690  0.57545403  1
  O  O66  1  0.53015917  0.16929176  0.08756282  1
  O  O67  1  0.45378266  0.13367155  0.41317228  1
  O  O68  1  0.95765946  0.36040563  0.91882111  1
  O  O69  1  0.06839298  0.33999690  0.57545403  1
  O  O70  1  0.03015917  0.66929176  0.08756282  1
  O  O71  1  0.95378266  0.63367155  0.41317228  1
  O  O72  1  0.05790600  0.82052477  0.75996079  1
  O  O73  1  0.91493518  0.84668683  0.77946413  1
  O  O74  1  0.91269256  0.14363539  0.21440404  1
  O  O75  1  0.07229026  0.12524673  0.23287866  1
  O  O76  1  0.55790600  0.32052477  0.75996079  1
  O  O77  1  0.41493518  0.34668683  0.77946413  1
  O  O78  1  0.41269256  0.64363539  0.21440404  1
  O  O79  1  0.57229026  0.62524673  0.23287866  1
