# generated using pymatgen
data_Zr3N4
_symmetry_space_group_name_H-M   'P 1'
_cell_length_a   3.28362182
_cell_length_b   9.80181193
_cell_length_c   10.82413400
_cell_angle_alpha   90.00000000
_cell_angle_beta   90.00000000
_cell_angle_gamma   90.00000000
_symmetry_Int_Tables_number   1
_chemical_formula_structural   Zr3N4
_chemical_formula_sum   'Zr12 N16'
_cell_volume   348.37955361
_cell_formula_units_Z   4
loop_
 _symmetry_equiv_pos_site_id
 _symmetry_equiv_pos_as_xyz
  1  'x, y, z'
loop_
 _atom_site_type_symbol
 _atom_site_label
 _atom_site_symmetry_multiplicity
 _atom_site_fract_x
 _atom_site_fract_y
 _atom_site_fract_z
 _atom_site_occupancy
  Zr  Zr0  1  0.25000000  0.23089116  0.14732594  1
  Zr  Zr1  1  0.75000000  0.76910884  0.85267406  1
  Zr  Zr2  1  0.25000000  0.73089116  0.35267406  1
  Zr  Zr3  1  0.75000000  0.26910884  0.64732594  1
  Zr  Zr4  1  0.25000000  0.10670560  0.40637059  1
  Zr  Zr5  1  0.75000000  0.89329440  0.59362941  1
  Zr  Zr6  1  0.25000000  0.60670560  0.09362941  1
  Zr  Zr7  1  0.75000000  0.39329440  0.90637059  1
  Zr  Zr8  1  0.25000000  0.06901764  0.87530238  1
  Zr  Zr9  1  0.75000000  0.93098236  0.12469762  1
  Zr  Zr10  1  0.25000000  0.56901764  0.62469762  1
  Zr  Zr11  1  0.75000000  0.43098236  0.37530238  1
  N  N12  1  0.25000000  0.89696789  0.47218418  1
  N  N13  1  0.75000000  0.10303211  0.52781582  1
  N  N14  1  0.25000000  0.39696789  0.02781582  1
  N  N15  1  0.75000000  0.60303211  0.97218418  1
  N  N16  1  0.25000000  0.50545562  0.27436158  1
  N  N17  1  0.75000000  0.49454438  0.72563842  1
  N  N18  1  0.25000000  0.00545562  0.22563842  1
  N  N19  1  0.75000000  0.99454438  0.77436158  1
  N  N20  1  0.25000000  0.35707694  0.51857753  1
  N  N21  1  0.75000000  0.64292306  0.48142247  1
  N  N22  1  0.25000000  0.85707694  0.98142247  1
  N  N23  1  0.75000000  0.14292306  0.01857753  1
  N  N24  1  0.75000000  0.23713614  0.28523085  1
  N  N25  1  0.25000000  0.76286386  0.71476915  1
  N  N26  1  0.75000000  0.73713614  0.21476915  1
  N  N27  1  0.25000000  0.26286386  0.78523085  1
