# generated using pymatgen
data_Pd(SeBr3)2
_symmetry_space_group_name_H-M   'P 1'
_cell_length_a   4.72991677
_cell_length_b   7.26435954
_cell_length_c   9.01511780
_cell_angle_alpha   105.16988477
_cell_angle_beta   96.50116025
_cell_angle_gamma   93.91912282
_symmetry_Int_Tables_number   1
_chemical_formula_structural   Pd(SeBr3)2
_chemical_formula_sum   'Pd1 Se2 Br6'
_cell_volume   295.48708600
_cell_formula_units_Z   1
loop_
 _symmetry_equiv_pos_site_id
 _symmetry_equiv_pos_as_xyz
  1  'x, y, z'
loop_
 _atom_site_type_symbol
 _atom_site_label
 _atom_site_symmetry_multiplicity
 _atom_site_fract_x
 _atom_site_fract_y
 _atom_site_fract_z
 _atom_site_occupancy
  Pd  Pd0  1  0.00000000  0.50000000  0.50000000  1
  Se  Se1  1  0.67471809  0.27888367  0.29479383  1
  Se  Se2  1  0.32528191  0.72111633  0.70520617  1
  Br  Br3  1  0.31796809  0.63813331  0.35072008  1
  Br  Br4  1  0.68203191  0.36186669  0.64927992  1
  Br  Br5  1  0.75064830  0.32622790  0.05544829  1
  Br  Br6  1  0.08689119  -0.00103317  0.71617910  1
  Br  Br7  1  0.91310881  0.00103317  0.28382090  1
  Br  Br8  1  0.24935170  0.67377210  0.94455171  1
