# generated using pymatgen
data_Na2La4Hf4Si3(S3O16)3
_symmetry_space_group_name_H-M   'P 1'
_cell_length_a   18.52021126
_cell_length_b   9.24272862
_cell_length_c   24.15861976
_cell_angle_alpha   89.86928933
_cell_angle_beta   90.09944394
_cell_angle_gamma   119.94253655
_symmetry_Int_Tables_number   1
_chemical_formula_structural   Na2La4Hf4Si3(S3O16)3
_chemical_formula_sum   'Na6 La12 Hf12 Si9 S27 O144'
_cell_volume   3583.42927705
_cell_formula_units_Z   3
loop_
 _symmetry_equiv_pos_site_id
 _symmetry_equiv_pos_as_xyz
  1  'x, y, z'
loop_
 _atom_site_type_symbol
 _atom_site_label
 _atom_site_symmetry_multiplicity
 _atom_site_fract_x
 _atom_site_fract_y
 _atom_site_fract_z
 _atom_site_occupancy
  Na  Na0  1  0.99349042  0.02624147  0.49919885  1
  Na  Na1  1  0.49387866  0.96333319  0.00508032  1
  Na  Na2  1  0.31572057  0.30586499  0.84156898  1
  Na  Na3  1  0.82286721  0.32819040  0.82509337  1
  Na  Na4  1  0.32572027  0.31788397  0.32256974  1
  Na  Na5  1  0.80573633  0.31434714  0.33391007  1
  La  La6  1  0.00707972  0.00294648  0.34937140  1
  La  La7  1  0.50855480  0.01262124  0.85142849  1
  La  La8  1  0.99967760  0.01278198  0.64535513  1
  La  La9  1  0.50487437  0.98628266  0.14906290  1
  La  La10  1  0.32374529  0.33028362  0.98482740  1
  La  La11  1  0.84567530  0.35109194  0.98449186  1
  La  La12  1  0.34448076  0.33690476  0.48138583  1
  La  La13  1  0.82471619  0.31804053  0.48225788  1
  La  La14  1  0.16199671  0.67457292  0.30121747  1
  La  La15  1  0.67263343  0.66699220  0.30386285  1
  La  La16  1  0.17243514  0.68374738  0.80754303  1
  La  La17  1  0.66135231  0.64952269  0.80175556  1
  Hf  Hf18  1  0.51196187  0.01669702  0.35440820  1
  Hf  Hf19  1  0.00444072  0.99672635  0.85777317  1
  Hf  Hf20  1  0.50647892  0.01695761  0.64636441  1
  Hf  Hf21  1  0.00597500  0.99552986  0.14630840  1
  Hf  Hf22  1  0.33714679  0.33511362  0.67713835  1
  Hf  Hf23  1  0.83611440  0.33646776  0.68039182  1
  Hf  Hf24  1  0.33795016  0.33914996  0.18200857  1
  Hf  Hf25  1  0.83066177  0.32853267  0.18157702  1
  Hf  Hf26  1  0.16030465  0.67854616  0.02240460  1
  Hf  Hf27  1  0.66495669  0.67104720  0.02625876  1
  Hf  Hf28  1  0.16711002  0.66382231  0.52362453  1
  Hf  Hf29  1  0.65922602  0.64273970  0.51760376  1
  Si  Si30  1  0.15379252  0.02802025  0.24570093  1
  Si  Si31  1  0.65707124  0.03235971  0.25275496  1
  Si  Si32  1  0.65414683  0.28060009  0.74607234  1
  Si  Si33  1  0.48454425  0.33690647  0.58400757  1
  Si  Si34  1  0.98415201  0.34762507  0.58067071  1
  Si  Si35  1  0.48234152  0.62443486  0.07994709  1
  Si  Si36  1  0.98113942  0.62743613  0.08627652  1
  Si  Si37  1  0.16465283  0.95582424  0.91554131  1
  Si  Si38  1  0.66398574  0.37272046  0.41374383  1
  S  S39  1  0.35930846  0.68996463  0.25343732  1
  S  S40  1  0.86161424  0.70057210  0.24132243  1
  S  S41  1  0.98775947  0.27753740  0.24249817  1
  S  S42  1  0.48483654  0.27391267  0.25109543  1
  S  S43  1  0.15337850  0.27617626  0.75435742  1
  S  S44  1  0.98622039  0.69789409  0.75200335  1
  S  S45  1  0.48507007  0.69475531  0.74310372  1
  S  S46  1  0.35989300  0.02167806  0.74170953  1
  S  S47  1  0.86101287  0.03008530  0.75368796  1
  S  S48  1  0.19115058  0.03252147  0.58228683  1
  S  S49  1  0.68355032  0.02765318  0.58872208  1
  S  S50  1  0.33229295  0.63171268  0.58710143  1
  S  S51  1  0.82400800  0.62047704  0.58316988  1
  S  S52  1  0.32549747  0.02811571  0.08371765  1
  S  S53  1  0.83194875  0.03123452  0.08735814  1
  S  S54  1  0.18269584  0.34098780  0.08836704  1
  S  S55  1  0.68965121  0.34889385  0.08101264  1
  S  S56  1  0.31272943  0.67871386  0.92103996  1
  S  S57  1  0.81618016  0.68045513  0.91398790  1
  S  S58  1  0.02569626  0.36619167  0.91446948  1
  S  S59  1  0.52704475  0.38042730  0.92279014  1
  S  S60  1  0.66559286  0.94801220  0.92142471  1
  S  S61  1  0.31444299  0.94625258  0.41547221  1
  S  S62  1  0.81355442  0.94442242  0.42198826  1
  S  S63  1  0.16372435  0.38083869  0.42200665  1
  S  S64  1  0.02796755  0.67675662  0.42273496  1
  S  S65  1  0.52721582  0.68626258  0.41538008  1
  O  O66  1  0.11881752  0.05874333  0.30474256  1
  O  O67  1  0.60135324  0.05008829  0.30529796  1
  O  O68  1  0.41372526  0.77824736  0.30131778  1
  O  O69  1  0.90522858  0.76297641  0.29502247  1
  O  O70  1  0.47367210  0.16459470  0.30028997  1
  O  O71  1  0.97420083  0.18659383  0.29566863  1
  O  O72  1  0.10498837  0.16401494  0.80212625  1
  O  O73  1  0.61868566  0.17807782  0.80490966  1
  O  O74  1  0.47117461  0.75736109  0.79603001  1
  O  O75  1  0.97707257  0.78890312  0.80099560  1
  O  O76  1  0.40418406  0.05068611  0.79493809  1
  O  O77  1  0.91599025  0.04971058  0.80165951  1
  O  O78  1  0.40820418  0.00660373  0.69597806  1
  O  O79  1  0.89306697  0.99657635  0.70261666  1
  O  O80  1  0.10673832  0.20852958  0.70273190  1
  O  O81  1  0.58822163  0.16650912  0.69744653  1
  O  O82  1  -0.00049325  0.79509513  0.70148066  1
  O  O83  1  0.49090747  0.80210806  0.69641082  1
  O  O84  1  0.38811330  0.78611300  0.20206262  1
  O  O85  1  0.91030735  0.81621485  0.19618769  1
  O  O86  1  0.99321740  0.18112318  0.19607189  1
  O  O87  1  0.49492347  0.20269859  0.19997584  1
  O  O88  1  0.08877999  0.01122504  0.19682196  1
  O  O89  1  0.60528177  0.00187820  0.19627726  1
  O  O90  1  0.43019344  0.36728309  0.63497415  1
  O  O91  1  0.93316758  0.36364491  0.63613161  1
  O  O92  1  0.24421879  0.12408069  0.63199641  1
  O  O93  1  0.74437743  0.12540765  0.63499027  1
  O  O94  1  0.31221381  0.50603947  0.63387002  1
  O  O95  1  0.81526744  0.51024697  0.63225945  1
  O  O96  1  0.43120707  0.50630589  0.13492238  1
  O  O97  1  0.92603024  0.48874819  0.13461422  1
  O  O98  1  0.31585879  0.12088479  0.13176466  1
  O  O99  1  0.81145193  0.11380544  0.13334737  1
  O  O100  1  0.24346043  0.36740301  0.13392276  1
  O  O101  1  0.74092832  0.36357979  0.13073745  1
  O  O102  1  0.20546260  0.28281821  0.03838334  1
  O  O103  1  0.72398519  0.31263609  0.03146024  1
  O  O104  1  0.42978198  0.53703175  0.02505203  1
  O  O105  1  0.92796812  0.56833400  0.02914147  1
  O  O106  1  0.33899424  0.12255053  0.03231616  1
  O  O107  1  0.85326355  0.13354296  0.03696228  1
  O  O108  1  0.22300596  0.13807466  0.53307636  1
  O  O109  1  0.70639703  0.13271509  0.53918352  1
  O  O110  1  0.35377196  0.57079301  0.53764378  1
  O  O111  1  0.84056532  0.55499117  0.53295024  1
  O  O112  1  0.42475544  0.28600909  0.53068340  1
  O  O113  1  0.92798744  0.31423039  0.52678211  1
  O  O114  1  0.26175066  0.67169545  0.96991325  1
  O  O115  1  0.77899151  0.70046318  0.96526366  1
  O  O116  1  0.07312455  0.44496756  0.96589834  1
  O  O117  1  0.58183729  0.48341687  0.97021381  1
  O  O118  1  0.15567350  0.83818801  0.97089335  1
  O  O119  1  0.66716916  0.85031842  0.97135181  1
  O  O120  1  0.27244881  0.85115285  0.46737730  1
  O  O121  1  0.76206733  0.84997520  0.47170210  1
  O  O122  1  0.16556398  0.48176826  0.47227876  1
  O  O123  1  0.65541051  0.47180844  0.47062963  1
  O  O124  1  0.08307341  0.68313990  0.47057018  1
  O  O125  1  0.57510443  0.69797835  0.46744563  1
  O  O126  1  0.06605694  0.66925959  0.37034694  1
  O  O127  1  0.56474822  0.65727497  0.36710931  1
  O  O128  1  0.26054905  0.86600395  0.36717590  1
  O  O129  1  0.77306635  0.86389014  0.37026982  1
  O  O130  1  0.16477332  0.46687557  0.37106585  1
  O  O131  1  0.67752331  0.48561794  0.36033147  1
  O  O132  1  0.06477101  0.46902466  0.86544729  1
  O  O133  1  0.56550561  0.46416128  0.87001171  1
  O  O134  1  0.17534823  0.86920202  0.86056588  1
  O  O135  1  0.66649137  0.86411885  0.87023760  1
  O  O136  1  0.27146993  0.67698226  0.86856677  1
  O  O137  1  0.76389479  0.65688975  0.86513590  1
  O  O138  1  0.02347461  0.83293571  0.42576746  1
  O  O139  1  0.52270741  0.84281155  0.40917426  1
  O  O140  1  0.39584589  0.95510437  0.40790939  1
  O  O141  1  0.89660261  0.95523523  0.42643151  1
  O  O142  1  0.08570600  0.21550742  0.42612606  1
  O  O143  1  0.57447142  0.19216594  0.40609641  1
  O  O144  1  0.02102900  0.19916747  0.90599925  1
  O  O145  1  0.52225241  0.21448002  0.92519202  1
  O  O146  1  0.07603122  0.96098457  0.90436131  1
  O  O147  1  0.58714454  0.95652044  0.92499367  1
  O  O148  1  0.39580788  0.83431268  0.92396032  1
  O  O149  1  0.89964796  0.83744179  0.90411032  1
  O  O150  1  0.49965914  0.18389470  0.60221823  1
  O  O151  1  0.00329534  0.19267852  0.58607128  1
  O  O152  1  0.10478845  0.99106480  0.59178684  1
  O  O153  1  0.59811516  0.99103313  0.60508877  1
  O  O154  1  0.40101843  0.79556988  0.60397047  1
  O  O155  1  0.89521091  0.78983227  0.59245839  1
  O  O156  1  0.49869594  0.81385754  0.08139869  1
  O  O157  1  0.99927068  0.81515482  0.10191493  1
  O  O158  1  0.39556160  -0.00043473  0.09200316  1
  O  O159  1  0.90064515  0.00344979  0.10311105  1
  O  O160  1  0.09718451  0.20786907  0.10404412  1
  O  O161  1  0.60236600  0.21874074  0.08735530  1
  O  O162  1  0.34852863  0.17090908  0.73183237  1
  O  O163  1  0.85778600  0.18913699  0.74586636  1
  O  O164  1  0.23607571  0.28388722  0.74958381  1
  O  O165  1  0.74628455  0.30198125  0.73352121  1
  O  O166  1  0.40881466  0.52341266  0.73428644  1
  O  O167  1  0.90723526  0.53203895  0.74633620  1
  O  O168  1  0.35727614  0.52455769  0.24520565  1
  O  O169  1  0.85458497  0.53431570  0.23202120  1
  O  O170  1  0.40561884  0.28477565  0.24563482  1
  O  O171  1  0.91324581  0.29851805  0.23399719  1
  O  O172  1  0.24539145  0.19120837  0.23259408  1
  O  O173  1  0.74831756  0.20813510  0.24368636  1
  O  O174  1  0.32376904  0.53058427  0.91941030  1
  O  O175  1  0.83100465  0.53644579  0.91694031  1
  O  O176  1  0.44334329  0.36002282  0.92547508  1
  O  O177  1  0.93867664  0.33246682  0.91814140  1
  O  O178  1  0.24178791  0.14567770  0.91747159  1
  O  O179  1  0.73918695  0.11756358  0.92341343  1
  O  O180  1  0.32635719  0.11867552  0.41911702  1
  O  O181  1  0.82493104  0.11472100  0.42130175  1
  O  O182  1  0.23765802  0.35975777  0.42475070  1
  O  O183  1  0.74104132  0.33565600  0.41828564  1
  O  O184  1  0.44012630  0.54510412  0.42068793  1
  O  O185  1  0.94483408  0.52945823  0.42667075  1
  O  O186  1  0.18093711  0.49659484  0.07713714  1
  O  O187  1  0.69322615  0.51372693  0.07243829  1
  O  O188  1  0.07122242  0.63663844  0.07197612  1
  O  O189  1  0.57631617  0.63807255  0.07245111  1
  O  O190  1  0.24669956  0.86219907  0.07751527  1
  O  O191  1  0.75581586  0.86575131  0.07609540  1
  O  O192  1  0.19408894  0.87544462  0.57460636  1
  O  O193  1  0.68189524  0.86925935  0.57946543  1
  O  O194  1  0.25591239  0.64380975  0.57706273  1
  O  O195  1  0.74679252  0.63072414  0.57689414  1
  O  O196  1  0.07745329  0.51987635  0.57156430  1
  O  O197  1  0.57235046  0.50806272  0.57139062  1
  O  O198  1  0.16062955  0.86035707  0.24834583  1
  O  O199  1  0.67423577  0.88274669  0.26574854  1
  O  O200  1  0.27295706  0.64955569  0.26381149  1
  O  O201  1  0.77881219  0.68193932  0.24085960  1
  O  O202  1  0.06291723  0.44269454  0.24528690  1
  O  O203  1  0.55428454  0.44260222  0.25884375  1
  O  O204  1  0.16620086  0.44361011  0.76323829  1
  O  O205  1  0.66048698  0.46160956  0.74889206  1
  O  O206  1  0.05585708  0.66782622  0.76031991  1
  O  O207  1  0.55885281  0.67543808  0.74546685  1
  O  O208  1  0.27732206  0.87206250  0.74231922  1
  O  O209  1  0.77574283  0.89292696  0.76299620  1
