# generated using pymatgen
data_PBr3
_symmetry_space_group_name_H-M   'P 1'
_cell_length_a   6.59891324
_cell_length_b   8.32317241
_cell_length_c   10.16786638
_cell_angle_alpha   90.00000000
_cell_angle_beta   90.00000000
_cell_angle_gamma   90.00000000
_symmetry_Int_Tables_number   1
_chemical_formula_structural   PBr3
_chemical_formula_sum   'P4 Br12'
_cell_volume   558.45880118
_cell_formula_units_Z   4
loop_
 _symmetry_equiv_pos_site_id
 _symmetry_equiv_pos_as_xyz
  1  'x, y, z'
loop_
 _atom_site_type_symbol
 _atom_site_label
 _atom_site_symmetry_multiplicity
 _atom_site_fract_x
 _atom_site_fract_y
 _atom_site_fract_z
 _atom_site_occupancy
  P  P0  1  0.02722441  0.03725534  0.25000000  1
  P  P1  1  0.52722441  0.46274466  0.75000000  1
  P  P2  1  0.47277559  0.53725534  0.25000000  1
  P  P3  1  0.97277559  0.96274466  0.75000000  1
  Br  Br4  1  0.14805271  0.18111852  0.08140329  1
  Br  Br5  1  0.64805271  0.31888148  0.91859671  1
  Br  Br6  1  0.35194729  0.68111752  0.41859671  1
  Br  Br7  1  0.85194729  0.81888248  0.58140329  1
  Br  Br8  1  0.85194729  0.81888248  0.91859671  1
  Br  Br9  1  0.35194729  0.68111752  0.08140329  1
  Br  Br10  1  0.64805271  0.31888148  0.58140329  1
  Br  Br11  1  0.14805271  0.18111852  0.41859671  1
  Br  Br12  1  0.69927330  0.10657133  0.25000000  1
  Br  Br13  1  0.19927330  0.39342867  0.75000000  1
  Br  Br14  1  0.80072670  0.60657133  0.25000000  1
  Br  Br15  1  0.30072670  0.89342867  0.75000000  1
