# generated using pymatgen
data_Na2ScNb3Si4(SO12)2
_symmetry_space_group_name_H-M   'P 1'
_cell_length_a   8.89706191
_cell_length_b   8.92057770
_cell_length_c   23.12098356
_cell_angle_alpha   90.43588024
_cell_angle_beta   90.21577397
_cell_angle_gamma   120.00623059
_symmetry_Int_Tables_number   1
_chemical_formula_structural   Na2ScNb3Si4(SO12)2
_chemical_formula_sum   'Na6 Sc3 Nb9 Si12 S6 O72'
_cell_volume   1588.98608947
_cell_formula_units_Z   3
loop_
 _symmetry_equiv_pos_site_id
 _symmetry_equiv_pos_as_xyz
  1  'x, y, z'
loop_
 _atom_site_type_symbol
 _atom_site_label
 _atom_site_symmetry_multiplicity
 _atom_site_fract_x
 _atom_site_fract_y
 _atom_site_fract_z
 _atom_site_occupancy
  Na  Na0  1  0.99088110  0.98679785  0.49935959  1
  Na  Na1  1  0.99993609  0.99468285  0.99880311  1
  Na  Na2  1  0.65912920  0.32240577  0.83122550  1
  Na  Na3  1  0.66825598  0.32165041  0.32484624  1
  Na  Na4  1  0.32515335  0.65706444  0.16266534  1
  Na  Na5  1  0.34630372  0.66427552  0.66691626  1
  Sc  Sc6  1  0.65193399  0.33299907  0.69046762  1
  Sc  Sc7  1  0.67309931  0.33739943  0.18657964  1
  Sc  Sc8  1  0.34929545  0.68181282  0.51847644  1
  Nb  Nb9  1  0.99800646  0.00224903  0.35276009  1
  Nb  Nb10  1  0.00548101  0.01525957  0.85793295  1
  Nb  Nb11  1  0.98551471  0.99481245  0.64892996  1
  Nb  Nb12  1  0.02310482  0.01240978  0.14277670  1
  Nb  Nb13  1  0.66200242  0.34472754  0.97596863  1
  Nb  Nb14  1  0.67923486  0.34514534  0.47728586  1
  Nb  Nb15  1  0.32413990  0.66040284  0.01890454  1
  Nb  Nb16  1  0.31964207  0.67714885  0.31052485  1
  Nb  Nb17  1  0.34199908  0.66455455  0.81385589  1
  Si  Si18  1  0.29380552  0.01065913  0.25047783  1
  Si  Si19  1  0.99924038  0.28878818  0.24993556  1
  Si  Si20  1  0.28607814  0.28923596  0.75064378  1
  Si  Si21  1  0.70742834  0.00254212  0.75254185  1
  Si  Si22  1  0.66319145  0.62191672  0.58570273  1
  Si  Si23  1  0.95306297  0.62029590  0.08502853  1
  Si  Si24  1  0.38842808  0.34394976  0.08433190  1
  Si  Si25  1  0.62401805  0.67356429  0.91790329  1
  Si  Si26  1  0.04254977  0.38432042  0.91516106  1
  Si  Si27  1  0.33453325  0.95169649  0.91617123  1
  Si  Si28  1  0.62141567  0.95533713  0.41697869  1
  Si  Si29  1  0.04941253  0.67465316  0.41866547  1
  S  S30  1  0.71006405  0.71372199  0.25024578  1
  S  S31  1  0.00152933  0.71408171  0.75018281  1
  S  S32  1  0.95548100  0.33265034  0.58403823  1
  S  S33  1  0.37635969  0.04614009  0.58331717  1
  S  S34  1  0.66687289  0.04311543  0.08316910  1
  S  S35  1  0.33387019  0.37716953  0.41693278  1
  O  O36  1  0.18342049  0.01442068  0.30638307  1
  O  O37  1  0.81753795  0.80072086  0.30369467  1
  O  O38  1  0.98196325  0.16801564  0.30642529  1
  O  O39  1  0.18643601  0.16698881  0.80628627  1
  O  O40  1  0.97841407  0.79662755  0.80200579  1
  O  O41  1  0.83117774  0.01511445  0.80677552  1
  O  O42  1  0.80136949  0.96737813  0.69355680  1
  O  O43  1  0.16285292  0.18550620  0.69274340  1
  O  O44  1  0.02331104  0.82294771  0.69696639  1
  O  O45  1  0.78895912  0.81964686  0.19885767  1
  O  O46  1  0.02325760  0.18718664  0.19386540  1
  O  O47  1  0.16846833  0.97117998  0.19263826  1
  O  O48  1  0.87274600  0.35180987  0.63493456  1
  O  O49  1  0.48149395  0.12455923  0.63548406  1
  O  O50  1  0.65022648  0.50814371  0.64013697  1
  O  O51  1  0.87763970  0.50689142  0.14164554  1
  O  O52  1  0.63985634  0.11881693  0.13573868  1
  O  O53  1  0.49366636  0.36452583  0.14215259  1
  O  O54  1  0.47136593  0.30640604  0.02617727  1
  O  O55  1  0.83294629  0.52376521  0.02686315  1
  O  O56  1  0.69451727  0.14833413  0.03117903  1
  O  O57  1  0.46155333  0.15197766  0.53100882  1
  O  O58  1  0.68972293  0.52115675  0.52691850  1
  O  O59  1  0.84494808  0.30391339  0.52985374  1
  O  O60  1  0.53156649  0.69913250  0.97403187  1
  O  O61  1  0.16434697  0.46993473  0.97276720  1
  O  O62  1  0.30516618  0.83207414  0.97257450  1
  O  O63  1  0.54681913  0.84049647  0.47334756  1
  O  O64  1  0.30543105  0.45133884  0.46915951  1
  O  O65  1  0.15886823  0.69585709  0.47517131  1
  O  O66  1  0.13402173  0.63731582  0.35987083  1
  O  O67  1  0.49816317  0.85678380  0.35972059  1
  O  O68  1  0.36260706  0.48117701  0.36490314  1
  O  O69  1  0.13572221  0.50095007  0.85871777  1
  O  O70  1  0.36190963  0.85845427  0.85898811  1
  O  O71  1  0.50170611  0.63643336  0.85968197  1
  O  O72  1  0.01701682  0.83555173  0.40641749  1
  O  O73  1  0.81731973  0.98759802  0.40513704  1
  O  O74  1  0.17959959  0.19872368  0.40976025  1
  O  O75  1  0.02782634  0.19332124  0.90973768  1
  O  O76  1  0.16341510  0.97188860  0.90671814  1
  O  O77  1  0.81575083  0.83740770  0.90781464  1
  O  O78  1  0.96889743  0.16949343  0.58758206  1
  O  O79  1  0.20146606  0.03173394  0.58816773  1
  O  O80  1  0.84662048  0.81609063  0.59024490  1
  O  O81  1  0.96731622  0.81359284  0.09156190  1
  O  O82  1  0.82333215  0.02157194  0.08982240  1
  O  O83  1  0.18760079  0.16722215  0.08936366  1
  O  O84  1  0.70046460  0.17545914  0.74399289  1
  O  O85  1  0.47572261  0.31097973  0.74734908  1
  O  O86  1  0.84954428  0.54253756  0.74307280  1
  O  O87  1  0.69644400  0.54372888  0.24768318  1
  O  O88  1  0.83512473  0.31429893  0.24783671  1
  O  O89  1  0.48096672  0.17503423  0.24780277  1
  O  O90  1  0.63818568  0.49752846  0.92351592  1
  O  O91  1  0.85066982  0.35578610  0.92511324  1
  O  O92  1  0.50537104  0.14184751  0.92594341  1
  O  O93  1  0.63910394  0.14779786  0.42711052  1
  O  O94  1  0.48945075  0.35290318  0.42395496  1
  O  O95  1  0.85247948  0.49675861  0.42542626  1
  O  O96  1  0.35780495  0.50798241  0.07409083  1
  O  O97  1  0.15182218  0.65662733  0.07366605  1
  O  O98  1  0.51193725  0.86696583  0.07637709  1
  O  O99  1  0.35264071  0.87038564  0.57755189  1
  O  O100  1  0.49720898  0.64653316  0.57827462  1
  O  O101  1  0.12856017  0.48299952  0.57585335  1
  O  O102  1  0.30272866  0.82777326  0.25713266  1
  O  O103  1  0.53590673  0.69642868  0.25842918  1
  O  O104  1  0.18369775  0.47446958  0.26042330  1
  O  O105  1  0.29287459  0.47570646  0.75616144  1
  O  O106  1  0.16252727  0.70412616  0.75309507  1
  O  O107  1  0.51796809  0.82552765  0.75688207  1
