# generated using pymatgen
data_Ba(AlTe2)2
_symmetry_space_group_name_H-M   'P 1'
_cell_length_a   6.74162841
_cell_length_b   8.68739556
_cell_length_c   8.68739556
_cell_angle_alpha   90.00000000
_cell_angle_beta   90.00000000
_cell_angle_gamma   90.00000000
_symmetry_Int_Tables_number   1
_chemical_formula_structural   Ba(AlTe2)2
_chemical_formula_sum   'Ba2 Al4 Te8'
_cell_volume   508.79636996
_cell_formula_units_Z   2
loop_
 _symmetry_equiv_pos_site_id
 _symmetry_equiv_pos_as_xyz
  1  'x, y, z'
loop_
 _atom_site_type_symbol
 _atom_site_label
 _atom_site_symmetry_multiplicity
 _atom_site_fract_x
 _atom_site_fract_y
 _atom_site_fract_z
 _atom_site_occupancy
  Ba  Ba0  1  -0.00000000  0.75000000  0.75000000  1
  Ba  Ba1  1  -0.00000000  0.25000000  0.25000000  1
  Al  Al2  1  0.50000000  0.25000000  0.75000000  1
  Al  Al3  1  0.50000000  0.75000000  0.25000000  1
  Al  Al4  1  -0.00000000  0.75000000  0.25000000  1
  Al  Al5  1  -0.00000000  0.25000000  0.75000000  1
  Te  Te6  1  0.25062363  0.08499618  0.91500382  1
  Te  Te7  1  0.25062363  0.41500382  0.58499618  1
  Te  Te8  1  0.74937637  0.91500382  0.08499618  1
  Te  Te9  1  0.74937637  0.41500382  0.91500382  1
  Te  Te10  1  0.74937637  0.08499618  0.58499618  1
  Te  Te11  1  0.74937637  0.58499618  0.41500382  1
  Te  Te12  1  0.25062363  0.91500382  0.41500382  1
  Te  Te13  1  0.25062363  0.58499618  0.08499618  1
