# generated using pymatgen
data_K2AgBi
_symmetry_space_group_name_H-M   'P 1'
_cell_length_a   6.38135701
_cell_length_b   6.80535150
_cell_length_c   6.80535176
_cell_angle_alpha   103.56288899
_cell_angle_beta   90.00000000
_cell_angle_gamma   90.00000000
_symmetry_Int_Tables_number   1
_chemical_formula_structural   K2AgBi
_chemical_formula_sum   'K4 Ag2 Bi2'
_cell_volume   287.29692503
_cell_formula_units_Z   2
loop_
 _symmetry_equiv_pos_site_id
 _symmetry_equiv_pos_as_xyz
  1  'x, y, z'
loop_
 _atom_site_type_symbol
 _atom_site_label
 _atom_site_symmetry_multiplicity
 _atom_site_fract_x
 _atom_site_fract_y
 _atom_site_fract_z
 _atom_site_occupancy
  K  K0  1  0.25093927  0.67367099  0.01901208  1
  K  K1  1  0.75093927  0.32632901  0.98098792  1
  K  K2  1  0.24906073  0.01901208  0.67367099  1
  K  K3  1  0.74906073  0.98098792  0.32632901  1
  Ag  Ag4  1  0.00000000  0.49935659  0.50064341  1
  Ag  Ag5  1  0.50000000  0.50064341  0.49935659  1
  Bi  Bi6  1  0.25000000  0.22874174  0.22874174  1
  Bi  Bi7  1  0.75000000  0.77125826  0.77125826  1
