# generated using pymatgen
data_Ga4Bi2O9
_symmetry_space_group_name_H-M   'P 1'
_cell_length_a   5.91941117
_cell_length_b   7.94668159
_cell_length_c   8.33018845
_cell_angle_alpha   90.00000000
_cell_angle_beta   90.00000000
_cell_angle_gamma   90.00000000
_symmetry_Int_Tables_number   1
_chemical_formula_structural   Ga4Bi2O9
_chemical_formula_sum   'Ga8 Bi4 O18'
_cell_volume   391.84936378
_cell_formula_units_Z   2
loop_
 _symmetry_equiv_pos_site_id
 _symmetry_equiv_pos_as_xyz
  1  'x, y, z'
loop_
 _atom_site_type_symbol
 _atom_site_label
 _atom_site_symmetry_multiplicity
 _atom_site_fract_x
 _atom_site_fract_y
 _atom_site_fract_z
 _atom_site_occupancy
  Ga  Ga0  1  0.50000000  0.14879508  0.66409044  1
  Ga  Ga1  1  0.50000000  0.85120492  0.33590956  1
  Ga  Ga2  1  0.50000000  0.64879508  0.83590956  1
  Ga  Ga3  1  0.50000000  0.35120492  0.16409044  1
  Ga  Ga4  1  0.25761514  0.50000000  0.50000000  1
  Ga  Ga5  1  0.74238486  -0.00000000  -0.00000000  1
  Ga  Ga6  1  0.74238486  0.50000000  0.50000000  1
  Ga  Ga7  1  0.25761514  -0.00000000  -0.00000000  1
  Bi  Bi8  1  0.00000000  0.32657310  0.82958812  1
  Bi  Bi9  1  0.00000000  0.67342690  0.17041188  1
  Bi  Bi10  1  0.00000000  0.82657310  0.67041188  1
  Bi  Bi11  1  0.00000000  0.17342690  0.32958812  1
  O  O12  1  0.50000000  0.50000000  -0.00000000  1
  O  O13  1  0.50000000  -0.00000000  0.50000000  1
  O  O14  1  0.24232971  0.87131459  0.20748450  1
  O  O15  1  0.24232971  0.12868541  0.79251550  1
  O  O16  1  0.75767029  0.37131459  0.29251550  1
  O  O17  1  0.75767029  0.62868541  0.70748450  1
  O  O18  1  0.75767029  0.12868541  0.79251550  1
  O  O19  1  0.75767029  0.87131459  0.20748450  1
  O  O20  1  0.24232971  0.62868541  0.70748450  1
  O  O21  1  0.24232971  0.37131459  0.29251550  1
  O  O22  1  0.50000000  0.36787197  0.59264591  1
  O  O23  1  0.50000000  0.63212803  0.40735409  1
  O  O24  1  0.00000000  0.14927597  0.06716873  1
  O  O25  1  0.00000000  0.85072403  0.93283127  1
  O  O26  1  0.00000000  0.64927597  0.43283127  1
  O  O27  1  0.00000000  0.35072403  0.56716873  1
  O  O28  1  0.50000000  0.13212803  0.09264591  1
  O  O29  1  0.50000000  0.86787197  0.90735409  1
