# generated using pymatgen
data_Tb2MgMo2(ClO4)2
_symmetry_space_group_name_H-M   'P 1'
_cell_length_a   6.71699405
_cell_length_b   6.71699430
_cell_length_c   7.17169794
_cell_angle_alpha   76.60036090
_cell_angle_beta   76.60036787
_cell_angle_gamma   60.78744009
_symmetry_Int_Tables_number   1
_chemical_formula_structural   Tb2MgMo2(ClO4)2
_chemical_formula_sum   'Tb2 Mg1 Mo2 Cl2 O8'
_cell_volume   272.03570474
_cell_formula_units_Z   1
loop_
 _symmetry_equiv_pos_site_id
 _symmetry_equiv_pos_as_xyz
  1  'x, y, z'
loop_
 _atom_site_type_symbol
 _atom_site_label
 _atom_site_symmetry_multiplicity
 _atom_site_fract_x
 _atom_site_fract_y
 _atom_site_fract_z
 _atom_site_occupancy
  Tb  Tb0  1  0.26898614  0.29080297  0.87441692  1
  Tb  Tb1  1  0.70919703  0.73101386  0.12558408  1
  Mg  Mg2  1  0.76021513  0.23978487  0.00000000  1
  Mo  Mo3  1  0.33175627  0.37943014  0.29041112  1
  Mo  Mo4  1  0.62056986  0.66824373  0.70958888  1
  Cl  Cl5  1  0.07018132  0.05600003  0.20032715  1
  Cl  Cl6  1  0.94399997  0.92981868  0.79967285  1
  O  O7  1  0.30362794  0.30583811  0.54901235  1
  O  O8  1  0.47820228  0.90176171  0.86320884  1
  O  O9  1  0.69416189  0.69637206  0.45098765  1
  O  O10  1  0.50652132  0.44948194  0.80529088  1
  O  O11  1  0.09823829  0.52179772  0.13679116  1
  O  O12  1  0.87915835  0.47575084  0.85579326  1
  O  O13  1  0.52424916  0.12084165  0.14420674  1
  O  O14  1  0.55051806  0.49347868  0.19470912  1
