# generated using pymatgen
data_Ta2Si2SO12
_symmetry_space_group_name_H-M   'P 1'
_cell_length_a   8.87576363
_cell_length_b   8.88049306
_cell_length_c   22.88079507
_cell_angle_alpha   90.72148439
_cell_angle_beta   90.00000000
_cell_angle_gamma   119.98238454
_symmetry_Int_Tables_number   1
_chemical_formula_structural   Ta2Si2SO12
_chemical_formula_sum   'Ta12 Si12 S6 O72'
_cell_volume   1561.98089211
_cell_formula_units_Z   6
loop_
 _symmetry_equiv_pos_site_id
 _symmetry_equiv_pos_as_xyz
  1  'x, y, z'
loop_
 _atom_site_type_symbol
 _atom_site_label
 _atom_site_symmetry_multiplicity
 _atom_site_fract_x
 _atom_site_fract_y
 _atom_site_fract_z
 _atom_site_occupancy
  Ta  Ta0  1  0.00270902  0.00837375  0.35783337  1
  Ta  Ta1  1  0.00566472  0.00837375  0.85783337  1
  Ta  Ta2  1  0.98813530  0.00863872  0.64191495  1
  Ta  Ta3  1  0.02050341  0.00863872  0.14191495  1
  Ta  Ta4  1  0.66937602  0.34170675  0.69116637  1
  Ta  Ta5  1  0.67233172  0.34170675  0.19116637  1
  Ta  Ta6  1  0.65480230  0.34197172  0.97524795  1
  Ta  Ta7  1  0.68717041  0.34197172  0.47524795  1
  Ta  Ta8  1  0.33604202  0.67504075  0.02450037  1
  Ta  Ta9  1  0.33899772  0.67504075  0.52450037  1
  Ta  Ta10  1  0.32146830  0.67530572  0.30858195  1
  Ta  Ta11  1  0.35383641  0.67530572  0.80858195  1
  Si  Si12  1  0.28851029  0.00772094  0.25044591  1
  Si  Si13  1  0.00065067  0.28277792  0.25007662  1
  Si  Si14  1  0.28212725  0.28277792  0.75007662  1
  Si  Si15  1  0.71921065  0.00772094  0.75044591  1
  Si  Si16  1  0.95517729  0.34105394  0.58377891  1
  Si  Si17  1  0.66731767  0.61611092  0.58340962  1
  Si  Si18  1  0.94879425  0.61611092  0.08340962  1
  Si  Si19  1  0.38587765  0.34105394  0.08377891  1
  Si  Si20  1  0.62184329  0.67438794  0.91711291  1
  Si  Si21  1  0.33398367  0.94944492  0.91674362  1
  Si  Si22  1  0.61546025  0.94944492  0.41674362  1
  Si  Si23  1  0.05254365  0.67438794  0.41711291  1
  S  S24  1  0.71388831  0.71715096  0.25031180  1
  S  S25  1  0.00326265  0.71715096  0.75031180  1
  S  S26  1  0.38055531  0.05048396  0.58364480  1
  S  S27  1  0.66992965  0.05048396  0.08364480  1
  S  S28  1  0.04722131  0.38381796  0.91697880  1
  S  S29  1  0.33659565  0.38381796  0.41697880  1
  O  O30  1  0.19093101  0.02964149  0.30697637  1
  O  O31  1  0.82460915  0.79476180  0.30307471  1
  O  O32  1  0.97049284  0.16198941  0.30705582  1
  O  O33  1  0.19149657  0.16198941  0.80705582  1
  O  O34  1  0.97015265  0.79476180  0.80307471  1
  O  O35  1  0.83871048  0.02964149  0.80697637  1
  O  O36  1  0.80542032  0.96875061  0.69277311  1
  O  O37  1  0.16307232  0.18315407  0.69268847  1
  O  O38  1  0.03134586  0.82015704  0.69788643  1
  O  O39  1  0.78881117  0.82015704  0.19788643  1
  O  O40  1  0.02008175  0.18315407  0.19268847  1
  O  O41  1  0.16333029  0.96875061  0.19277311  1
  O  O42  1  0.85759801  0.36297449  0.64030937  1
  O  O43  1  0.49127615  0.12809480  0.63640771  1
  O  O44  1  0.63715984  0.49532241  0.64038882  1
  O  O45  1  0.85816357  0.49532241  0.14038882  1
  O  O46  1  0.63681965  0.12809480  0.13640771  1
  O  O47  1  0.50537748  0.36297449  0.14030937  1
  O  O48  1  0.47208732  0.30208361  0.02610611  1
  O  O49  1  0.82973932  0.51648707  0.02602147  1
  O  O50  1  0.69801286  0.15349004  0.03121943  1
  O  O51  1  0.45547817  0.15349004  0.53121943  1
  O  O52  1  0.68674875  0.51648707  0.52602147  1
  O  O53  1  0.82999729  0.30208361  0.52610611  1
  O  O54  1  0.52426401  0.69630849  0.97364337  1
  O  O55  1  0.15794215  0.46142880  0.96974171  1
  O  O56  1  0.30382584  0.82865641  0.97372282  1
  O  O57  1  0.52482957  0.82865641  0.47372282  1
  O  O58  1  0.30348565  0.46142880  0.46974171  1
  O  O59  1  0.17204348  0.69630849  0.47364337  1
  O  O60  1  0.13875332  0.63541761  0.35944011  1
  O  O61  1  0.49640532  0.84982107  0.35935547  1
  O  O62  1  0.36467886  0.48682404  0.36455343  1
  O  O63  1  0.12214417  0.48682404  0.86455343  1
  O  O64  1  0.35341475  0.84982107  0.85935547  1
  O  O65  1  0.49666329  0.63541761  0.85944011  1
  O  O66  1  0.02670114  0.83883629  0.40414583  1
  O  O67  1  0.80884001  0.97620839  0.40480045  1
  O  O68  1  0.17686878  0.20783119  0.40955656  1
  O  O69  1  0.03096241  0.20783119  0.90955656  1
  O  O70  1  0.16736839  0.97620839  0.90480045  1
  O  O71  1  0.81213515  0.83883629  0.90414583  1
  O  O72  1  0.97528320  0.16810101  0.59225910  1
  O  O73  1  0.20417983  0.02255342  0.59296991  1
  O  O74  1  0.84260807  0.80335301  0.59523059  1
  O  O75  1  0.96074493  0.80335301  0.09523059  1
  O  O76  1  0.81837359  0.02255342  0.09296991  1
  O  O77  1  0.19281780  0.16810101  0.09225910  1
  O  O78  1  0.69336814  0.17216929  0.73747883  1
  O  O79  1  0.47550701  0.30954139  0.73813345  1
  O  O80  1  0.84353578  0.54116419  0.74288956  1
  O  O81  1  0.69762941  0.54116419  0.24288956  1
  O  O82  1  0.83403539  0.30954139  0.23813345  1
  O  O83  1  0.47880215  0.17216929  0.23747883  1
  O  O84  1  0.64195020  0.50143401  0.92559210  1
  O  O85  1  0.87084683  0.35588642  0.92630291  1
  O  O86  1  0.50927507  0.13668601  0.92856359  1
  O  O87  1  0.62741193  0.13668601  0.42856359  1
  O  O88  1  0.48504059  0.35588642  0.42630291  1
  O  O89  1  0.85948480  0.50143401  0.42559210  1
  O  O90  1  0.36003414  0.50550329  0.07081283  1
  O  O91  1  0.14217301  0.64287539  0.07146745  1
  O  O92  1  0.51020178  0.87449819  0.07622356  1
  O  O93  1  0.36429541  0.87449819  0.57622356  1
  O  O94  1  0.50070139  0.64287539  0.57146745  1
  O  O95  1  0.14546815  0.50550329  0.57081283  1
  O  O96  1  0.30861620  0.83476801  0.25892610  1
  O  O97  1  0.53751283  0.68922042  0.25963691  1
  O  O98  1  0.17594107  0.47002001  0.26189759  1
  O  O99  1  0.29407793  0.47002001  0.76189759  1
  O  O100  1  0.15170659  0.68922042  0.75963691  1
  O  O101  1  0.52615080  0.83476801  0.75892610  1
