# generated using pymatgen
data_NaYGaP(SO6)2
_symmetry_space_group_name_H-M   'P 1'
_cell_length_a   8.80781564
_cell_length_b   8.80133988
_cell_length_c   23.20930027
_cell_angle_alpha   90.14135840
_cell_angle_beta   89.59064933
_cell_angle_gamma   119.80050460
_symmetry_Int_Tables_number   1
_chemical_formula_structural   NaYGaP(SO6)2
_chemical_formula_sum   'Na6 Y6 Ga6 P6 S12 O72'
_cell_volume   1561.23327444
_cell_formula_units_Z   6
loop_
 _symmetry_equiv_pos_site_id
 _symmetry_equiv_pos_as_xyz
  1  'x, y, z'
loop_
 _atom_site_type_symbol
 _atom_site_label
 _atom_site_symmetry_multiplicity
 _atom_site_fract_x
 _atom_site_fract_y
 _atom_site_fract_z
 _atom_site_occupancy
  Na  Na0  1  0.98866856  0.99230843  0.49990366  1
  Na  Na1  1  0.00763405  0.98588475  0.99948934  1
  Na  Na2  1  0.65535625  0.30839716  0.82791429  1
  Na  Na3  1  0.65374634  0.31379430  0.33879691  1
  Na  Na4  1  0.31828129  0.67396711  0.16446622  1
  Na  Na5  1  0.34759642  0.67211563  0.66012424  1
  Y  Y6  1  0.99667108  0.00107761  0.84970882  1
  Y  Y7  1  0.00595810  0.99422652  0.14727560  1
  Y  Y8  1  0.66461676  0.33182197  0.18629868  1
  Y  Y9  1  0.66620577  0.33188437  0.98025277  1
  Y  Y10  1  0.33779326  0.68044185  0.32191787  1
  Y  Y11  1  0.34108250  0.67924729  0.80658274  1
  Ga  Ga12  1  0.99886366  0.00078371  0.35535405  1
  Ga  Ga13  1  0.97998426  0.98484008  0.64402502  1
  Ga  Ga14  1  0.66432909  0.33065107  0.67781518  1
  Ga  Ga15  1  0.67216520  0.33371835  0.48731984  1
  Ga  Ga16  1  0.32107537  0.67559822  0.01643368  1
  Ga  Ga17  1  0.36838896  0.67691205  0.51709446  1
  P  P18  1  0.28927866  0.00646287  0.25768223  1
  P  P19  1  0.71482129  0.01957128  0.74036060  1
  P  P20  1  0.66717324  0.61694211  0.58263029  1
  P  P21  1  0.97845687  0.63047201  0.08068688  1
  P  P22  1  0.32718462  0.95533400  0.91815885  1
  P  P23  1  0.64411384  0.97746708  0.42190409  1
  S  S24  1  0.71183590  0.70987918  0.25592427  1
  S  S25  1  -0.00136101  0.28826092  0.25573735  1
  S  S26  1  0.29698558  0.28333955  0.74027131  1
  S  S27  1  0.98424514  0.69835620  0.74105247  1
  S  S28  1  0.96375063  0.33567942  0.58247767  1
  S  S29  1  0.37234290  0.03816367  0.58246967  1
  S  S30  1  0.65312164  0.01721835  0.08101466  1
  S  S31  1  0.36615542  0.35167302  0.08061784  1
  S  S32  1  0.61819031  0.67139768  0.91976518  1
  S  S33  1  0.05243044  0.37983167  0.91829720  1
  S  S34  1  0.33581397  0.36631725  0.42237527  1
  S  S35  1  0.03114087  0.66530961  0.42363235  1
  O  O36  1  0.18860370  0.01584300  0.31187207  1
  O  O37  1  0.81318053  0.80190465  0.30770879  1
  O  O38  1  0.98033328  0.18166140  0.30748454  1
  O  O39  1  0.22453095  0.18880933  0.79560820  1
  O  O40  1  0.96458737  0.77477324  0.79573230  1
  O  O41  1  0.81277453  0.04283504  0.79746884  1
  O  O42  1  0.80886047  0.99149522  0.68879213  1
  O  O43  1  0.18493036  0.19029957  0.69076342  1
  O  O44  1  0.01581990  0.81562081  0.69131055  1
  O  O45  1  0.78840085  0.80661400  0.20197702  1
  O  O46  1  0.01009968  0.20729091  0.20153030  1
  O  O47  1  0.19494454  0.99352689  0.20111833  1
  O  O48  1  0.88178461  0.36414052  0.63472115  1
  O  O49  1  0.48205517  0.11487996  0.63466334  1
  O  O50  1  0.63421224  0.50266394  0.63686029  1
  O  O51  1  0.88948068  0.52712508  0.13630151  1
  O  O52  1  0.63027469  0.09960236  0.13388288  1
  O  O53  1  0.46610196  0.36668428  0.13367740  1
  O  O54  1  0.44705654  0.31856569  0.03009278  1
  O  O55  1  0.86893051  0.54110652  0.02766312  1
  O  O56  1  0.67576100  0.12432931  0.02991104  1
  O  O57  1  0.45346068  0.14968335  0.53081400  1
  O  O58  1  0.69584384  0.53172570  0.52864479  1
  O  O59  1  0.85087852  0.30120107  0.53107917  1
  O  O60  1  0.52490256  0.67787565  0.97208887  1
  O  O61  1  0.15223465  0.46684005  0.97092211  1
  O  O62  1  0.31723532  0.85197619  0.97327011  1
  O  O63  1  0.55706066  0.85020431  0.47385354  1
  O  O64  1  0.30461635  0.45514695  0.47273679  1
  O  O65  1  0.14964500  0.69273224  0.47267987  1
  O  O66  1  0.09858789  0.63071152  0.36934956  1
  O  O67  1  0.53233888  0.90653729  0.36772786  1
  O  O68  1  0.36601434  0.46947422  0.36912044  1
  O  O69  1  0.13867161  0.47265562  0.86487365  1
  O  O70  1  0.33954307  0.86627011  0.86284066  1
  O  O71  1  0.52445587  0.65691433  0.86591587  1
  O  O72  1  0.01423403  0.82551812  0.41675271  1
  O  O73  1  0.82826994  0.99372827  0.41196222  1
  O  O74  1  0.17618495  0.19091038  0.41682250  1
  O  O75  1  0.03223024  0.20229624  0.91812700  1
  O  O76  1  0.16027887  0.97059614  0.91671474  1
  O  O77  1  0.79187220  0.83309632  0.91848655  1
  O  O78  1  0.98436816  0.17672770  0.58853671  1
  O  O79  1  0.19511235  0.01986724  0.58985633  1
  O  O80  1  0.83220308  0.80387483  0.58883166  1
  O  O81  1  0.00463630  0.81708869  0.08222437  1
  O  O82  1  0.81025121  -0.00056071  0.08513764  1
  O  O83  1  0.18602828  0.20131645  0.08473394  1
  O  O84  1  0.69646707  0.18591433  0.73312626  1
  O  O85  1  0.47463612  0.30287448  0.73542720  1
  O  O86  1  0.82362760  0.52609343  0.73529903  1
  O  O87  1  0.70266588  0.53745157  0.25350262  1
  O  O88  1  0.84020350  0.30735420  0.25399422  1
  O  O89  1  0.47178615  0.17232804  0.25585815  1
  O  O90  1  0.64297359  0.51726209  0.92054873  1
  O  O91  1  0.87678564  0.36308342  0.91886655  1
  O  O92  1  0.49149025  0.13834399  0.91824287  1
  O  O93  1  0.66331869  0.16046314  0.43360309  1
  O  O94  1  0.49273855  0.34685122  0.43052193  1
  O  O95  1  0.85345909  0.50934839  0.43125511  1
  O  O96  1  0.36141909  0.51541803  0.07428319  1
  O  O97  1  0.16031037  0.64248089  0.07680769  1
  O  O98  1  0.49590650  0.84245719  0.07614180  1
  O  O99  1  0.35364670  0.85973133  0.57486819  1
  O  O100  1  0.50067740  0.63872331  0.57578584  1
  O  O101  1  0.13865936  0.49475088  0.57497738  1
  O  O102  1  0.30713009  0.84070443  0.25847859  1
  O  O103  1  0.53262102  0.68343788  0.25856439  1
  O  O104  1  0.15761815  0.46228382  0.25911998  1
  O  O105  1  0.31369151  0.45969954  0.74408691  1
  O  O106  1  0.13932726  0.67440195  0.74445035  1
  O  O107  1  0.53086079  0.85501608  0.74311474  1
