# generated using pymatgen
data_CaPbF6
_symmetry_space_group_name_H-M   'P 1'
_cell_length_a   6.10513578
_cell_length_b   6.10513625
_cell_length_c   6.10513696
_cell_angle_alpha   60.00000158
_cell_angle_beta   59.99999904
_cell_angle_gamma   59.99999877
_symmetry_Int_Tables_number   1
_chemical_formula_structural   CaPbF6
_chemical_formula_sum   'Ca1 Pb1 F6'
_cell_volume   160.90557789
_cell_formula_units_Z   1
loop_
 _symmetry_equiv_pos_site_id
 _symmetry_equiv_pos_as_xyz
  1  'x, y, z'
loop_
 _atom_site_type_symbol
 _atom_site_label
 _atom_site_symmetry_multiplicity
 _atom_site_fract_x
 _atom_site_fract_y
 _atom_site_fract_z
 _atom_site_occupancy
  Ca  Ca0  1  0.50000000  0.50000000  0.50000000  1
  Pb  Pb1  1  -0.00000000  -0.00000000  0.00000000  1
  F  F2  1  0.23988089  0.76011911  0.76011911  1
  F  F3  1  0.23988089  0.76011911  0.23988089  1
  F  F4  1  0.76011911  0.23988089  0.23988089  1
  F  F5  1  0.76011911  0.76011911  0.23988089  1
  F  F6  1  0.23988089  0.23988089  0.76011911  1
  F  F7  1  0.76011911  0.23988089  0.76011911  1
