# generated using pymatgen
data_Na2MgFe4O7
_symmetry_space_group_name_H-M   'P 1'
_cell_length_a   5.62110343
_cell_length_b   5.82615716
_cell_length_c   5.91930845
_cell_angle_alpha   85.72911127
_cell_angle_beta   92.63431803
_cell_angle_gamma   120.90566221
_symmetry_Int_Tables_number   1
_chemical_formula_structural   Na2MgFe4O7
_chemical_formula_sum   'Na2 Mg1 Fe4 O7'
_cell_volume   165.86085108
_cell_formula_units_Z   1
loop_
 _symmetry_equiv_pos_site_id
 _symmetry_equiv_pos_as_xyz
  1  'x, y, z'
loop_
 _atom_site_type_symbol
 _atom_site_label
 _atom_site_symmetry_multiplicity
 _atom_site_fract_x
 _atom_site_fract_y
 _atom_site_fract_z
 _atom_site_occupancy
  Na  Na0  1  0.53494751  0.81724539  0.96831329  1
  Na  Na1  1  0.46606294  0.28336276  0.96719594  1
  Mg  Mg2  1  0.00258042  0.35062655  0.07857242  1
  Fe  Fe3  1  0.99479957  0.97282812  0.33640555  1
  Fe  Fe4  1  0.00030773  0.81638091  0.76617246  1
  Fe  Fe5  1  0.33208266  0.67111544  0.49148046  1
  Fe  Fe6  1  0.66324405  0.33888011  0.48894453  1
  O  O7  1  0.99822354  0.61639992  0.29344943  1
  O  O8  1  0.00157092  0.46749618  0.74004494  1
  O  O9  1  0.00182799  0.02884725  0.99162378  1
  O  O10  1  0.34142518  0.40122422  0.28975933  1
  O  O11  1  0.60529170  0.60820261  0.66544196  1
  O  O12  1  0.39172681  0.00312677  0.66032824  1
  O  O13  1  0.66590997  0.06156277  0.29226766  1
