# generated using pymatgen
data_NaScZn(SO4)3
_symmetry_space_group_name_H-M   'P 1'
_cell_length_a   8.73507155
_cell_length_b   8.73507128
_cell_length_c   22.95685673
_cell_angle_alpha   90.00000000
_cell_angle_beta   90.00000000
_cell_angle_gamma   120.00000107
_symmetry_Int_Tables_number   1
_chemical_formula_structural   NaScZn(SO4)3
_chemical_formula_sum   'Na6 Sc6 Zn6 S18 O72'
_cell_volume   1516.96643247
_cell_formula_units_Z   6
loop_
 _symmetry_equiv_pos_site_id
 _symmetry_equiv_pos_as_xyz
  1  'x, y, z'
loop_
 _atom_site_type_symbol
 _atom_site_label
 _atom_site_symmetry_multiplicity
 _atom_site_fract_x
 _atom_site_fract_y
 _atom_site_fract_z
 _atom_site_occupancy
  Na  Na0  1  -0.00000000  0.00000000  0.49748500  1
  Na  Na1  1  -0.00000000  0.00000000  0.99748500  1
  Na  Na2  1  0.66666700  0.33333300  0.83081800  1
  Na  Na3  1  0.66666700  0.33333300  0.33081800  1
  Na  Na4  1  0.33333300  0.66666700  0.16415200  1
  Na  Na5  1  0.33333300  0.66666700  0.66415200  1
  Sc  Sc6  1  -0.00000000  0.00000000  0.64803429  1
  Sc  Sc7  1  -0.00000000  0.00000000  0.14803429  1
  Sc  Sc8  1  0.66666700  0.33333300  0.98136729  1
  Sc  Sc9  1  0.66666700  0.33333300  0.48136729  1
  Sc  Sc10  1  0.33333300  0.66666700  0.31470129  1
  Sc  Sc11  1  0.33333300  0.66666700  0.81470129  1
  Zn  Zn12  1  -0.00000000  0.00000000  0.34982248  1
  Zn  Zn13  1  -0.00000000  0.00000000  0.84982248  1
  Zn  Zn14  1  0.66666700  0.33333300  0.68315548  1
  Zn  Zn15  1  0.66666700  0.33333300  0.18315548  1
  Zn  Zn16  1  0.33333300  0.66666700  0.01648948  1
  Zn  Zn17  1  0.33333300  0.66666700  0.51648948  1
  S  S18  1  0.29438189  0.00313990  0.25058416  1
  S  S19  1  0.70875801  0.70561811  0.25058416  1
  S  S20  1  0.99686010  0.29124199  0.25058416  1
  S  S21  1  0.29438189  0.29124199  0.75058416  1
  S  S22  1  0.99686010  0.70561811  0.75058416  1
  S  S23  1  0.70875801  0.00313990  0.75058416  1
  S  S24  1  0.96104889  0.33647290  0.58391716  1
  S  S25  1  0.37542501  0.03895111  0.58391716  1
  S  S26  1  0.66352710  0.62457499  0.58391716  1
  S  S27  1  0.96104889  0.62457499  0.08391716  1
  S  S28  1  0.66352710  0.03895111  0.08391716  1
  S  S29  1  0.37542501  0.33647290  0.08391716  1
  S  S30  1  0.62771489  0.66980690  0.91725116  1
  S  S31  1  0.04209101  0.37228511  0.91725116  1
  S  S32  1  0.33019310  0.95790899  0.91725116  1
  S  S33  1  0.62771489  0.95790899  0.41725116  1
  S  S34  1  0.33019310  0.37228511  0.41725116  1
  S  S35  1  0.04209101  0.66980690  0.41725116  1
  O  O36  1  0.21404361  0.02860213  0.30324109  1
  O  O37  1  0.81455852  0.78595639  0.30324109  1
  O  O38  1  0.97139787  0.18544148  0.30324109  1
  O  O39  1  0.21404361  0.18544148  0.80324109  1
  O  O40  1  0.97139787  0.78595639  0.80324109  1
  O  O41  1  0.81455852  0.02860213  0.80324109  1
  O  O42  1  0.79040326  0.97385631  0.69784207  1
  O  O43  1  0.18345305  0.20959674  0.69784207  1
  O  O44  1  0.02614369  0.81654695  0.69784207  1
  O  O45  1  0.79040326  0.81654695  0.19784207  1
  O  O46  1  0.02614369  0.20959674  0.19784207  1
  O  O47  1  0.18345305  0.97385631  0.19784207  1
  O  O48  1  0.88071061  0.36193513  0.63657409  1
  O  O49  1  0.48122552  0.11928939  0.63657409  1
  O  O50  1  0.63806487  0.51877448  0.63657409  1
  O  O51  1  0.88071061  0.51877448  0.13657409  1
  O  O52  1  0.63806487  0.11928939  0.13657409  1
  O  O53  1  0.48122552  0.36193513  0.13657409  1
  O  O54  1  0.45707026  0.30718931  0.03117507  1
  O  O55  1  0.85012005  0.54292974  0.03117507  1
  O  O56  1  0.69281069  0.14987995  0.03117507  1
  O  O57  1  0.45707026  0.14987995  0.53117507  1
  O  O58  1  0.69281069  0.54292974  0.53117507  1
  O  O59  1  0.85012005  0.30718931  0.53117507  1
  O  O60  1  0.54737661  0.69526913  0.96990809  1
  O  O61  1  0.14789152  0.45262339  0.96990809  1
  O  O62  1  0.30473087  0.85210848  0.96990809  1
  O  O63  1  0.54737661  0.85210848  0.46990809  1
  O  O64  1  0.30473087  0.45262339  0.46990809  1
  O  O65  1  0.14789152  0.69526913  0.46990809  1
  O  O66  1  0.12373626  0.64052331  0.36450907  1
  O  O67  1  0.51678605  0.87626374  0.36450907  1
  O  O68  1  0.35947669  0.48321395  0.36450907  1
  O  O69  1  0.12373626  0.48321395  0.86450907  1
  O  O70  1  0.35947669  0.87626374  0.86450907  1
  O  O71  1  0.51678605  0.64052331  0.86450907  1
  O  O72  1  0.02182511  0.82664139  0.41038608  1
  O  O73  1  0.80481628  0.97817489  0.41038608  1
  O  O74  1  0.17335861  0.19518372  0.41038608  1
  O  O75  1  0.02182511  0.19518372  0.91038608  1
  O  O76  1  0.17335861  0.97817489  0.91038608  1
  O  O77  1  0.80481628  0.82664139  0.91038608  1
  O  O78  1  0.97601547  0.17325830  0.58949935  1
  O  O79  1  0.19724284  0.02398453  0.58949935  1
  O  O80  1  0.82674170  0.80275716  0.58949935  1
  O  O81  1  0.97601547  0.80275716  0.08949935  1
  O  O82  1  0.82674170  0.02398453  0.08949935  1
  O  O83  1  0.19724284  0.17325830  0.08949935  1
  O  O84  1  0.68849211  0.15997439  0.74371908  1
  O  O85  1  0.47148328  0.31150789  0.74371908  1
  O  O86  1  0.84002561  0.52851672  0.74371908  1
  O  O87  1  0.68849211  0.52851672  0.24371908  1
  O  O88  1  0.84002561  0.31150789  0.24371908  1
  O  O89  1  0.47148328  0.15997439  0.24371908  1
  O  O90  1  0.64268247  0.50659130  0.92283235  1
  O  O91  1  0.86390984  0.35731753  0.92283235  1
  O  O92  1  0.49340870  0.13609016  0.92283235  1
  O  O93  1  0.64268247  0.13609016  0.42283235  1
  O  O94  1  0.49340870  0.35731753  0.42283235  1
  O  O95  1  0.86390984  0.50659130  0.42283235  1
  O  O96  1  0.35515811  0.49330839  0.07705308  1
  O  O97  1  0.13814928  0.64484189  0.07705308  1
  O  O98  1  0.50669161  0.86185072  0.07705308  1
  O  O99  1  0.35515811  0.86185072  0.57705308  1
  O  O100  1  0.50669161  0.64484189  0.57705308  1
  O  O101  1  0.13814928  0.49330839  0.57705308  1
  O  O102  1  0.30934847  0.83992530  0.25616635  1
  O  O103  1  0.53057584  0.69065153  0.25616635  1
  O  O104  1  0.16007470  0.46942416  0.25616635  1
  O  O105  1  0.30934847  0.46942416  0.75616635  1
  O  O106  1  0.16007470  0.69065153  0.75616635  1
  O  O107  1  0.53057584  0.83992530  0.75616635  1
