# generated using pymatgen
data_LaP7
_symmetry_space_group_name_H-M   'P 1'
_cell_length_a   7.04071056
_cell_length_b   7.97799329
_cell_length_c   11.74716655
_cell_angle_alpha   90.00000000
_cell_angle_beta   90.00000000
_cell_angle_gamma   93.33454733
_symmetry_Int_Tables_number   1
_chemical_formula_structural   LaP7
_chemical_formula_sum   'La4 P28'
_cell_volume   658.72988750
_cell_formula_units_Z   4
loop_
 _symmetry_equiv_pos_site_id
 _symmetry_equiv_pos_as_xyz
  1  'x, y, z'
loop_
 _atom_site_type_symbol
 _atom_site_label
 _atom_site_symmetry_multiplicity
 _atom_site_fract_x
 _atom_site_fract_y
 _atom_site_fract_z
 _atom_site_occupancy
  La  La0  1  0.39737264  0.28335442  0.34897618  1
  La  La1  1  0.10262736  0.21664558  0.84897618  1
  La  La2  1  0.60262736  0.71664558  0.65102382  1
  La  La3  1  0.89737264  0.78335442  0.15102382  1
  P  P4  1  0.46151574  0.74904042  0.21965086  1
  P  P5  1  0.03848426  0.75095958  0.71965086  1
  P  P6  1  0.53848426  0.25095958  0.78034914  1
  P  P7  1  0.96151574  0.24904042  0.28034914  1
  P  P8  1  0.90570796  0.59035641  0.46452035  1
  P  P9  1  0.59429204  0.90964359  0.96452035  1
  P  P10  1  0.09429204  0.40964359  0.53547965  1
  P  P11  1  0.40570796  0.09035641  0.03547965  1
  P  P12  1  0.62484964  0.26235221  0.11319949  1
  P  P13  1  0.87515036  0.23764779  0.61319949  1
  P  P14  1  0.37515036  0.73764779  0.88680051  1
  P  P15  1  0.12484964  0.76235221  0.38680051  1
  P  P16  1  0.75318422  0.04925982  0.33863094  1
  P  P17  1  0.74681578  0.45074018  0.83863094  1
  P  P18  1  0.24681578  0.95074018  0.66136906  1
  P  P19  1  0.25318422  0.54925982  0.16136906  1
  P  P20  1  0.91163188  0.18025642  0.10038874  1
  P  P21  1  0.58836812  0.31974358  0.60038874  1
  P  P22  1  0.08836812  0.81974358  0.89961126  1
  P  P23  1  0.41163188  0.68025642  0.39961126  1
  P  P24  1  0.84632099  0.00945399  0.51099506  1
  P  P25  1  0.65367901  0.49054601  0.01099506  1
  P  P26  1  0.15367901  0.99054601  0.48900494  1
  P  P27  1  0.34632099  0.50945399  0.98900494  1
  P  P28  1  0.78793479  0.47078972  0.31135804  1
  P  P29  1  0.71206521  0.02921028  0.81135804  1
  P  P30  1  0.21206521  0.52921028  0.68864196  1
  P  P31  1  0.28793479  0.97078972  0.18864196  1
