# generated using pymatgen
data_Na6Ca4La4SiS11O48
_symmetry_space_group_name_H-M   'P 1'
_cell_length_a   18.71144780
_cell_length_b   9.36198329
_cell_length_c   24.76072879
_cell_angle_alpha   89.99041079
_cell_angle_beta   89.97024771
_cell_angle_gamma   119.97897881
_symmetry_Int_Tables_number   1
_chemical_formula_structural   Na6Ca4La4SiS11O48
_chemical_formula_sum   'Na18 Ca12 La12 Si3 S33 O144'
_cell_volume   3757.17265037
_cell_formula_units_Z   3
loop_
 _symmetry_equiv_pos_site_id
 _symmetry_equiv_pos_as_xyz
  1  'x, y, z'
loop_
 _atom_site_type_symbol
 _atom_site_label
 _atom_site_symmetry_multiplicity
 _atom_site_fract_x
 _atom_site_fract_y
 _atom_site_fract_z
 _atom_site_occupancy
  Na  Na0  1  0.81975072  0.99236353  0.24499552  1
  Na  Na1  1  0.99237222  0.63577197  0.25585233  1
  Na  Na2  1  0.31745122  0.65386265  0.74885052  1
  Na  Na3  1  0.81676659  0.65423867  0.74397767  1
  Na  Na4  1  0.98842860  0.34791104  0.75175529  1
  Na  Na5  1  0.69282269  0.00244667  0.74786337  1
  Na  Na6  1  0.99676105  0.99709764  0.49773610  1
  Na  Na7  1  0.50575270  0.00382181  0.49013067  1
  Na  Na8  1  0.00352791  0.00365789  0.00200806  1
  Na  Na9  1  0.50099174  0.00052050  0.00160100  1
  Na  Na10  1  0.33492330  0.29357975  0.83905275  1
  Na  Na11  1  0.83416640  0.31101205  0.83728943  1
  Na  Na12  1  0.33494576  0.33619118  0.32534478  1
  Na  Na13  1  0.82425496  0.35907306  0.33550918  1
  Na  Na14  1  0.18039855  0.67134099  0.17244911  1
  Na  Na15  1  0.66735508  0.64759147  0.17338470  1
  Na  Na16  1  0.17777071  0.70285669  0.66484990  1
  Na  Na17  1  0.67515375  0.68100293  0.65989938  1
  Ca  Ca18  1  0.49922204  0.99956999  0.34994621  1
  Ca  Ca19  1  0.83345046  0.32604045  0.67489136  1
  Ca  Ca20  1  0.33336941  0.33519280  0.18298633  1
  Ca  Ca21  1  0.82888658  0.34195394  0.18214619  1
  Ca  Ca22  1  0.33343934  0.33420065  0.98423292  1
  Ca  Ca23  1  0.83286338  0.33294547  0.98370011  1
  Ca  Ca24  1  0.83391628  0.33275790  0.48448891  1
  Ca  Ca25  1  0.16659161  0.66484100  0.51442542  1
  Ca  Ca26  1  0.66914578  0.67017005  0.51454351  1
  Ca  Ca27  1  0.17104140  0.67001881  0.32077127  1
  Ca  Ca28  1  0.17020545  0.68285873  0.81955848  1
  Ca  Ca29  1  0.66670904  0.66615397  0.82062681  1
  La  La30  1  0.99853022  0.99321427  0.35163362  1
  La  La31  1  0.99652502  0.00105187  0.85059214  1
  La  La32  1  0.49607857  0.01078301  0.85123592  1
  La  La33  1  0.99275286  0.99660067  0.64781909  1
  La  La34  1  0.49660319  0.00446711  0.64787154  1
  La  La35  1  0.99866390  0.99831416  0.14956408  1
  La  La36  1  0.49834466  0.99557037  0.15096075  1
  La  La37  1  0.33394066  0.31155865  0.68301331  1
  La  La38  1  0.33223833  0.33141329  0.48013532  1
  La  La39  1  0.16784861  0.66825201  0.01775071  1
  La  La40  1  0.66756280  0.67143221  0.01819722  1
  La  La41  1  0.66690899  0.65316562  0.31947229  1
  Si  Si42  1  0.84940802  0.69780963  0.24931849  1
  Si  Si43  1  0.34293375  0.98812219  0.75050466  1
  Si  Si44  1  0.84534654  0.00004193  0.75073861  1
  S  S45  1  0.15323995  0.99544800  0.25013422  1
  S  S46  1  0.65283033  0.00283387  0.25135061  1
  S  S47  1  0.34798113  0.69465583  0.25203794  1
  S  S48  1  0.99982288  0.30922936  0.24957446  1
  S  S49  1  0.49523530  0.29565422  0.25076200  1
  S  S50  1  0.15085130  0.31036589  0.75088118  1
  S  S51  1  0.65656494  0.30830665  0.74947136  1
  S  S52  1  0.99735449  0.68904000  0.74926377  1
  S  S53  1  0.50198938  0.70261780  0.75118710  1
  S  S54  1  0.49035611  0.34498829  0.58037674  1
  S  S55  1  0.98684255  0.34359423  0.58331433  1
  S  S56  1  0.17967272  0.02042123  0.58113993  1
  S  S57  1  0.68355132  0.02688604  0.58387907  1
  S  S58  1  0.32924156  0.63133244  0.58485887  1
  S  S59  1  0.82888408  0.62683629  0.58381817  1
  S  S60  1  0.47958226  0.62720928  0.08317099  1
  S  S61  1  0.98080474  0.62663071  0.08365939  1
  S  S62  1  0.33398831  0.04144247  0.08349192  1
  S  S63  1  0.83361433  0.04108586  0.08457380  1
  S  S64  1  0.18710430  0.33399833  0.08288963  1
  S  S65  1  0.68321671  0.32981818  0.08182682  1
  S  S66  1  0.31605629  0.65628221  0.91473979  1
  S  S67  1  0.81571306  0.65593885  0.91510984  1
  S  S68  1  0.01409913  0.37010798  0.91447680  1
  S  S69  1  0.51414545  0.37193585  0.91755509  1
  S  S70  1  0.16972568  0.97559902  0.91739131  1
  S  S71  1  0.66998791  0.97455422  0.91438998  1
  S  S72  1  0.31779270  0.96165399  0.41684630  1
  S  S73  1  0.81646413  0.97360101  0.41749663  1
  S  S74  1  0.16615423  0.37116823  0.41709372  1
  S  S75  1  0.66541736  0.35613114  0.42030437  1
  S  S76  1  0.01643160  0.65917939  0.41599417  1
  S  S77  1  0.51798106  0.67534106  0.41788910  1
  O  O78  1  0.11368257  0.01851869  0.29895021  1
  O  O79  1  0.61038687  0.01739592  0.29900617  1
  O  O80  1  0.39837978  0.78302486  0.29929914  1
  O  O81  1  0.90745478  0.79520093  0.30198518  1
  O  O82  1  0.49235068  0.20178364  0.29913427  1
  O  O83  1  0.99197825  0.20782340  0.29771729  1
  O  O84  1  0.11513066  0.20544813  0.79943653  1
  O  O85  1  0.61713746  0.20200053  0.79776431  1
  O  O86  1  0.49171545  0.78563239  0.79933436  1
  O  O87  1  0.98901573  0.77356251  0.79798229  1
  O  O88  1  0.39865658  0.00637005  0.80419766  1
  O  O89  1  0.90749628  0.03206191  0.80265679  1
  O  O90  1  0.39432978  0.97694813  0.69771481  1
  O  O91  1  0.89128588  0.96614982  0.69910740  1
  O  O92  1  0.10263311  0.22264240  0.70209258  1
  O  O93  1  0.60584897  0.22813327  0.70094047  1
  O  O94  1  0.01235889  0.79427486  0.70099669  1
  O  O95  1  0.51560464  0.80658943  0.70237403  1
  O  O96  1  0.38893908  0.79128834  0.20146114  1
  O  O97  1  0.89498486  0.81981248  0.19701581  1
  O  O98  1  0.01464634  0.23551767  0.20069603  1
  O  O99  1  0.50246838  0.21257266  0.20093903  1
  O  O100  1  0.10137344  0.97721317  0.20176769  1
  O  O101  1  0.60564919  0.99006082  0.20107201  1
  O  O102  1  0.44944155  0.35292729  0.63138544  1
  O  O103  1  0.95011624  0.35054532  0.63640213  1
  O  O104  1  0.22605268  0.10289305  0.63168740  1
  O  O105  1  0.72463840  0.10026144  0.63687823  1
  O  O106  1  0.32641398  0.54666925  0.63692731  1
  O  O107  1  0.82659668  0.54772288  0.63693382  1
  O  O108  1  0.43870077  0.53600299  0.13260206  1
  O  O109  1  0.94261055  0.54245146  0.13502855  1
  O  O110  1  0.32941966  0.12453221  0.13254016  1
  O  O111  1  0.83027144  0.11639068  0.13645543  1
  O  O112  1  0.23194498  0.34151594  0.13258845  1
  O  O113  1  0.72839898  0.34077959  0.13171507  1
  O  O114  1  0.22949431  0.32748034  0.03368613  1
  O  O115  1  0.72527429  0.32094956  0.03295956  1
  O  O116  1  0.43385565  0.54538029  0.03380649  1
  O  O117  1  0.93193072  0.53611838  0.03620216  1
  O  O118  1  0.33831241  0.13133247  0.03373655  1
  O  O119  1  0.83464146  0.13713561  0.03735372  1
  O  O120  1  0.22512645  0.12382118  0.53390332  1
  O  O121  1  0.73058604  0.13329456  0.53836200  1
  O  O122  1  0.33323762  0.53328042  0.53879520  1
  O  O123  1  0.83338553  0.53187183  0.53829621  1
  O  O124  1  0.43769427  0.33127649  0.53368209  1
  O  O125  1  0.93303953  0.32924189  0.53810095  1
  O  O126  1  0.27042105  0.67061266  0.96218005  1
  O  O127  1  0.76954971  0.66894691  0.96225641  1
  O  O128  1  0.06531423  0.46436230  0.96177680  1
  O  O129  1  0.56275854  0.46213558  0.96608405  1
  O  O130  1  0.16331342  0.87581090  0.96615572  1
  O  O131  1  0.66442052  0.87095612  0.96190854  1
  O  O132  1  0.27565827  0.86889067  0.46604975  1
  O  O133  1  0.76954619  0.86563769  0.46283299  1
  O  O134  1  0.16361663  0.45611173  0.46618221  1
  O  O135  1  0.65818965  0.44670351  0.46667903  1
  O  O136  1  0.06791033  0.66838482  0.46225342  1
  O  O137  1  0.56581128  0.68263887  0.46595128  1
  O  O138  1  0.05512606  0.65457776  0.36359884  1
  O  O139  1  0.55761425  0.65913596  0.36767800  1
  O  O140  1  0.26928138  0.88203823  0.36759518  1
  O  O141  1  0.77464121  0.89697621  0.36476670  1
  O  O142  1  0.17000770  0.46163302  0.36730071  1
  O  O143  1  0.67402295  0.45072850  0.36902486  1
  O  O144  1  0.05410903  0.45488187  0.86330220  1
  O  O145  1  0.55682014  0.45968898  0.86776554  1
  O  O146  1  0.17361396  0.89142750  0.86797942  1
  O  O147  1  0.67332172  0.89378634  0.86355499  1
  O  O148  1  0.27221883  0.64930569  0.86403911  1
  O  O149  1  0.77293747  0.65003634  0.86402995  1
  O  O150  1  0.00920204  0.81305926  0.41734974  1
  O  O151  1  0.50907702  0.82387762  0.41499958  1
  O  O152  1  0.40154363  0.98126992  0.41379351  1
  O  O153  1  0.90073880  0.99023068  0.41755120  1
  O  O154  1  0.09177804  0.20233910  0.41667898  1
  O  O155  1  0.58977725  0.19120933  0.41617411  1
  O  O156  1  0.00723624  0.20336784  0.91696790  1
  O  O157  1  0.50734490  0.20515603  0.91957223  1
  O  O158  1  0.09416734  0.99219828  0.91704397  1
  O  O159  1  0.59469316  0.99122805  0.91567617  1
  O  O160  1  0.40027788  0.80748571  0.91588568  1
  O  O161  1  0.89983649  0.80696409  0.91636642  1
  O  O162  1  0.49761559  0.19333472  0.58091980  1
  O  O163  1  0.99570804  0.19133155  0.58313725  1
  O  O164  1  0.09694258  0.00630710  0.58258180  1
  O  O165  1  0.59918492  0.00943321  0.58404389  1
  O  O166  1  0.40591808  0.79653189  0.58289607  1
  O  O167  1  0.90552950  0.79556608  0.58219120  1
  O  O168  1  0.48973426  0.79762160  0.08459743  1
  O  O169  1  0.99139442  0.79676156  0.08268747  1
  O  O170  1  0.40875531  0.02021032  0.08502563  1
  O  O171  1  0.90908004  0.02367744  0.08214535  1
  O  O172  1  0.10218654  0.18527530  0.08299519  1
  O  O173  1  0.59837907  0.17977734  0.08352342  1
  O  O174  1  0.33164651  0.15215751  0.74855483  1
  O  O175  1  0.83854285  0.16760057  0.74517272  1
  O  O176  1  0.23907003  0.35252857  0.74554017  1
  O  O177  1  0.74016147  0.32590739  0.74375018  1
  O  O178  1  0.42347158  0.54172618  0.74544290  1
  O  O179  1  0.91785025  0.52926945  0.74370300  1
  O  O180  1  0.34027214  0.52868603  0.24822249  1
  O  O181  1  0.84748201  0.52267685  0.24649521  1
  O  O182  1  0.42032567  0.31135817  0.24766147  1
  O  O183  1  0.92032898  0.30982250  0.24409553  1
  O  O184  1  0.23715105  0.13835932  0.24466977  1
  O  O185  1  0.73856977  0.14639161  0.24759283  1
  O  O186  1  0.32358182  0.50727550  0.91939451  1
  O  O187  1  0.82332594  0.50672095  0.91942595  1
  O  O188  1  0.43073410  0.35274224  0.91939316  1
  O  O189  1  0.93081278  0.35189539  0.91808364  1
  O  O190  1  0.24483271  0.14036228  0.92032707  1
  O  O191  1  0.74541918  0.13895679  0.91812166  1
  O  O192  1  0.32696399  0.13167269  0.41922462  1
  O  O193  1  0.82447271  0.13800925  0.42110773  1
  O  O194  1  0.24140250  0.35182067  0.41743819  1
  O  O195  1  0.74037652  0.34042907  0.42324707  1
  O  O196  1  0.43342471  0.52425301  0.41976453  1
  O  O197  1  0.93254361  0.51223142  0.41907650  1
  O  O198  1  0.17772703  0.48506199  0.08197695  1
  O  O199  1  0.67304119  0.47950433  0.08018359  1
  O  O200  1  0.06529638  0.64500943  0.08103610  1
  O  O201  1  0.56475238  0.64842649  0.08152832  1
  O  O202  1  0.25906772  0.87089889  0.08242146  1
  O  O203  1  0.75904484  0.87071808  0.08237335  1
  O  O204  1  0.17273214  0.85640755  0.57860218  1
  O  O205  1  0.67509646  0.86035833  0.58015615  1
  O  O206  1  0.25517024  0.64914139  0.58116258  1
  O  O207  1  0.75503159  0.64709641  0.58083680  1
  O  O208  1  0.06982030  0.49159523  0.57904586  1
  O  O209  1  0.57225642  0.49374210  0.57754810  1
  O  O210  1  0.15371314  0.83646246  0.25454691  1
  O  O211  1  0.66127803  0.85113568  0.25351940  1
  O  O212  1  0.26439530  0.67823426  0.25397532  1
  O  O213  1  0.75962676  0.69229903  0.25324656  1
  O  O214  1  0.06863546  0.48270394  0.25529656  1
  O  O215  1  0.57054109  0.46434027  0.25125379  1
  O  O216  1  0.14876735  0.46649924  0.75621170  1
  O  O217  1  0.66651564  0.47510657  0.75604010  1
  O  O218  1  0.06556393  0.65254075  0.75553065  1
  O  O219  1  0.57435401  0.68025001  0.75704474  1
  O  O220  1  0.25557945  0.81448785  0.75121893  1
  O  O221  1  0.75409464  0.83427378  0.75569367  1
