# generated using pymatgen
data_Na3HfGaSi(PO6)2
_symmetry_space_group_name_H-M   'P 1'
_cell_length_a   15.58211343
_cell_length_b   8.89551833
_cell_length_c   8.92971538
_cell_angle_alpha   90.00000000
_cell_angle_beta   124.47207326
_cell_angle_gamma   90.00000000
_symmetry_Int_Tables_number   1
_chemical_formula_structural   Na3HfGaSi(PO6)2
_chemical_formula_sum   'Na12 Hf4 Ga4 Si4 P8 O48'
_cell_volume   1020.40918780
_cell_formula_units_Z   4
loop_
 _symmetry_equiv_pos_site_id
 _symmetry_equiv_pos_as_xyz
  1  'x, y, z'
loop_
 _atom_site_type_symbol
 _atom_site_label
 _atom_site_symmetry_multiplicity
 _atom_site_fract_x
 _atom_site_fract_y
 _atom_site_fract_z
 _atom_site_occupancy
  Na  Na0  1  0.24874613  0.72751188  0.99059001  1
  Na  Na1  1  0.74874613  0.77248812  0.49059001  1
  Na  Na2  1  0.74874613  0.22751188  0.99059001  1
  Na  Na3  1  0.24874613  0.27248812  0.49059001  1
  Na  Na4  1  0.50388723  0.09858696  0.75882264  1
  Na  Na5  1  0.50388723  0.90141304  0.25882264  1
  Na  Na6  1  0.00388723  0.59858696  0.75882264  1
  Na  Na7  1  0.00388723  0.40141304  0.25882264  1
  Na  Na8  1  0.18415113  0.92608790  0.28717255  1
  Na  Na9  1  0.18415113  0.07391210  0.78717255  1
  Na  Na10  1  0.68415113  0.42608790  0.28717255  1
  Na  Na11  1  0.68415113  0.57391210  0.78717255  1
  Hf  Hf12  1  0.89503898  0.75664119  0.93652836  1
  Hf  Hf13  1  0.89503898  0.24335881  0.43652836  1
  Hf  Hf14  1  0.39503898  0.25664119  0.93652836  1
  Hf  Hf15  1  0.39503898  0.74335881  0.43652836  1
  Ga  Ga16  1  0.10453761  0.74093231  0.55936465  1
  Ga  Ga17  1  0.10453761  0.25906769  0.05936465  1
  Ga  Ga18  1  0.60453761  0.24093231  0.55936465  1
  Ga  Ga19  1  0.60453761  0.75906769  0.05936465  1
  Si  Si20  1  0.64383317  0.90102956  0.74350993  1
  Si  Si21  1  0.64383317  0.09897044  0.24350993  1
  Si  Si22  1  0.14383317  0.40102956  0.74350993  1
  Si  Si23  1  0.14383317  0.59897044  0.24350993  1
  P  P24  1  0.00503836  0.95703481  0.75845624  1
  P  P25  1  0.00503836  0.04296519  0.25845624  1
  P  P26  1  0.50503836  0.45703481  0.75845624  1
  P  P27  1  0.50503836  0.54296519  0.25845624  1
  P  P28  1  0.35114237  0.88879674  0.75800880  1
  P  P29  1  0.35114237  0.11120326  0.25800880  1
  P  P30  1  0.85114237  0.38879674  0.75800880  1
  P  P31  1  0.85114237  0.61120326  0.25800880  1
  O  O32  1  0.14579348  0.58432198  0.73753479  1
  O  O33  1  0.84701878  0.56562684  0.76019847  1
  O  O34  1  0.84701878  0.43437316  0.26019847  1
  O  O35  1  0.14579348  0.41567802  0.23753479  1
  O  O36  1  0.64579348  0.08432198  0.73753479  1
  O  O37  1  0.34701878  0.06562684  0.76019847  1
  O  O38  1  0.34701878  0.93437316  0.26019847  1
  O  O39  1  0.64579348  0.91567802  0.23753479  1
  O  O40  1  0.44122908  0.55911156  0.58994127  1
  O  O41  1  0.57011823  0.55259578  0.93214907  1
  O  O42  1  0.57011823  0.44740422  0.43214907  1
  O  O43  1  0.44122908  0.44088844  0.08994127  1
  O  O44  1  0.94122908  0.05911156  0.58994127  1
  O  O45  1  0.07011823  0.05259578  0.93214907  1
  O  O46  1  0.07011823  0.94740422  0.43214907  1
  O  O47  1  0.94122908  0.94088844  0.08994127  1
  O  O48  1  0.25410229  0.83141598  0.74510047  1
  O  O49  1  0.74195268  0.81788177  0.75587709  1
  O  O50  1  0.74195268  0.18211823  0.25587709  1
  O  O51  1  0.25410229  0.16858402  0.24510047  1
  O  O52  1  0.75410229  0.33141598  0.74510047  1
  O  O53  1  0.24195268  0.31788177  0.75587709  1
  O  O54  1  0.24195268  0.68211823  0.25587709  1
  O  O55  1  0.75410229  0.66858402  0.24510047  1
  O  O56  1  0.34906871  0.85521711  0.58432680  1
  O  O57  1  0.63840896  0.85538833  0.91419510  1
  O  O58  1  0.63840896  0.14461167  0.41419510  1
  O  O59  1  0.34906871  0.14478289  0.08432680  1
  O  O60  1  0.84906871  0.35521711  0.58432680  1
  O  O61  1  0.13840896  0.35538833  0.91419510  1
  O  O62  1  0.13840896  0.64461167  0.41419510  1
  O  O63  1  0.84906871  0.64478289  0.08432680  1
  O  O64  1  0.45124947  0.82891166  0.92930258  1
  O  O65  1  0.53767661  0.83537804  0.55874372  1
  O  O66  1  0.53767661  0.16462196  0.05874372  1
  O  O67  1  0.45124947  0.17108834  0.42930258  1
  O  O68  1  0.95124947  0.32891166  0.92930258  1
  O  O69  1  0.03767661  0.33537804  0.55874372  1
  O  O70  1  0.03767661  0.66462196  0.05874372  1
  O  O71  1  0.95124947  0.67108834  0.42930258  1
  O  O72  1  0.08246944  0.85968155  0.74436503  1
  O  O73  1  0.92453730  0.85198460  0.75581244  1
  O  O74  1  0.92453730  0.14801540  0.25581244  1
  O  O75  1  0.08246944  0.14031845  0.24436503  1
  O  O76  1  0.58246944  0.35968155  0.74436503  1
  O  O77  1  0.42453730  0.35198460  0.75581244  1
  O  O78  1  0.42453730  0.64801540  0.25581244  1
  O  O79  1  0.58246944  0.64031845  0.24436503  1
