# generated using pymatgen
data_Na8Ti5O14
_symmetry_space_group_name_H-M   'P 1'
_cell_length_a   8.32562283
_cell_length_b   8.50854748
_cell_length_c   10.49949619
_cell_angle_alpha   104.13119885
_cell_angle_beta   102.14168403
_cell_angle_gamma   112.54072323
_symmetry_Int_Tables_number   1
_chemical_formula_structural   Na8Ti5O14
_chemical_formula_sum   'Na16 Ti10 O28'
_cell_volume   626.64240297
_cell_formula_units_Z   2
loop_
 _symmetry_equiv_pos_site_id
 _symmetry_equiv_pos_as_xyz
  1  'x, y, z'
loop_
 _atom_site_type_symbol
 _atom_site_label
 _atom_site_symmetry_multiplicity
 _atom_site_fract_x
 _atom_site_fract_y
 _atom_site_fract_z
 _atom_site_occupancy
  Na  Na0  1  0.50000000  0.50000000  0.50000000  1
  Na  Na1  1  0.00000000  0.00000000  -0.00000000  1
  Na  Na2  1  0.81770529  0.33449817  0.82425512  1
  Na  Na3  1  0.18229471  0.66550183  0.17574488  1
  Na  Na4  1  0.70846105  0.41741964  0.29472789  1
  Na  Na5  1  0.29153895  0.58258036  0.70527211  1
  Na  Na6  1  0.56485430  0.12845157  0.43512710  1
  Na  Na7  1  0.43514570  0.87154843  0.56487290  1
  Na  Na8  1  0.88745342  0.52182103  0.61591911  1
  Na  Na9  1  0.11254658  0.47817897  0.38408089  1
  Na  Na10  1  0.69245298  0.62338620  0.83100701  1
  Na  Na11  1  0.30754702  0.37661380  0.16899299  1
  Na  Na12  1  0.62469170  0.98734882  0.88965071  1
  Na  Na13  1  0.37530830  0.01265118  0.11034929  1
  Na  Na14  1  0.55245034  0.32279808  0.98628159  1
  Na  Na15  1  0.44754966  0.67720192  0.01371841  1
  Ti  Ti16  1  0.85337208  0.72235916  0.14970117  1
  Ti  Ti17  1  0.14662792  0.27764084  0.85029883  1
  Ti  Ti18  1  0.78348648  0.07408056  0.20881743  1
  Ti  Ti19  1  0.21651352  0.92591944  0.79118257  1
  Ti  Ti20  1  0.62080906  0.77365327  0.34491451  1
  Ti  Ti21  1  0.37919094  0.22634673  0.65508549  1
  Ti  Ti22  1  0.96482360  0.17753418  0.53074845  1
  Ti  Ti23  1  0.03517640  0.82246582  0.46925155  1
  Ti  Ti24  1  0.81144280  0.88668524  0.67421057  1
  Ti  Ti25  1  0.18855720  0.11331476  0.32578943  1
  O  O26  1  0.59861966  0.35507816  0.64216202  1
  O  O27  1  0.40138034  0.64492184  0.35783798  1
  O  O28  1  0.81908854  0.54779354  0.00296886  1
  O  O29  1  0.18091146  0.45220646  0.99703114  1
  O  O30  1  0.75230043  0.86023763  0.06218070  1
  O  O31  1  0.24769957  0.13976237  0.93781930  1
  O  O32  1  0.67732428  0.17306123  0.11440129  1
  O  O33  1  0.32267572  0.82693877  0.88559871  1
  O  O34  1  0.62229157  0.60061285  0.18937688  1
  O  O35  1  0.37770843  0.39938715  0.81062312  1
  O  O36  1  0.56038954  0.90985235  0.24189215  1
  O  O37  1  0.43961046  0.09014765  0.75810785  1
  O  O38  1  0.98030382  0.65093927  0.30172712  1
  O  O39  1  0.01969618  0.34906073  0.69827288  1
  O  O40  1  0.91770937  0.95229189  0.35518299  1
  O  O41  1  0.08229063  0.04770811  0.64481701  1
  O  O42  1  0.85230804  0.26036346  0.40815700  1
  O  O43  1  0.14769196  0.73963654  0.59184300  1
  O  O44  1  0.78521717  0.70511118  0.48410328  1
  O  O45  1  0.21478283  0.29488882  0.51589672  1
  O  O46  1  0.72727352  0.99052307  0.53035129  1
  O  O47  1  0.27272648  0.00947693  0.46964871  1
  O  O48  1  0.59207528  0.75759961  0.68887701  1
  O  O49  1  0.40792472  0.24240039  0.31112299  1
  O  O50  1  0.95629249  0.79919977  0.77364782  1
  O  O51  1  0.04370751  0.20080023  0.22635218  1
  O  O52  1  0.10667527  0.89750887  0.17359267  1
  O  O53  1  0.89332473  0.10249113  0.82640733  1
