# generated using pymatgen
data_Cs3Sb2I9
_symmetry_space_group_name_H-M   'P 1'
_cell_length_a   8.47817917
_cell_length_b   8.47885322
_cell_length_c   21.34383249
_cell_angle_alpha   90.00095828
_cell_angle_beta   89.99740346
_cell_angle_gamma   119.98725427
_symmetry_Int_Tables_number   1
_chemical_formula_structural   Cs3Sb2I9
_chemical_formula_sum   'Cs6 Sb4 I18'
_cell_volume   1328.91898615
_cell_formula_units_Z   2
loop_
 _symmetry_equiv_pos_site_id
 _symmetry_equiv_pos_as_xyz
  1  'x, y, z'
loop_
 _atom_site_type_symbol
 _atom_site_label
 _atom_site_symmetry_multiplicity
 _atom_site_fract_x
 _atom_site_fract_y
 _atom_site_fract_z
 _atom_site_occupancy
  Cs  Cs0  1  0.66664387  0.33334361  0.07665019  1
  Cs  Cs1  1  0.33330725  0.66668515  0.57667481  1
  Cs  Cs2  1  0.33330426  0.66667894  0.92332704  1
  Cs  Cs3  1  0.66663966  0.33333833  0.42335498  1
  Cs  Cs4  1  0.99996976  0.00001947  0.25000275  1
  Cs  Cs5  1  -0.00003202  0.00002086  0.74999904  1
  Sb  Sb6  1  0.66662516  0.33338663  0.84338534  1
  Sb  Sb7  1  0.66665484  0.33332130  0.65656281  1
  Sb  Sb8  1  0.33331499  0.66667274  0.15661674  1
  Sb  Sb9  1  0.33340006  0.66663503  0.34340421  1
  I  I10  1  0.16699848  0.83298451  0.08297661  1
  I  I11  1  0.83287855  0.66597861  0.91702255  1
  I  I12  1  0.83297524  0.16707579  0.91703222  1
  I  I13  1  0.83296106  0.66597992  0.58294349  1
  I  I14  1  0.33406150  0.16703870  0.91704769  1
  I  I15  1  0.66602176  0.83285946  0.41702016  1
  I  I16  1  0.16715494  0.33407563  0.41703190  1
  I  I17  1  0.16700525  0.83293379  0.41701963  1
  I  I18  1  0.50372443  0.00741560  0.25000584  1
  I  I19  1  0.49632830  0.50379233  0.75000268  1
  I  I20  1  0.00740079  0.50370623  0.74997346  1
  I  I21  1  0.99262035  0.49626190  0.25000078  1
  I  I22  1  0.50371032  0.49628327  0.25001739  1
  I  I23  1  0.49627749  0.99259512  0.75000208  1
  I  I24  1  0.33389553  0.16702264  0.58296325  1
  I  I25  1  0.83302661  0.16693285  0.58296535  1
  I  I26  1  0.16714707  0.33408240  0.08299756  1
  I  I27  1  0.66598449  0.83287917  0.08299944  1
