# generated using pymatgen
data_CaBr2
_symmetry_space_group_name_H-M   'P 1'
_cell_length_a   4.36577197
_cell_length_b   6.65497230
_cell_length_c   6.90552784
_cell_angle_alpha   90.00000000
_cell_angle_beta   90.00000000
_cell_angle_gamma   90.00000000
_symmetry_Int_Tables_number   1
_chemical_formula_structural   CaBr2
_chemical_formula_sum   'Ca2 Br4'
_cell_volume   200.63383792
_cell_formula_units_Z   2
loop_
 _symmetry_equiv_pos_site_id
 _symmetry_equiv_pos_as_xyz
  1  'x, y, z'
loop_
 _atom_site_type_symbol
 _atom_site_label
 _atom_site_symmetry_multiplicity
 _atom_site_fract_x
 _atom_site_fract_y
 _atom_site_fract_z
 _atom_site_occupancy
  Ca  Ca0  1  0.00000000  -0.00000000  -0.00000000  1
  Ca  Ca1  1  0.50000000  0.50000000  0.50000000  1
  Br  Br2  1  0.00000000  0.27544956  0.32747226  1
  Br  Br3  1  0.00000000  0.72455044  0.67252774  1
  Br  Br4  1  0.50000000  0.77544956  0.17252774  1
  Br  Br5  1  0.50000000  0.22455044  0.82747226  1
