# generated using pymatgen
data_NaSn2Cl5
_symmetry_space_group_name_H-M   'P 1'
_cell_length_a   8.35463143
_cell_length_b   8.73591580
_cell_length_c   11.96988825
_cell_angle_alpha   90.00000000
_cell_angle_beta   90.00000000
_cell_angle_gamma   90.00000000
_symmetry_Int_Tables_number   1
_chemical_formula_structural   NaSn2Cl5
_chemical_formula_sum   'Na4 Sn8 Cl20'
_cell_volume   873.62656374
_cell_formula_units_Z   4
loop_
 _symmetry_equiv_pos_site_id
 _symmetry_equiv_pos_as_xyz
  1  'x, y, z'
loop_
 _atom_site_type_symbol
 _atom_site_label
 _atom_site_symmetry_multiplicity
 _atom_site_fract_x
 _atom_site_fract_y
 _atom_site_fract_z
 _atom_site_occupancy
  Na  Na0  1  -0.00000000  0.25236777  0.50000000  1
  Na  Na1  1  0.50000000  0.24763223  -0.00000000  1
  Na  Na2  1  -0.00000000  0.74763223  0.50000000  1
  Na  Na3  1  0.50000000  0.75236777  -0.00000000  1
  Sn  Sn4  1  0.95256666  -0.00000000  0.83165828  1
  Sn  Sn5  1  0.04805081  0.50000000  0.17349636  1
  Sn  Sn6  1  0.54805081  -0.00000000  0.32650364  1
  Sn  Sn7  1  0.95194919  0.50000000  0.82650364  1
  Sn  Sn8  1  0.45194919  -0.00000000  0.67349636  1
  Sn  Sn9  1  0.54743334  0.50000000  0.33165828  1
  Sn  Sn10  1  0.04743334  -0.00000000  0.16834172  1
  Sn  Sn11  1  0.45256666  0.50000000  0.66834172  1
  Cl  Cl12  1  0.16327222  0.50000000  0.59974453  1
  Cl  Cl13  1  0.50000000  0.70216652  0.50000000  1
  Cl  Cl14  1  -0.00000000  0.79783348  -0.00000000  1
  Cl  Cl15  1  0.50000000  0.29783348  0.50000000  1
  Cl  Cl16  1  -0.00000000  0.20216652  -0.00000000  1
  Cl  Cl17  1  0.83672778  0.50000000  0.40025547  1
  Cl  Cl18  1  0.33672778  -0.00000000  0.09974453  1
  Cl  Cl19  1  0.16985683  0.71731565  0.29354960  1
  Cl  Cl20  1  0.83014317  0.28268435  0.70645040  1
  Cl  Cl21  1  0.33014317  0.21731565  0.79354960  1
  Cl  Cl22  1  0.16985683  0.28268435  0.29354960  1
  Cl  Cl23  1  0.66985683  0.21731565  0.20645040  1
  Cl  Cl24  1  0.83014317  0.71731565  0.70645040  1
  Cl  Cl25  1  0.66985683  0.78268435  0.20645040  1
  Cl  Cl26  1  0.68564219  0.50000000  0.93525334  1
  Cl  Cl27  1  0.33014317  0.78268435  0.79354960  1
  Cl  Cl28  1  0.81435781  -0.00000000  0.43525334  1
  Cl  Cl29  1  0.31435781  0.50000000  0.06474666  1
  Cl  Cl30  1  0.18564219  -0.00000000  0.56474666  1
  Cl  Cl31  1  0.66327222  -0.00000000  0.90025547  1
