# generated using pymatgen
data_MgTiV3O8
_symmetry_space_group_name_H-M   'P 1'
_cell_length_a   6.43574556
_cell_length_b   6.43574536
_cell_length_c   6.75210431
_cell_angle_alpha   74.31097456
_cell_angle_beta   105.68902686
_cell_angle_gamma   144.50980660
_symmetry_Int_Tables_number   1
_chemical_formula_structural   MgTiV3O8
_chemical_formula_sum   'Mg1 Ti1 V3 O8'
_cell_volume   155.68106651
_cell_formula_units_Z   1
loop_
 _symmetry_equiv_pos_site_id
 _symmetry_equiv_pos_as_xyz
  1  'x, y, z'
loop_
 _atom_site_type_symbol
 _atom_site_label
 _atom_site_symmetry_multiplicity
 _atom_site_fract_x
 _atom_site_fract_y
 _atom_site_fract_z
 _atom_site_occupancy
  Mg  Mg0  1  0.90256000  0.09744000  0.99353800  1
  Ti  Ti1  1  0.69851800  0.30148100  0.26890900  1
  V  V2  1  0.40461700  0.59538300  0.31915900  1
  V  V3  1  0.61284100  0.38715900  0.69541600  1
  V  V4  1  0.30245000  0.69755000  0.68909000  1
  O  O5  1  0.14957300  0.85042700  0.70675700  1
  O  O6  1  0.23895400  0.76104600  0.35379700  1
  O  O7  1  0.38504900  0.61495100  0.98656900  1
  O  O8  1  0.44073800  0.55926200  0.62576900  1
  O  O9  1  0.57393800  0.42606200  0.38186900  1
  O  O10  1  0.63454100  0.36545900  0.00687400  1
  O  O11  1  0.78876900  0.21123100  0.70475300  1
  O  O12  1  0.86745100  0.13254900  0.26749600  1
