# generated using pymatgen
data_RbIO4
_symmetry_space_group_name_H-M   'P 1'
_cell_length_a   5.94674686
_cell_length_b   5.95589566
_cell_length_c   7.65156909
_cell_angle_alpha   112.81266791
_cell_angle_beta   112.84379370
_cell_angle_gamma   90.13481380
_symmetry_Int_Tables_number   1
_chemical_formula_structural   RbIO4
_chemical_formula_sum   'Rb2 I2 O8'
_cell_volume   226.45449265
_cell_formula_units_Z   2
loop_
 _symmetry_equiv_pos_site_id
 _symmetry_equiv_pos_as_xyz
  1  'x, y, z'
loop_
 _atom_site_type_symbol
 _atom_site_label
 _atom_site_symmetry_multiplicity
 _atom_site_fract_x
 _atom_site_fract_y
 _atom_site_fract_z
 _atom_site_occupancy
  Rb  Rb0  1  0.12530379  0.37527622  0.25042963  1
  Rb  Rb1  1  0.87469621  0.62472378  0.74957037  1
  I  I2  1  0.62530011  0.87471835  0.24949007  1
  I  I3  1  0.37469989  0.12528165  0.75050993  1
  O  O4  1  0.57575556  0.16303322  0.40584292  1
  O  O5  1  0.24243674  0.07541971  0.90714390  1
  O  O6  1  0.66358690  0.33190852  0.90718185  1
  O  O7  1  0.83140421  0.74273318  0.40606322  1
  O  O8  1  0.16859579  0.25726682  0.59393678  1
  O  O9  1  0.33641310  0.66809148  0.09281815  1
  O  O10  1  0.75756326  0.92458029  0.09285610  1
  O  O11  1  0.42424444  0.83696678  0.59415708  1
