# generated using pymatgen
data_MnNb2O6
_symmetry_space_group_name_H-M   'P 1'
_cell_length_a   5.10161646
_cell_length_b   5.79474046
_cell_length_c   14.44465369
_cell_angle_alpha   90.00000000
_cell_angle_beta   90.00000000
_cell_angle_gamma   90.00000000
_symmetry_Int_Tables_number   1
_chemical_formula_structural   MnNb2O6
_chemical_formula_sum   'Mn4 Nb8 O24'
_cell_volume   427.02070034
_cell_formula_units_Z   4
loop_
 _symmetry_equiv_pos_site_id
 _symmetry_equiv_pos_as_xyz
  1  'x, y, z'
loop_
 _atom_site_type_symbol
 _atom_site_label
 _atom_site_symmetry_multiplicity
 _atom_site_fract_x
 _atom_site_fract_y
 _atom_site_fract_z
 _atom_site_occupancy
  Mn  Mn0  1  0.75000000  0.67317383  0.00000000  1
  Mn  Mn1  1  0.25000000  0.82682617  0.50000000  1
  Mn  Mn2  1  0.25000000  0.32682617  0.00000000  1
  Mn  Mn3  1  0.75000000  0.17317383  0.50000000  1
  Nb  Nb4  1  0.24365120  0.81757527  0.83893501  1
  Nb  Nb5  1  0.74365120  0.68242473  0.66106499  1
  Nb  Nb6  1  0.25634880  0.81757527  0.16106499  1
  Nb  Nb7  1  0.75634880  0.68242473  0.33893501  1
  Nb  Nb8  1  0.24365120  0.31757527  0.66106499  1
  Nb  Nb9  1  0.74365120  0.18242473  0.83893501  1
  Nb  Nb10  1  0.25634880  0.31757527  0.33893501  1
  Nb  Nb11  1  0.75634880  0.18242473  0.16106499  1
  O  O12  1  0.91506999  0.37539769  0.74413141  1
  O  O13  1  0.41506999  0.12460231  0.75586859  1
  O  O14  1  0.58493001  0.37539769  0.25586859  1
  O  O15  1  0.08493001  0.12460231  0.24413141  1
  O  O16  1  0.08493001  0.62460231  0.25586859  1
  O  O17  1  0.58493001  0.87539769  0.24413141  1
  O  O18  1  0.41506999  0.62460231  0.74413141  1
  O  O19  1  0.91506999  0.87539769  0.75586859  1
  O  O20  1  0.90912203  0.38565048  0.07992770  1
  O  O21  1  0.40912203  0.11434952  0.42007230  1
  O  O22  1  0.59087797  0.38565048  0.92007230  1
  O  O23  1  0.09087797  0.11434952  0.57992770  1
  O  O24  1  0.93392416  0.89731477  0.09646668  1
  O  O25  1  0.43392416  0.60268523  0.40353332  1
  O  O26  1  0.56607584  0.89731477  0.90353332  1
  O  O27  1  0.06607584  0.60268523  0.59646668  1
  O  O28  1  0.06607584  0.10268523  0.90353332  1
  O  O29  1  0.56607584  0.39731477  0.59646668  1
  O  O30  1  0.43392416  0.10268523  0.09646668  1
  O  O31  1  0.93392416  0.39731477  0.40353332  1
  O  O32  1  0.90912203  0.88565048  0.42007230  1
  O  O33  1  0.40912203  0.61434952  0.07992770  1
  O  O34  1  0.59087797  0.88565048  0.57992770  1
  O  O35  1  0.09087797  0.61434952  0.92007230  1
