# generated using pymatgen
data_Na10Y4Ta4Si9(SO16)3
_symmetry_space_group_name_H-M   'P 1'
_cell_length_a   18.52418148
_cell_length_b   9.22019804
_cell_length_c   22.97078474
_cell_angle_alpha   90.11267985
_cell_angle_beta   88.95372326
_cell_angle_gamma   119.87108298
_symmetry_Int_Tables_number   1
_chemical_formula_structural   Na10Y4Ta4Si9(SO16)3
_chemical_formula_sum   'Na30 Y12 Ta12 Si27 S9 O144'
_cell_volume   3401.42857631
_cell_formula_units_Z   3
loop_
 _symmetry_equiv_pos_site_id
 _symmetry_equiv_pos_as_xyz
  1  'x, y, z'
loop_
 _atom_site_type_symbol
 _atom_site_label
 _atom_site_symmetry_multiplicity
 _atom_site_fract_x
 _atom_site_fract_y
 _atom_site_fract_z
 _atom_site_occupancy
  Na  Na0  1  0.18195585  0.35666186  0.24209402  1
  Na  Na1  1  0.68189137  0.35733136  0.24142111  1
  Na  Na2  1  0.18220625  0.00770744  0.74086715  1
  Na  Na3  1  0.68032276  0.00482189  0.74109397  1
  Na  Na4  1  0.65425365  0.34690943  0.58024088  1
  Na  Na5  1  0.01982857  0.70146701  0.57430657  1
  Na  Na6  1  0.51556182  0.67853398  0.58064176  1
  Na  Na7  1  0.32425900  0.97937002  0.58725784  1
  Na  Na8  1  0.15503708  0.96622063  0.08041813  1
  Na  Na9  1  0.65502535  0.96608106  0.08005747  1
  Na  Na10  1  0.32467806  0.67526245  0.08533557  1
  Na  Na11  1  0.82491629  0.67605444  0.08513193  1
  Na  Na12  1  0.01913483  0.35494670  0.08073149  1
  Na  Na13  1  0.51904441  0.35521108  0.08054569  1
  Na  Na14  1  0.49217545  0.68109655  0.91243906  1
  Na  Na15  1  0.99201384  0.68087594  0.91376044  1
  Na  Na16  1  0.34959542  0.66194383  0.40858094  1
  Na  Na17  1  0.84914491  0.67221280  0.40754465  1
  Na  Na18  1  0.02026623  0.02880996  0.49523191  1
  Na  Na19  1  0.51714413  0.01170692  0.49373167  1
  Na  Na20  1  0.01386664  0.03466619  0.99215679  1
  Na  Na21  1  0.51415167  0.03512486  0.99171559  1
  Na  Na22  1  0.34630915  0.33056611  0.82972163  1
  Na  Na23  1  0.84509985  0.32812965  0.83152001  1
  Na  Na24  1  0.34964420  0.34288769  0.33206336  1
  Na  Na25  1  0.85154554  0.34248861  0.32857816  1
  Na  Na26  1  0.16698267  0.67843318  0.16319299  1
  Na  Na27  1  0.66715284  0.67835917  0.16224000  1
  Na  Na28  1  0.17799002  0.65676888  0.66523018  1
  Na  Na29  1  0.67443167  0.67340580  0.65966188  1
  Y  Y30  1  0.00220218  0.99881978  0.35355158  1
  Y  Y31  1  0.50063110  0.99746686  0.35347061  1
  Y  Y32  1  0.99692192  0.00863192  0.85269354  1
  Y  Y33  1  0.49776450  0.01008845  0.85210520  1
  Y  Y34  1  0.33841177  0.34035073  0.68620510  1
  Y  Y35  1  0.83595092  0.33398261  0.68773091  1
  Y  Y36  1  0.33899302  0.34009271  0.18693911  1
  Y  Y37  1  0.83892166  0.34005877  0.18644540  1
  Y  Y38  1  0.16561370  0.66462002  0.01509406  1
  Y  Y39  1  0.66570500  0.66476534  0.01481222  1
  Y  Y40  1  0.16518543  0.66272865  0.51712368  1
  Y  Y41  1  0.66586872  0.67229329  0.51824933  1
  Ta  Ta42  1  0.99427518  0.98123253  0.64791793  1
  Ta  Ta43  1  0.49149377  0.98194994  0.64339087  1
  Ta  Ta44  1  0.99288779  0.00021954  0.14526921  1
  Ta  Ta45  1  0.49253530  0.00033174  0.14499586  1
  Ta  Ta46  1  0.33425319  0.32317913  0.98168679  1
  Ta  Ta47  1  0.83411022  0.32307282  0.98174269  1
  Ta  Ta48  1  0.33430670  0.33958013  0.48297448  1
  Ta  Ta49  1  0.82885354  0.34241543  0.47834432  1
  Ta  Ta50  1  0.16069890  0.64162897  0.31403026  1
  Ta  Ta51  1  0.65975061  0.64550254  0.31311051  1
  Ta  Ta52  1  0.16301643  0.68089109  0.81438613  1
  Ta  Ta53  1  0.66147077  0.68012038  0.81324130  1
  Si  Si54  1  0.34806935  0.70941831  0.25416246  1
  Si  Si55  1  0.84846260  0.70925311  0.25460479  1
  Si  Si56  1  0.00068153  0.29370833  0.25108557  1
  Si  Si57  1  0.50040658  0.29346750  0.25130633  1
  Si  Si58  1  0.00061732  0.70368624  0.75481086  1
  Si  Si59  1  0.49928538  0.70705001  0.75367120  1
  Si  Si60  1  0.34820326  0.98882109  0.75066637  1
  Si  Si61  1  0.84805056  0.98782778  0.75154160  1
  Si  Si62  1  0.47877053  0.32411816  0.58135722  1
  Si  Si63  1  0.18376721  0.04684160  0.58654134  1
  Si  Si64  1  0.68472844  0.04416928  0.58753458  1
  Si  Si65  1  0.33170061  0.62664743  0.58429524  1
  Si  Si66  1  0.83564738  0.63201180  0.58374600  1
  Si  Si67  1  0.47921617  0.63338208  0.08009899  1
  Si  Si68  1  0.97924205  0.63361676  0.08003029  1
  Si  Si69  1  0.33400463  0.03954099  0.08421595  1
  Si  Si70  1  0.83410879  0.03930905  0.08423999  1
  Si  Si71  1  0.18532824  0.32457806  0.08685668  1
  Si  Si72  1  0.68526757  0.32474779  0.08692508  1
  Si  Si73  1  0.01563104  0.37321537  0.91995547  1
  Si  Si74  1  0.51581748  0.37364861  0.91992091  1
  Si  Si75  1  0.17141344  0.97690505  0.91924209  1
  Si  Si76  1  0.67131205  0.97645666  0.91898297  1
  Si  Si77  1  0.17125482  0.36421967  0.41820062  1
  Si  Si78  1  0.66724494  0.36893786  0.41906106  1
  Si  Si79  1  0.01654681  0.65602317  0.42056294  1
  Si  Si80  1  0.51549126  0.65621078  0.42018281  1
  S  S81  1  0.14255684  0.98278630  0.24694684  1
  S  S82  1  0.64273025  0.98328746  0.24746711  1
  S  S83  1  0.14123297  0.29850366  0.74788372  1
  S  S84  1  0.64365487  0.30343004  0.74790403  1
  S  S85  1  0.97620536  0.31708024  0.58144019  1
  S  S86  1  0.31094041  0.65180552  0.91509044  1
  S  S87  1  0.81112644  0.65163684  0.91533970  1
  S  S88  1  0.30893069  0.96614342  0.41513546  1
  S  S89  1  0.81001074  0.96883920  0.41470363  1
  O  O90  1  0.10275242  0.00390587  0.29918572  1
  O  O91  1  0.60286188  0.00394710  0.29962561  1
  O  O92  1  0.39850909  0.78521630  0.31217522  1
  O  O93  1  0.89846414  0.78479465  0.31283463  1
  O  O94  1  0.50257733  0.19483734  0.30643798  1
  O  O95  1  0.00140161  0.19291670  0.30609823  1
  O  O96  1  0.10471169  0.19982000  0.80113576  1
  O  O97  1  0.60533265  0.19887599  0.79948669  1
  O  O98  1  0.50077815  0.79855688  0.81259658  1
  O  O99  1  0.99752843  0.79283120  0.81294187  1
  O  O100  1  0.40453492  0.01644805  0.80474427  1
  O  O101  1  0.90352408  0.01754580  0.80638813  1
  O  O102  1  0.40008329  0.97122671  0.69036784  1
  O  O103  1  0.90443803  0.97566983  0.69283784  1
  O  O104  1  0.08780340  0.20997261  0.69649251  1
  O  O105  1  0.59391907  0.22300505  0.69463388  1
  O  O106  1  0.01462891  0.83520951  0.69592372  1
  O  O107  1  0.51419340  0.83690620  0.69510091  1
  O  O108  1  0.40401409  0.83550369  0.19527118  1
  O  O109  1  0.90431670  0.83510568  0.19569958  1
  O  O110  1  0.01595131  0.19937291  0.19131778  1
  O  O111  1  0.51601496  0.19938843  0.19153127  1
  O  O112  1  0.09213056  0.96656384  0.19381381  1
  O  O113  1  0.59268916  0.96576760  0.19425185  1
  O  O114  1  0.44006270  0.36642145  0.63664728  1
  O  O115  1  0.93934058  0.34125060  0.63497147  1
  O  O116  1  0.23675535  0.11374577  0.64457199  1
  O  O117  1  0.73258061  0.12153505  0.64646712  1
  O  O118  1  0.31674172  0.51882351  0.64073594  1
  O  O119  1  0.82605271  0.51536034  0.63701622  1
  O  O120  1  0.43894722  0.50831121  0.13395263  1
  O  O121  1  0.93894064  0.50855272  0.13387577  1
  O  O122  1  0.30964395  0.11396771  0.13815222  1
  O  O123  1  0.80954540  0.11370449  0.13814157  1
  O  O124  1  0.23633090  0.35871458  0.14553453  1
  O  O125  1  0.73611218  0.35868883  0.14572213  1
  O  O126  1  0.24034157  0.30209251  0.03084033  1
  O  O127  1  0.74037659  0.30218036  0.03101645  1
  O  O128  1  0.41740508  0.54022423  0.02253281  1
  O  O129  1  0.91752385  0.54013136  0.02243937  1
  O  O130  1  0.35257835  0.17043186  0.02613811  1
  O  O131  1  0.85257762  0.17042630  0.02620492  1
  O  O132  1  0.23878596  0.17158734  0.52925772  1
  O  O133  1  0.74171475  0.17622281  0.53043572  1
  O  O134  1  0.34847310  0.53350225  0.52544295  1
  O  O135  1  0.85147063  0.53583340  0.52354204  1
  O  O136  1  0.41406165  0.29792785  0.52591562  1
  O  O137  1  0.92503118  0.30049001  0.53004168  1
  O  O138  1  0.27759974  0.67231661  0.97120886  1
  O  O139  1  0.77775194  0.67170988  0.97149537  1
  O  O140  1  0.06125465  0.44990510  0.98018348  1
  O  O141  1  0.56126966  0.44943843  0.98031059  1
  O  O142  1  0.16074160  0.87040831  0.97668408  1
  O  O143  1  0.66121637  0.87092897  0.97665238  1
  O  O144  1  0.27341052  0.87564047  0.47091877  1
  O  O145  1  0.77449496  0.87108942  0.46811396  1
  O  O146  1  0.16569543  0.46646510  0.47209827  1
  O  O147  1  0.66679683  0.46108518  0.47710782  1
  O  O148  1  0.06380858  0.68087115  0.48052921  1
  O  O149  1  0.56461369  0.68293050  0.47918284  1
  O  O150  1  0.07492432  0.64417941  0.36409938  1
  O  O151  1  0.57473618  0.64683984  0.36292389  1
  O  O152  1  0.25541466  0.87054601  0.36555130  1
  O  O153  1  0.75760256  0.88303154  0.36362945  1
  O  O154  1  0.18129775  0.49255046  0.35791541  1
  O  O155  1  0.68104474  0.49919946  0.36065115  1
  O  O156  1  0.07510143  0.50868726  0.86442459  1
  O  O157  1  0.57501972  0.50921064  0.86448360  1
  O  O158  1  0.18104273  0.86579393  0.86037004  1
  O  O159  1  0.68056792  0.86583893  0.86001124  1
  O  O160  1  0.25782405  0.64385711  0.86603014  1
  O  O161  1  0.75869902  0.64393873  0.86619278  1
  O  O162  1  0.99116135  0.79919476  0.41416820  1
  O  O163  1  0.49245290  0.80328995  0.41421486  1
  O  O164  1  0.39217942  0.98173161  0.41028573  1
  O  O165  1  0.89430741  0.98941970  0.40881164  1
  O  O166  1  0.09393423  0.17990587  0.41373848  1
  O  O167  1  0.59299693  0.18219838  0.41388183  1
  O  O168  1  0.99832694  0.18604411  0.91507813  1
  O  O169  1  0.49839066  0.18650048  0.91486665  1
  O  O170  1  0.08777140  0.98631821  0.91229574  1
  O  O171  1  0.58783899  0.98702451  0.91274723  1
  O  O172  1  0.39710300  0.79402755  0.90980686  1
  O  O173  1  0.89755795  0.79386868  0.91057998  1
  O  O174  1  0.47960824  0.14428004  0.58925938  1
  O  O175  1  0.98496077  0.16501955  0.58642104  1
  O  O176  1  0.09053343  0.03629506  0.59316131  1
  O  O177  1  0.59391673  0.04746648  0.59103692  1
  O  O178  1  0.42703225  0.80679942  0.58981419  1
  O  O179  1  0.92674273  0.81425573  0.59091576  1
  O  O180  1  0.48014686  0.81499666  0.09082034  1
  O  O181  1  0.97997501  0.81490342  0.09070102  1
  O  O182  1  0.42610171  0.04478845  0.09153235  1
  O  O183  1  0.92601059  0.04426368  0.09167576  1
  O  O184  1  0.09388080  0.14444848  0.09172119  1
  O  O185  1  0.59393924  0.14447906  0.09184608  1
  O  O186  1  0.32261325  0.13219164  0.74658093  1
  O  O187  1  0.82307031  0.13195638  0.74638540  1
  O  O188  1  0.22413079  0.31487080  0.74174843  1
  O  O189  1  0.72781756  0.32220481  0.74319675  1
  O  O190  1  0.42276856  0.52149822  0.75035366  1
  O  O191  1  0.92618279  0.51762267  0.74766774  1
  O  O192  1  0.32436326  0.51640028  0.24712745  1
  O  O193  1  0.82454063  0.51573313  0.24771280  1
  O  O194  1  0.42349460  0.32469751  0.24937210  1
  O  O195  1  0.92368244  0.32482196  0.24872578  1
  O  O196  1  0.22545125  0.13448443  0.24276263  1
  O  O197  1  0.72589527  0.13427512  0.24335777  1
  O  O198  1  0.31534591  0.49395907  0.91642033  1
  O  O199  1  0.81587088  0.49384172  0.91680492  1
  O  O200  1  0.42674105  0.38180316  0.92143739  1
  O  O201  1  0.92669314  0.38156432  0.92126677  1
  O  O202  1  0.25887885  0.15954586  0.92359355  1
  O  O203  1  0.75893607  0.15969983  0.92352079  1
  O  O204  1  0.31579551  0.13338549  0.41759664  1
  O  O205  1  0.81716736  0.13749912  0.42063878  1
  O  O206  1  0.26198256  0.36682126  0.42164449  1
  O  O207  1  0.76037447  0.36894230  0.42200908  1
  O  O208  1  0.42434560  0.47640278  0.42288307  1
  O  O209  1  0.92493612  0.47223659  0.42486448  1
  O  O210  1  0.16884210  0.47965826  0.07775402  1
  O  O211  1  0.66888523  0.47992553  0.07789369  1
  O  O212  1  0.07521066  0.67465947  0.07702231  1
  O  O213  1  0.57521157  0.67446514  0.07696519  1
  O  O214  1  0.26447278  0.84683009  0.07574360  1
  O  O215  1  0.76434687  0.84669151  0.07581975  1
  O  O216  1  0.16540034  0.85554714  0.57829258  1
  O  O217  1  0.66144652  0.85217173  0.58122324  1
  O  O218  1  0.26534800  0.68998917  0.57762136  1
  O  O219  1  0.75754411  0.65816657  0.57806868  1
  O  O220  1  0.06046128  0.46836537  0.57692529  1
  O  O221  1  0.57365649  0.47515629  0.57618662  1
  O  O222  1  0.14979573  0.82983422  0.25185223  1
  O  O223  1  0.65031265  0.82990275  0.25256285  1
  O  O224  1  0.25627299  0.70770637  0.25902876  1
  O  O225  1  0.75643607  0.70679119  0.25952436  1
  O  O226  1  0.09198447  0.48325668  0.25599956  1
  O  O227  1  0.59221247  0.48354764  0.25608384  1
  O  O228  1  0.14802681  0.46625474  0.75294710  1
  O  O229  1  0.65102857  0.47108136  0.75498569  1
  O  O230  1  0.09348685  0.70436028  0.75696272  1
  O  O231  1  0.59216599  0.70253190  0.75659831  1
  O  O232  1  0.25650656  0.80529920  0.75849940  1
  O  O233  1  0.75665209  0.80634618  0.75839197  1
