# generated using pymatgen
data_Y2O3
_symmetry_space_group_name_H-M   'P 1'
_cell_length_a   9.18664497
_cell_length_b   9.18664550
_cell_length_c   9.18664537
_cell_angle_alpha   109.47122258
_cell_angle_beta   109.47122375
_cell_angle_gamma   109.47121308
_symmetry_Int_Tables_number   1
_chemical_formula_structural   Y2O3
_chemical_formula_sum   'Y16 O24'
_cell_volume   596.82769092
_cell_formula_units_Z   8
loop_
 _symmetry_equiv_pos_site_id
 _symmetry_equiv_pos_as_xyz
  1  'x, y, z'
loop_
 _atom_site_type_symbol
 _atom_site_label
 _atom_site_symmetry_multiplicity
 _atom_site_fract_x
 _atom_site_fract_y
 _atom_site_fract_z
 _atom_site_occupancy
  Y  Y0  1  0.25000000  0.71745644  0.46745644  1
  Y  Y1  1  0.03254356  0.75000000  0.78254356  1
  Y  Y2  1  0.78254356  0.03254356  0.75000000  1
  Y  Y3  1  0.46745644  0.25000000  0.71745644  1
  Y  Y4  1  0.71745644  0.46745644  0.25000000  1
  Y  Y5  1  0.75000000  0.78254356  0.03254356  1
  Y  Y6  1  0.75000000  0.28254356  0.53254356  1
  Y  Y7  1  0.96745644  0.25000000  0.21745644  1
  Y  Y8  1  0.21745644  0.96745644  0.25000000  1
  Y  Y9  1  0.53254356  0.75000000  0.28254356  1
  Y  Y10  1  0.28254356  0.53254356  0.75000000  1
  Y  Y11  1  0.25000000  0.21745644  0.96745644  1
  Y  Y12  1  -0.00000000  0.50000000  -0.00000000  1
  Y  Y13  1  0.50000000  -0.00000000  -0.00000000  1
  Y  Y14  1  -0.00000000  -0.00000000  0.50000000  1
  Y  Y15  1  0.50000000  0.50000000  0.50000000  1
  O  O16  1  0.03166182  0.48915020  0.76093209  1
  O  O17  1  0.22822011  0.27072973  0.73906791  1
  O  O18  1  0.27177989  0.01084980  0.04251062  1
  O  O19  1  0.22927027  0.45748938  0.46833818  1
  O  O20  1  0.45748938  0.46833818  0.22927027  1
  O  O21  1  0.76093209  0.03166182  0.48915020  1
  O  O22  1  0.27072973  0.73906791  0.22822011  1
  O  O23  1  0.04251062  0.27177989  0.01084980  1
  O  O24  1  0.48915020  0.76093209  0.03166182  1
  O  O25  1  0.73906791  0.22822011  0.27072973  1
  O  O26  1  0.01084980  0.04251062  0.27177989  1
  O  O27  1  0.46833818  0.22927027  0.45748938  1
  O  O28  1  0.96833818  0.51084980  0.23906791  1
  O  O29  1  0.77177989  0.72926927  0.26093209  1
  O  O30  1  0.72822011  0.98915020  0.95748938  1
  O  O31  1  0.77073073  0.54251062  0.53166182  1
  O  O32  1  0.53166182  0.77073073  0.54251062  1
  O  O33  1  0.98915020  0.95748938  0.72822011  1
  O  O34  1  0.26093209  0.77177989  0.72926927  1
  O  O35  1  0.51084980  0.23906791  0.96833818  1
  O  O36  1  0.95748938  0.72822011  0.98915020  1
  O  O37  1  0.72926927  0.26093209  0.77177989  1
  O  O38  1  0.23906791  0.96833818  0.51084980  1
  O  O39  1  0.54251062  0.53166182  0.77073073  1
