# generated using pymatgen
data_Na5La2Y2P5SO24
_symmetry_space_group_name_H-M   'P 1'
_cell_length_a   9.40725861
_cell_length_b   9.43535012
_cell_length_c   24.45323229
_cell_angle_alpha   90.33014509
_cell_angle_beta   89.95691356
_cell_angle_gamma   119.88502825
_symmetry_Int_Tables_number   1
_chemical_formula_structural   Na5La2Y2P5SO24
_chemical_formula_sum   'Na15 La6 Y6 P15 S3 O72'
_cell_volume   1881.83473636
_cell_formula_units_Z   3
loop_
 _symmetry_equiv_pos_site_id
 _symmetry_equiv_pos_as_xyz
  1  'x, y, z'
loop_
 _atom_site_type_symbol
 _atom_site_label
 _atom_site_symmetry_multiplicity
 _atom_site_fract_x
 _atom_site_fract_y
 _atom_site_fract_z
 _atom_site_occupancy
  Na  Na0  1  0.64961376  0.00160649  0.25056852  1
  Na  Na1  1  0.99543206  0.36037404  0.74967389  1
  Na  Na2  1  0.36379896  0.00041882  0.75081508  1
  Na  Na3  1  0.02808123  0.69731676  0.58040707  1
  Na  Na4  1  0.66481737  0.96984070  0.58303450  1
  Na  Na5  1  0.30362971  0.97386622  0.08207429  1
  Na  Na6  1  0.02854591  0.33238748  0.08538073  1
  Na  Na7  1  0.98093929  0.66486214  0.91796570  1
  Na  Na8  1  0.70946801  0.67619575  0.41698885  1
  Na  Na9  1  0.01790687  0.01448099  0.50021057  1
  Na  Na10  1  0.99981200  0.01040558  0.99972881  1
  Na  Na11  1  0.65497576  0.32181343  0.83307693  1
  Na  Na12  1  0.69015791  0.34260440  0.33374144  1
  Na  Na13  1  0.33722869  0.64392513  0.16700372  1
  Na  Na14  1  0.34639828  0.65374882  0.66669578  1
  La  La15  1  0.00093541  0.01097124  0.85178382  1
  La  La16  1  0.00351875  0.00220193  0.64991743  1
  La  La17  1  0.66279438  0.34568691  0.67981328  1
  La  La18  1  0.65847065  0.32180183  0.98762333  1
  La  La19  1  0.32822263  0.66496623  0.51018337  1
  La  La20  1  0.34220954  0.66883753  0.81937721  1
  Y  Y21  1  0.99652664  0.99968346  0.34709593  1
  Y  Y22  1  0.98919302  0.99238648  0.15307965  1
  Y  Y23  1  0.67485390  0.35317214  0.18302988  1
  Y  Y24  1  0.66778083  0.32329021  0.48111099  1
  Y  Y25  1  0.33820256  0.66607591  0.01879326  1
  Y  Y26  1  0.31851965  0.65952885  0.31650501  1
  P  P27  1  0.69879535  0.70448556  0.25268940  1
  P  P28  1  0.99636777  0.29385799  0.24832600  1
  P  P29  1  0.30036090  0.30066310  0.75065091  1
  P  P30  1  0.00339526  0.69637388  0.75170167  1
  P  P31  1  0.69519709  0.00463954  0.74719540  1
  P  P32  1  0.96181530  0.33383440  0.58285143  1
  P  P33  1  0.36908288  0.03209269  0.58158255  1
  P  P34  1  0.66882193  0.63672882  0.57711563  1
  P  P35  1  0.97325465  0.63801101  0.08258041  1
  P  P36  1  0.66548502  0.03400318  0.08862088  1
  P  P37  1  0.35933410  0.32834066  0.08681671  1
  P  P38  1  0.03516713  0.37364724  0.91973513  1
  P  P39  1  0.32843288  0.96054469  0.91929213  1
  P  P40  1  0.63475452  0.96487154  0.41291155  1
  P  P41  1  0.02419104  0.66802016  0.41576376  1
  S  S42  1  0.30088000  0.00087207  0.24917924  1
  S  S43  1  0.63785066  0.66627273  0.92026761  1
  S  S44  1  0.33518037  0.36415826  0.41326834  1
  O  O45  1  0.21592561  0.01869169  0.29709244  1
  O  O46  1  0.80169049  0.78397869  0.30499783  1
  O  O47  1  0.97520720  0.18084515  0.29724751  1
  O  O48  1  0.21360419  0.19669852  0.80129790  1
  O  O49  1  0.99062524  0.78425848  0.80334612  1
  O  O50  1  0.80339959  0.01850303  0.79668363  1
  O  O51  1  0.77394351  0.98913374  0.69347968  1
  O  O52  1  0.19782446  0.21795902  0.69876331  1
  O  O53  1  0.01698537  0.79550005  0.69936688  1
  O  O54  1  0.78822962  0.81682001  0.20323604  1
  O  O55  1  0.01868433  0.21615023  0.19512608  1
  O  O56  1  0.20413982  0.98012297  0.19846057  1
  O  O57  1  0.88992228  0.35203799  0.63781450  1
  O  O58  1  0.45809917  0.10551823  0.63658460  1
  O  O59  1  0.65403342  0.54230279  0.62987201  1
  O  O60  1  0.87997140  0.52023471  0.13050147  1
  O  O61  1  0.63890236  0.11882646  0.13915457  1
  O  O62  1  0.47272844  0.35209738  0.13586485  1
  O  O63  1  0.43254175  0.29762307  0.03468811  1
  O  O64  1  0.87759509  0.56984976  0.02881305  1
  O  O65  1  0.69876939  0.14200176  0.03751020  1
  O  O66  1  0.46862189  0.14200713  0.53342598  1
  O  O67  1  0.67834419  0.54249308  0.52633239  1
  O  O68  1  0.84866077  0.32097780  0.53465979  1
  O  O69  1  0.54510882  0.67532338  0.96763582  1
  O  O70  1  0.14190493  0.46972361  0.96989438  1
  O  O71  1  0.32460333  0.85649345  0.96926826  1
  O  O72  1  0.56190128  0.86319144  0.46606634  1
  O  O73  1  0.30722905  0.43030125  0.46460926  1
  O  O74  1  0.11475109  0.68875387  0.47088031  1
  O  O75  1  0.12229574  0.64773872  0.36854668  1
  O  O76  1  0.52354894  0.87108282  0.36331678  1
  O  O77  1  0.35627165  0.47477712  0.36694106  1
  O  O78  1  0.11729354  0.46506115  0.86570560  1
  O  O79  1  0.34117657  0.88125125  0.86493720  1
  O  O80  1  0.54969434  0.65350887  0.86852072  1
  O  O81  1  0.00300301  0.81987775  0.40732702  1
  O  O82  1  0.80533747  0.97643490  0.40629614  1
  O  O83  1  0.19465590  0.19883647  0.40476108  1
  O  O84  1  0.01188168  0.19976527  0.91991800  1
  O  O85  1  0.16006916  0.95605965  0.91943661  1
  O  O86  1  0.80268468  0.81489334  0.91983457  1
  O  O87  1  0.96812153  0.17252967  0.58243415  1
  O  O88  1  0.19105324  0.00202025  0.58111035  1
  O  O89  1  0.83195214  0.80544615  0.57963097  1
  O  O90  1  0.00747534  0.81502715  0.09325363  1
  O  O91  1  0.82150291  0.01853257  0.09482405  1
  O  O92  1  0.18661580  0.17247230  0.09424862  1
  O  O93  1  0.68204931  0.16304709  0.74734222  1
  O  O94  1  0.46831100  0.30911576  0.74864820  1
  O  O95  1  0.85749594  0.51870530  0.74938865  1
  O  O96  1  0.67859419  0.53273182  0.24462197  1
  O  O97  1  0.83204790  0.29851238  0.24393741  1
  O  O98  1  0.46851506  0.14593305  0.24454492  1
  O  O99  1  0.65994544  0.52189049  0.92272820  1
  O  O100  1  0.86949243  0.37318951  0.92217207  1
  O  O101  1  0.47624364  0.13503449  0.92153927  1
  O  O102  1  0.65272721  0.13675022  0.41875227  1
  O  O103  1  0.49197435  0.36042703  0.41804321  1
  O  O104  1  0.84693797  0.51572033  0.41863237  1
  O  O105  1  0.33130963  0.47739786  0.08081457  1
  O  O106  1  0.14561387  0.64884657  0.07885210  1
  O  O107  1  0.50624121  0.86639847  0.07992661  1
  O  O108  1  0.35722116  0.86095550  0.57688156  1
  O  O109  1  0.52390583  0.67111886  0.57556357  1
  O  O110  1  0.13061214  0.49163938  0.57698051  1
  O  O111  1  0.32113826  0.85352203  0.25525609  1
  O  O112  1  0.53032905  0.69985431  0.25769160  1
  O  O113  1  0.14667224  0.46691256  0.25665731  1
  O  O114  1  0.31028824  0.46941364  0.75357864  1
  O  O115  1  0.16402056  0.68504480  0.75311592  1
  O  O116  1  0.51796505  0.85690345  0.75105186  1
