# generated using pymatgen
data_MgMn2(SbO3)4
_symmetry_space_group_name_H-M   'P 1'
_cell_length_a   9.33739740
_cell_length_b   6.16775584
_cell_length_c   6.19824513
_cell_angle_alpha   84.82605812
_cell_angle_beta   58.76900738
_cell_angle_gamma   60.03580724
_symmetry_Int_Tables_number   1
_chemical_formula_structural   MgMn2(SbO3)4
_chemical_formula_sum   'Mg1 Mn2 Sb4 O12'
_cell_volume   257.47905104
_cell_formula_units_Z   1
loop_
 _symmetry_equiv_pos_site_id
 _symmetry_equiv_pos_as_xyz
  1  'x, y, z'
loop_
 _atom_site_type_symbol
 _atom_site_label
 _atom_site_symmetry_multiplicity
 _atom_site_fract_x
 _atom_site_fract_y
 _atom_site_fract_z
 _atom_site_occupancy
  Mg  Mg0  1  0.02270019  0.49347644  0.97933733  1
  Mn  Mn1  1  0.16668165  0.58472634  0.41665161  1
  Mn  Mn2  1  0.49309316  0.56831559  0.45282445  1
  Sb  Sb3  1  0.00502840  0.99713176  0.00436369  1
  Sb  Sb4  1  0.34676765  0.99265460  0.99550667  1
  Sb  Sb5  1  0.65435337  0.00366003  0.03284920  1
  Sb  Sb6  1  0.83795048  0.41292759  0.58499054  1
  O  O7  1  0.87918835  0.64342926  0.77084404  1
  O  O8  1  0.20209117  0.11128526  0.80383688  1
  O  O9  1  0.14285477  0.88384458  0.20427681  1
  O  O10  1  0.18730753  0.66571756  0.74846703  1
  O  O11  1  0.46259785  0.33085813  0.28328302  1
  O  O12  1  0.47358105  0.85816603  0.20491624  1
  O  O13  1  0.54271881  0.09891548  0.81509550  1
  O  O14  1  0.82106667  0.35165936  0.22994562  1
  O  O15  1  0.53841049  0.65853539  0.73201683  1
  O  O16  1  0.81879402  0.86521479  0.19845774  1
  O  O17  1  0.85026301  0.12292479  0.82540180  1
  O  O18  1  0.13788440  0.35655703  0.21693498  1
