# generated using pymatgen
data_Na4Mg2In2SiS5O24
_symmetry_space_group_name_H-M   'P 1'
_cell_length_a   8.95356058
_cell_length_b   8.89005796
_cell_length_c   22.86821504
_cell_angle_alpha   90.32285803
_cell_angle_beta   89.53671136
_cell_angle_gamma   119.65610335
_symmetry_Int_Tables_number   1
_chemical_formula_structural   Na4Mg2In2SiS5O24
_chemical_formula_sum   'Na12 Mg6 In6 Si3 S15 O72'
_cell_volume   1581.76830912
_cell_formula_units_Z   3
loop_
 _symmetry_equiv_pos_site_id
 _symmetry_equiv_pos_as_xyz
  1  'x, y, z'
loop_
 _atom_site_type_symbol
 _atom_site_label
 _atom_site_symmetry_multiplicity
 _atom_site_fract_x
 _atom_site_fract_y
 _atom_site_fract_z
 _atom_site_occupancy
  Na  Na0  1  0.99530573  0.63042269  0.23822949  1
  Na  Na1  1  0.98879510  0.34655113  0.75858898  1
  Na  Na2  1  0.37654023  0.99712038  0.74940626  1
  Na  Na3  1  0.65547939  0.97202633  0.59057711  1
  Na  Na4  1  0.67892475  0.68672796  0.07794401  1
  Na  Na5  1  0.33624092  0.03527141  0.42262563  1
  Na  Na6  1  0.01455876  0.00263385  0.50093532  1
  Na  Na7  1  0.01152005  0.99392184  0.00369903  1
  Na  Na8  1  0.66732514  0.32976863  0.84171598  1
  Na  Na9  1  0.66677874  0.33374823  0.33013656  1
  Na  Na10  1  0.31783709  0.66300497  0.16199452  1
  Na  Na11  1  0.35378635  0.68357545  0.66801512  1
  Mg  Mg12  1  0.99389258  0.00085065  0.34799352  1
  Mg  Mg13  1  0.67237147  0.33433055  0.17866512  1
  Mg  Mg14  1  0.67881427  0.34490565  0.98624769  1
  Mg  Mg15  1  0.65754214  0.32898064  0.48307824  1
  Mg  Mg16  1  0.33828891  0.66383506  0.31644453  1
  Mg  Mg17  1  0.35549258  0.67938285  0.81842303  1
  In  In18  1  0.98538840  0.99505329  0.85255523  1
  In  In19  1  0.00157969  0.99528682  0.64846468  1
  In  In20  1  0.00703809  0.00258682  0.15010422  1
  In  In21  1  0.65869310  0.32205450  0.67934478  1
  In  In22  1  0.31712325  0.66948748  0.01857396  1
  In  In23  1  0.33005650  0.66825040  0.51340736  1
  Si  Si24  1  0.70028180  0.99699938  0.74695914  1
  Si  Si25  1  0.36120905  0.03114784  0.57918639  1
  Si  Si26  1  0.96011333  0.62733862  0.08729891  1
  S  S27  1  0.30086343  0.00064368  0.25474416  1
  S  S28  1  0.69967621  0.70315698  0.25214782  1
  S  S29  1  0.00029214  0.29552505  0.25237626  1
  S  S30  1  0.29751229  0.30195907  0.75244472  1
  S  S31  1  0.00091902  0.69738419  0.75172876  1
  S  S32  1  0.96260915  0.33805781  0.58070509  1
  S  S33  1  0.66527936  0.62291221  0.58042548  1
  S  S34  1  0.66671859  0.04335316  0.08262885  1
  S  S35  1  0.37962898  0.33311100  0.08264072  1
  S  S36  1  0.62342670  0.65926948  0.91889930  1
  S  S37  1  0.03686247  0.37199466  0.91416752  1
  S  S38  1  0.33429472  0.97100269  0.91336964  1
  S  S39  1  0.63500377  0.96412697  0.41486518  1
  S  S40  1  0.33248282  0.37039061  0.41465557  1
  S  S41  1  0.03137027  0.66588053  0.41274062  1
  O  O42  1  0.21773020  0.02529900  0.30775026  1
  O  O43  1  0.81958542  0.79594630  0.30076333  1
  O  O44  1  0.98433925  0.18843589  0.30316590  1
  O  O45  1  0.22094014  0.18102531  0.80257133  1
  O  O46  1  0.97584325  0.77881582  0.80443443  1
  O  O47  1  0.83801937  0.04740349  0.79993810  1
  O  O48  1  0.78216842  0.97438784  0.68467237  1
  O  O49  1  0.19359973  0.22682332  0.69852184  1
  O  O50  1  0.04161153  0.81026567  0.69935474  1
  O  O51  1  0.77023249  0.80207946  0.19627540  1
  O  O52  1  0.02745803  0.22042415  0.19729962  1
  O  O53  1  0.18729049  0.96601362  0.20256385  1
  O  O54  1  0.89890315  0.36653554  0.63849067  1
  O  O55  1  0.46997194  0.10339887  0.64125200  1
  O  O56  1  0.65386220  0.53515742  0.63718506  1
  O  O57  1  0.88143956  0.53248775  0.14957280  1
  O  O58  1  0.64000198  0.11904213  0.13635844  1
  O  O59  1  0.47820535  0.34834245  0.13601845  1
  O  O60  1  0.45635499  0.30678595  0.02934495  1
  O  O61  1  0.83683479  0.53874847  0.03179877  1
  O  O62  1  0.67681834  0.13866867  0.02931099  1
  O  O63  1  0.45485141  0.13940824  0.52093184  1
  O  O64  1  0.68376937  0.53353586  0.53007065  1
  O  O65  1  0.85156207  0.32619784  0.53226944  1
  O  O66  1  0.54449871  0.68279593  0.97376046  1
  O  O67  1  0.14302641  0.45716481  0.96625655  1
  O  O68  1  0.30807640  0.86430763  0.96614217  1
  O  O69  1  0.56745690  0.86680980  0.47166600  1
  O  O70  1  0.30566946  0.44429306  0.47036021  1
  O  O71  1  0.14368848  0.70232957  0.46590171  1
  O  O72  1  0.11731193  0.64161668  0.36081418  1
  O  O73  1  0.51213826  0.86926415  0.36739258  1
  O  O74  1  0.34926694  0.48027069  0.36465903  1
  O  O75  1  0.12154011  0.46945509  0.85987076  1
  O  O76  1  0.34923701  0.88429158  0.85952669  1
  O  O77  1  0.52311486  0.65096827  0.86702984  1
  O  O78  1  0.01999504  0.82776072  0.40729554  1
  O  O79  1  0.80658859  0.98370359  0.40602621  1
  O  O80  1  0.18112532  0.19232746  0.40949561  1
  O  O81  1  0.02272371  0.19611116  0.91370438  1
  O  O82  1  0.17602653  0.98953102  0.91007186  1
  O  O83  1  0.80079779  0.81589016  0.91604897  1
  O  O84  1  0.96303570  0.16998264  0.58260368  1
  O  O85  1  0.17040490  0.01357873  0.58505024  1
  O  O86  1  0.81535897  0.80295103  0.58180787  1
  O  O87  1  0.97476895  0.82446658  0.08746623  1
  O  O88  1  0.82691153  0.02911493  0.08675566  1
  O  O89  1  0.19881984  0.18837786  0.08722781  1
  O  O90  1  0.68532060  0.17823598  0.74690338  1
  O  O91  1  0.47414611  0.32790412  0.74577585  1
  O  O92  1  0.84315391  0.52684213  0.74404086  1
  O  O93  1  0.68659930  0.52918112  0.24798993  1
  O  O94  1  0.84251312  0.31182388  0.24841891  1
  O  O95  1  0.47192127  0.15399562  0.24619627  1
  O  O96  1  0.63711220  0.50089985  0.92156502  1
  O  O97  1  0.86384927  0.35359726  0.91933874  1
  O  O98  1  0.48934510  0.14218137  0.91926613  1
  O  O99  1  0.64582199  0.13726583  0.41966874  1
  O  O100  1  0.49033487  0.35394050  0.41855412  1
  O  O101  1  0.86111968  0.51226042  0.42153802  1
  O  O102  1  0.37746174  0.50202518  0.07895291  1
  O  O103  1  0.15502312  0.65071065  0.08374557  1
  O  O104  1  0.52052820  0.85839360  0.07893282  1
  O  O105  1  0.35595796  0.84070174  0.57800825  1
  O  O106  1  0.50737795  0.64024626  0.57760016  1
  O  O107  1  0.14105160  0.48259016  0.57545034  1
  O  O108  1  0.31160633  0.83834980  0.26020040  1
  O  O109  1  0.52785368  0.68475783  0.26101481  1
  O  O110  1  0.15206128  0.47425817  0.25763812  1
  O  O111  1  0.30280752  0.46856789  0.76236415  1
  O  O112  1  0.15011535  0.66885430  0.75894659  1
  O  O113  1  0.50799173  0.83442560  0.75521898  1
