# generated using pymatgen
data_Na3ZrScSi(PO6)2
_symmetry_space_group_name_H-M   'P 1'
_cell_length_a   15.80557130
_cell_length_b   9.14055854
_cell_length_c   9.08594197
_cell_angle_alpha   90.00000000
_cell_angle_beta   124.81200860
_cell_angle_gamma   90.00000000
_symmetry_Int_Tables_number   1
_chemical_formula_structural   Na3ZrScSi(PO6)2
_chemical_formula_sum   'Na12 Zr4 Sc4 Si4 P8 O48'
_cell_volume   1077.73427090
_cell_formula_units_Z   4
loop_
 _symmetry_equiv_pos_site_id
 _symmetry_equiv_pos_as_xyz
  1  'x, y, z'
loop_
 _atom_site_type_symbol
 _atom_site_label
 _atom_site_symmetry_multiplicity
 _atom_site_fract_x
 _atom_site_fract_y
 _atom_site_fract_z
 _atom_site_occupancy
  Na  Na0  1  0.25079682  0.72123680  0.99342577  1
  Na  Na1  1  0.75079682  0.77876320  0.49342577  1
  Na  Na2  1  0.75079682  0.22123680  0.99342577  1
  Na  Na3  1  0.25079682  0.27876320  0.49342577  1
  Na  Na4  1  0.50547080  0.10576527  0.76191887  1
  Na  Na5  1  0.50547080  0.89423473  0.26191887  1
  Na  Na6  1  0.00547080  0.60576527  0.76191887  1
  Na  Na7  1  0.00547080  0.39423473  0.26191887  1
  Na  Na8  1  0.18640197  0.93175147  0.29109601  1
  Na  Na9  1  0.18640197  0.06824853  0.79109601  1
  Na  Na10  1  0.68640197  0.43175147  0.29109601  1
  Na  Na11  1  0.68640197  0.56824853  0.79109601  1
  Zr  Zr12  1  0.89559314  0.75761644  0.94057593  1
  Zr  Zr13  1  0.89559314  0.24238356  0.44057593  1
  Zr  Zr14  1  0.39559314  0.25761644  0.94057593  1
  Zr  Zr15  1  0.39559314  0.74238356  0.44057593  1
  Sc  Sc16  1  0.10508461  0.74362371  0.56158215  1
  Sc  Sc17  1  0.10508461  0.25637629  0.06158215  1
  Sc  Sc18  1  0.60508461  0.24362371  0.56158215  1
  Sc  Sc19  1  0.60508461  0.75637629  0.06158215  1
  Si  Si20  1  0.64492548  0.89676358  0.74106385  1
  Si  Si21  1  0.64492548  0.10323642  0.24106385  1
  Si  Si22  1  0.14492548  0.39676358  0.74106385  1
  Si  Si23  1  0.14492548  0.60323642  0.24106385  1
  P  P24  1  0.00254191  0.95347972  0.75889143  1
  P  P25  1  0.00254191  0.04652028  0.25889143  1
  P  P26  1  0.50254191  0.45347972  0.75889143  1
  P  P27  1  0.50254191  0.54652028  0.25889143  1
  P  P28  1  0.35145044  0.89807896  0.75734334  1
  P  P29  1  0.35145044  0.10192104  0.25734334  1
  P  P30  1  0.85145044  0.39807896  0.75734334  1
  P  P31  1  0.85145044  0.60192104  0.25734334  1
  O  O32  1  0.15077710  0.57454580  0.74396221  1
  O  O33  1  0.84679349  0.56951331  0.75522625  1
  O  O34  1  0.84679349  0.43048669  0.25522625  1
  O  O35  1  0.15077710  0.42545420  0.24396221  1
  O  O36  1  0.65077710  0.07454580  0.74396221  1
  O  O37  1  0.34679349  0.06951331  0.75522625  1
  O  O38  1  0.34679349  0.93048669  0.25522625  1
  O  O39  1  0.65077710  0.92545420  0.24396221  1
  O  O40  1  0.44170794  0.55791643  0.59381473  1
  O  O41  1  0.56377043  0.54438595  0.93055692  1
  O  O42  1  0.56377043  0.45561405  0.43055692  1
  O  O43  1  0.44170794  0.44208357  0.09381473  1
  O  O44  1  0.94170794  0.05791643  0.59381473  1
  O  O45  1  0.06377043  0.04438595  0.93055692  1
  O  O46  1  0.06377043  0.95561405  0.43055692  1
  O  O47  1  0.94170794  0.94208357  0.09381473  1
  O  O48  1  0.25673328  0.84244203  0.74863154  1
  O  O49  1  0.74145011  0.81451914  0.75249631  1
  O  O50  1  0.74145011  0.18548086  0.25249631  1
  O  O51  1  0.25673328  0.15755797  0.24863154  1
  O  O52  1  0.75673328  0.34244203  0.74863154  1
  O  O53  1  0.24145011  0.31451914  0.75249631  1
  O  O54  1  0.24145011  0.68548086  0.25249631  1
  O  O55  1  0.75673328  0.65755797  0.24863154  1
  O  O56  1  0.34775814  0.85688992  0.58588099  1
  O  O57  1  0.63924519  0.84108661  0.90526946  1
  O  O58  1  0.63924519  0.15891339  0.40526946  1
  O  O59  1  0.34775814  0.14311008  0.08588099  1
  O  O60  1  0.84775814  0.35688992  0.58588099  1
  O  O61  1  0.13924519  0.34108661  0.90526946  1
  O  O62  1  0.13924519  0.65891339  0.40526946  1
  O  O63  1  0.84775814  0.64311008  0.08588099  1
  O  O64  1  0.45133421  0.84081459  0.92573777  1
  O  O65  1  0.53750875  0.83888925  0.55492455  1
  O  O66  1  0.53750875  0.16111075  0.05492455  1
  O  O67  1  0.45133421  0.15918541  0.42573777  1
  O  O68  1  0.95133421  0.34081459  0.92573777  1
  O  O69  1  0.03750875  0.33888925  0.55492455  1
  O  O70  1  0.03750875  0.66111075  0.05492455  1
  O  O71  1  0.95133421  0.65918541  0.42573777  1
  O  O72  1  0.07873801  0.85797057  0.74618049  1
  O  O73  1  0.92191817  0.85002773  0.75142143  1
  O  O74  1  0.92191817  0.14997227  0.25142143  1
  O  O75  1  0.07873801  0.14202943  0.24618049  1
  O  O76  1  0.57873801  0.35797057  0.74618049  1
  O  O77  1  0.42191817  0.35002773  0.75142143  1
  O  O78  1  0.42191817  0.64997227  0.25142143  1
  O  O79  1  0.57873801  0.64202943  0.24618049  1
