# generated using pymatgen
data_NaMgTiP(SO6)2
_symmetry_space_group_name_H-M   'P 1'
_cell_length_a   8.60140983
_cell_length_b   8.60527937
_cell_length_c   22.48032739
_cell_angle_alpha   89.70183541
_cell_angle_beta   90.00000000
_cell_angle_gamma   119.98512616
_symmetry_Int_Tables_number   1
_chemical_formula_structural   NaMgTiP(SO6)2
_chemical_formula_sum   'Na6 Mg6 Ti6 P6 S12 O72'
_cell_volume   1441.20284987
_cell_formula_units_Z   6
loop_
 _symmetry_equiv_pos_site_id
 _symmetry_equiv_pos_as_xyz
  1  'x, y, z'
loop_
 _atom_site_type_symbol
 _atom_site_label
 _atom_site_symmetry_multiplicity
 _atom_site_fract_x
 _atom_site_fract_y
 _atom_site_fract_z
 _atom_site_occupancy
  Na  Na0  1  0.99190111  0.99350289  0.50282630  1
  Na  Na1  1  0.00160178  0.99350289  0.00282630  1
  Na  Na2  1  0.66185710  0.32538461  0.83630751  1
  Na  Na3  1  0.66352851  0.32538461  0.33630751  1
  Na  Na4  1  0.33098051  0.67153720  0.16988703  1
  Na  Na5  1  0.34055569  0.67153720  0.66988703  1
  Mg  Mg6  1  0.99267152  0.99585898  0.64712926  1
  Mg  Mg7  1  0.00318746  0.99585898  0.14712926  1
  Mg  Mg8  1  0.66523221  0.33418828  0.98060435  1
  Mg  Mg9  1  0.66895707  0.33418828  0.48060435  1
  Mg  Mg10  1  0.33556026  0.67461671  0.31409770  1
  Mg  Mg11  1  0.33905544  0.67461671  0.81409770  1
  Ti  Ti12  1  0.00667562  0.00022302  0.35278601  1
  Ti  Ti13  1  0.99354740  0.00022302  0.85278601  1
  Ti  Ti14  1  0.66774385  0.33430621  0.68603985  1
  Ti  Ti15  1  0.66656335  0.33430621  0.18603985  1
  Ti  Ti16  1  0.31969493  0.67618333  0.01960364  1
  Ti  Ti17  1  0.35648740  0.67618333  0.51960364  1
  P  P18  1  0.29105929  0.99890177  0.24771851  1
  P  P19  1  0.70784248  0.99890177  0.74771851  1
  P  P20  1  0.67230621  0.62262312  0.58140252  1
  P  P21  1  0.95031790  0.62262312  0.08140252  1
  P  P22  1  0.33409235  0.96293630  0.91346564  1
  P  P23  1  0.62884295  0.96293630  0.41346564  1
  S  S24  1  0.70940672  0.71015414  0.24926393  1
  S  S25  1  0.00122279  0.28973477  0.24906414  1
  S  S26  1  0.28851198  0.28973477  0.74906414  1
  S  S27  1  0.00074742  0.71015414  0.74926393  1
  S  S28  1  0.95948426  0.33531997  0.58228284  1
  S  S29  1  0.37514090  0.04357973  0.58288467  1
  S  S30  1  0.66843982  0.04357973  0.08288467  1
  S  S31  1  0.37583671  0.33531997  0.08228284  1
  S  S32  1  0.62040213  0.66513830  0.91627801  1
  S  S33  1  0.04414869  0.37802357  0.91555240  1
  S  S34  1  0.33387388  0.37802357  0.41555240  1
  S  S35  1  0.04473516  0.66513830  0.41627801  1
  O  O36  1  0.19783299  0.03017039  0.30528142  1
  O  O37  1  0.82350287  0.79321627  0.30361089  1
  O  O38  1  0.96847634  0.17511882  0.30404942  1
  O  O39  1  0.20664248  0.17511882  0.80404942  1
  O  O40  1  0.96971340  0.79321627  0.80361089  1
  O  O41  1  0.83233740  0.03017039  0.80528142  1
  O  O42  1  0.79797609  0.97724894  0.69420703  1
  O  O43  1  0.18463269  0.20831514  0.69586370  1
  O  O44  1  0.02913181  0.81776896  0.69604197  1
  O  O45  1  0.78863714  0.81776896  0.19604197  1
  O  O46  1  0.02368245  0.20831514  0.19586370  1
  O  O47  1  0.17927284  0.97724894  0.19420703  1
  O  O48  1  0.87106746  0.36180296  0.63707212  1
  O  O49  1  0.49028487  0.12426893  0.63743782  1
  O  O50  1  0.63725741  0.49967231  0.63869586  1
  O  O51  1  0.86241589  0.49967231  0.13869586  1
  O  O52  1  0.63398506  0.12426893  0.13743782  1
  O  O53  1  0.49073650  0.36180296  0.13707212  1
  O  O54  1  0.45653751  0.30631158  0.02981062  1
  O  O55  1  0.84423641  0.53465949  0.02672518  1
  O  O56  1  0.69224319  0.14895200  0.02944835  1
  O  O57  1  0.45670981  0.14895200  0.52944835  1
  O  O58  1  0.69042408  0.53465949  0.52672518  1
  O  O59  1  0.84977506  0.30631158  0.52981062  1
  O  O60  1  0.53946165  0.69646197  0.97043811  1
  O  O61  1  0.15752443  0.45943592  0.97035488  1
  O  O62  1  0.30077691  0.83651311  0.97206860  1
  O  O63  1  0.53573520  0.83651311  0.47206860  1
  O  O64  1  0.30191049  0.45943592  0.47035488  1
  O  O65  1  0.15699932  0.69646197  0.47043811  1
  O  O66  1  0.12319518  0.63940541  0.36274583  1
  O  O67  1  0.51317052  0.87242950  0.36112934  1
  O  O68  1  0.35595867  0.48282821  0.36226645  1
  O  O69  1  0.12686854  0.48282821  0.86226645  1
  O  O70  1  0.35925798  0.87242950  0.86112934  1
  O  O71  1  0.51620923  0.63940541  0.86274583  1
  O  O72  1  0.02960928  0.83390283  0.41034207  1
  O  O73  1  0.81541647  0.97221642  0.40848877  1
  O  O74  1  0.16528023  0.19590534  0.41126347  1
  O  O75  1  0.03062510  0.19590534  0.91126347  1
  O  O76  1  0.15679996  0.97221642  0.90848877  1
  O  O77  1  0.80429355  0.83390283  0.91034207  1
  O  O78  1  0.98455687  0.18079985  0.59040952  1
  O  O79  1  0.19786568  0.02282415  0.59145427  1
  O  O80  1  0.82834721  0.80976426  0.58943450  1
  O  O81  1  0.98141706  0.80976426  0.08943450  1
  O  O82  1  0.82495847  0.02282415  0.09145427  1
  O  O83  1  0.19624298  0.18079985  0.09040952  1
  O  O84  1  0.69566968  0.17628697  0.74202310  1
  O  O85  1  0.47082447  0.30406851  0.74431146  1
  O  O86  1  0.83120457  0.52929198  0.74431754  1
  O  O87  1  0.69808842  0.52929198  0.24431754  1
  O  O88  1  0.83324504  0.30406851  0.24431146  1
  O  O89  1  0.48061829  0.17628697  0.24202310  1
  O  O90  1  0.64854887  0.51189356  0.92323188  1
  O  O91  1  0.86477008  0.35368978  0.92296592  1
  O  O92  1  0.49457179  0.14589100  0.92477678  1
  O  O93  1  0.65132021  0.14589100  0.42477678  1
  O  O94  1  0.48892070  0.35368978  0.42296592  1
  O  O95  1  0.86334569  0.51189356  0.42323188  1
  O  O96  1  0.36626224  0.50363051  0.07759823  1
  O  O97  1  0.14244459  0.63408008  0.07608751  1
  O  O98  1  0.50178808  0.86058574  0.07780500  1
  O  O99  1  0.35879666  0.86058574  0.57780500  1
  O  O100  1  0.49163448  0.63408008  0.57608751  1
  O  O101  1  0.13736726  0.50363051  0.57759823  1
  O  O102  1  0.31621250  0.83907036  0.25663390  1
  O  O103  1  0.52874960  0.68155909  0.25705684  1
  O  O104  1  0.15748740  0.46774680  0.25735731  1
  O  O105  1  0.31025839  0.46774680  0.75735731  1
  O  O106  1  0.15280849  0.68155909  0.75705684  1
  O  O107  1  0.52285686  0.83907036  0.75663390  1
