# generated using pymatgen
data_Na5Ca2In2P3(SO8)3
_symmetry_space_group_name_H-M   'P 1'
_cell_length_a   9.25338856
_cell_length_b   9.26648709
_cell_length_c   22.75722613
_cell_angle_alpha   90.74385255
_cell_angle_beta   90.15513704
_cell_angle_gamma   120.06366200
_symmetry_Int_Tables_number   1
_chemical_formula_structural   Na5Ca2In2P3(SO8)3
_chemical_formula_sum   'Na15 Ca6 In6 P9 S9 O72'
_cell_volume   1688.59585395
_cell_formula_units_Z   3
loop_
 _symmetry_equiv_pos_site_id
 _symmetry_equiv_pos_as_xyz
  1  'x, y, z'
loop_
 _atom_site_type_symbol
 _atom_site_label
 _atom_site_symmetry_multiplicity
 _atom_site_fract_x
 _atom_site_fract_y
 _atom_site_fract_z
 _atom_site_occupancy
  Na  Na0  1  0.65069341  0.01447238  0.25696856  1
  Na  Na1  1  0.00591263  0.63485029  0.24031644  1
  Na  Na2  1  0.63877642  0.64720556  0.74077277  1
  Na  Na3  1  0.99067828  0.34655751  0.74529851  1
  Na  Na4  1  0.31327338  0.34609045  0.58901882  1
  Na  Na5  1  0.67397279  0.96859402  0.57539761  1
  Na  Na6  1  0.30460245  0.96430899  0.08003417  1
  Na  Na7  1  0.68943701  0.02118869  0.90738278  1
  Na  Na8  1  0.96738881  0.29834539  0.41157766  1
  Na  Na9  1  0.96827809  0.95576638  0.49870542  1
  Na  Na10  1  0.00974434  0.97959009  0.99934948  1
  Na  Na11  1  0.61055251  0.29821052  0.83147909  1
  Na  Na12  1  0.61961691  0.30574460  0.33415911  1
  Na  Na13  1  0.30283416  0.62239643  0.16576217  1
  Na  Na14  1  0.32124490  0.67112751  0.66581041  1
  Ca  Ca15  1  0.00661426  0.00157806  0.35113933  1
  Ca  Ca16  1  0.02101575  0.00739857  0.85292643  1
  Ca  Ca17  1  0.66372337  0.32842863  0.68405993  1
  Ca  Ca18  1  0.66799409  0.33660780  0.18307210  1
  Ca  Ca19  1  0.32387595  0.66046201  0.01820502  1
  Ca  Ca20  1  0.33446006  0.67021514  0.51636918  1
  In  In21  1  0.99777834  0.00279105  0.65288206  1
  In  In22  1  0.00821932  0.00411633  0.15314811  1
  In  In23  1  0.67644991  0.34760738  0.98595210  1
  In  In24  1  0.67216653  0.33617416  0.48650324  1
  In  In25  1  0.33857666  0.67394567  0.31875973  1
  In  In26  1  0.33581113  0.67685617  0.81914918  1
  P  P27  1  0.30131304  0.98802505  0.24834731  1
  P  P28  1  0.00875060  0.30561045  0.25383782  1
  P  P29  1  0.29855783  0.31419892  0.74828301  1
  P  P30  1  0.69447430  0.99022388  0.75413299  1
  P  P31  1  0.96932906  0.32332885  0.58532961  1
  P  P32  1  0.67493533  0.63899667  0.58632351  1
  P  P33  1  0.96692248  0.64698040  0.08827271  1
  P  P34  1  0.35230012  0.98037049  0.92478582  1
  P  P35  1  0.63670157  0.98134663  0.41920346  1
  S  S36  1  0.69446707  0.70677763  0.24979640  1
  S  S37  1  0.01012955  0.70489296  0.74937812  1
  S  S38  1  0.35703648  0.03743216  0.58226310  1
  S  S39  1  0.68120870  0.03549099  0.08269849  1
  S  S40  1  0.35866278  0.32174550  0.08295257  1
  S  S41  1  0.62978334  0.65791954  0.91506650  1
  S  S42  1  0.01933707  0.36818814  0.91329911  1
  S  S43  1  0.34685688  0.37310609  0.41869375  1
  S  S44  1  0.02163471  0.65367439  0.41503059  1
  O  O45  1  0.20477551  0.99584234  0.30066581  1
  O  O46  1  0.79207860  0.78859319  0.30293764  1
  O  O47  1  0.98494577  0.20930501  0.31042325  1
  O  O48  1  0.20366797  0.20387493  0.79882516  1
  O  O49  1  0.99680456  0.78782986  0.80217193  1
  O  O50  1  0.79196055  0.99678302  0.80931606  1
  O  O51  1  0.77736558  0.96207979  0.69758135  1
  O  O52  1  0.20393051  0.23437862  0.68817662  1
  O  O53  1  0.02811797  0.80191525  0.69540702  1
  O  O54  1  0.77502392  0.81067036  0.19693447  1
  O  O55  1  0.02406011  0.21175108  0.19881248  1
  O  O56  1  0.20315685  0.96690472  0.18929600  1
  O  O57  1  0.88604800  0.33159752  0.64213295  1
  O  O58  1  0.45631155  0.11779346  0.63538061  1
  O  O59  1  0.65394848  0.54317560  0.64268154  1
  O  O60  1  0.88727464  0.56344523  0.14580564  1
  O  O61  1  0.66434446  0.11968392  0.13545761  1
  O  O62  1  0.45145317  0.33316494  0.13642773  1
  O  O63  1  0.44396505  0.30247283  0.02965906  1
  O  O64  1  0.85691601  0.55065214  0.03350435  1
  O  O65  1  0.69490565  0.13268176  0.02844201  1
  O  O66  1  0.43777749  0.14160177  0.52958111  1
  O  O67  1  0.68506792  0.54278664  0.53109788  1
  O  O68  1  0.85960829  0.30219394  0.52940999  1
  O  O69  1  0.53263776  0.66553631  0.96424404  1
  O  O70  1  0.12191651  0.45887389  0.96402190  1
  O  O71  1  0.34475797  0.89290971  0.98181410  1
  O  O72  1  0.54897608  0.89002418  0.47476508  1
  O  O73  1  0.33696061  0.45176933  0.47387060  1
  O  O74  1  0.12193572  0.66226719  0.46594483  1
  O  O75  1  0.10091925  0.63735810  0.35911795  1
  O  O76  1  0.53690101  0.89182400  0.36098149  1
  O  O77  1  0.35806442  0.47578496  0.36673799  1
  O  O78  1  0.10026174  0.45393704  0.85686979  1
  O  O79  1  0.37919700  0.88692163  0.87087044  1
  O  O80  1  0.53930191  0.63964466  0.85752446  1
  O  O81  1  0.99655153  0.79776001  0.41410624  1
  O  O82  1  0.81569611  0.00732950  0.41770969  1
  O  O83  1  0.19324058  0.20768041  0.41428837  1
  O  O84  1  0.98733300  0.19452163  0.91326589  1
  O  O85  1  0.20119749  0.00386983  0.91880625  1
  O  O86  1  0.79439765  0.81468376  0.91495152  1
  O  O87  1  0.97970431  0.15697809  0.58380481  1
  O  O88  1  0.18972663  0.02554783  0.58546534  1
  O  O89  1  0.83610775  0.81649045  0.58669694  1
  O  O90  1  0.98888034  0.82776035  0.08530796  1
  O  O91  1  0.83469944  0.02130856  0.08567250  1
  O  O92  1  0.19132345  0.16257596  0.08313617  1
  O  O93  1  0.68582632  0.15162840  0.75051920  1
  O  O94  1  0.48150831  0.35415314  0.74781387  1
  O  O95  1  0.85960400  0.53622044  0.74564397  1
  O  O96  1  0.67442834  0.53927223  0.24501012  1
  O  O97  1  0.85526569  0.33029062  0.24728473  1
  O  O98  1  0.48193720  0.13700076  0.24740509  1
  O  O99  1  0.65369359  0.51031554  0.91829593  1
  O  O100  1  0.85184679  0.35775622  0.91509990  1
  O  O101  1  0.52160645  0.15580847  0.92295050  1
  O  O102  1  0.65525687  0.16164151  0.41815204  1
  O  O103  1  0.49807837  0.35467360  0.41833424  1
  O  O104  1  0.85525587  0.49408568  0.41656067  1
  O  O105  1  0.33375387  0.46576222  0.07907907  1
  O  O106  1  0.14436988  0.66962484  0.08447085  1
  O  O107  1  0.53019178  0.86760652  0.07926336  1
  O  O108  1  0.33845338  0.87036707  0.57742933  1
  O  O109  1  0.52194977  0.66612562  0.58147835  1
  O  O110  1  0.14849254  0.47311641  0.58135244  1
  O  O111  1  0.31390267  0.82263452  0.25027283  1
  O  O112  1  0.52622688  0.69497414  0.25222593  1
  O  O113  1  0.16949692  0.48414871  0.25559842  1
  O  O114  1  0.29864731  0.48642420  0.75185291  1
  O  O115  1  0.15958549  0.68150469  0.75187674  1
  O  O116  1  0.51579947  0.82882367  0.75336570  1
