# generated using pymatgen
data_Ca2Ta4P6(SO12)3
_symmetry_space_group_name_H-M   'P 1'
_cell_length_a   8.92442610
_cell_length_b   8.92442580
_cell_length_c   22.84867067
_cell_angle_alpha   90.00000000
_cell_angle_beta   90.00000000
_cell_angle_gamma   120.00000111
_symmetry_Int_Tables_number   1
_chemical_formula_structural   Ca2Ta4P6(SO12)3
_chemical_formula_sum   'Ca4 Ta8 P12 S6 O72'
_cell_volume   1575.98523913
_cell_formula_units_Z   2
loop_
 _symmetry_equiv_pos_site_id
 _symmetry_equiv_pos_as_xyz
  1  'x, y, z'
loop_
 _atom_site_type_symbol
 _atom_site_label
 _atom_site_symmetry_multiplicity
 _atom_site_fract_x
 _atom_site_fract_y
 _atom_site_fract_z
 _atom_site_occupancy
  Ca  Ca0  1  0.00000000  -0.00000000  0.36358233  1
  Ca  Ca1  1  0.00000000  -0.00000000  0.86358233  1
  Ca  Ca2  1  0.66666700  0.33333300  0.68539190  1
  Ca  Ca3  1  0.66666700  0.33333300  0.18539190  1
  Ta  Ta4  1  0.00000000  -0.00000000  0.64120213  1
  Ta  Ta5  1  0.00000000  -0.00000000  0.14120213  1
  Ta  Ta6  1  0.66666700  0.33333300  0.97787828  1
  Ta  Ta7  1  0.66666700  0.33333300  0.47787828  1
  Ta  Ta8  1  0.33333300  0.66666700  0.02267729  1
  Ta  Ta9  1  0.33333300  0.66666700  0.52267729  1
  Ta  Ta10  1  0.33333300  0.66666700  0.31305525  1
  Ta  Ta11  1  0.33333300  0.66666700  0.81305525  1
  P  P12  1  0.95738251  0.33266099  0.58231356  1
  P  P13  1  0.37527948  0.04261749  0.58231356  1
  P  P14  1  0.66733901  0.62472052  0.58231356  1
  P  P15  1  0.95738251  0.62472052  0.08231356  1
  P  P16  1  0.66733901  0.04261749  0.08231356  1
  P  P17  1  0.37527948  0.33266099  0.08231356  1
  P  P18  1  0.60738876  0.65282728  0.91816518  1
  P  P19  1  0.04543752  0.39261124  0.91816518  1
  P  P20  1  0.34717272  0.95456248  0.91816518  1
  P  P21  1  0.60738876  0.95456248  0.41816518  1
  P  P22  1  0.34717272  0.39261124  0.41816518  1
  P  P23  1  0.04543752  0.65282728  0.41816518  1
  S  S24  1  0.28143031  0.98876226  0.25039818  1
  S  S25  1  0.70733195  0.71856969  0.25039818  1
  S  S26  1  0.01123774  0.29266805  0.25039818  1
  S  S27  1  0.28143031  0.29266805  0.75039818  1
  S  S28  1  0.01123774  0.71856969  0.75039818  1
  S  S29  1  0.70733195  0.98876226  0.75039818  1
  O  O30  1  0.20331517  0.01264715  0.30179436  1
  O  O31  1  0.80933198  0.79668483  0.30179436  1
  O  O32  1  0.98735285  0.19066802  0.30179436  1
  O  O33  1  0.20331517  0.19066802  0.80179436  1
  O  O34  1  0.98735285  0.79668483  0.80179436  1
  O  O35  1  0.80933198  0.01264715  0.80179436  1
  O  O36  1  0.79474245  0.96259575  0.69658775  1
  O  O37  1  0.16785330  0.20525755  0.69658775  1
  O  O38  1  0.03740425  0.83214670  0.69658775  1
  O  O39  1  0.79474245  0.83214670  0.19658775  1
  O  O40  1  0.03740425  0.20525755  0.19658775  1
  O  O41  1  0.16785330  0.96259575  0.19658775  1
  O  O42  1  0.89897493  0.37725736  0.63694249  1
  O  O43  1  0.47828343  0.10102507  0.63694249  1
  O  O44  1  0.62274264  0.52171657  0.63694249  1
  O  O45  1  0.89897493  0.52171657  0.13694249  1
  O  O46  1  0.62274264  0.10102507  0.13694249  1
  O  O47  1  0.47828343  0.37725736  0.13694249  1
  O  O48  1  0.46405281  0.29741549  0.02911309  1
  O  O49  1  0.83336368  0.53594719  0.02911309  1
  O  O50  1  0.70258451  0.16663632  0.02911309  1
  O  O51  1  0.46405281  0.16663632  0.52911309  1
  O  O52  1  0.70258451  0.53594719  0.52911309  1
  O  O53  1  0.83336368  0.29741549  0.52911309  1
  O  O54  1  0.50897206  0.66804250  0.97108382  1
  O  O55  1  0.15906944  0.49102794  0.97108382  1
  O  O56  1  0.33195750  0.84093056  0.97108382  1
  O  O57  1  0.50897206  0.84093056  0.47108382  1
  O  O58  1  0.33195750  0.49102794  0.47108382  1
  O  O59  1  0.15906944  0.66804250  0.47108382  1
  O  O60  1  0.13528130  0.62521649  0.36213682  1
  O  O61  1  0.48993419  0.86471870  0.36213682  1
  O  O62  1  0.37478351  0.51006581  0.36213682  1
  O  O63  1  0.13528130  0.51006581  0.86213682  1
  O  O64  1  0.37478351  0.86471870  0.86213682  1
  O  O65  1  0.48993419  0.62521649  0.86213682  1
  O  O66  1  0.02674252  0.80763080  0.41383699  1
  O  O67  1  0.78088828  0.97325748  0.41383699  1
  O  O68  1  0.19236920  0.21911172  0.41383699  1
  O  O69  1  0.02674252  0.21911172  0.91383699  1
  O  O70  1  0.19236920  0.97325748  0.91383699  1
  O  O71  1  0.78088828  0.80763080  0.91383699  1
  O  O72  1  0.97477075  0.16511986  0.59340287  1
  O  O73  1  0.19034911  0.02522925  0.59340287  1
  O  O74  1  0.83488014  0.80965089  0.59340287  1
  O  O75  1  0.97477075  0.80965089  0.09340287  1
  O  O76  1  0.83488014  0.02522925  0.09340287  1
  O  O77  1  0.19034911  0.16511986  0.09340287  1
  O  O78  1  0.67428820  0.12939820  0.74097713  1
  O  O79  1  0.45511100  0.32571180  0.74097713  1
  O  O80  1  0.87060180  0.54488900  0.74097713  1
  O  O81  1  0.67428820  0.54488900  0.24097713  1
  O  O82  1  0.87060180  0.32571180  0.24097713  1
  O  O83  1  0.45511100  0.12939820  0.24097713  1
  O  O84  1  0.61655009  0.48354283  0.92831788  1
  O  O85  1  0.86699374  0.38344991  0.92831788  1
  O  O86  1  0.51645717  0.13300626  0.92831788  1
  O  O87  1  0.61655009  0.13300626  0.42831788  1
  O  O88  1  0.51645717  0.38344991  0.42831788  1
  O  O89  1  0.86699374  0.48354283  0.42831788  1
  O  O90  1  0.33601816  0.47891810  0.06617733  1
  O  O91  1  0.14289894  0.66398184  0.06617733  1
  O  O92  1  0.52108190  0.85710106  0.06617733  1
  O  O93  1  0.33601816  0.85710106  0.56617733  1
  O  O94  1  0.52108190  0.66398184  0.56617733  1
  O  O95  1  0.14289894  0.47891810  0.56617733  1
  O  O96  1  0.28910870  0.82126897  0.25749014  1
  O  O97  1  0.53215927  0.71089130  0.25749014  1
  O  O98  1  0.17873103  0.46784073  0.25749014  1
  O  O99  1  0.28910870  0.46784073  0.75749014  1
  O  O100  1  0.17873103  0.71089130  0.75749014  1
  O  O101  1  0.53215927  0.82126897  0.75749014  1
