# generated using pymatgen
data_Na5Nb3Si6SnO24
_symmetry_space_group_name_H-M   'P 1'
_cell_length_a   9.05445201
_cell_length_b   9.04472657
_cell_length_c   22.63934135
_cell_angle_alpha   90.27983540
_cell_angle_beta   89.78263523
_cell_angle_gamma   120.15231772
_symmetry_Int_Tables_number   1
_chemical_formula_structural   Na5Nb3Si6SnO24
_chemical_formula_sum   'Na15 Nb9 Si18 Sn3 O72'
_cell_volume   1603.16308446
_cell_formula_units_Z   3
loop_
 _symmetry_equiv_pos_site_id
 _symmetry_equiv_pos_as_xyz
  1  'x, y, z'
loop_
 _atom_site_type_symbol
 _atom_site_label
 _atom_site_symmetry_multiplicity
 _atom_site_fract_x
 _atom_site_fract_y
 _atom_site_fract_z
 _atom_site_occupancy
  Na  Na0  1  0.36689287  0.36351011  0.24792126  1
  Na  Na1  1  0.99346733  0.63154699  0.24786265  1
  Na  Na2  1  0.63528302  0.63052555  0.74849971  1
  Na  Na3  1  0.99958477  0.36851025  0.74912585  1
  Na  Na4  1  0.03275226  0.69765053  0.58430746  1
  Na  Na5  1  0.30427197  0.96885544  0.08430965  1
  Na  Na6  1  0.70015165  0.03374225  0.91808004  1
  Na  Na7  1  0.96842707  0.29753373  0.41439953  1
  Na  Na8  1  0.33215496  0.03467278  0.41515598  1
  Na  Na9  1  0.99110126  0.99792182  0.49919238  1
  Na  Na10  1  0.00037815  0.00004531  0.00082928  1
  Na  Na11  1  0.65739765  0.33145243  0.83375584  1
  Na  Na12  1  0.66703316  0.33294820  0.32986971  1
  Na  Na13  1  0.34243171  0.66803947  0.16448345  1
  Na  Na14  1  0.34275820  0.67666249  0.66529719  1
  Nb  Nb15  1  0.00505055  0.00012893  0.85507852  1
  Nb  Nb16  1  0.00076602  0.00415399  0.64400029  1
  Nb  Nb17  1  0.99384853  0.99966655  0.14444232  1
  Nb  Nb18  1  0.66806618  0.33879459  0.97926027  1
  Nb  Nb19  1  0.66605042  0.33658665  0.48005895  1
  Nb  Nb20  1  0.33232314  0.66164439  0.02130801  1
  Nb  Nb21  1  0.33784815  0.66697667  0.52131748  1
  Nb  Nb22  1  0.33685200  0.67021168  0.31117543  1
  Nb  Nb23  1  0.33321016  0.67031143  0.81310397  1
  Si  Si24  1  0.29046819  0.00189701  0.24985354  1
  Si  Si25  1  0.71110057  0.71092492  0.24987716  1
  Si  Si26  1  0.99449815  0.28609907  0.25138520  1
  Si  Si27  1  0.29168115  0.28753191  0.74993930  1
  Si  Si28  1  0.00276660  0.71319511  0.74849560  1
  Si  Si29  1  0.71101109  0.00094712  0.75058404  1
  Si  Si30  1  0.95478539  0.33170168  0.58378659  1
  Si  Si31  1  0.37799919  0.04408055  0.58366869  1
  Si  Si32  1  0.66278398  0.62203055  0.58591750  1
  Si  Si33  1  0.95668368  0.62282362  0.08469381  1
  Si  Si34  1  0.66884931  0.04551413  0.08184488  1
  Si  Si35  1  0.37837695  0.33551782  0.08485315  1
  Si  Si36  1  0.62098110  0.66309959  0.91588598  1
  Si  Si37  1  0.04297535  0.37754708  0.91612579  1
  Si  Si38  1  0.33129089  0.95621380  0.91863432  1
  Si  Si39  1  0.62567155  0.95479462  0.41685965  1
  Si  Si40  1  0.33565004  0.37892086  0.41563135  1
  Si  Si41  1  0.04319271  0.66759155  0.41676999  1
  Sn  Sn42  1  0.99600589  0.99589085  0.35311553  1
  Sn  Sn43  1  0.66214013  0.32828821  0.68675042  1
  Sn  Sn44  1  0.66654889  0.32962302  0.18519557  1
  O  O45  1  0.21422599  0.03944788  0.31007736  1
  O  O46  1  0.83281539  0.78707621  0.30714689  1
  O  O47  1  0.96823535  0.18183276  0.31239507  1
  O  O48  1  0.19172932  0.16810516  0.80705430  1
  O  O49  1  0.97114741  0.80804824  0.80497504  1
  O  O50  1  0.82949959  0.02867214  0.80894246  1
  O  O51  1  0.80550773  0.96726343  0.69378673  1
  O  O52  1  0.16472370  0.19475972  0.69321260  1
  O  O53  1  0.02874013  0.82826108  0.68953091  1
  O  O54  1  0.80497356  0.83315953  0.19258818  1
  O  O55  1  0.03149825  0.19313123  0.19541709  1
  O  O56  1  0.16679363  0.96630140  0.19237014  1
  O  O57  1  0.88207741  0.37817782  0.64270095  1
  O  O58  1  0.49445812  0.12163864  0.64135815  1
  O  O59  1  0.63182409  0.51387910  0.64593088  1
  O  O60  1  0.88267507  0.51430003  0.14510039  1
  O  O61  1  0.61789866  0.11993412  0.13892421  1
  O  O62  1  0.48668596  0.36954129  0.14529471  1
  O  O63  1  0.47438787  0.30215904  0.02844690  1
  O  O64  1  0.83314714  0.52474253  0.02793089  1
  O  O65  1  0.69495814  0.16111908  0.02278587  1
  O  O66  1  0.46830237  0.16179032  0.52426095  1
  O  O67  1  0.69555511  0.52480208  0.52893494  1
  O  O68  1  0.83518792  0.30559208  0.52511120  1
  O  O69  1  0.52724563  0.69889997  0.97150737  1
  O  O70  1  0.16625957  0.47425454  0.97242621  1
  O  O71  1  0.30530560  0.83997113  0.97663627  1
  O  O72  1  0.52598834  0.83537439  0.47340794  1
  O  O73  1  0.30427057  0.47395156  0.47151669  1
  O  O74  1  0.16273317  0.69464915  0.47422726  1
  O  O75  1  0.13322281  0.63403322  0.35839164  1
  O  O76  1  0.49781615  0.86146053  0.36004928  1
  O  O77  1  0.36117605  0.49554779  0.35671738  1
  O  O78  1  0.13545932  0.49410657  0.85693484  1
  O  O79  1  0.36186131  0.85882901  0.86121999  1
  O  O80  1  0.50439742  0.63871796  0.85644065  1
  O  O81  1  0.03585991  0.84334112  0.41315896  1
  O  O82  1  0.81740866  0.98442806  0.41390448  1
  O  O83  1  0.16384596  0.18950098  0.41319181  1
  O  O84  1  0.01750146  0.18465915  0.91049327  1
  O  O85  1  0.16234155  0.97440716  0.90975421  1
  O  O86  1  0.80646288  0.83986655  0.90933948  1
  O  O87  1  0.97321100  0.16143297  0.58942486  1
  O  O88  1  0.18454553  0.01912931  0.58872085  1
  O  O89  1  0.84117110  0.80826750  0.58849207  1
  O  O90  1  0.98289349  0.81686107  0.08829679  1
  O  O91  1  0.83862725  0.02691473  0.08905148  1
  O  O92  1  0.19155029  0.15793033  0.08913172  1
  O  O93  1  0.70438654  0.17698240  0.74629299  1
  O  O94  1  0.48407077  0.31763852  0.74770701  1
  O  O95  1  0.83033883  0.52310147  0.74644715  1
  O  O96  1  0.68614487  0.51898121  0.24441471  1
  O  O97  1  0.83627454  0.32226470  0.24575291  1
  O  O98  1  0.47766328  0.17450705  0.24527859  1
  O  O99  1  0.64009331  0.49518732  0.92299525  1
  O  O100  1  0.85188993  0.35234991  0.92204594  1
  O  O101  1  0.50737583  0.14100221  0.92218349  1
  O  O102  1  0.63764127  0.14295763  0.42255196  1
  O  O103  1  0.50268368  0.35464083  0.42285132  1
  O  O104  1  0.85809155  0.49064681  0.42285227  1
  O  O105  1  0.35484536  0.50158276  0.07491214  1
  O  O106  1  0.15077155  0.65251949  0.07590823  1
  O  O107  1  0.49622595  0.85525721  0.07433249  1
  O  O108  1  0.34504771  0.84899291  0.57548943  1
  O  O109  1  0.49765896  0.64518935  0.57571266  1
  O  O110  1  0.14197015  0.50422252  0.57458623  1
  O  O111  1  0.29889096  0.82407312  0.25640931  1
  O  O112  1  0.51849469  0.68819267  0.25555207  1
  O  O113  1  0.17310428  0.47755647  0.25549880  1
  O  O114  1  0.30394356  0.47594144  0.75563557  1
  O  O115  1  0.16873620  0.68741283  0.75611974  1
  O  O116  1  0.52522438  0.82417122  0.75572119  1
