# generated using pymatgen
data_K6Sn3As5
_symmetry_space_group_name_H-M   'P 1'
_cell_length_a   10.76960902
_cell_length_b   10.99539044
_cell_length_c   14.87310834
_cell_angle_alpha   90.00000000
_cell_angle_beta   90.00000000
_cell_angle_gamma   90.00000000
_symmetry_Int_Tables_number   1
_chemical_formula_structural   K6Sn3As5
_chemical_formula_sum   'K24 Sn12 As20'
_cell_volume   1761.21483099
_cell_formula_units_Z   4
loop_
 _symmetry_equiv_pos_site_id
 _symmetry_equiv_pos_as_xyz
  1  'x, y, z'
loop_
 _atom_site_type_symbol
 _atom_site_label
 _atom_site_symmetry_multiplicity
 _atom_site_fract_x
 _atom_site_fract_y
 _atom_site_fract_z
 _atom_site_occupancy
  K  K0  1  0.79200168  0.89512664  0.85269131  1
  K  K1  1  0.29200168  0.10487336  0.64730869  1
  K  K2  1  0.20799832  0.89512664  0.14730869  1
  K  K3  1  0.70799832  0.10487336  0.35269131  1
  K  K4  1  0.70799832  0.10487336  0.64730869  1
  K  K5  1  0.20799832  0.89512664  0.85269131  1
  K  K6  1  0.29200168  0.10487336  0.35269131  1
  K  K7  1  0.79200168  0.89512664  0.14730869  1
  K  K8  1  -0.00000000  0.58850030  0.78050755  1
  K  K9  1  0.50000000  0.41149970  0.71949245  1
  K  K10  1  -0.00000000  0.58850030  0.21949245  1
  K  K11  1  0.50000000  0.41149970  0.28050755  1
  K  K12  1  0.79781961  0.29979533  0.14863121  1
  K  K13  1  0.29781961  0.70020467  0.35136879  1
  K  K14  1  0.20218039  0.29979533  0.85136879  1
  K  K15  1  0.70218039  0.70020467  0.64863121  1
  K  K16  1  0.70218039  0.70020467  0.35136879  1
  K  K17  1  0.20218039  0.29979533  0.14863121  1
  K  K18  1  0.29781961  0.70020467  0.64863121  1
  K  K19  1  0.79781961  0.29979533  0.85136879  1
  K  K20  1  -0.00000000  0.09898415  -0.00000000  1
  K  K21  1  0.50000000  0.90101585  0.50000000  1
  K  K22  1  0.50000000  0.41725112  -0.00000000  1
  K  K23  1  -0.00000000  0.58274888  0.50000000  1
  Sn  Sn24  1  0.50000000  0.73255994  0.89769946  1
  Sn  Sn25  1  -0.00000000  0.26744006  0.60230054  1
  Sn  Sn26  1  0.50000000  0.73255994  0.10230054  1
  Sn  Sn27  1  -0.00000000  0.26744006  0.39769946  1
  Sn  Sn28  1  0.50000000  0.11973446  0.87416332  1
  Sn  Sn29  1  -0.00000000  0.88026554  0.62583668  1
  Sn  Sn30  1  0.50000000  0.11973446  0.12583668  1
  Sn  Sn31  1  0.66937243  0.39610467  0.50000000  1
  Sn  Sn32  1  0.16937243  0.60389533  -0.00000000  1
  Sn  Sn33  1  0.33062757  0.39610467  0.50000000  1
  Sn  Sn34  1  0.83062757  0.60389533  -0.00000000  1
  Sn  Sn35  1  -0.00000000  0.88026554  0.37416332  1
  As  As36  1  -0.00000000  0.09007135  0.72621474  1
  As  As37  1  0.50000000  0.90992865  0.22621474  1
  As  As38  1  -0.00000000  0.09007135  0.27378526  1
  As  As39  1  0.69231002  0.59204710  0.85621275  1
  As  As40  1  0.50000000  0.90992865  0.77378526  1
  As  As41  1  0.19231002  0.40795290  0.64378725  1
  As  As42  1  0.30768998  0.59204710  0.14378725  1
  As  As43  1  0.80768998  0.40795290  0.35621275  1
  As  As44  1  0.80768998  0.40795290  0.64378725  1
  As  As45  1  0.30768998  0.59204710  0.85621275  1
  As  As46  1  0.19231002  0.40795290  0.35621275  1
  As  As47  1  0.69231002  0.59204710  0.14378725  1
  As  As48  1  0.68140267  0.10076178  -0.00000000  1
  As  As49  1  0.18140267  0.89923822  0.50000000  1
  As  As50  1  0.31859733  0.10076178  -0.00000000  1
  As  As51  1  0.81859733  0.89923822  0.50000000  1
  As  As52  1  -0.00000000  0.78173253  -0.00000000  1
  As  As53  1  0.50000000  0.21826747  0.50000000  1
  As  As54  1  -0.00000000  0.42583489  -0.00000000  1
  As  As55  1  0.50000000  0.57416511  0.50000000  1
