# generated using pymatgen
data_Na4MgCr2O8
_symmetry_space_group_name_H-M   'P 1'
_cell_length_a   5.82261625
_cell_length_b   5.82261573
_cell_length_c   7.30562800
_cell_angle_alpha   90.00000000
_cell_angle_beta   90.00000000
_cell_angle_gamma   119.26246998
_symmetry_Int_Tables_number   1
_chemical_formula_structural   Na4MgCr2O8
_chemical_formula_sum   'Na4 Mg1 Cr2 O8'
_cell_volume   216.07491571
_cell_formula_units_Z   1
loop_
 _symmetry_equiv_pos_site_id
 _symmetry_equiv_pos_as_xyz
  1  'x, y, z'
loop_
 _atom_site_type_symbol
 _atom_site_label
 _atom_site_symmetry_multiplicity
 _atom_site_fract_x
 _atom_site_fract_y
 _atom_site_fract_z
 _atom_site_occupancy
  Na  Na0  1  0.19800200  0.80199800  0.75000000  1
  Na  Na1  1  0.80061900  0.19938100  0.25000000  1
  Na  Na2  1  0.44132900  0.55867100  0.47119300  1
  Na  Na3  1  0.44132900  0.55867100  0.02880700  1
  Mg  Mg4  1  0.63877100  0.36122900  0.75000000  1
  Cr  Cr5  1  0.90754400  0.09245600  0.75000000  1
  Cr  Cr6  1  0.11370600  0.88629400  0.25000000  1
  O  O7  1  0.21168600  0.78831400  0.06737600  1
  O  O8  1  0.78535200  0.21464800  0.56803800  1
  O  O9  1  0.78535200  0.21464800  0.93196200  1
  O  O10  1  0.21168600  0.78831400  0.43262400  1
  O  O11  1  0.26379100  0.24851900  0.75000000  1
  O  O12  1  0.78478000  0.75209500  0.25000000  1
  O  O13  1  0.75148200  0.73620900  0.75000000  1
  O  O14  1  0.24790500  0.21522000  0.25000000  1
