# generated using pymatgen
data_Na3ScSi3Sn3(SO8)3
_symmetry_space_group_name_H-M   'P 1'
_cell_length_a   8.89387452
_cell_length_b   8.90837979
_cell_length_c   23.02328788
_cell_angle_alpha   89.71516806
_cell_angle_beta   90.25178190
_cell_angle_gamma   120.16335448
_symmetry_Int_Tables_number   1
_chemical_formula_structural   Na3ScSi3Sn3(SO8)3
_chemical_formula_sum   'Na9 Sc3 Si9 Sn9 S9 O72'
_cell_volume   1577.11750484
_cell_formula_units_Z   3
loop_
 _symmetry_equiv_pos_site_id
 _symmetry_equiv_pos_as_xyz
  1  'x, y, z'
loop_
 _atom_site_type_symbol
 _atom_site_label
 _atom_site_symmetry_multiplicity
 _atom_site_fract_x
 _atom_site_fract_y
 _atom_site_fract_z
 _atom_site_occupancy
  Na  Na0  1  0.35762185  0.35934959  0.24402789  1
  Na  Na1  1  0.63444656  0.62236642  0.75477857  1
  Na  Na2  1  0.96831978  0.28894314  0.41741022  1
  Na  Na3  1  0.99626020  0.00741499  0.49739434  1
  Na  Na4  1  0.00007838  0.99046133  0.00437624  1
  Na  Na5  1  0.66151842  0.34128909  0.83158685  1
  Na  Na6  1  0.66668610  0.31968052  0.33133026  1
  Na  Na7  1  0.31376861  0.65483690  0.16237218  1
  Na  Na8  1  0.30029729  0.64589920  0.66746564  1
  Sc  Sc9  1  0.99346737  0.00963205  0.35525471  1
  Sc  Sc10  1  0.68120729  0.34094658  0.68753252  1
  Sc  Sc11  1  0.68919653  0.34776893  0.18181522  1
  Si  Si12  1  0.99618128  0.29613461  0.25207631  1
  Si  Si13  1  0.29306133  0.28995024  0.75201768  1
  Si  Si14  1  0.00587460  0.71463813  0.74883491  1
  Si  Si15  1  0.96162852  0.33273063  0.58263933  1
  Si  Si16  1  0.96886472  0.63624495  0.08260578  1
  Si  Si17  1  0.37430816  0.33129829  0.08646833  1
  Si  Si18  1  0.62724887  0.67330843  0.91505520  1
  Si  Si19  1  0.61755839  0.95087662  0.41760228  1
  Si  Si20  1  0.34018067  0.37149328  0.41678317  1
  Sn  Sn21  1  0.00115286  0.99052725  0.85205239  1
  Sn  Sn22  1  0.01306690  0.01578788  0.64837125  1
  Sn  Sn23  1  0.01116393  0.01099299  0.14624611  1
  Sn  Sn24  1  0.66245787  0.35852654  0.98434598  1
  Sn  Sn25  1  0.66121380  0.31815407  0.48102412  1
  Sn  Sn26  1  0.33925032  0.65930631  0.02192575  1
  Sn  Sn27  1  0.33100420  0.65347230  0.51810968  1
  Sn  Sn28  1  0.33745968  0.66209490  0.31634756  1
  Sn  Sn29  1  0.32224235  0.65426135  0.81412476  1
  S  S30  1  0.29016833  0.99327065  0.25169079  1
  S  S31  1  0.71090191  0.71207736  0.25018509  1
  S  S32  1  0.70803607  0.00019394  0.75060600  1
  S  S33  1  0.37145463  0.03566046  0.58397278  1
  S  S34  1  0.66989905  0.62834824  0.58420981  1
  S  S35  1  0.66693695  0.04619997  0.08167237  1
  S  S36  1  0.03159703  0.36729384  0.91759277  1
  S  S37  1  0.33917947  0.95932293  0.91775602  1
  S  S38  1  0.04138899  0.66849669  0.41732834  1
  O  O39  1  0.20280555  0.01316488  0.30231222  1
  O  O40  1  0.81335861  0.79237594  0.30171619  1
  O  O41  1  0.98120566  0.18949294  0.31108122  1
  O  O42  1  0.20252026  0.17767660  0.81114878  1
  O  O43  1  0.94998041  0.78534369  0.80574384  1
  O  O44  1  0.81538127  0.03108956  0.80351049  1
  O  O45  1  0.78327614  0.96297582  0.69862780  1
  O  O46  1  0.17206584  0.21879918  0.69402424  1
  O  O47  1  0.03185101  0.82949504  0.69001750  1
  O  O48  1  0.79140570  0.81470391  0.19647227  1
  O  O49  1  0.04352180  0.20809296  0.19642966  1
  O  O50  1  0.18471259  0.96152964  0.19737512  1
  O  O51  1  0.86589990  0.35534929  0.63783601  1
  O  O52  1  0.47419730  0.12075507  0.63526196  1
  O  O53  1  0.64376705  0.52476600  0.63695706  1
  O  O54  1  0.88813718  0.51242193  0.13856117  1
  O  O55  1  0.64381692  0.12536639  0.13340633  1
  O  O56  1  0.48105856  0.35280301  0.14567073  1
  O  O57  1  0.44785440  0.28776997  0.02682973  1
  O  O58  1  0.85872786  0.55700258  0.02208330  1
  O  O59  1  0.69500522  0.15055081  0.02764512  1
  O  O60  1  0.44519666  0.14228051  0.52989836  1
  O  O61  1  0.69042812  0.54531129  0.53135279  1
  O  O62  1  0.85494495  0.30911854  0.52097038  1
  O  O63  1  0.53522757  0.70284729  0.97110989  1
  O  O64  1  0.14114786  0.45028583  0.96899268  1
  O  O65  1  0.30866374  0.84979809  0.96946382  1
  O  O66  1  0.52888689  0.84148068  0.47695300  1
  O  O67  1  0.28216042  0.45008745  0.47095610  1
  O  O68  1  0.14789549  0.69912538  0.47039880  1
  O  O69  1  0.11634742  0.62959722  0.36536986  1
  O  O70  1  0.49570070  0.87324661  0.35952587  1
  O  O71  1  0.37521618  0.48300692  0.35605489  1
  O  O72  1  0.10408920  0.47653089  0.86414977  1
  O  O73  1  0.35757802  0.87797559  0.86385834  1
  O  O74  1  0.51549881  0.64600218  0.85502340  1
  O  O75  1  0.02097116  0.81850493  0.40905359  1
  O  O76  1  0.80944745  0.97135156  0.41388402  1
  O  O77  1  0.16925434  0.17985901  0.41181054  1
  O  O78  1  0.02170508  0.19723109  0.91092902  1
  O  O79  1  0.18372795  0.98210298  0.91359653  1
  O  O80  1  0.82160667  0.85111035  0.91219665  1
  O  O81  1  0.97650940  0.15371205  0.58607680  1
  O  O82  1  0.19265549  0.01247689  0.58613477  1
  O  O83  1  0.82790734  0.80391538  0.58824235  1
  O  O84  1  0.97142740  0.82046233  0.09141006  1
  O  O85  1  0.82036350  0.02138188  0.08717774  1
  O  O86  1  0.17623156  0.16357139  0.08588051  1
  O  O87  1  0.68635051  0.15070748  0.74360217  1
  O  O88  1  0.48501594  0.31359020  0.74529384  1
  O  O89  1  0.83438505  0.52284524  0.74363648  1
  O  O90  1  0.68098818  0.53275684  0.24589136  1
  O  O91  1  0.82478289  0.31307315  0.24675981  1
  O  O92  1  0.46107042  0.15387992  0.24601340  1
  O  O93  1  0.64319080  0.49594566  0.91775405  1
  O  O94  1  0.85387314  0.34161075  0.92380970  1
  O  O95  1  0.50094547  0.13148878  0.92240060  1
  O  O96  1  0.65421407  0.15295413  0.42005318  1
  O  O97  1  0.52137964  0.36991745  0.42643946  1
  O  O98  1  0.86860055  0.50678556  0.42342375  1
  O  O99  1  0.36567105  0.51110180  0.08069751  1
  O  O100  1  0.16546406  0.66489602  0.07426552  1
  O  O101  1  0.50772242  0.87228863  0.07676845  1
  O  O102  1  0.35763177  0.86320334  0.57820392  1
  O  O103  1  0.51274188  0.64809662  0.57983341  1
  O  O104  1  0.15540296  0.51289452  0.57884731  1
  O  O105  1  0.31152594  0.83755903  0.25591375  1
  O  O106  1  0.53316001  0.69593359  0.25249497  1
  O  O107  1  0.18254785  0.49066321  0.25500225  1
  O  O108  1  0.32413364  0.49048079  0.75530055  1
  O  O109  1  0.18442041  0.70575241  0.75744194  1
  O  O110  1  0.53512648  0.83979073  0.75664916  1
