# generated using pymatgen
data_KMgMn2(MoO5)2
_symmetry_space_group_name_H-M   'P 1'
_cell_length_a   6.18215006
_cell_length_b   6.14264579
_cell_length_c   8.54189263
_cell_angle_alpha   63.54028158
_cell_angle_beta   63.15785081
_cell_angle_gamma   64.45114863
_symmetry_Int_Tables_number   1
_chemical_formula_structural   KMgMn2(MoO5)2
_chemical_formula_sum   'K1 Mg1 Mn2 Mo2 O10'
_cell_volume   248.12580753
_cell_formula_units_Z   1
loop_
 _symmetry_equiv_pos_site_id
 _symmetry_equiv_pos_as_xyz
  1  'x, y, z'
loop_
 _atom_site_type_symbol
 _atom_site_label
 _atom_site_symmetry_multiplicity
 _atom_site_fract_x
 _atom_site_fract_y
 _atom_site_fract_z
 _atom_site_occupancy
  K  K0  1  0.49386400  0.50812600  0.52796900  1
  Mg  Mg1  1  0.45428600  0.45000800  0.14961300  1
  Mn  Mn2  1  0.99364400  0.49728900  0.00640700  1
  Mn  Mn3  1  0.49328600  0.01014000  0.98855500  1
  Mo  Mo4  1  0.10050000  0.09142900  0.71567400  1
  Mo  Mo5  1  0.90136100  0.90061600  0.29310800  1
  O  O6  1  0.68534200  0.66333800  0.95609900  1
  O  O7  1  0.28833100  0.31561800  0.08269500  1
  O  O8  1  0.26194800  0.22128700  0.47781200  1
  O  O9  1  0.76092900  0.77931600  0.52889600  1
  O  O10  1  0.78416200  0.25338200  0.22555200  1
  O  O11  1  0.76628100  0.20598200  0.76011500  1
  O  O12  1  0.17663500  0.74822400  0.78532100  1
  O  O13  1  0.24341300  0.76424900  0.24024800  1
  O  O14  1  0.18335900  0.18376000  0.85388600  1
  O  O15  1  0.79807700  0.79265300  0.18148800  1
