# generated using pymatgen
data_MgV2CoO6
_symmetry_space_group_name_H-M   'P 1'
_cell_length_a   5.64640898
_cell_length_b   5.79983707
_cell_length_c   5.76966791
_cell_angle_alpha   52.27590543
_cell_angle_beta   52.44494603
_cell_angle_gamma   52.44466398
_symmetry_Int_Tables_number   1
_chemical_formula_structural   MgV2CoO6
_chemical_formula_sum   'Mg1 V2 Co1 O6'
_cell_volume   109.72296156
_cell_formula_units_Z   1
loop_
 _symmetry_equiv_pos_site_id
 _symmetry_equiv_pos_as_xyz
  1  'x, y, z'
loop_
 _atom_site_type_symbol
 _atom_site_label
 _atom_site_symmetry_multiplicity
 _atom_site_fract_x
 _atom_site_fract_y
 _atom_site_fract_z
 _atom_site_occupancy
  Mg  Mg0  1  0.84468200  0.83872200  0.83665700  1
  V  V1  1  0.01041000  0.02207600  0.03124000  1
  V  V2  1  0.50968000  0.48806100  0.50288500  1
  Co  Co3  1  0.66867000  0.67807500  0.67631500  1
  O  O4  1  0.11017700  0.75580700  0.42065700  1
  O  O5  1  0.40774100  0.10065300  0.76502400  1
  O  O6  1  0.76054600  0.41988400  0.09505700  1
  O  O7  1  0.26042700  0.66457200  0.85073100  1
  O  O8  1  0.68358900  0.88075100  0.23699900  1
  O  O9  1  0.84487800  0.27125100  0.63443300  1
