# generated using pymatgen
data_MgFe4(CuO4)2
_symmetry_space_group_name_H-M   'P 1'
_cell_length_a   6.23094893
_cell_length_b   6.23054386
_cell_length_c   6.19890471
_cell_angle_alpha   119.76236168
_cell_angle_beta   119.77059874
_cell_angle_gamma   87.97138087
_symmetry_Int_Tables_number   1
_chemical_formula_structural   MgFe4(CuO4)2
_chemical_formula_sum   'Mg1 Fe4 Cu2 O8'
_cell_volume   174.07860817
_cell_formula_units_Z   1
loop_
 _symmetry_equiv_pos_site_id
 _symmetry_equiv_pos_as_xyz
  1  'x, y, z'
loop_
 _atom_site_type_symbol
 _atom_site_label
 _atom_site_symmetry_multiplicity
 _atom_site_fract_x
 _atom_site_fract_y
 _atom_site_fract_z
 _atom_site_occupancy
  Mg  Mg0  1  0.83583226  0.16416541  0.99993719  1
  Fe  Fe1  1  0.86609163  0.67265940  0.26937638  1
  Fe  Fe2  1  0.32733867  0.13389233  0.73066561  1
  Fe  Fe3  1  0.38070344  0.61927531  0.25480389  1
  Fe  Fe4  1  0.38062445  0.61937083  0.74519865  1
  Cu  Cu5  1  0.12411081  0.87584332  -0.00000932  1
  Cu  Cu6  1  0.67757211  0.32259789  0.50008856  1
  O  O7  1  0.62782129  0.37179238  0.20379170  1
  O  O8  1  0.58238369  0.82635391  0.20401241  1
  O  O9  1  0.62817016  0.37223019  0.79621009  1
  O  O10  1  0.14272564  0.45037768  0.29675576  1
  O  O11  1  0.11226479  0.88823579  0.28989873  1
  O  O12  1  0.17361335  0.41758880  0.79603943  1
  O  O13  1  0.54960658  0.85728035  0.70317494  1
  O  O14  1  0.11197314  0.88750243  0.71005599  1
