# generated using pymatgen
data_MgZn2(CoO3)2
_symmetry_space_group_name_H-M   'P 1'
_cell_length_a   5.45201950
_cell_length_b   6.20429781
_cell_length_c   5.28680128
_cell_angle_alpha   122.06054315
_cell_angle_beta   56.11156404
_cell_angle_gamma   117.51010238
_symmetry_Int_Tables_number   1
_chemical_formula_structural   MgZn2(CoO3)2
_chemical_formula_sum   'Mg1 Zn2 Co2 O6'
_cell_volume   122.26175002
_cell_formula_units_Z   1
loop_
 _symmetry_equiv_pos_site_id
 _symmetry_equiv_pos_as_xyz
  1  'x, y, z'
loop_
 _atom_site_type_symbol
 _atom_site_label
 _atom_site_symmetry_multiplicity
 _atom_site_fract_x
 _atom_site_fract_y
 _atom_site_fract_z
 _atom_site_occupancy
  Mg  Mg0  1  0.50000000  0.50000000  0.50000000  1
  Zn  Zn1  1  0.33885034  0.93188012  0.31502932  1
  Zn  Zn2  1  0.66114966  0.06811988  0.68497068  1
  Co  Co3  1  0.06079565  0.34205181  0.14828173  1
  Co  Co4  1  0.93920435  0.65794819  0.85171827  1
  O  O5  1  0.05925629  0.31446247  0.49604398  1
  O  O6  1  0.38057010  0.25302316  0.74949320  1
  O  O7  1  0.70156913  0.20919825  0.10613342  1
  O  O8  1  0.29843087  0.79080175  0.89386658  1
  O  O9  1  0.61942890  0.74697684  0.25050680  1
  O  O10  1  0.94074371  0.68553753  0.50395502  1
