# generated using pymatgen
data_K2Na2MgNb2(OF5)2
_symmetry_space_group_name_H-M   'P 1'
_cell_length_a   6.38222009
_cell_length_b   6.38222009
_cell_length_c   9.18565088
_cell_angle_alpha   89.85796054
_cell_angle_beta   89.85796054
_cell_angle_gamma   98.56195815
_symmetry_Int_Tables_number   1
_chemical_formula_structural   K2Na2MgNb2(OF5)2
_chemical_formula_sum   'K2 Na2 Mg1 Nb2 O2 F10'
_cell_volume   369.98418701
_cell_formula_units_Z   1
loop_
 _symmetry_equiv_pos_site_id
 _symmetry_equiv_pos_as_xyz
  1  'x, y, z'
loop_
 _atom_site_type_symbol
 _atom_site_label
 _atom_site_symmetry_multiplicity
 _atom_site_fract_x
 _atom_site_fract_y
 _atom_site_fract_z
 _atom_site_occupancy
  K  K0  1  0.32006035  0.67993965  0.50000000  1
  K  K1  1  0.67993965  0.32006035  0.50000000  1
  Na  Na2  1  0.74543079  0.74543079  0.79055328  1
  Na  Na3  1  0.25456921  0.25456921  0.20944672  1
  Mg  Mg4  1  -0.00000000  0.00000000  0.50000000  1
  Nb  Nb5  1  0.74732367  0.74732367  0.22466365  1
  Nb  Nb6  1  0.25267633  0.25267633  0.77533635  1
  O  O7  1  0.75173155  0.75173155  0.03320134  1
  O  O8  1  0.24826845  0.24826845  0.96679866  1
  F  F9  1  0.77396917  0.77396917  0.50552217  1
  F  F10  1  0.22603083  0.22603083  0.49447783  1
  F  F11  1  0.95619533  0.54769001  0.29907444  1
  F  F12  1  0.50718815  0.50718815  0.28689358  1
  F  F13  1  0.99572918  0.99572918  0.29128549  1
  F  F14  1  0.54769001  0.95619533  0.29907444  1
  F  F15  1  0.04380467  0.45230999  0.70092556  1
  F  F16  1  0.49281185  0.49281185  0.71310642  1
  F  F17  1  0.00427082  0.00427082  0.70871451  1
  F  F18  1  0.45230999  0.04380467  0.70092556  1
