# generated using pymatgen
data_MgV6O5F19
_symmetry_space_group_name_H-M   'P 1'
_cell_length_a   5.38382400
_cell_length_b   5.34130676
_cell_length_c   15.55339001
_cell_angle_alpha   90.14019412
_cell_angle_beta   100.44785375
_cell_angle_gamma   90.21387604
_symmetry_Int_Tables_number   1
_chemical_formula_structural   MgV6O5F19
_chemical_formula_sum   'Mg1 V6 O5 F19'
_cell_volume   439.84272648
_cell_formula_units_Z   1
loop_
 _symmetry_equiv_pos_site_id
 _symmetry_equiv_pos_as_xyz
  1  'x, y, z'
loop_
 _atom_site_type_symbol
 _atom_site_label
 _atom_site_symmetry_multiplicity
 _atom_site_fract_x
 _atom_site_fract_y
 _atom_site_fract_z
 _atom_site_occupancy
  Mg  Mg0  1  0.98725800  0.75987200  0.48353200  1
  V  V1  1  0.98796700  0.98798400  0.00132000  1
  V  V2  1  0.17818600  0.49725000  0.32256800  1
  V  V3  1  0.34232100  0.00517400  0.67837700  1
  V  V4  1  0.45916300  0.47101100  0.99731300  1
  V  V5  1  0.65804900  0.05776800  0.31993400  1
  V  V6  1  0.82942700  0.44534900  0.67195200  1
  O  O7  1  0.04254400  0.22319100  0.65846200  1
  O  O8  1  0.20592200  0.29142100  0.97843100  1
  O  O9  1  0.37361500  0.20805100  0.31650700  1
  O  O10  1  0.55091200  0.28338200  0.65381300  1
  O  O11  1  0.86524300  0.28701700  0.30955700  1
  F  F12  1  0.12904800  0.72052200  0.68686800  1
  F  F13  1  0.05679400  0.08942300  0.11167400  1
  F  F14  1  0.18337900  0.47102000  0.44472100  1
  F  F15  1  0.39133100  0.07132700  0.79074400  1
  F  F16  1  0.11243900  0.58637300  0.21298100  1
  F  F17  1  0.25903000  0.93975700  0.55342400  1
  F  F18  1  0.46986700  0.58552400  0.89158100  1
  F  F19  1  0.68931500  0.20626500  0.97822200  1
  F  F20  1  0.29787500  0.77669100  0.02318100  1
  F  F21  1  0.47560000  0.69995400  0.34869100  1
  F  F22  1  0.62349000  0.78867000  0.68178700  1
  F  F23  1  0.56058600  0.42594800  0.11123000  1
  F  F24  1  0.74026000  0.03259800  0.44392900  1
  F  F25  1  0.88434700  0.46100200  0.78721200  1
  F  F26  1  0.61628400  0.91750800  0.21574200  1
  F  F27  1  0.79563200  0.57437200  0.55370400  1
  F  F28  1  0.96058200  0.93028600  0.88845000  1
  F  F29  1  0.80103300  0.70846500  0.02380600  1
  F  F30  1  0.97250100  0.79682800  0.35136200  1
