# generated using pymatgen
data_Na4LaYSi2SO12
_symmetry_space_group_name_H-M   'P 1'
_cell_length_a   9.64861570
_cell_length_b   9.63943729
_cell_length_c   23.77578741
_cell_angle_alpha   90.00972000
_cell_angle_beta   90.00323288
_cell_angle_gamma   119.85794123
_symmetry_Int_Tables_number   1
_chemical_formula_structural   Na4LaYSi2SO12
_chemical_formula_sum   'Na24 La6 Y6 Si12 S6 O72'
_cell_volume   1917.79474917
_cell_formula_units_Z   6
loop_
 _symmetry_equiv_pos_site_id
 _symmetry_equiv_pos_as_xyz
  1  'x, y, z'
loop_
 _atom_site_type_symbol
 _atom_site_label
 _atom_site_symmetry_multiplicity
 _atom_site_fract_x
 _atom_site_fract_y
 _atom_site_fract_z
 _atom_site_occupancy
  Na  Na0  1  0.66027616  0.99906411  0.25945079  1
  Na  Na1  1  0.36474148  0.38831896  0.23930826  1
  Na  Na2  1  0.98333372  0.61106285  0.25690635  1
  Na  Na3  1  0.61434304  0.63043408  0.73418034  1
  Na  Na4  1  0.99522437  0.33688142  0.75554937  1
  Na  Na5  1  0.39280601  0.02391126  0.75240333  1
  Na  Na6  1  0.33018989  0.33211534  0.59269461  1
  Na  Na7  1  0.03340897  0.72352702  0.57212842  1
  Na  Na8  1  0.65266516  0.94505588  0.59004276  1
  Na  Na9  1  0.27743936  0.96835593  0.07200410  1
  Na  Na10  1  0.66811648  0.67229368  0.09392278  1
  Na  Na11  1  0.05602805  0.34836835  0.09124683  1
  Na  Na12  1  0.99320770  0.66738590  0.92534786  1
  Na  Na13  1  0.69969908  0.05504597  0.90320327  1
  Na  Na14  1  0.31489356  0.27647889  0.92252036  1
  Na  Na15  1  0.94477757  0.30030305  0.40367226  1
  Na  Na16  1  0.33172899  0.00573261  0.42343271  1
  Na  Na17  1  0.72244963  0.68487320  0.42135422  1
  Na  Na18  1  0.98500743  0.96113828  0.50036668  1
  Na  Na19  1  0.03849432  0.01612124  0.99974241  1
  Na  Na20  1  0.65149246  0.29466894  0.83318022  1
  Na  Na21  1  0.70194200  0.34764737  0.33412812  1
  Na  Na22  1  0.31718645  0.62899738  0.16775325  1
  Na  Na23  1  0.37079506  0.68201363  0.66663046  1
  La  La24  1  0.00955192  0.01574405  0.84313036  1
  La  La25  1  0.99761719  0.99993093  0.15835693  1
  La  La26  1  0.66676435  0.33611028  0.98863301  1
  La  La27  1  0.31887709  0.65735301  0.01554141  1
  La  La28  1  0.34326420  0.68237599  0.51332916  1
  La  La29  1  0.33055768  0.66635687  0.81716588  1
  Y  Y30  1  0.98582641  0.99152905  0.34689808  1
  Y  Y31  1  0.00040737  0.00304328  0.64980362  1
  Y  Y32  1  0.65444112  0.32587311  0.67966728  1
  Y  Y33  1  0.67466749  0.34708737  0.18412398  1
  Y  Y34  1  0.66267995  0.33350731  0.48491921  1
  Y  Y35  1  0.33222099  0.66884033  0.32137271  1
  Si  Si36  1  0.68345665  0.68761518  0.25067894  1
  Si  Si37  1  0.00159596  0.31160169  0.25177090  1
  Si  Si38  1  0.31189091  0.30990012  0.74565519  1
  Si  Si39  1  0.69533115  0.00518594  0.74702565  1
  Si  Si40  1  0.35886228  0.03243436  0.58244161  1
  Si  Si41  1  0.67177454  0.63649632  0.58404726  1
  Si  Si42  1  0.97437947  0.64472127  0.08452173  1
  Si  Si43  1  0.36087167  0.33163170  0.08621047  1
  Si  Si44  1  0.01706188  0.35238163  0.91497085  1
  Si  Si45  1  0.33281025  0.97756838  0.91670699  1
  Si  Si46  1  0.64481329  0.98087801  0.41492209  1
  Si  Si47  1  0.02356114  0.66701294  0.41643200  1
  S  S48  1  0.31016926  0.00038265  0.25309646  1
  S  S49  1  0.99286671  0.69213013  0.74583640  1
  S  S50  1  0.95963115  0.32808218  0.58416503  1
  S  S51  1  0.66531244  0.03021970  0.08698932  1
  S  S52  1  0.64449936  0.66895567  0.91656140  1
  S  S53  1  0.33261927  0.35850125  0.41501370  1
  O  O54  1  0.22537081  0.02195173  0.30142565  1
  O  O55  1  0.80687438  0.78469662  0.30267074  1
  O  O56  1  0.98724919  0.19590680  0.30490033  1
  O  O57  1  0.23649515  0.20836986  0.80399699  1
  O  O58  1  0.97153520  0.75986307  0.79919722  1
  O  O59  1  0.78770155  0.01769233  0.80675576  1
  O  O60  1  0.79487514  0.98658533  0.69413508  1
  O  O61  1  0.19514189  0.20704424  0.69299015  1
  O  O62  1  0.00615502  0.79825397  0.69818852  1
  O  O63  1  0.75795311  0.79207620  0.19277720  1
  O  O64  1  0.03291037  0.23915725  0.19344368  1
  O  O65  1  0.21564895  0.97479210  0.20094183  1
  O  O66  1  0.88143461  0.34637743  0.63497327  1
  O  O67  1  0.46975077  0.12185792  0.63749463  1
  O  O68  1  0.66439189  0.53491358  0.64016748  1
  O  O69  1  0.87119305  0.52867091  0.13739611  1
  O  O70  1  0.65568616  0.12084466  0.13594486  1
  O  O71  1  0.46800740  0.33120525  0.14012967  1
  O  O72  1  0.43911805  0.31535946  0.02668304  1
  O  O73  1  0.88055490  0.56440584  0.02522034  1
  O  O74  1  0.67826065  0.11758223  0.03411310  1
  O  O75  1  0.45071673  0.13830060  0.52610710  1
  O  O76  1  0.68783024  0.54661675  0.52751536  1
  O  O77  1  0.86307556  0.31462235  0.53338266  1
  O  O78  1  0.56446881  0.68392255  0.96786025  1
  O  O79  1  0.12705937  0.44233670  0.97074327  1
  O  O80  1  0.32780005  0.87842334  0.97417878  1
  O  O81  1  0.56889795  0.87022467  0.47161869  1
  O  O82  1  0.30384740  0.42590041  0.46695039  1
  O  O83  1  0.12641343  0.68888436  0.47442421  1
  O  O84  1  0.11671765  0.64237400  0.36281867  1
  O  O85  1  0.52767742  0.88529870  0.36145703  1
  O  O86  1  0.35173557  0.46461253  0.36657663  1
  O  O87  1  0.10954095  0.45674869  0.85839057  1
  O  O88  1  0.34849577  0.88654002  0.86027281  1
  O  O89  1  0.54791124  0.65750761  0.86613940  1
  O  O90  1  0.01512757  0.83428318  0.41099250  1
  O  O91  1  0.82696706  0.00741786  0.40908827  1
  O  O92  1  0.19620337  0.19483471  0.40614062  1
  O  O93  1  0.99255030  0.17023784  0.91501579  1
  O  O94  1  0.16266698  0.98079045  0.91669294  1
  O  O95  1  0.80659980  0.80991590  0.91304717  1
  O  O96  1  0.96895356  0.17798378  0.58759104  1
  O  O97  1  0.18209509  0.02115877  0.58520166  1
  O  O98  1  0.83009215  0.81853570  0.58533001  1
  O  O99  1  0.99041831  0.82338134  0.08767560  1
  O  O100  1  0.81137127  0.01475301  0.09025713  1
  O  O101  1  0.17698973  0.17739322  0.08738545  1
  O  O102  1  0.69103587  0.17458366  0.74402153  1
  O  O103  1  0.49354065  0.33554662  0.74236407  1
  O  O104  1  0.85450121  0.52949784  0.73900561  1
  O  O105  1  0.66439214  0.50758789  0.24847940  1
  O  O106  1  0.83078734  0.31411676  0.24995368  1
  O  O107  1  0.47208266  0.14228184  0.24821970  1
  O  O108  1  0.65669918  0.52166369  0.91834011  1
  O  O109  1  0.84057389  0.34075690  0.91634497  1
  O  O110  1  0.48817444  0.16043340  0.91580169  1
  O  O111  1  0.65630237  0.15744720  0.41942707  1
  O  O112  1  0.48254226  0.34974822  0.41956989  1
  O  O113  1  0.84197867  0.50880804  0.41881423  1
  O  O114  1  0.36065799  0.50384780  0.08865815  1
  O  O115  1  0.15442093  0.66347990  0.08691882  1
  O  O116  1  0.52121837  0.86915592  0.08603434  1
  O  O117  1  0.33365980  0.84940360  0.58200498  1
  O  O118  1  0.50306409  0.64422955  0.58408404  1
  O  O119  1  0.12325415  0.46788419  0.58003736  1
  O  O120  1  0.32648315  0.85479496  0.26035720  1
  O  O121  1  0.50510707  0.66855623  0.25854383  1
  O  O122  1  0.15471167  0.49485607  0.25757679  1
  O  O123  1  0.32289451  0.48678299  0.74551977  1
  O  O124  1  0.14201005  0.68198740  0.74703928  1
  O  O125  1  0.51274587  0.84869745  0.74532644  1
