# generated using pymatgen
data_MnMoO4
_symmetry_space_group_name_H-M   'P 1'
_cell_length_a   4.79508831
_cell_length_b   5.03434051
_cell_length_c   5.80839954
_cell_angle_alpha   89.96642459
_cell_angle_beta   89.96433887
_cell_angle_gamma   90.55945115
_symmetry_Int_Tables_number   1
_chemical_formula_structural   MnMoO4
_chemical_formula_sum   'Mn2 Mo2 O8'
_cell_volume   140.20865247
_cell_formula_units_Z   2
loop_
 _symmetry_equiv_pos_site_id
 _symmetry_equiv_pos_as_xyz
  1  'x, y, z'
loop_
 _atom_site_type_symbol
 _atom_site_label
 _atom_site_symmetry_multiplicity
 _atom_site_fract_x
 _atom_site_fract_y
 _atom_site_fract_z
 _atom_site_occupancy
  Mn  Mn0  1  0.00010500  0.25010900  0.17771100  1
  Mn  Mn1  1  0.00119800  0.74937300  0.83413600  1
  Mo  Mo2  1  0.50031500  0.74994000  0.32032400  1
  Mo  Mo3  1  0.49983100  0.24951700  0.68086600  1
  O  O4  1  0.71008800  0.43802700  0.39415000  1
  O  O5  1  0.29007400  0.06211000  0.39415200  1
  O  O6  1  0.28110100  0.56267600  0.60715000  1
  O  O7  1  0.71832100  0.93731700  0.60803400  1
  O  O8  1  0.75609300  0.40435600  0.87037200  1
  O  O9  1  0.24279700  0.09655600  0.87146700  1
  O  O10  1  0.24504900  0.60724800  0.12111700  1
  O  O11  1  0.75502700  0.89276900  0.12052100  1
