# generated using pymatgen
data_Na2Y3NbP4(SO12)2
_symmetry_space_group_name_H-M   'P 1'
_cell_length_a   9.09046036
_cell_length_b   9.09313917
_cell_length_c   23.95787337
_cell_angle_alpha   90.33762621
_cell_angle_beta   89.82350618
_cell_angle_gamma   120.08136087
_symmetry_Int_Tables_number   1
_chemical_formula_structural   Na2Y3NbP4(SO12)2
_chemical_formula_sum   'Na6 Y9 Nb3 P12 S6 O72'
_cell_volume   1713.61962898
_cell_formula_units_Z   3
loop_
 _symmetry_equiv_pos_site_id
 _symmetry_equiv_pos_as_xyz
  1  'x, y, z'
loop_
 _atom_site_type_symbol
 _atom_site_label
 _atom_site_symmetry_multiplicity
 _atom_site_fract_x
 _atom_site_fract_y
 _atom_site_fract_z
 _atom_site_occupancy
  Na  Na0  1  0.99466069  0.99338200  0.49908056  1
  Na  Na1  1  0.00469141  0.00007658  0.99817127  1
  Na  Na2  1  0.66704175  0.33163619  0.83164866  1
  Na  Na3  1  0.67837426  0.33894862  0.33144321  1
  Na  Na4  1  0.32978398  0.65704079  0.16209050  1
  Na  Na5  1  0.33381298  0.66644710  0.67076966  1
  Y  Y6  1  0.98982056  0.99508658  0.35131231  1
  Y  Y7  1  0.00111169  0.00129633  0.85195187  1
  Y  Y8  1  0.99958310  0.99920277  0.65639703  1
  Y  Y9  1  0.99679535  0.00131659  0.14577197  1
  Y  Y10  1  0.66648815  0.33307400  0.68934545  1
  Y  Y11  1  0.67359719  0.34354432  0.18522473  1
  Y  Y12  1  0.67337507  0.33267241  0.47701625  1
  Y  Y13  1  0.32954006  0.66308158  0.01815034  1
  Y  Y14  1  0.33413792  0.67177439  0.51776893  1
  Nb  Nb15  1  0.66410288  0.34462697  0.97740462  1
  Nb  Nb16  1  0.33180845  0.66872101  0.31381774  1
  Nb  Nb17  1  0.33100255  0.66699426  0.81608174  1
  P  P18  1  0.69878487  0.70423852  0.25172270  1
  P  P19  1  0.00368266  0.29802021  0.25227417  1
  P  P20  1  0.29543817  0.30277962  0.75247655  1
  P  P21  1  0.00676772  0.70503911  0.75235847  1
  P  P22  1  0.69736449  0.99284202  0.75261224  1
  P  P23  1  0.95448535  0.62249863  0.08116447  1
  P  P24  1  0.37824474  0.33238049  0.08201263  1
  P  P25  1  0.62033271  0.66571173  0.91671712  1
  P  P26  1  0.03829882  0.37865075  0.91694879  1
  P  P27  1  0.33977872  0.96031785  0.91768733  1
  P  P28  1  0.61978665  0.95393710  0.41517909  1
  P  P29  1  0.04624777  0.66854106  0.41501342  1
  S  S30  1  0.29522229  0.99509745  0.25195455  1
  S  S31  1  0.96166808  0.33088386  0.58332144  1
  S  S32  1  0.37083956  0.04072887  0.58303713  1
  S  S33  1  0.66782771  0.62823013  0.58301172  1
  S  S34  1  0.66636312  0.04806259  0.08108342  1
  S  S35  1  0.33365867  0.37976025  0.41463331  1
  O  O36  1  0.21670378  0.01927501  0.30184814  1
  O  O37  1  0.80746585  0.78626808  0.30318251  1
  O  O38  1  0.98444244  0.19365860  0.30394213  1
  O  O39  1  0.21308417  0.19245996  0.80302737  1
  O  O40  1  0.97911178  0.78720147  0.80327257  1
  O  O41  1  0.80834786  0.02152779  0.80313023  1
  O  O42  1  0.76721844  0.95686283  0.69860296  1
  O  O43  1  0.18952445  0.23226368  0.69866589  1
  O  O44  1  0.04319251  0.81067669  0.69867052  1
  O  O45  1  0.77050625  0.81202572  0.19907667  1
  O  O46  1  0.04224694  0.22859625  0.19914207  1
  O  O47  1  0.19170226  0.96236299  0.20131489  1
  O  O48  1  0.88075619  0.35386403  0.63307164  1
  O  O49  1  0.47352515  0.12182121  0.63297549  1
  O  O50  1  0.64685108  0.52637410  0.63291016  1
  O  O51  1  0.87482778  0.51880252  0.13368461  1
  O  O52  1  0.64560741  0.12282752  0.13296172  1
  O  O53  1  0.48088790  0.35046257  0.13420541  1
  O  O54  1  0.48254502  0.31918048  0.02832530  1
  O  O55  1  0.83581784  0.51724260  0.02841854  1
  O  O56  1  0.68469750  0.15404475  0.03095805  1
  O  O57  1  0.45448953  0.14170144  0.53226199  1
  O  O58  1  0.68625372  0.54449082  0.53202221  1
  O  O59  1  0.85913612  0.31120730  0.53245698  1
  O  O60  1  0.54204315  0.68605125  0.96932415  1
  O  O61  1  0.14345783  0.45819869  0.96850612  1
  O  O62  1  0.31662991  0.85622774  0.96902329  1
  O  O63  1  0.53987855  0.85074928  0.46769750  1
  O  O64  1  0.31125681  0.45526227  0.46586300  1
  O  O65  1  0.14745909  0.68624170  0.46760444  1
  O  O66  1  0.14793561  0.65183893  0.36282451  1
  O  O67  1  0.50329901  0.85057375  0.36323443  1
  O  O68  1  0.35248454  0.48719129  0.36453841  1
  O  O69  1  0.13241868  0.49637412  0.86445493  1
  O  O70  1  0.36360406  0.86668797  0.86473356  1
  O  O71  1  0.50384588  0.63634348  0.86431698  1
  O  O72  1  0.03193162  0.82753781  0.40852159  1
  O  O73  1  0.79717467  0.97592813  0.40991353  1
  O  O74  1  0.18380167  0.20947679  0.40869565  1
  O  O75  1  0.01075148  0.20139100  0.90853703  1
  O  O76  1  0.19036211  0.98802883  0.90905042  1
  O  O77  1  0.80001506  0.81071592  0.90909785  1
  O  O78  1  0.97836971  0.17737026  0.58744575  1
  O  O79  1  0.19954468  0.02185558  0.58743012  1
  O  O80  1  0.82123839  0.79958603  0.58735283  1
  O  O81  1  0.96237281  0.79545921  0.08311183  1
  O  O82  1  0.82263705  0.03401205  0.08444681  1
  O  O83  1  0.20361434  0.16802903  0.08273958  1
  O  O84  1  0.66985936  0.14510249  0.74502372  1
  O  O85  1  0.47538551  0.33066779  0.74493963  1
  O  O86  1  0.85511115  0.52476633  0.74480056  1
  O  O87  1  0.66695743  0.52265192  0.24677198  1
  O  O88  1  0.85151447  0.32548840  0.24703448  1
  O  O89  1  0.46785662  0.14060719  0.24599016  1
  O  O90  1  0.63422889  0.49528954  0.92517327  1
  O  O91  1  0.85771615  0.36565361  0.92540385  1
  O  O92  1  0.50768338  0.14227479  0.92615080  1
  O  O93  1  0.62807557  0.12749755  0.41646383  1
  O  O94  1  0.48985437  0.36727848  0.41804655  1
  O  O95  1  0.87058698  0.50469479  0.41623234  1
  O  O96  1  0.36303704  0.49125902  0.07614828  1
  O  O97  1  0.13070359  0.64251637  0.07576433  1
  O  O98  1  0.51642046  0.87676532  0.07630913  1
  O  O99  1  0.35331399  0.86902839  0.57862489  1
  O  O100  1  0.51349155  0.64479461  0.57830481  1
  O  O101  1  0.13299992  0.48425337  0.57805293  1
  O  O102  1  0.31187929  0.83657980  0.26026394  1
  O  O103  1  0.51573036  0.68637108  0.26475721  1
  O  O104  1  0.16872163  0.48327692  0.26506552  1
  O  O105  1  0.31309665  0.48444809  0.76398559  1
  O  O106  1  0.17078243  0.68700745  0.76347012  1
  O  O107  1  0.51540441  0.82875443  0.76397434  1
