# generated using pymatgen
data_Na2Al4SiS5O24
_symmetry_space_group_name_H-M   'P 1'
_cell_length_a   8.35657921
_cell_length_b   8.34373199
_cell_length_c   21.79336164
_cell_angle_alpha   89.55280767
_cell_angle_beta   90.24957146
_cell_angle_gamma   119.79083950
_symmetry_Int_Tables_number   1
_chemical_formula_structural   Na2Al4SiS5O24
_chemical_formula_sum   'Na6 Al12 Si3 S15 O72'
_cell_volume   1318.68761185
_cell_formula_units_Z   3
loop_
 _symmetry_equiv_pos_site_id
 _symmetry_equiv_pos_as_xyz
  1  'x, y, z'
loop_
 _atom_site_type_symbol
 _atom_site_label
 _atom_site_symmetry_multiplicity
 _atom_site_fract_x
 _atom_site_fract_y
 _atom_site_fract_z
 _atom_site_occupancy
  Na  Na0  1  0.99154548  0.98890669  0.50421660  1
  Na  Na1  1  0.99992677  0.99982957  0.99873133  1
  Na  Na2  1  0.66861651  0.32411287  0.82651647  1
  Na  Na3  1  0.65507457  0.32412190  0.33354830  1
  Na  Na4  1  0.33099498  0.67601262  0.17144836  1
  Na  Na5  1  0.35407393  0.67379973  0.66525145  1
  Al  Al6  1  0.01305065  0.00374189  0.35338236  1
  Al  Al7  1  0.99336109  0.00343000  0.84473022  1
  Al  Al8  1  0.97525548  0.98411593  0.64465905  1
  Al  Al9  1  0.00516388  0.99656072  0.15216601  1
  Al  Al10  1  0.66307634  0.33026970  0.68504001  1
  Al  Al11  1  0.65975990  0.32742489  0.19048728  1
  Al  Al12  1  0.66731020  0.33282543  0.97980807  1
  Al  Al13  1  0.66884607  0.34130836  0.48517754  1
  Al  Al14  1  0.33287294  0.66688253  0.01795593  1
  Al  Al15  1  0.34141509  0.66570306  0.52388130  1
  Al  Al16  1  0.33283176  0.67626478  0.31445498  1
  Al  Al17  1  0.33967557  0.67076781  0.80734207  1
  Si  Si18  1  0.28934577  0.99804200  0.25042338  1
  Si  Si19  1  0.71033796  0.00682269  0.74963716  1
  Si  Si20  1  0.66812780  0.61997827  0.58395415  1
  S  S21  1  0.71281087  0.71289742  0.25017916  1
  S  S22  1  0.00112625  0.28756464  0.24997467  1
  S  S23  1  0.28540147  0.28495498  0.74997226  1
  S  S24  1  0.00017825  0.71277666  0.75070825  1
  S  S25  1  0.95599949  0.33513773  0.58260887  1
  S  S26  1  0.37668780  0.04542365  0.58301946  1
  S  S27  1  0.95244396  0.61964629  0.08298572  1
  S  S28  1  0.66793983  0.04452694  0.08307705  1
  S  S29  1  0.37841238  0.33491630  0.08242129  1
  S  S30  1  0.62211411  0.66565978  0.91760382  1
  S  S31  1  0.04689431  0.37925924  0.91723830  1
  S  S32  1  0.33167117  0.95567473  0.91707391  1
  S  S33  1  0.62482978  0.95771836  0.41662116  1
  S  S34  1  0.33166113  0.37981436  0.41598530  1
  S  S35  1  0.04424840  0.66322612  0.41745406  1
  O  O36  1  0.19935059  0.03758915  0.30957252  1
  O  O37  1  0.82481635  0.79460555  0.30531523  1
  O  O38  1  0.95784870  0.16947148  0.30498869  1
  O  O39  1  0.20880144  0.17161506  0.80769132  1
  O  O40  1  0.97343544  0.79546310  0.80813048  1
  O  O41  1  0.82847038  0.04314181  0.81342020  1
  O  O42  1  0.80373120  0.96805026  0.69219179  1
  O  O43  1  0.17495244  0.20403574  0.69532798  1
  O  O44  1  0.04427426  0.83120754  0.69643607  1
  O  O45  1  0.78687784  0.82882160  0.19347934  1
  O  O46  1  0.02851605  0.20563526  0.19315744  1
  O  O47  1  0.16686197  0.95967886  0.18811982  1
  O  O48  1  0.87622579  0.36558701  0.63745891  1
  O  O49  1  0.49303056  0.11802427  0.63755266  1
  O  O50  1  0.63150092  0.49231491  0.64407746  1
  O  O51  1  0.87074838  0.50484524  0.13797634  1
  O  O52  1  0.63596235  0.12732554  0.13730007  1
  O  O53  1  0.49458492  0.36979794  0.13689504  1
  O  O54  1  0.46127307  0.30201730  0.02716696  1
  O  O55  1  0.83946875  0.53477415  0.02724821  1
  O  O56  1  0.69980476  0.15841154  0.02687910  1
  O  O57  1  0.45894460  0.15527883  0.52582231  1
  O  O58  1  0.70261419  0.53551395  0.52159110  1
  O  O59  1  0.83884366  0.29275570  0.52640810  1
  O  O60  1  0.53918070  0.69749370  0.97365800  1
  O  O61  1  0.15924068  0.46458037  0.97367042  1
  O  O62  1  0.30098273  0.84255139  0.97410007  1
  O  O63  1  0.54156674  0.84250734  0.47117859  1
  O  O64  1  0.30096077  0.46370397  0.47027797  1
  O  O65  1  0.16112987  0.69709567  0.47168232  1
  O  O66  1  0.12784432  0.63457475  0.36159525  1
  O  O67  1  0.51216213  0.87664659  0.36069125  1
  O  O68  1  0.36289171  0.49447708  0.35982679  1
  O  O69  1  0.12888689  0.49543780  0.86283845  1
  O  O70  1  0.36453474  0.87223788  0.86350336  1
  O  O71  1  0.50441253  0.62991915  0.86373369  1
  O  O72  1  0.02088733  0.82843865  0.41055994  1
  O  O73  1  0.80984002  0.97534341  0.40794989  1
  O  O74  1  0.16063491  0.19621059  0.41042467  1
  O  O75  1  0.03216188  0.19620586  0.91325367  1
  O  O76  1  0.16706366  0.97668203  0.91061126  1
  O  O77  1  0.80816211  0.82748505  0.91218582  1
  O  O78  1  0.98753591  0.17681714  0.58912099  1
  O  O79  1  0.19828852  0.03679882  0.59128491  1
  O  O80  1  0.85369738  0.82094330  0.58767060  1
  O  O81  1  0.96683358  0.80360925  0.08770365  1
  O  O82  1  0.83385400  0.02412031  0.09040467  1
  O  O83  1  0.19153827  0.17198607  0.08845535  1
  O  O84  1  0.68780494  0.18737480  0.74078503  1
  O  O85  1  0.47072865  0.30973096  0.74610862  1
  O  O86  1  0.83429582  0.53288284  0.74526524  1
  O  O87  1  0.70504440  0.53371535  0.24070444  1
  O  O88  1  0.84091718  0.31509839  0.24075737  1
  O  O89  1  0.49211000  0.18097672  0.24201817  1
  O  O90  1  0.63865270  0.49633082  0.92633881  1
  O  O91  1  0.86067067  0.36077108  0.92540994  1
  O  O92  1  0.49962132  0.14073124  0.92585260  1
  O  O93  1  0.64401508  0.14346831  0.42368285  1
  O  O94  1  0.49425762  0.35426145  0.42128920  1
  O  O95  1  0.86105609  0.49394155  0.42197922  1
  O  O96  1  0.36055371  0.50351800  0.07426906  1
  O  O97  1  0.13919347  0.63967024  0.07544323  1
  O  O98  1  0.50105585  0.85911778  0.07491617  1
  O  O99  1  0.34993525  0.85769958  0.57386961  1
  O  O100  1  0.48546544  0.64198054  0.57630475  1
  O  O101  1  0.13468837  0.50573917  0.57306982  1
  O  O102  1  0.31140418  0.81601816  0.25805521  1
  O  O103  1  0.52569888  0.68426338  0.25752558  1
  O  O104  1  0.16970105  0.46647260  0.25768390  1
  O  O105  1  0.29372063  0.46565876  0.75964246  1
  O  O106  1  0.16188032  0.68681406  0.76026506  1
  O  O107  1  0.50921638  0.82181760  0.75843960  1
