# generated using pymatgen
data_Ca3PI3
_symmetry_space_group_name_H-M   'P 1'
_cell_length_a   10.72369632
_cell_length_b   10.72418777
_cell_length_c   10.72435175
_cell_angle_alpha   109.47420433
_cell_angle_beta   109.47066111
_cell_angle_gamma   109.46818107
_symmetry_Int_Tables_number   1
_chemical_formula_structural   Ca3PI3
_chemical_formula_sum   'Ca12 P4 I12'
_cell_volume   949.42655143
_cell_formula_units_Z   4
loop_
 _symmetry_equiv_pos_site_id
 _symmetry_equiv_pos_as_xyz
  1  'x, y, z'
loop_
 _atom_site_type_symbol
 _atom_site_label
 _atom_site_symmetry_multiplicity
 _atom_site_fract_x
 _atom_site_fract_y
 _atom_site_fract_z
 _atom_site_occupancy
  Ca  Ca0  1  0.75000378  0.23218098  0.26783679  1
  Ca  Ca1  1  0.23216112  0.26781614  0.74998899  1
  Ca  Ca2  1  0.46434681  0.48216598  0.23216642  1
  Ca  Ca3  1  0.26782759  0.01782890  0.03565107  1
  Ca  Ca4  1  0.23216389  0.46433539  0.48216480  1
  Ca  Ca5  1  0.01783806  0.03566018  0.26783798  1
  Ca  Ca6  1  0.01783535  0.48217675  0.74998633  1
  Ca  Ca7  1  0.48216800  0.23216801  0.46433470  1
  Ca  Ca8  1  0.75001041  0.01782320  0.48216303  1
  Ca  Ca9  1  0.03565698  0.26782335  0.01781935  1
  Ca  Ca10  1  0.48217485  0.74999776  0.01782288  1
  Ca  Ca11  1  0.26782189  0.74999912  0.23216502  1
  P  P12  1  0.49999121  -0.00001015  0.24999047  1
  P  P13  1  0.25000141  0.50000207  0.00000185  1
  P  P14  1  -0.00000136  0.24999883  0.49999798  1
  P  P15  1  0.25000539  0.24999940  0.24999072  1
  I  I16  1  0.99665594  0.99329922  0.74658055  1
  I  I17  1  0.99330879  0.74672838  0.99666966  1
  I  I18  1  0.24995688  0.99666566  0.50336797  1
  I  I19  1  0.74670443  0.99672460  0.99341810  1
  I  I20  1  0.50333078  0.24999171  0.99668178  1
  I  I21  1  0.74671704  0.25002979  0.75328194  1
  I  I22  1  0.50333530  0.75329365  0.50665493  1
  I  I23  1  0.99667549  0.50332299  0.25009097  1
  I  I24  1  0.50659168  0.50328101  0.75330748  1
  I  I25  1  0.24996143  0.75329209  0.74664054  1
  I  I26  1  0.75339471  0.50669748  0.50334077  1
  I  I27  1  0.75335917  0.74670953  0.25005094  1
