# generated using pymatgen
data_Na14Y6Ta2Si9(SO16)3
_symmetry_space_group_name_H-M   'P 1'
_cell_length_a   18.79946374
_cell_length_b   9.38630217
_cell_length_c   23.04515001
_cell_angle_alpha   90.10089990
_cell_angle_beta   89.62372294
_cell_angle_gamma   119.91826811
_symmetry_Int_Tables_number   1
_chemical_formula_structural   Na14Y6Ta2Si9(SO16)3
_chemical_formula_sum   'Na42 Y18 Ta6 Si27 S9 O144'
_cell_volume   3524.49764527
_cell_formula_units_Z   3
loop_
 _symmetry_equiv_pos_site_id
 _symmetry_equiv_pos_as_xyz
  1  'x, y, z'
loop_
 _atom_site_type_symbol
 _atom_site_label
 _atom_site_symmetry_multiplicity
 _atom_site_fract_x
 _atom_site_fract_y
 _atom_site_fract_z
 _atom_site_occupancy
  Na  Na0  1  0.81438244  0.00805451  0.23874155  1
  Na  Na1  1  0.68955822  0.36923070  0.23852625  1
  Na  Na2  1  0.50150706  0.62254713  0.24199256  1
  Na  Na3  1  0.31250707  0.61789050  0.73847446  1
  Na  Na4  1  0.99248118  0.35961554  0.74417378  1
  Na  Na5  1  0.18701614  0.01031632  0.73829422  1
  Na  Na6  1  0.15274954  0.33210323  0.58717813  1
  Na  Na7  1  0.66248414  0.34422842  0.59272517  1
  Na  Na8  1  0.01479272  0.69152618  0.58828870  1
  Na  Na9  1  0.51068389  0.67467330  0.58567132  1
  Na  Na10  1  0.32304975  0.97792919  0.59100699  1
  Na  Na11  1  0.83197927  0.97874311  0.59462532  1
  Na  Na12  1  0.15918953  0.97952121  0.08801429  1
  Na  Na13  1  0.65948938  0.97225697  0.08021391  1
  Na  Na14  1  0.33044571  0.68169076  0.08837461  1
  Na  Na15  1  0.82701312  0.67767736  0.08575076  1
  Na  Na16  1  0.01030760  0.34558920  0.08089907  1
  Na  Na17  1  0.51546364  0.34780118  0.07894898  1
  Na  Na18  1  0.49180625  0.67374040  0.91384698  1
  Na  Na19  1  0.98068845  0.64769393  0.90671646  1
  Na  Na20  1  0.36163779  0.05937616  0.91076951  1
  Na  Na21  1  0.85378888  0.05256105  0.91065949  1
  Na  Na22  1  0.15815120  0.29986818  0.91641535  1
  Na  Na23  1  0.66309813  0.28845839  0.92403090  1
  Na  Na24  1  0.48207358  0.31549524  0.41366133  1
  Na  Na25  1  0.99006022  0.30549956  0.42151584  1
  Na  Na26  1  0.15926671  0.03603540  0.42972155  1
  Na  Na27  1  0.65956555  0.01296370  0.42431161  1
  Na  Na28  1  0.35208488  0.65186179  0.42499070  1
  Na  Na29  1  0.86082041  0.66592431  0.41579975  1
  Na  Na30  1  0.00687754  0.00224424  0.50822706  1
  Na  Na31  1  0.50358357  0.98518282  0.50702126  1
  Na  Na32  1  0.00157376  0.01968967  0.00044563  1
  Na  Na33  1  0.50770974  0.01348787  0.99566139  1
  Na  Na34  1  0.34972462  0.33774399  0.81994800  1
  Na  Na35  1  0.83685411  0.32038294  0.82783400  1
  Na  Na36  1  0.33709185  0.33480327  0.33550169  1
  Na  Na37  1  0.85049449  0.36350485  0.32152681  1
  Na  Na38  1  0.16489362  0.66533695  0.16025953  1
  Na  Na39  1  0.66893384  0.66751635  0.16317005  1
  Na  Na40  1  0.16573372  0.66714464  0.66483235  1
  Na  Na41  1  0.67099649  0.67201187  0.66465962  1
  Y  Y42  1  0.00112802  0.99797683  0.34717303  1
  Y  Y43  1  0.50139405  0.00073750  0.34694389  1
  Y  Y44  1  0.99848482  0.00225525  0.84479300  1
  Y  Y45  1  0.50137450  0.00607805  0.84602482  1
  Y  Y46  1  0.33798838  0.33375357  0.68250093  1
  Y  Y47  1  0.83261874  0.33586592  0.68382070  1
  Y  Y48  1  0.33210743  0.32198194  0.18280645  1
  Y  Y49  1  0.83936699  0.34317516  0.18320491  1
  Y  Y50  1  0.33929073  0.33730045  0.98948344  1
  Y  Y51  1  0.83601229  0.33106945  0.98660910  1
  Y  Y52  1  0.33447876  0.33822445  0.48902061  1
  Y  Y53  1  0.83773654  0.33872232  0.49130552  1
  Y  Y54  1  0.16331377  0.65644082  0.01882190  1
  Y  Y55  1  0.66298436  0.66728328  0.01829042  1
  Y  Y56  1  0.16236867  0.65864518  0.52045280  1
  Y  Y57  1  0.66359098  0.67054501  0.51967919  1
  Y  Y58  1  0.66153780  0.66454872  0.30667160  1
  Y  Y59  1  0.16065033  0.65757512  0.80667019  1
  Ta  Ta60  1  0.99514615  0.99175215  0.65326708  1
  Ta  Ta61  1  0.49723347  0.99178192  0.64947004  1
  Ta  Ta62  1  0.99681265  0.00407405  0.14860567  1
  Ta  Ta63  1  0.50512906  0.01595426  0.14745188  1
  Ta  Ta64  1  0.15619521  0.64154064  0.31345061  1
  Ta  Ta65  1  0.65996695  0.68235219  0.81070796  1
  Si  Si66  1  0.64750389  0.00141592  0.24922289  1
  Si  Si67  1  0.85219606  0.70858208  0.25234120  1
  Si  Si68  1  0.00259327  0.29563016  0.25261194  1
  Si  Si69  1  0.49670994  0.29368948  0.25309723  1
  Si  Si70  1  0.14697245  0.29236801  0.75015277  1
  Si  Si71  1  0.99839893  0.70096710  0.75323117  1
  Si  Si72  1  0.50079393  0.70845297  0.75272287  1
  Si  Si73  1  0.35140634  0.99521297  0.75258203  1
  Si  Si74  1  0.84603462  0.99112255  0.75282965  1
  Si  Si75  1  0.48422737  0.32140403  0.57955078  1
  Si  Si76  1  0.98374737  0.32284809  0.58585020  1
  Si  Si77  1  0.17714950  0.03164192  0.58449445  1
  Si  Si78  1  0.68039569  0.03524810  0.58244704  1
  Si  Si79  1  0.33557378  0.64167589  0.58557110  1
  Si  Si80  1  0.83649377  0.64312704  0.58099871  1
  Si  Si81  1  0.48301109  0.64300901  0.08824769  1
  Si  Si82  1  0.98455633  0.64637570  0.08084614  1
  Si  Si83  1  0.33652620  0.02864203  0.08193131  1
  Si  Si84  1  0.83489449  0.03056689  0.08628521  1
  Si  Si85  1  0.18211467  0.32704440  0.08458306  1
  Si  Si86  1  0.68213809  0.33220117  0.08414800  1
  Si  Si87  1  0.01493473  0.36079454  0.91714556  1
  Si  Si88  1  0.52035686  0.37661929  0.91472440  1
  Si  Si89  1  0.66769093  0.97024268  0.91677778  1
  Si  Si90  1  0.16866087  0.36762242  0.41603130  1
  Si  Si91  1  0.01711368  0.66205442  0.41618302  1
  Si  Si92  1  0.51374272  0.66546581  0.41529483  1
  S  S93  1  0.14953681  0.98501733  0.25071484  1
  S  S94  1  0.34504154  0.70473971  0.25072547  1
  S  S95  1  0.64707440  0.31027916  0.74919762  1
  S  S96  1  0.31587113  0.66456602  0.91619768  1
  S  S97  1  0.81038585  0.66399090  0.91418179  1
  S  S98  1  0.16971832  0.97015984  0.91699159  1
  S  S99  1  0.30775618  0.95185816  0.41149869  1
  S  S100  1  0.81505581  0.96681171  0.41499979  1
  S  S101  1  0.66894299  0.36832636  0.41554156  1
  O  O102  1  0.10919431  0.99764653  0.30427999  1
  O  O103  1  0.60596422  0.01613242  0.30931815  1
  O  O104  1  0.39412667  0.78416266  0.30348620  1
  O  O105  1  0.89570964  0.78338800  0.31406523  1
  O  O106  1  0.49070288  0.20346998  0.31450743  1
  O  O107  1  0.99750972  0.20640534  0.31289109  1
  O  O108  1  0.10978428  0.19785917  0.81138589  1
  O  O109  1  0.60876890  0.21674581  0.80314985  1
  O  O110  1  0.49440817  0.78564915  0.81346604  1
  O  O111  1  0.99479765  0.77985505  0.81525123  1
  O  O112  1  0.39515853  0.00930344  0.81444195  1
  O  O113  1  0.89718761  0.01597418  0.81177221  1
  O  O114  1  0.41507582  0.99207279  0.69976427  1
  O  O115  1  0.89894846  0.97421492  0.69625971  1
  O  O116  1  0.08123363  0.17325672  0.69771253  1
  O  O117  1  0.59596926  0.22000410  0.69770402  1
  O  O118  1  0.99965212  0.82344023  0.69892661  1
  O  O119  1  0.51394378  0.83773228  0.69780077  1
  O  O120  1  0.38707425  0.80406244  0.19820896  1
  O  O121  1  0.91554481  0.84023552  0.19959892  1
  O  O122  1  0.01514517  0.19291323  0.19732641  1
  O  O123  1  0.49793968  0.17228433  0.19858467  1
  O  O124  1  0.09930148  0.96813663  0.19863651  1
  O  O125  1  0.58280512  0.99335843  0.19625399  1
  O  O126  1  0.44107131  0.37671843  0.62822103  1
  O  O127  1  0.94056671  0.36196315  0.63944372  1
  O  O128  1  0.23993503  0.11934006  0.63770604  1
  O  O129  1  0.74766195  0.12818543  0.63169788  1
  O  O130  1  0.31611512  0.52339155  0.64065538  1
  O  O131  1  0.81139973  0.50339036  0.63002083  1
  O  O132  1  0.44086148  0.52461287  0.14387472  1
  O  O133  1  0.94275676  0.50852225  0.13069371  1
  O  O134  1  0.31277914  0.11650606  0.13271567  1
  O  O135  1  0.81610531  0.10735170  0.14271028  1
  O  O136  1  0.24674805  0.36822830  0.13623626  1
  O  O137  1  0.73888767  0.35978956  0.13970291  1
  O  O138  1  0.21702796  0.28876257  0.02411442  1
  O  O139  1  0.71561216  0.28677494  0.02531786  1
  O  O140  1  0.42607206  0.56824432  0.03001565  1
  O  O141  1  0.92761547  0.58304015  0.02219606  1
  O  O142  1  0.36056798  0.14314962  0.02291017  1
  O  O143  1  0.85752519  0.14859675  0.02925521  1
  O  O144  1  0.21400856  0.14259369  0.52460050  1
  O  O145  1  0.71256142  0.13653211  0.52033872  1
  O  O146  1  0.35794312  0.57076433  0.52724735  1
  O  O147  1  0.85675360  0.57658031  0.51978848  1
  O  O148  1  0.42884916  0.27268772  0.51976899  1
  O  O149  1  0.92970877  0.28787568  0.52585678  1
  O  O150  1  0.27624079  0.68258301  0.96925379  1
  O  O151  1  0.77435979  0.68017823  0.96956663  1
  O  O152  1  0.06821123  0.44653275  0.97561393  1
  O  O153  1  0.56858731  0.45311646  0.97480200  1
  O  O154  1  0.16604135  0.87656375  0.96967319  1
  O  O155  1  0.65896198  0.86615528  0.97459251  1
  O  O156  1  0.27161772  0.86349131  0.46628370  1
  O  O157  1  0.77493079  0.86757865  0.46753481  1
  O  O158  1  0.16058009  0.45836428  0.47262691  1
  O  O159  1  0.66363604  0.45374682  0.46787565  1
  O  O160  1  0.07115310  0.68564205  0.47266478  1
  O  O161  1  0.57134289  0.69446467  0.47185836  1
  O  O162  1  0.07627994  0.65240679  0.35908955  1
  O  O163  1  0.56070945  0.65036914  0.35732359  1
  O  O164  1  0.25597413  0.85533010  0.36101952  1
  O  O165  1  0.76689795  0.88117498  0.36290144  1
  O  O166  1  0.17225526  0.49621747  0.35939662  1
  O  O167  1  0.67555282  0.46445152  0.36286833  1
  O  O168  1  0.06429392  0.47420278  0.86072630  1
  O  O169  1  0.58039584  0.50376949  0.86017224  1
  O  O170  1  0.17699123  0.88632570  0.86456132  1
  O  O171  1  0.67137200  0.85141881  0.86042778  1
  O  O172  1  0.26728509  0.65387441  0.86437029  1
  O  O173  1  0.75906900  0.65871236  0.86447949  1
  O  O174  1  0.00788961  0.82482267  0.41081081  1
  O  O175  1  0.49844458  0.82628231  0.41505893  1
  O  O176  1  0.39128353  0.97267201  0.40735564  1
  O  O177  1  0.89956250  0.99040053  0.41328117  1
  O  O178  1  0.08706220  0.18640910  0.41197240  1
  O  O179  1  0.59214521  0.20227665  0.41495874  1
  O  O180  1  0.00365998  0.17341679  0.91732504  1
  O  O181  1  0.50934217  0.19220865  0.91092581  1
  O  O182  1  0.09356990  0.98284138  0.91661016  1
  O  O183  1  0.58558221  0.98785692  0.91281807  1
  O  O184  1  0.40028183  0.81078692  0.91440415  1
  O  O185  1  0.89517008  0.80749047  0.91144922  1
  O  O186  1  0.49082055  0.15493588  0.59754176  1
  O  O187  1  0.98860381  0.15214603  0.59633221  1
  O  O188  1  0.08524110  0.01490037  0.59589340  1
  O  O189  1  0.59094104  0.02908129  0.59734257  1
  O  O190  1  0.42415205  0.82318894  0.59691929  1
  O  O191  1  0.92180884  0.82070272  0.59475572  1
  O  O192  1  0.48828705  0.82467684  0.09959959  1
  O  O193  1  0.99251587  0.82820520  0.09842603  1
  O  O194  1  0.42035231  0.01619467  0.09672363  1
  O  O195  1  0.92317050  0.02312939  0.09660107  1
  O  O196  1  0.09209520  0.15466838  0.09843836  1
  O  O197  1  0.58722231  0.16326011  0.09428601  1
  O  O198  1  0.33399958  0.14663529  0.74567147  1
  O  O199  1  0.83681189  0.15179707  0.74540026  1
  O  O200  1  0.23828393  0.31703924  0.74404649  1
  O  O201  1  0.72951585  0.33072642  0.74483726  1
  O  O202  1  0.41981809  0.53347237  0.74442176  1
  O  O203  1  0.92346242  0.51322762  0.74909527  1
  O  O204  1  0.33591011  0.53914254  0.24725173  1
  O  O205  1  0.83504780  0.52248712  0.24589652  1
  O  O206  1  0.42225466  0.33481940  0.24964224  1
  O  O207  1  0.92163509  0.30966477  0.24528626  1
  O  O208  1  0.23149733  0.13180758  0.24743081  1
  O  O209  1  0.73829162  0.15992254  0.24513134  1
  O  O210  1  0.32098087  0.51141128  0.91908826  1
  O  O211  1  0.81412670  0.50883199  0.91433025  1
  O  O212  1  0.43090958  0.37035098  0.91309753  1
  O  O213  1  0.92541268  0.35357993  0.91810365  1
  O  O214  1  0.24360015  0.13817730  0.91856631  1
  O  O215  1  0.75200557  0.14705089  0.91350033  1
  O  O216  1  0.31282056  0.11521615  0.41163871  1
  O  O217  1  0.81968726  0.12973947  0.41839030  1
  O  O218  1  0.25337720  0.36032918  0.41263336  1
  O  O219  1  0.74212555  0.34676933  0.41748875  1
  O  O220  1  0.42481069  0.49242387  0.41873960  1
  O  O221  1  0.92918393  0.48945902  0.41372563  1
  O  O222  1  0.16318362  0.47935716  0.08126818  1
  O  O223  1  0.66537841  0.48519018  0.08058584  1
  O  O224  1  0.08007164  0.68831188  0.07581690  1
  O  O225  1  0.57603568  0.67413511  0.08232204  1
  O  O226  1  0.26162734  0.84001545  0.07685817  1
  O  O227  1  0.76283910  0.84118578  0.07891263  1
  O  O228  1  0.16356703  0.84641184  0.58035118  1
  O  O229  1  0.66003969  0.84400600  0.58094916  1
  O  O230  1  0.26501917  0.69101491  0.57836081  1
  O  O231  1  0.76209061  0.68524855  0.57665330  1
  O  O232  1  0.07765275  0.47663588  0.58225468  1
  O  O233  1  0.57966670  0.46975604  0.57475199  1
  O  O234  1  0.15837950  0.83359329  0.25470243  1
  O  O235  1  0.64763014  0.82766714  0.24423932  1
  O  O236  1  0.26251979  0.69306995  0.25612842  1
  O  O237  1  0.76648280  0.71327627  0.24550840  1
  O  O238  1  0.08837723  0.48800597  0.25627031  1
  O  O239  1  0.58637789  0.46337709  0.24580470  1
  O  O240  1  0.14794574  0.46737426  0.74535297  1
  O  O241  1  0.65217909  0.47439330  0.75218573  1
  O  O242  1  0.08819217  0.71046830  0.74547714  1
  O  O243  1  0.58593924  0.68925003  0.75631595  1
  O  O244  1  0.26676200  0.81830878  0.74592337  1
  O  O245  1  0.75460847  0.81540474  0.75959449  1
