# generated using pymatgen
data_Re3(TeI)7
_symmetry_space_group_name_H-M   'P 1'
_cell_length_a   11.02520515
_cell_length_b   11.05535694
_cell_length_c   12.35567385
_cell_angle_alpha   86.58520149
_cell_angle_beta   104.79887110
_cell_angle_gamma   118.17113604
_symmetry_Int_Tables_number   1
_chemical_formula_structural   Re3(TeI)7
_chemical_formula_sum   'Re6 Te14 I14'
_cell_volume   1280.27106140
_cell_formula_units_Z   2
loop_
 _symmetry_equiv_pos_site_id
 _symmetry_equiv_pos_as_xyz
  1  'x, y, z'
loop_
 _atom_site_type_symbol
 _atom_site_label
 _atom_site_symmetry_multiplicity
 _atom_site_fract_x
 _atom_site_fract_y
 _atom_site_fract_z
 _atom_site_occupancy
  Re  Re0  1  0.93913363  0.11930333  0.91129536  1
  Re  Re1  1  0.06086637  0.88069667  0.08870464  1
  Re  Re2  1  0.84340781  0.84478695  0.90792426  1
  Re  Re3  1  0.15659219  0.15521305  0.09207574  1
  Re  Re4  1  0.11481276  0.01569775  0.90198788  1
  Re  Re5  1  0.88518724  0.98430225  0.09801212  1
  Te  Te6  1  0.84995364  0.29116175  0.79891093  1
  Te  Te7  1  0.15004636  0.70883825  0.20108907  1
  Te  Te8  1  0.62220000  0.61372411  0.79723544  1
  Te  Te9  1  0.37780000  0.38627589  0.20276456  1
  Te  Te10  1  0.29379566  0.04198542  0.77820946  1
  Te  Te11  1  0.70620434  0.95801458  0.22179054  1
  Te  Te12  1  0.66838339  0.94885877  0.91754385  1
  Te  Te13  1  0.33161661  0.05114123  0.08245615  1
  Te  Te14  1  0.01832812  0.74014833  0.89823620  1
  Te  Te15  1  0.98167188  0.25985167  0.10176380  1
  Te  Te16  1  0.89837329  0.97923577  0.72211829  1
  Te  Te17  1  0.10162671  0.02076423  0.27788171  1
  Te  Te18  1  0.21101439  0.29024471  0.90502066  1
  Te  Te19  1  0.78898561  0.70975529  0.09497934  1
  I  I20  1  0.39079304  0.87413229  0.36856849  1
  I  I21  1  0.60920696  0.12586771  0.63143151  1
  I  I22  1  0.98330565  0.59420073  0.35912463  1
  I  I23  1  0.01669435  0.40579927  0.64087537  1
  I  I24  1  0.35742788  0.68764141  0.05306528  1
  I  I25  1  0.64257212  0.31235859  0.94693472  1
  I  I26  1  0.70504034  0.54849672  0.62395451  1
  I  I27  1  0.29495966  0.45150328  0.37604549  1
  I  I28  1  0.14366302  0.82973145  0.60847957  1
  I  I29  1  0.85633698  0.17026855  0.39152043  1
  I  I30  1  0.28986645  0.23291483  0.62317593  1
  I  I31  1  0.71013355  0.76708517  0.37682407  1
  I  I32  1  0.43152551  0.68996289  0.65845149  1
  I  I33  1  0.56847449  0.31003711  0.34154851  1
