# generated using pymatgen
data_Th2AuF11
_symmetry_space_group_name_H-M   'P 1'
_cell_length_a   8.62406053
_cell_length_b   8.62406053
_cell_length_c   8.62408955
_cell_angle_alpha   97.69547645
_cell_angle_beta   97.69516816
_cell_angle_gamma   137.07012459
_symmetry_Int_Tables_number   1
_chemical_formula_structural   Th2AuF11
_chemical_formula_sum   'Th4 Au2 F22'
_cell_volume   406.56723181
_cell_formula_units_Z   2
loop_
 _symmetry_equiv_pos_site_id
 _symmetry_equiv_pos_as_xyz
  1  'x, y, z'
loop_
 _atom_site_type_symbol
 _atom_site_label
 _atom_site_symmetry_multiplicity
 _atom_site_fract_x
 _atom_site_fract_y
 _atom_site_fract_z
 _atom_site_occupancy
  Th  Th0  1  0.35577255  0.14422608  0.49999856  1
  Th  Th1  1  0.85578003  0.35577710  0.21155588  1
  Th  Th2  1  0.14422727  0.64422454  0.78845246  1
  Th  Th3  1  0.64422269  0.85577603  0.49999860  1
  Au  Au4  1  0.49999925  0.50000499  0.00000438  1
  Au  Au5  1  0.00000095  0.00000391  0.00000488  1
  F  F6  1  0.63274783  0.39404100  0.02678917  1
  F  F7  1  0.36726923  0.60594323  0.97321214  1
  F  F8  1  0.60594674  0.63273371  0.23867838  1
  F  F9  1  0.39404428  0.36725233  0.76129871  1
  F  F10  1  0.13273074  0.10594271  0.23867128  1
  F  F11  1  0.89405251  0.13273342  0.02678627  1
  F  F12  1  0.50000005  0.00000257  0.50000264  1
  F  F13  1  0.00000022  0.50000265  0.50000284  1
  F  F14  1  0.00000290  0.00000401  0.50000670  1
  F  F15  1  0.49999705  0.00000353  0.00000083  1
  F  F16  1  -0.00000270  0.50000376  0.00000085  1
  F  F17  1  0.50000270  0.50000388  0.50000669  1
  F  F18  1  0.25000175  0.55713886  0.30713856  1
  F  F19  1  0.94286604  0.25000150  0.69286791  1
  F  F20  1  0.55713353  0.25000202  0.30713711  1
  F  F21  1  0.24999987  0.94287009  0.69287007  1
  F  F22  1  0.74999874  0.44287000  0.69287017  1
  F  F23  1  0.05713493  0.75000430  0.30713681  1
  F  F24  1  0.44286529  0.75000166  0.69286770  1
  F  F25  1  0.74999990  0.05713802  0.30713877  1
  F  F26  1  0.86725054  0.89404053  0.76129326  1
  F  F27  1  0.10595512  0.86725359  0.97320838  1
