# generated using pymatgen
data_Na3CaNb5Si6(SO12)3
_symmetry_space_group_name_H-M   'P 1'
_cell_length_a   8.94946846
_cell_length_b   8.94946816
_cell_length_c   23.25914881
_cell_angle_alpha   90.23652542
_cell_angle_beta   89.76347458
_cell_angle_gamma   120.07418160
_symmetry_Int_Tables_number   1
_chemical_formula_structural   Na3CaNb5Si6(SO12)3
_chemical_formula_sum   'Na6 Ca2 Nb10 Si12 S6 O72'
_cell_volume   1612.08844669
_cell_formula_units_Z   2
loop_
 _symmetry_equiv_pos_site_id
 _symmetry_equiv_pos_as_xyz
  1  'x, y, z'
loop_
 _atom_site_type_symbol
 _atom_site_label
 _atom_site_symmetry_multiplicity
 _atom_site_fract_x
 _atom_site_fract_y
 _atom_site_fract_z
 _atom_site_occupancy
  Na  Na0  1  0.00287776  0.99811564  0.49981125  1
  Na  Na1  1  0.00188436  0.99712224  0.99981125  1
  Na  Na2  1  0.66705313  0.32361317  0.83110386  1
  Na  Na3  1  0.67638683  0.33294687  0.33110386  1
  Na  Na4  1  0.32604400  0.65712040  0.16509932  1
  Na  Na5  1  0.34287960  0.67395600  0.66509932  1
  Ca  Ca6  1  0.66024030  0.32581563  0.68610672  1
  Ca  Ca7  1  0.67418437  0.33975970  0.18610672  1
  Nb  Nb8  1  0.99488725  0.00624192  0.35858265  1
  Nb  Nb9  1  0.99375808  0.00511275  0.85858265  1
  Nb  Nb10  1  0.98659333  0.98788146  0.64220899  1
  Nb  Nb11  1  0.01211854  0.01340667  0.14220899  1
  Nb  Nb12  1  0.66397968  0.34720660  0.97684458  1
  Nb  Nb13  1  0.65279340  0.33602032  0.47684458  1
  Nb  Nb14  1  0.32154006  0.65768122  0.01758199  1
  Nb  Nb15  1  0.34231878  0.67845994  0.51758199  1
  Nb  Nb16  1  0.32367923  0.65600863  0.31616822  1
  Nb  Nb17  1  0.34399137  0.67632077  0.81616822  1
  Si  Si18  1  0.00082637  0.28971170  0.25164915  1
  Si  Si19  1  0.71028830  0.99917363  0.75164915  1
  Si  Si20  1  0.37494190  0.04127459  0.58397429  1
  Si  Si21  1  0.65713832  0.61672701  0.58352277  1
  Si  Si22  1  0.95872541  0.62505810  0.08397429  1
  Si  Si23  1  0.38327299  0.34286168  0.08352277  1
  Si  Si24  1  0.61886895  0.66860959  0.91765407  1
  Si  Si25  1  0.04269603  0.38315332  0.91484805  1
  Si  Si26  1  0.33507156  0.95808333  0.91758185  1
  Si  Si27  1  0.61684668  0.95730397  0.41484805  1
  Si  Si28  1  0.33139041  0.38113105  0.41765407  1
  Si  Si29  1  0.04191667  0.66492844  0.41758185  1
  S  S30  1  0.28143491  0.99470078  0.25145131  1
  S  S31  1  0.71294861  0.71891300  0.25159491  1
  S  S32  1  0.28108700  0.28705139  0.75159491  1
  S  S33  1  0.00529922  0.71856509  0.75145131  1
  S  S34  1  0.96210948  0.33547961  0.58197884  1
  S  S35  1  0.66452039  0.03789052  0.08197884  1
  O  O36  1  0.19117143  0.01023465  0.30258828  1
  O  O37  1  0.82055492  0.80671914  0.30354706  1
  O  O38  1  0.99341639  0.16560275  0.30610542  1
  O  O39  1  0.19328086  0.17944508  0.80354706  1
  O  O40  1  0.98976535  0.80882857  0.80258828  1
  O  O41  1  0.83439725  0.00658361  0.80610542  1
  O  O42  1  0.81238168  0.97291360  0.69473030  1
  O  O43  1  0.17707583  0.20351078  0.69917832  1
  O  O44  1  0.03021437  0.82418713  0.69763957  1
  O  O45  1  0.79648922  0.82292417  0.19917832  1
  O  O46  1  0.02708640  0.18761832  0.19473030  1
  O  O47  1  0.17581287  0.96978563  0.19763957  1
  O  O48  1  0.89527211  0.36593152  0.63522875  1
  O  O49  1  0.48217318  0.09960695  0.64067871  1
  O  O50  1  0.62932776  0.52357263  0.64234492  1
  O  O51  1  0.90039305  0.51782682  0.14067871  1
  O  O52  1  0.63406848  0.10472789  0.13522875  1
  O  O53  1  0.47642737  0.37067224  0.14234492  1
  O  O54  1  0.46829841  0.30328637  0.02549221  1
  O  O55  1  0.83437832  0.52919135  0.02602598  1
  O  O56  1  0.69795966  0.14746534  0.03104834  1
  O  O57  1  0.47080865  0.16562168  0.52602598  1
  O  O58  1  0.69671363  0.53170159  0.52549221  1
  O  O59  1  0.85253466  0.30204034  0.53104834  1
  O  O60  1  0.53327363  0.70155113  0.97325316  1
  O  O61  1  0.16464270  0.46695532  0.97131002  1
  O  O62  1  0.30288749  0.83362312  0.97184325  1
  O  O63  1  0.53304468  0.83535730  0.47131002  1
  O  O64  1  0.29844887  0.46672637  0.47325316  1
  O  O65  1  0.16637688  0.69711251  0.47184325  1
  O  O66  1  0.13792976  0.63642821  0.36017769  1
  O  O67  1  0.49855445  0.86117527  0.35853124  1
  O  O68  1  0.36232822  0.49978255  0.35999609  1
  O  O69  1  0.13882473  0.50144555  0.85853124  1
  O  O70  1  0.36357179  0.86207024  0.86017769  1
  O  O71  1  0.50021745  0.63767178  0.85999609  1
  O  O72  1  0.02355148  0.83427549  0.40459973  1
  O  O73  1  0.80758799  0.97195011  0.40748326  1
  O  O74  1  0.16625119  0.18669675  0.40728647  1
  O  O75  1  0.02804989  0.19241201  0.90748326  1
  O  O76  1  0.16572451  0.97644852  0.90459973  1
  O  O77  1  0.81330325  0.83374881  0.90728647  1
  O  O78  1  0.98069943  0.17491393  0.58916228  1
  O  O79  1  0.17993132  0.02358950  0.59223118  1
  O  O80  1  0.83626077  0.81798286  0.58975575  1
  O  O81  1  0.97641050  0.82006868  0.09223118  1
  O  O82  1  0.82508607  0.01930057  0.08916228  1
  O  O83  1  0.18201714  0.16373923  0.08975575  1
  O  O84  1  0.69576751  0.16702295  0.75505076  1
  O  O85  1  0.45279750  0.30837069  0.75009577  1
  O  O86  1  0.85274821  0.54891298  0.74806111  1
  O  O87  1  0.69162931  0.54720250  0.25009577  1
  O  O88  1  0.83297705  0.30423249  0.25505076  1
  O  O89  1  0.45108702  0.14725179  0.24806111  1
  O  O90  1  0.64048645  0.49792137  0.92288623  1
  O  O91  1  0.85141080  0.35370657  0.92587543  1
  O  O92  1  0.50722037  0.14539933  0.92609860  1
  O  O93  1  0.64629343  0.14858920  0.42587543  1
  O  O94  1  0.50207863  0.35951355  0.42288623  1
  O  O95  1  0.85460067  0.49277963  0.42609860  1
  O  O96  1  0.34853796  0.50251640  0.06994941  1
  O  O97  1  0.15653578  0.66339625  0.06971960  1
  O  O98  1  0.51510829  0.86169580  0.07328297  1
  O  O99  1  0.33660375  0.84346422  0.56971960  1
  O  O100  1  0.49748360  0.65146204  0.56994941  1
  O  O101  1  0.13830420  0.48489171  0.57328297  1
  O  O102  1  0.29590811  0.83511016  0.25587710  1
  O  O103  1  0.54027632  0.70785735  0.25718711  1
  O  O104  1  0.18357943  0.48003625  0.25791517  1
  O  O105  1  0.29214265  0.45972368  0.75718711  1
  O  O106  1  0.16488984  0.70409189  0.75587710  1
  O  O107  1  0.51996375  0.81642057  0.75791517  1
