# generated using pymatgen
data_Na5Ta3Si6SnO24
_symmetry_space_group_name_H-M   'P 1'
_cell_length_a   9.03672097
_cell_length_b   9.02805545
_cell_length_c   22.49178724
_cell_angle_alpha   90.28969707
_cell_angle_beta   89.78443357
_cell_angle_gamma   120.14002939
_symmetry_Int_Tables_number   1
_chemical_formula_structural   Na5Ta3Si6SnO24
_chemical_formula_sum   'Na15 Ta9 Si18 Sn3 O72'
_cell_volume   1586.86203489
_cell_formula_units_Z   3
loop_
 _symmetry_equiv_pos_site_id
 _symmetry_equiv_pos_as_xyz
  1  'x, y, z'
loop_
 _atom_site_type_symbol
 _atom_site_label
 _atom_site_symmetry_multiplicity
 _atom_site_fract_x
 _atom_site_fract_y
 _atom_site_fract_z
 _atom_site_occupancy
  Na  Na0  1  0.36771247  0.36305795  0.24651957  1
  Na  Na1  1  0.99098839  0.63138932  0.24644219  1
  Na  Na2  1  0.63601473  0.62927693  0.74753230  1
  Na  Na3  1  0.99966090  0.37126527  0.74826544  1
  Na  Na4  1  0.03093020  0.69489057  0.58496163  1
  Na  Na5  1  0.30828750  0.97078449  0.08478067  1
  Na  Na6  1  0.69933349  0.03264423  0.91879927  1
  Na  Na7  1  0.96921948  0.29683342  0.41300165  1
  Na  Na8  1  0.33204695  0.03682255  0.41407804  1
  Na  Na9  1  0.98647845  0.99672704  0.49870305  1
  Na  Na10  1  0.00093690  0.00019152  0.00098476  1
  Na  Na11  1  0.65260361  0.33036222  0.83324598  1
  Na  Na12  1  0.66703514  0.33271160  0.32802130  1
  Na  Na13  1  0.34802695  0.66854111  0.16348176  1
  Na  Na14  1  0.34903358  0.68314966  0.66445819  1
  Ta  Ta15  1  0.00451826  0.00004904  0.85597213  1
  Ta  Ta16  1  0.00135992  0.00374024  0.64305324  1
  Ta  Ta17  1  0.99447271  0.99972072  0.14432680  1
  Ta  Ta18  1  0.66851024  0.33854574  0.97877801  1
  Ta  Ta19  1  0.66558083  0.33554139  0.47943696  1
  Ta  Ta20  1  0.33161427  0.66188835  0.02098508  1
  Ta  Ta21  1  0.33712568  0.66648893  0.52148972  1
  Ta  Ta22  1  0.33684543  0.66975205  0.31018337  1
  Ta  Ta23  1  0.33288078  0.66902012  0.81169788  1
  Si  Si24  1  0.29018867  0.00167513  0.25041211  1
  Si  Si25  1  0.71135477  0.71151873  0.24985685  1
  Si  Si26  1  0.99532130  0.28666859  0.25239195  1
  Si  Si27  1  0.28980665  0.28657505  0.75026237  1
  Si  Si28  1  0.00371389  0.71491774  0.74804954  1
  Si  Si29  1  0.71263061  0.00017932  0.75082765  1
  Si  Si30  1  0.95408379  0.33131941  0.58379929  1
  Si  Si31  1  0.37805944  0.04397621  0.58350451  1
  Si  Si32  1  0.66207589  0.62143083  0.58657784  1
  Si  Si33  1  0.95803619  0.62374001  0.08499644  1
  Si  Si34  1  0.66906638  0.04507188  0.08106952  1
  Si  Si35  1  0.37812957  0.33592742  0.08513535  1
  Si  Si36  1  0.61960739  0.66240454  0.91494353  1
  Si  Si37  1  0.04276946  0.37794063  0.91532340  1
  Si  Si38  1  0.33090180  0.95532803  0.91859339  1
  Si  Si39  1  0.62369355  0.95467894  0.41699292  1
  Si  Si40  1  0.33725421  0.38044158  0.41500717  1
  Si  Si41  1  0.04333637  0.66620547  0.41664618  1
  Sn  Sn42  1  0.99573730  0.99565179  0.35442253  1
  Sn  Sn43  1  0.66160253  0.32798338  0.68789077  1
  Sn  Sn44  1  0.66662408  0.33012172  0.18533082  1
  O  O45  1  0.21393233  0.03857782  0.31146035  1
  O  O46  1  0.83432299  0.78778704  0.30772952  1
  O  O47  1  0.97045715  0.18576086  0.31482246  1
  O  O48  1  0.18857008  0.17124928  0.80834385  1
  O  O49  1  0.97649804  0.81365156  0.80483002  1
  O  O50  1  0.82660533  0.02315686  0.81048545  1
  O  O51  1  0.80893919  0.96885868  0.69376908  1
  O  O52  1  0.16665825  0.19164156  0.69252003  1
  O  O53  1  0.02668179  0.82550351  0.68776635  1
  O  O54  1  0.80731856  0.83150335  0.19197938  1
  O  O55  1  0.02708800  0.18760078  0.19657844  1
  O  O56  1  0.16646297  0.96987081  0.19249539  1
  O  O57  1  0.88288992  0.37996630  0.64335477  1
  O  O58  1  0.49449890  0.12156106  0.64200490  1
  O  O59  1  0.63221601  0.51775142  0.64837029  1
  O  O60  1  0.88507408  0.51889208  0.14658426  1
  O  O61  1  0.61465050  0.12057233  0.13757081  1
  O  O62  1  0.48272592  0.36972468  0.14689643  1
  O  O63  1  0.47873569  0.30392883  0.02952892  1
  O  O64  1  0.83358661  0.51988796  0.02848354  1
  O  O65  1  0.69345603  0.15881975  0.02114687  1
  O  O66  1  0.46989278  0.15979673  0.52371542  1
  O  O67  1  0.69144850  0.51891966  0.53055104  1
  O  O68  1  0.83441803  0.30678013  0.52511931  1
  O  O69  1  0.52342539  0.69682749  0.97038848  1
  O  O70  1  0.16436984  0.47797431  0.97189466  1
  O  O71  1  0.30790899  0.84327897  0.97783688  1
  O  O72  1  0.52299651  0.83851869  0.47448802  1
  O  O73  1  0.30992375  0.47923561  0.47122564  1
  O  O74  1  0.16119945  0.68861618  0.47481610  1
  O  O75  1  0.13525325  0.63583332  0.35765601  1
  O  O76  1  0.49918789  0.85924287  0.35929816  1
  O  O77  1  0.35854228  0.49302266  0.35507303  1
  O  O78  1  0.13571847  0.49106433  0.85520738  1
  O  O79  1  0.35933110  0.85458650  0.86148451  1
  O  O80  1  0.50585487  0.63871390  0.85454180  1
  O  O81  1  0.03665508  0.84259019  0.41467981  1
  O  O82  1  0.81573672  0.98414476  0.41547320  1
  O  O83  1  0.16543149  0.19050902  0.41469574  1
  O  O84  1  0.01640954  0.18421313  0.91162791  1
  O  O85  1  0.16160782  0.97398046  0.91044173  1
  O  O86  1  0.80651999  0.83869344  0.90980357  1
  O  O87  1  0.97071202  0.15977448  0.58937624  1
  O  O88  1  0.18559199  0.02224986  0.58811661  1
  O  O89  1  0.84130708  0.80773267  0.58807018  1
  O  O90  1  0.98187499  0.81707467  0.08779436  1
  O  O91  1  0.84093268  0.03011081  0.08926959  1
  O  O92  1  0.19176076  0.15755968  0.08923690  1
  O  O93  1  0.70666663  0.17682236  0.74736362  1
  O  O94  1  0.48220628  0.31643466  0.74952900  1
  O  O95  1  0.83172344  0.52454630  0.74795076  1
  O  O96  1  0.68358227  0.51868842  0.24521574  1
  O  O97  1  0.83771444  0.32341439  0.24635810  1
  O  O98  1  0.47780566  0.17185615  0.24560998  1
  O  O99  1  0.63875749  0.49398835  0.92318722  1
  O  O100  1  0.85128243  0.35421530  0.92111988  1
  O  O101  1  0.50697741  0.14166473  0.92182998  1
  O  O102  1  0.63569090  0.14320930  0.42178438  1
  O  O103  1  0.50563323  0.35797738  0.42237297  1
  O  O104  1  0.85716527  0.48890137  0.42260227  1
  O  O105  1  0.35275160  0.50054774  0.07410294  1
  O  O106  1  0.15272933  0.65457934  0.07650418  1
  O  O107  1  0.49906332  0.85333214  0.07396035  1
  O  O108  1  0.34165399  0.84695356  0.57620502  1
  O  O109  1  0.49814800  0.64710838  0.57612799  1
  O  O110  1  0.14288425  0.50216616  0.57441761  1
  O  O111  1  0.29588081  0.82165248  0.25591599  1
  O  O112  1  0.52047787  0.69262532  0.25507520  1
  O  O113  1  0.17538670  0.47686316  0.25472677  1
  O  O114  1  0.30165822  0.47554137  0.75444135  1
  O  O115  1  0.17182757  0.69108052  0.75535982  1
  O  O116  1  0.52507559  0.82333617  0.75506939  1
