# generated using pymatgen
data_K2In12Se19
_symmetry_space_group_name_H-M   'P 1'
_cell_length_a   14.39797169
_cell_length_b   14.39797129
_cell_length_c   14.39797083
_cell_angle_alpha   58.44889695
_cell_angle_beta   58.44889414
_cell_angle_gamma   58.44889726
_symmetry_Int_Tables_number   1
_chemical_formula_structural   K2In12Se19
_chemical_formula_sum   'K4 In24 Se38'
_cell_volume   2035.60869827
_cell_formula_units_Z   2
loop_
 _symmetry_equiv_pos_site_id
 _symmetry_equiv_pos_as_xyz
  1  'x, y, z'
loop_
 _atom_site_type_symbol
 _atom_site_label
 _atom_site_symmetry_multiplicity
 _atom_site_fract_x
 _atom_site_fract_y
 _atom_site_fract_z
 _atom_site_occupancy
  K  K0  1  0.58639978  0.58639978  0.58639978  1
  K  K1  1  0.41360022  0.41360022  0.41360022  1
  K  K2  1  0.08057860  0.08057860  0.08057860  1
  K  K3  1  0.91942140  0.91942140  0.91942140  1
  In  In4  1  0.32222940  0.79992620  0.89609958  1
  In  In5  1  0.89609958  0.32222940  0.79992620  1
  In  In6  1  0.79992620  0.89609958  0.32222940  1
  In  In7  1  0.67777060  0.20007380  0.10390042  1
  In  In8  1  0.10390042  0.67777060  0.20007380  1
  In  In9  1  0.20007380  0.10390042  0.67777060  1
  In  In10  1  0.82570292  0.30737184  0.39960920  1
  In  In11  1  0.39960920  0.82570292  0.30737184  1
  In  In12  1  0.30737184  0.39960920  0.82570292  1
  In  In13  1  0.17429708  0.69262816  0.60039080  1
  In  In14  1  0.60039080  0.17429708  0.69262816  1
  In  In15  1  0.69262816  0.60039080  0.17429708  1
  In  In16  1  0.63538681  0.60149365  0.90906532  1
  In  In17  1  0.90906532  0.63538681  0.60149365  1
  In  In18  1  0.60149365  0.90906532  0.63538681  1
  In  In19  1  0.36461319  0.39850635  0.09093468  1
  In  In20  1  0.09093468  0.36461319  0.39850635  1
  In  In21  1  0.39850635  0.09093468  0.36461319  1
  In  In22  1  0.49744006  0.89794819  0.96517678  1
  In  In23  1  0.96517678  0.49744006  0.89794819  1
  In  In24  1  0.89794819  0.96517678  0.49744006  1
  In  In25  1  0.50255994  0.10205181  0.03482322  1
  In  In26  1  0.03482322  0.50255994  0.10205181  1
  In  In27  1  0.10205181  0.03482322  0.50255994  1
  Se  Se28  1  0.25009198  0.25009198  0.25009198  1
  Se  Se29  1  0.74990802  0.74990802  0.74990802  1
  Se  Se30  1  0.10287152  0.22806773  0.80382038  1
  Se  Se31  1  0.80382038  0.10287152  0.22806773  1
  Se  Se32  1  0.22806773  0.80382038  0.10287152  1
  Se  Se33  1  0.89712848  0.77193227  0.19617962  1
  Se  Se34  1  0.19617962  0.89712848  0.77193227  1
  Se  Se35  1  0.77193227  0.19617962  0.89712848  1
  Se  Se36  1  0.61409862  0.73134919  0.28660174  1
  Se  Se37  1  0.28660174  0.61409862  0.73134919  1
  Se  Se38  1  0.73134919  0.28660174  0.61409862  1
  Se  Se39  1  0.38590138  0.26865081  0.71339826  1
  Se  Se40  1  0.71339826  0.38590138  0.26865081  1
  Se  Se41  1  0.26865081  0.71339826  0.38590138  1
  Se  Se42  1  0.61847957  0.84631873  0.49056295  1
  Se  Se43  1  0.49056295  0.61847957  0.84631873  1
  Se  Se44  1  0.84631873  0.49056295  0.61847957  1
  Se  Se45  1  0.38152043  0.15368127  0.50943705  1
  Se  Se46  1  0.50943705  0.38152043  0.15368127  1
  Se  Se47  1  0.15368127  0.50943705  0.38152043  1
  Se  Se48  1  0.11943649  0.34791428  0.00550973  1
  Se  Se49  1  0.00550973  0.11943649  0.34791428  1
  Se  Se50  1  0.34791428  0.00550973  0.11943649  1
  Se  Se51  1  0.88056351  0.65208572  0.99449027  1
  Se  Se52  1  0.99449027  0.88056351  0.65208572  1
  Se  Se53  1  0.65208572  0.99449027  0.88056351  1
  Se  Se54  1  0.41512781  0.96450302  0.80770355  1
  Se  Se55  1  0.80770355  0.41512781  0.96450302  1
  Se  Se56  1  0.96450302  0.80770355  0.41512781  1
  Se  Se57  1  0.58487219  0.03549698  0.19229645  1
  Se  Se58  1  0.19229645  0.58487219  0.03549698  1
  Se  Se59  1  0.03549698  0.19229645  0.58487219  1
  Se  Se60  1  0.91613141  0.46578386  0.32173668  1
  Se  Se61  1  0.32173668  0.91613141  0.46578386  1
  Se  Se62  1  0.46578386  0.32173668  0.91613141  1
  Se  Se63  1  0.08386859  0.53421614  0.67826332  1
  Se  Se64  1  0.67826332  0.08386859  0.53421614  1
  Se  Se65  1  0.53421614  0.67826332  0.08386859  1
