# generated using pymatgen
data_Na12Mg2Nb4(SiO4)9
_symmetry_space_group_name_H-M   'P 1'
_cell_length_a   9.14439882
_cell_length_b   9.14439850
_cell_length_c   22.41822323
_cell_angle_alpha   90.00000000
_cell_angle_beta   90.00000000
_cell_angle_gamma   120.00000116
_symmetry_Int_Tables_number   1
_chemical_formula_structural   Na12Mg2Nb4(SiO4)9
_chemical_formula_sum   'Na24 Mg4 Nb8 Si18 O72'
_cell_volume   1623.46196619
_cell_formula_units_Z   2
loop_
 _symmetry_equiv_pos_site_id
 _symmetry_equiv_pos_as_xyz
  1  'x, y, z'
loop_
 _atom_site_type_symbol
 _atom_site_label
 _atom_site_symmetry_multiplicity
 _atom_site_fract_x
 _atom_site_fract_y
 _atom_site_fract_z
 _atom_site_occupancy
  Na  Na0  1  0.64062265  0.01933304  0.24681171  1
  Na  Na1  1  0.37871039  0.35937735  0.24681171  1
  Na  Na2  1  0.98066696  0.62128961  0.24681171  1
  Na  Na3  1  0.64062265  0.62128961  0.74681171  1
  Na  Na4  1  0.98066696  0.35937735  0.74681171  1
  Na  Na5  1  0.37871039  0.01933304  0.74681171  1
  Na  Na6  1  0.30759556  0.33364269  0.58690402  1
  Na  Na7  1  0.02604813  0.69240444  0.58690402  1
  Na  Na8  1  0.66635731  0.97395187  0.58690402  1
  Na  Na9  1  0.30759556  0.97395187  0.08690402  1
  Na  Na10  1  0.66635731  0.69240444  0.08690402  1
  Na  Na11  1  0.02604813  0.33364269  0.08690402  1
  Na  Na12  1  0.96518706  0.68239468  0.90881825  1
  Na  Na13  1  0.71720662  0.03481294  0.90881825  1
  Na  Na14  1  0.31760532  0.28279338  0.90881825  1
  Na  Na15  1  0.96518706  0.28279338  0.40881825  1
  Na  Na16  1  0.31760532  0.03481294  0.40881825  1
  Na  Na17  1  0.71720662  0.68239468  0.40881825  1
  Na  Na18  1  0.00000000  -0.00000000  0.49413647  1
  Na  Na19  1  0.00000000  -0.00000000  0.99413647  1
  Na  Na20  1  0.66666700  0.33333300  0.82359260  1
  Na  Na21  1  0.66666700  0.33333300  0.32359260  1
  Na  Na22  1  0.33333300  0.66666700  0.16763912  1
  Na  Na23  1  0.33333300  0.66666700  0.66763912  1
  Mg  Mg24  1  0.00000000  -0.00000000  0.35205473  1
  Mg  Mg25  1  0.00000000  -0.00000000  0.85205473  1
  Mg  Mg26  1  0.66666700  0.33333300  0.68536616  1
  Mg  Mg27  1  0.66666700  0.33333300  0.18536616  1
  Nb  Nb28  1  0.00000000  -0.00000000  0.64958975  1
  Nb  Nb29  1  0.00000000  -0.00000000  0.14958975  1
  Nb  Nb30  1  0.66666700  0.33333300  0.98018028  1
  Nb  Nb31  1  0.66666700  0.33333300  0.48018028  1
  Nb  Nb32  1  0.33333300  0.66666700  0.01904669  1
  Nb  Nb33  1  0.33333300  0.66666700  0.51904669  1
  Nb  Nb34  1  0.33333300  0.66666700  0.31106526  1
  Nb  Nb35  1  0.33333300  0.66666700  0.81106526  1
  Si  Si36  1  0.29369699  0.00331315  0.25403962  1
  Si  Si37  1  0.70961617  0.70630301  0.25403962  1
  Si  Si38  1  0.99668685  0.29038383  0.25403962  1
  Si  Si39  1  0.29369699  0.29038383  0.75403962  1
  Si  Si40  1  0.99668685  0.70630301  0.75403962  1
  Si  Si41  1  0.70961617  0.00331315  0.75403962  1
  Si  Si42  1  0.95815175  0.33326869  0.58547062  1
  Si  Si43  1  0.37511795  0.04184825  0.58547062  1
  Si  Si44  1  0.66673131  0.62488205  0.58547062  1
  Si  Si45  1  0.95815175  0.62488205  0.08547062  1
  Si  Si46  1  0.66673131  0.04184825  0.08547062  1
  Si  Si47  1  0.37511795  0.33326869  0.08547062  1
  Si  Si48  1  0.62572129  0.66602693  0.91627418  1
  Si  Si49  1  0.04030464  0.37427871  0.91627418  1
  Si  Si50  1  0.33397307  0.95969536  0.91627418  1
  Si  Si51  1  0.62572129  0.95969536  0.41627418  1
  Si  Si52  1  0.33397307  0.37427871  0.41627418  1
  Si  Si53  1  0.04030464  0.66602693  0.41627418  1
  O  O54  1  0.20789805  0.02905014  0.31153798  1
  O  O55  1  0.82115209  0.79210195  0.31153798  1
  O  O56  1  0.97094986  0.17884791  0.31153798  1
  O  O57  1  0.20789805  0.17884791  0.81153798  1
  O  O58  1  0.97094986  0.79210195  0.81153798  1
  O  O59  1  0.82115209  0.02905014  0.81153798  1
  O  O60  1  0.80230923  0.96880296  0.69292925  1
  O  O61  1  0.16649372  0.19769077  0.69292925  1
  O  O62  1  0.03119704  0.83350628  0.69292925  1
  O  O63  1  0.80230923  0.83350628  0.19292925  1
  O  O64  1  0.03119704  0.19769077  0.19292925  1
  O  O65  1  0.16649372  0.96880296  0.19292925  1
  O  O66  1  0.88388157  0.37626760  0.64246373  1
  O  O67  1  0.49238703  0.11611843  0.64246373  1
  O  O68  1  0.62373240  0.50761297  0.64246373  1
  O  O69  1  0.88388157  0.50761297  0.14246373  1
  O  O70  1  0.62373240  0.11611843  0.14246373  1
  O  O71  1  0.49238703  0.37626760  0.14246373  1
  O  O72  1  0.46875466  0.30360755  0.02577895  1
  O  O73  1  0.83485390  0.53124534  0.02577895  1
  O  O74  1  0.69639245  0.16514610  0.02577895  1
  O  O75  1  0.46875466  0.16514610  0.52577895  1
  O  O76  1  0.69639245  0.53124534  0.52577895  1
  O  O77  1  0.83485390  0.30360755  0.52577895  1
  O  O78  1  0.52291930  0.68335005  0.97431831  1
  O  O79  1  0.16042975  0.47708070  0.97431831  1
  O  O80  1  0.31664995  0.83957025  0.97431831  1
  O  O81  1  0.52291930  0.83957025  0.47431831  1
  O  O82  1  0.31664995  0.47708070  0.47431831  1
  O  O83  1  0.16042975  0.68335005  0.47431831  1
  O  O84  1  0.13461474  0.63262274  0.35879736  1
  O  O85  1  0.49800700  0.86538526  0.35879736  1
  O  O86  1  0.36737726  0.50199300  0.35879736  1
  O  O87  1  0.13461474  0.50199300  0.85879736  1
  O  O88  1  0.36737726  0.86538526  0.85879736  1
  O  O89  1  0.49800700  0.63262274  0.85879736  1
  O  O90  1  0.02296803  0.83073093  0.41608123  1
  O  O91  1  0.80776290  0.97703197  0.41608123  1
  O  O92  1  0.16926907  0.19223710  0.41608123  1
  O  O93  1  0.02296803  0.19223710  0.91608123  1
  O  O94  1  0.16926907  0.97703197  0.91608123  1
  O  O95  1  0.80776290  0.83073093  0.91608123  1
  O  O96  1  0.97615032  0.16198098  0.58794190  1
  O  O97  1  0.18583066  0.02384968  0.58794190  1
  O  O98  1  0.83801902  0.81416934  0.58794190  1
  O  O99  1  0.97615032  0.81416934  0.08794190  1
  O  O100  1  0.83801902  0.02384968  0.08794190  1
  O  O101  1  0.18583066  0.16198098  0.08794190  1
  O  O102  1  0.68109843  0.16144259  0.74487212  1
  O  O103  1  0.48034516  0.31890157  0.74487212  1
  O  O104  1  0.83855741  0.51965484  0.74487212  1
  O  O105  1  0.68109843  0.51965484  0.24487212  1
  O  O106  1  0.83855741  0.31890157  0.24487212  1
  O  O107  1  0.48034516  0.16144259  0.24487212  1
  O  O108  1  0.63341276  0.48945515  0.92267250  1
  O  O109  1  0.85604339  0.36658724  0.92267250  1
  O  O110  1  0.51054485  0.14395661  0.92267250  1
  O  O111  1  0.63341276  0.14395661  0.42267250  1
  O  O112  1  0.51054485  0.36658724  0.42267250  1
  O  O113  1  0.85604339  0.48945515  0.42267250  1
  O  O114  1  0.34643457  0.49733574  0.07507775  1
  O  O115  1  0.15090016  0.65356543  0.07507775  1
  O  O116  1  0.50266426  0.84909984  0.07507775  1
  O  O117  1  0.34643457  0.84909984  0.57507775  1
  O  O118  1  0.50266426  0.65356543  0.57507775  1
  O  O119  1  0.15090016  0.49733574  0.57507775  1
  O  O120  1  0.30021371  0.82188030  0.25498681  1
  O  O121  1  0.52166559  0.69978629  0.25498681  1
  O  O122  1  0.17811970  0.47833441  0.25498681  1
  O  O123  1  0.30021371  0.47833441  0.75498681  1
  O  O124  1  0.17811970  0.69978629  0.75498681  1
  O  O125  1  0.52166559  0.82188030  0.75498681  1
