# generated using pymatgen
data_Na3HfTiSi2PO12
_symmetry_space_group_name_H-M   'P 1'
_cell_length_a   15.67159051
_cell_length_b   9.00901459
_cell_length_c   9.00219543
_cell_angle_alpha   90.06979529
_cell_angle_beta   125.05828970
_cell_angle_gamma   89.81536288
_symmetry_Int_Tables_number   1
_chemical_formula_structural   Na3HfTiSi2PO12
_chemical_formula_sum   'Na12 Hf4 Ti4 Si8 P4 O48'
_cell_volume   1040.37816865
_cell_formula_units_Z   4
loop_
 _symmetry_equiv_pos_site_id
 _symmetry_equiv_pos_as_xyz
  1  'x, y, z'
loop_
 _atom_site_type_symbol
 _atom_site_label
 _atom_site_symmetry_multiplicity
 _atom_site_fract_x
 _atom_site_fract_y
 _atom_site_fract_z
 _atom_site_occupancy
  Na  Na0  1  0.24234334  0.77279132  0.99399758  1
  Na  Na1  1  0.74921306  0.73112828  0.50488922  1
  Na  Na2  1  0.74987051  0.26687833  0.00513156  1
  Na  Na3  1  0.24257564  0.22551295  0.49322285  1
  Na  Na4  1  0.50366156  0.10912820  0.75619034  1
  Na  Na5  1  0.50494227  0.89745394  0.25133171  1
  Na  Na6  1  0.00421117  0.61704001  0.75666320  1
  Na  Na7  1  0.00369777  0.37588939  0.25144067  1
  Na  Na8  1  0.81196382  0.93998860  0.22157354  1
  Na  Na9  1  0.81054609  0.06139666  0.72088187  1
  Na  Na10  1  0.30222693  0.43525063  0.20365927  1
  Na  Na11  1  0.30888882  0.55764208  0.72607148  1
  Hf  Hf12  1  0.10635734  0.75262205  0.56221372  1
  Hf  Hf13  1  0.60618785  0.25163772  0.56507714  1
  Hf  Hf14  1  0.39421144  0.75523209  0.43236695  1
  Hf  Hf15  1  0.60704988  0.74891430  0.06458693  1
  Ti  Ti16  1  0.89473752  0.74041628  0.93873266  1
  Ti  Ti17  1  0.89499471  0.25996508  0.43724519  1
  Ti  Ti18  1  0.10525904  0.25192890  0.05846801  1
  Ti  Ti19  1  0.39405833  0.24024088  0.93526955  1
  Si  Si20  1  0.35569829  0.89867503  0.76062125  1
  Si  Si21  1  0.65133391  0.89010043  0.74519023  1
  Si  Si22  1  0.64941670  0.11205375  0.24502824  1
  Si  Si23  1  0.35245721  0.10674955  0.25126155  1
  Si  Si24  1  0.85879822  0.39788410  0.75668649  1
  Si  Si25  1  0.14610864  0.38798544  0.74463213  1
  Si  Si26  1  0.14500805  0.60378026  0.24076179  1
  Si  Si27  1  0.85712067  0.60118416  0.25715101  1
  P  P28  1  -0.00015379  0.96643245  0.74793489  1
  P  P29  1  0.99920981  0.04062034  0.23992018  1
  P  P30  1  0.49748987  0.45525299  0.74734178  1
  P  P31  1  0.49866769  0.53908943  0.24122872  1
  O  O32  1  0.15122527  0.57138180  0.74425401  1
  O  O33  1  0.85607173  0.57938973  0.75930219  1
  O  O34  1  0.85615376  0.41961557  0.25786518  1
  O  O35  1  0.14898241  0.42034494  0.23308698  1
  O  O36  1  0.65636669  0.07347502  0.74460085  1
  O  O37  1  0.35174037  0.08103729  0.76108638  1
  O  O38  1  0.35022327  0.92554297  0.24581157  1
  O  O39  1  0.65633307  0.92884735  0.24267326  1
  O  O40  1  0.43442206  0.54973280  0.57226518  1
  O  O41  1  0.55660798  0.55855173  0.91243048  1
  O  O42  1  0.55839441  0.43987940  0.41101432  1
  O  O43  1  0.43578473  0.44511815  0.06710909  1
  O  O44  1  0.93336248  0.06006556  0.57192662  1
  O  O45  1  0.06086296  0.06970063  0.91451241  1
  O  O46  1  0.06318655  0.94094065  0.41029397  1
  O  O47  1  0.93283864  0.94169415  0.06994560  1
  O  O48  1  0.25855013  0.81954151  0.74694367  1
  O  O49  1  0.75427496  0.82669272  0.76079417  1
  O  O50  1  0.75171512  0.17563836  0.25919925  1
  O  O51  1  0.25185064  0.18216506  0.23072894  1
  O  O52  1  0.76073179  0.32227993  0.74323236  1
  O  O53  1  0.24985034  0.32716792  0.76157972  1
  O  O54  1  0.24494172  0.66601862  0.24739592  1
  O  O55  1  0.75851631  0.67585578  0.24287212  1
  O  O56  1  0.36073067  0.85306607  0.58918242  1
  O  O57  1  0.65062359  0.85256222  0.92236015  1
  O  O58  1  0.65035653  0.14557277  0.42476157  1
  O  O59  1  0.36243783  0.16037640  0.08455976  1
  O  O60  1  0.86263295  0.35111066  0.58106195  1
  O  O61  1  0.14415677  0.35041553  0.92234261  1
  O  O62  1  0.15119955  0.63859644  0.42552085  1
  O  O63  1  0.86229183  0.65215606  0.08418143  1
  O  O64  1  0.46242325  0.83915753  0.94484523  1
  O  O65  1  0.54404773  0.82926135  0.56109058  1
  O  O66  1  0.53832205  0.17402188  0.06440447  1
  O  O67  1  0.45863837  0.16615719  0.43767556  1
  O  O68  1  0.96636285  0.33137885  0.93578845  1
  O  O69  1  0.03829379  0.32340896  0.56282973  1
  O  O70  1  0.03625305  0.67274899  0.06463077  1
  O  O71  1  0.96131284  0.66703403  0.43985416  1
  O  O72  1  0.07813816  0.86264493  0.74496060  1
  O  O73  1  0.92314529  0.86647379  0.75854775  1
  O  O74  1  0.92101822  0.13740127  0.25191355  1
  O  O75  1  0.07572111  0.14452531  0.23497542  1
  O  O76  1  0.57750508  0.35126283  0.75105277  1
  O  O77  1  0.41730298  0.35887946  0.75156923  1
  O  O78  1  0.41787493  0.63528296  0.24681033  1
  O  O79  1  0.57807083  0.64496127  0.24738475  1
