# generated using pymatgen
data_Zr2In2SiS5O24
_symmetry_space_group_name_H-M   'P 1'
_cell_length_a   8.94827256
_cell_length_b   9.00881433
_cell_length_c   23.26850846
_cell_angle_alpha   90.19179041
_cell_angle_beta   89.82442192
_cell_angle_gamma   119.82161368
_symmetry_Int_Tables_number   1
_chemical_formula_structural   Zr2In2SiS5O24
_chemical_formula_sum   'Zr6 In6 Si3 S15 O72'
_cell_volume   1627.34965856
_cell_formula_units_Z   3
loop_
 _symmetry_equiv_pos_site_id
 _symmetry_equiv_pos_as_xyz
  1  'x, y, z'
loop_
 _atom_site_type_symbol
 _atom_site_label
 _atom_site_symmetry_multiplicity
 _atom_site_fract_x
 _atom_site_fract_y
 _atom_site_fract_z
 _atom_site_occupancy
  Zr  Zr0  1  0.99748326  0.00601977  0.64315149  1
  Zr  Zr1  1  0.00804130  0.00832608  0.14310954  1
  Zr  Zr2  1  0.67510251  0.32283491  0.47658551  1
  Zr  Zr3  1  0.33476976  0.65925587  0.02246652  1
  Zr  Zr4  1  0.33733975  0.66761113  0.52215099  1
  Zr  Zr5  1  0.34152488  0.67533019  0.31274917  1
  In  In6  1  0.99546376  0.00115926  0.35498588  1
  In  In7  1  0.00231459  0.00039575  0.85336512  1
  In  In8  1  0.67377070  0.33642897  0.68650807  1
  In  In9  1  0.66201180  0.33528829  0.18563620  1
  In  In10  1  0.65912311  0.33054800  0.97990757  1
  In  In11  1  0.33142277  0.66637045  0.81262941  1
  Si  Si12  1  0.95729126  0.33810809  0.58468914  1
  Si  Si13  1  0.38430955  0.33437698  0.08322539  1
  Si  Si14  1  0.62625890  0.95409194  0.41696085  1
  S  S15  1  0.28809778  0.00018833  0.25097847  1
  S  S16  1  0.71292899  0.70873807  0.24997312  1
  S  S17  1  0.99692668  0.29101828  0.24932962  1
  S  S18  1  0.29269490  0.29106946  0.75007620  1
  S  S19  1  0.99967653  0.70993307  0.75077565  1
  S  S20  1  0.70796026  0.99898315  0.75125541  1
  S  S21  1  0.37757304  0.04459033  0.58395939  1
  S  S22  1  0.66645124  0.62087148  0.58406032  1
  S  S23  1  0.95758200  0.62391968  0.08324326  1
  S  S24  1  0.66658014  0.04269738  0.08308021  1
  S  S25  1  0.62568550  0.66814430  0.91534459  1
  S  S26  1  0.04023691  0.37518891  0.91648283  1
  S  S27  1  0.33346335  0.95650249  0.91590676  1
  S  S28  1  0.33387252  0.37862351  0.41639374  1
  S  S29  1  0.04656838  0.66917307  0.41628463  1
  O  O30  1  0.20924238  0.02824472  0.30271417  1
  O  O31  1  0.81811073  0.78725655  0.30162796  1
  O  O32  1  0.96764178  0.18492422  0.30074966  1
  O  O33  1  0.21672175  0.18579102  0.80236328  1
  O  O34  1  0.97230474  0.78835589  0.80336900  1
  O  O35  1  0.81618932  0.02888114  0.80304025  1
  O  O36  1  0.79464891  0.97333609  0.69985889  1
  O  O37  1  0.18020803  0.20477503  0.69911727  1
  O  O38  1  0.02590971  0.81981391  0.69962615  1
  O  O39  1  0.79098084  0.81760604  0.19854622  1
  O  O40  1  0.02487730  0.20659551  0.19800812  1
  O  O41  1  0.17816186  0.97315650  0.19949749  1
  O  O42  1  0.87833045  0.37172093  0.64156151  1
  O  O43  1  0.48059765  0.11725826  0.63616818  1
  O  O44  1  0.63088029  0.51677231  0.63621275  1
  O  O45  1  0.88882243  0.51695187  0.13503135  1
  O  O46  1  0.63421745  0.11539297  0.13533836  1
  O  O47  1  0.49410566  0.37401935  0.14126765  1
  O  O48  1  0.45411379  0.29257655  0.02546897  1
  O  O49  1  0.85196551  0.55051861  0.03142222  1
  O  O50  1  0.70582525  0.15046082  0.03163405  1
  O  O51  1  0.45416454  0.15467092  0.53275129  1
  O  O52  1  0.69486141  0.54263322  0.53239763  1
  O  O53  1  0.83430969  0.30256064  0.52807346  1
  O  O54  1  0.53898777  0.69318493  0.96684648  1
  O  O55  1  0.15233087  0.46133044  0.96752901  1
  O  O56  1  0.30771008  0.84722572  0.96710291  1
  O  O57  1  0.52531025  0.83438686  0.47159823  1
  O  O58  1  0.30315397  0.45811367  0.46762290  1
  O  O59  1  0.15227008  0.69124757  0.46755527  1
  O  O60  1  0.12436997  0.63555803  0.36427242  1
  O  O61  1  0.49983837  0.86003762  0.36041894  1
  O  O62  1  0.35770911  0.48646654  0.36447031  1
  O  O63  1  0.11662313  0.48107917  0.86444605  1
  O  O64  1  0.36091378  0.87786409  0.86344003  1
  O  O65  1  0.51686080  0.63783328  0.86377069  1
  O  O66  1  0.03301166  0.82299885  0.40838402  1
  O  O67  1  0.81257732  0.97539668  0.40931287  1
  O  O68  1  0.18385374  0.20766841  0.40830970  1
  O  O69  1  0.02649534  0.20541982  0.91000643  1
  O  O70  1  0.17701836  0.97265765  0.90987652  1
  O  O71  1  0.79497054  0.82577274  0.90976333  1
  O  O72  1  0.97694352  0.16656582  0.59485704  1
  O  O73  1  0.20239666  0.02264409  0.59265146  1
  O  O74  1  0.82133113  0.79311050  0.59316618  1
  O  O75  1  0.97544715  0.79523091  0.09365349  1
  O  O76  1  0.81658135  0.01690021  0.09318617  1
  O  O77  1  0.18933393  0.16937034  0.09518669  1
  O  O78  1  0.68602633  0.14864211  0.74366842  1
  O  O79  1  0.46426642  0.30938711  0.74087062  1
  O  O80  1  0.84497403  0.54065136  0.74461563  1
  O  O81  1  0.69404465  0.53781130  0.24338075  1
  O  O82  1  0.84420397  0.31022824  0.23963764  1
  O  O83  1  0.46204693  0.14722408  0.24338868  1
  O  O84  1  0.64733660  0.51810747  0.92309929  1
  O  O85  1  0.86869670  0.35725285  0.92609460  1
  O  O86  1  0.48866844  0.12593891  0.92220563  1
  O  O87  1  0.63252809  0.13807032  0.42444971  1
  O  O88  1  0.49093119  0.36752321  0.42512054  1
  O  O89  1  0.87278863  0.51764205  0.42401156  1
  O  O90  1  0.35313588  0.49814819  0.07120843  1
  O  O91  1  0.13342278  0.64999926  0.07311874  1
  O  O92  1  0.51342421  0.87139722  0.07307968  1
  O  O93  1  0.35572424  0.87281145  0.57431012  1
  O  O94  1  0.51650194  0.64569185  0.57535119  1
  O  O95  1  0.14569565  0.49778818  0.57036218  1
  O  O96  1  0.29900368  0.84107721  0.25764363  1
  O  O97  1  0.53745950  0.68910671  0.25794656  1
  O  O98  1  0.15193760  0.46111184  0.25722111  1
  O  O99  1  0.30635391  0.46088954  0.75676041  1
  O  O100  1  0.15639019  0.69425589  0.75691629  1
  O  O101  1  0.53868194  0.84111941  0.75700054  1
