# generated using pymatgen
data_Al2ZnO4
_symmetry_space_group_name_H-M   'P 1'
_cell_length_a   5.71007910
_cell_length_b   5.71007916
_cell_length_c   5.71007931
_cell_angle_alpha   60.00000488
_cell_angle_beta   60.00000450
_cell_angle_gamma   60.00000335
_symmetry_Int_Tables_number   1
_chemical_formula_structural   Al2ZnO4
_chemical_formula_sum   'Al4 Zn2 O8'
_cell_volume   131.64714277
_cell_formula_units_Z   2
loop_
 _symmetry_equiv_pos_site_id
 _symmetry_equiv_pos_as_xyz
  1  'x, y, z'
loop_
 _atom_site_type_symbol
 _atom_site_label
 _atom_site_symmetry_multiplicity
 _atom_site_fract_x
 _atom_site_fract_y
 _atom_site_fract_z
 _atom_site_occupancy
  Al  Al0  1  0.50000000  -0.00000000  0.50000000  1
  Al  Al1  1  -0.00000000  0.50000000  0.50000000  1
  Al  Al2  1  0.50000000  0.50000000  -0.00000000  1
  Al  Al3  1  0.50000000  0.50000000  0.50000000  1
  Zn  Zn4  1  0.87500000  0.87500000  0.87500000  1
  Zn  Zn5  1  0.12500000  0.12500000  0.12500000  1
  O  O6  1  0.73571060  0.73571060  0.73571060  1
  O  O7  1  0.26428940  0.26428940  0.70713079  1
  O  O8  1  0.26428940  0.70713079  0.26428940  1
  O  O9  1  0.70713079  0.26428940  0.26428940  1
  O  O10  1  0.73571060  0.29286921  0.73571060  1
  O  O11  1  0.29286921  0.73571060  0.73571060  1
  O  O12  1  0.26428940  0.26428940  0.26428940  1
  O  O13  1  0.73571060  0.73571060  0.29286921  1
