# generated using pymatgen
data_Na4CaTi3(PO4)6
_symmetry_space_group_name_H-M   'P 1'
_cell_length_a   8.85409826
_cell_length_b   8.85216106
_cell_length_c   22.33410653
_cell_angle_alpha   90.06529225
_cell_angle_beta   89.95381714
_cell_angle_gamma   119.80655395
_symmetry_Int_Tables_number   1
_chemical_formula_structural   Na4CaTi3(PO4)6
_chemical_formula_sum   'Na12 Ca3 Ti9 P18 O72'
_cell_volume   1518.92325349
_cell_formula_units_Z   3
loop_
 _symmetry_equiv_pos_site_id
 _symmetry_equiv_pos_as_xyz
  1  'x, y, z'
loop_
 _atom_site_type_symbol
 _atom_site_label
 _atom_site_symmetry_multiplicity
 _atom_site_fract_x
 _atom_site_fract_y
 _atom_site_fract_z
 _atom_site_occupancy
  Na  Na0  1  0.64663266  0.01106632  0.24617510  1
  Na  Na1  1  0.36692842  0.35505217  0.24640069  1
  Na  Na2  1  0.98889060  0.63389665  0.24594048  1
  Na  Na3  1  0.99062385  0.36740086  0.74604012  1
  Na  Na4  1  0.37736268  0.00490736  0.74591831  1
  Na  Na5  1  0.71077454  0.67499004  0.41629664  1
  Na  Na6  1  0.01324773  0.01349033  0.49960467  1
  Na  Na7  1  0.00028154  0.00047163  0.00023317  1
  Na  Na8  1  0.66551910  0.34602558  0.83611377  1
  Na  Na9  1  0.66570818  0.32101399  0.33469474  1
  Na  Na10  1  0.33371426  0.66654117  0.16040112  1
  Na  Na11  1  0.34762055  0.66477427  0.66252848  1
  Ca  Ca12  1  0.00840390  0.00927834  0.35870299  1
  Ca  Ca13  1  0.66491780  0.34196680  0.68329016  1
  Ca  Ca14  1  0.66699477  0.33429434  0.17066547  1
  Ti  Ti15  1  0.99969995  0.99895100  0.85687597  1
  Ti  Ti16  1  0.99475724  0.99503557  0.64353635  1
  Ti  Ti17  1  0.00186518  0.00142081  0.14481310  1
  Ti  Ti18  1  0.66734268  0.33208143  0.98413863  1
  Ti  Ti19  1  0.66664039  0.32679791  0.48551904  1
  Ti  Ti20  1  0.33272565  0.66652473  0.01571819  1
  Ti  Ti21  1  0.33109258  0.66681245  0.52044409  1
  Ti  Ti22  1  0.33104098  0.66692412  0.31687994  1
  Ti  Ti23  1  0.33902785  0.66559780  0.81673718  1
  P  P24  1  0.29154531  0.99378009  0.24909794  1
  P  P25  1  0.70280825  0.70941957  0.25166584  1
  P  P26  1  0.00581872  0.29716895  0.24937277  1
  P  P27  1  0.27587408  0.28500424  0.75277801  1
  P  P28  1  0.00789797  0.72121899  0.75303297  1
  P  P29  1  0.71253178  0.98633947  0.75246077  1
  P  P30  1  0.96798679  0.33302525  0.58457129  1
  P  P31  1  0.36558638  0.03267343  0.58454017  1
  P  P32  1  0.66639302  0.63474668  0.58094546  1
  P  P33  1  0.97210741  0.63824654  0.08127556  1
  P  P34  1  0.66534988  0.02662941  0.08144657  1
  P  P35  1  0.36183549  0.33434894  0.08132804  1
  P  P36  1  0.62351592  0.66397905  0.91741681  1
  P  P37  1  0.04164575  0.37814340  0.91600224  1
  P  P38  1  0.33715707  0.95886850  0.91615185  1
  P  P39  1  0.60917850  0.95884874  0.41962764  1
  P  P40  1  0.34519271  0.38618645  0.42041627  1
  P  P41  1  0.03825148  0.65023031  0.41994258  1
  O  O42  1  0.21727087  0.02718757  0.30440448  1
  O  O43  1  0.80170011  0.77848864  0.30971642  1
  O  O44  1  0.96973269  0.18834619  0.30444727  1
  O  O45  1  0.17772463  0.17381662  0.80835574  1
  O  O46  1  0.99537180  0.81890129  0.80864551  1
  O  O47  1  0.82517155  0.00482465  0.80773427  1
  O  O48  1  0.80179553  0.96986471  0.69465002  1
  O  O49  1  0.16446572  0.19853710  0.69584047  1
  O  O50  1  0.02842150  0.83144525  0.69582797  1
  O  O51  1  0.80383354  0.83250370  0.19724564  1
  O  O52  1  0.03090425  0.20097810  0.19359858  1
  O  O53  1  0.17153006  0.97042191  0.19328741  1
  O  O54  1  0.91005764  0.37111851  0.64380244  1
  O  O55  1  0.46205940  0.08908941  0.64368344  1
  O  O56  1  0.62356472  0.53068063  0.63779469  1
  O  O57  1  0.92298706  0.54766773  0.14184655  1
  O  O58  1  0.62431132  0.07732384  0.14189909  1
  O  O59  1  0.45189643  0.37545675  0.14203214  1
  O  O60  1  0.47352209  0.31018265  0.03126995  1
  O  O61  1  0.83685735  0.52640518  0.03120352  1
  O  O62  1  0.68990458  0.16235409  0.03116998  1
  O  O63  1  0.47327621  0.16541325  0.53271102  1
  O  O64  1  0.69532547  0.53892058  0.52618816  1
  O  O65  1  0.83542185  0.30875415  0.53267481  1
  O  O66  1  0.53281143  0.69195353  0.97077850  1
  O  O67  1  0.16213810  0.47068289  0.96894268  1
  O  O68  1  0.30943250  0.83881305  0.96917659  1
  O  O69  1  0.50571194  0.84330541  0.47172362  1
  O  O70  1  0.33953104  0.49388949  0.47269046  1
  O  O71  1  0.15312928  0.66372445  0.47236576  1
  O  O72  1  0.13056100  0.63842594  0.35996256  1
  O  O73  1  0.50360605  0.86999265  0.35952900  1
  O  O74  1  0.36317085  0.49547860  0.36069692  1
  O  O75  1  0.12977974  0.49230822  0.85852421  1
  O  O76  1  0.36286466  0.87000146  0.85867411  1
  O  O77  1  0.50367723  0.63832035  0.86114928  1
  O  O78  1  0.01085434  0.80661202  0.42060609  1
  O  O79  1  0.78484524  0.96773393  0.41958996  1
  O  O80  1  0.18602583  0.20887758  0.42232834  1
  O  O81  1  0.02191546  0.19418885  0.90958796  1
  O  O82  1  0.17243425  0.97806835  0.90968066  1
  O  O83  1  0.80543535  0.82788824  0.90966474  1
  O  O84  1  0.97741408  0.16191439  0.58743478  1
  O  O85  1  0.18490783  0.02290104  0.58816812  1
  O  O86  1  0.83761294  0.81565544  0.58762659  1
  O  O87  1  0.98034316  0.81783599  0.08543355  1
  O  O88  1  0.83633241  0.01778065  0.08560216  1
  O  O89  1  0.18232652  0.16328283  0.08537908  1
  O  O90  1  0.69325758  0.14948042  0.75137119  1
  O  O91  1  0.45295817  0.29619481  0.75259352  1
  O  O92  1  0.85301990  0.53720521  0.75304893  1
  O  O93  1  0.67076544  0.52390609  0.24306046  1
  O  O94  1  0.85431453  0.33271386  0.24152497  1
  O  O95  1  0.47799808  0.14532994  0.24166585  1
  O  O96  1  0.63983242  0.49913652  0.92404641  1
  O  O97  1  0.85981134  0.36096019  0.92421225  1
  O  O98  1  0.50104096  0.14040211  0.92416748  1
  O  O99  1  0.62395845  0.14029797  0.42467434  1
  O  O100  1  0.51754878  0.37901564  0.42298933  1
  O  O101  1  0.85765010  0.48083725  0.42332494  1
  O  O102  1  0.33587263  0.48971404  0.06602794  1
  O  O103  1  0.15319094  0.66359721  0.06589220  1
  O  O104  1  0.50948994  0.84662822  0.06609353  1
  O  O105  1  0.33484796  0.84920674  0.57021845  1
  O  O106  1  0.51527499  0.67103017  0.56934409  1
  O  O107  1  0.15096445  0.48615656  0.57052499  1
  O  O108  1  0.29633475  0.81811126  0.25400732  1
  O  O109  1  0.52131672  0.70256330  0.25489597  1
  O  O110  1  0.18079576  0.47714533  0.25479445  1
  O  O111  1  0.28921505  0.46790572  0.75843418  1
  O  O112  1  0.18034411  0.71041720  0.75702213  1
  O  O113  1  0.52767272  0.82151969  0.75764561  1
