# generated using pymatgen
data_Na15Nb5Zn7(PO4)18
_symmetry_space_group_name_H-M   'P 1'
_cell_length_a   8.97035922
_cell_length_b   8.94951717
_cell_length_c   22.22909371
_cell_angle_alpha   89.91703196
_cell_angle_beta   90.19888301
_cell_angle_gamma   119.93140735
_symmetry_Int_Tables_number   1
_chemical_formula_structural   Na15Nb5Zn7(PO4)18
_chemical_formula_sum   'Na15 Nb5 Zn7 P18 O72'
_cell_volume   1546.53214889
_cell_formula_units_Z   1
loop_
 _symmetry_equiv_pos_site_id
 _symmetry_equiv_pos_as_xyz
  1  'x, y, z'
loop_
 _atom_site_type_symbol
 _atom_site_label
 _atom_site_symmetry_multiplicity
 _atom_site_fract_x
 _atom_site_fract_y
 _atom_site_fract_z
 _atom_site_occupancy
  Na  Na0  1  0.98666616  0.63120284  0.24422621  1
  Na  Na1  1  0.65001457  0.63576689  0.74667239  1
  Na  Na2  1  0.98564546  0.34906915  0.74688315  1
  Na  Na3  1  0.36423886  0.01397727  0.74664827  1
  Na  Na4  1  0.29274207  0.33351883  0.58457266  1
  Na  Na5  1  0.04239608  0.70891823  0.58520470  1
  Na  Na6  1  0.66506129  0.95913700  0.58482440  1
  Na  Na7  1  0.65443058  0.68944231  0.07812526  1
  Na  Na8  1  0.31916380  0.02403831  0.41066065  1
  Na  Na9  1  0.98753717  0.99895684  0.49465954  1
  Na  Na10  1  0.01146904  0.00956267  0.98710380  1
  Na  Na11  1  0.66706996  0.33351360  0.83154793  1
  Na  Na12  1  0.66333775  0.32954497  0.32187780  1
  Na  Na13  1  0.32981429  0.66782671  0.15466510  1
  Na  Na14  1  0.33372316  0.66716016  0.66088853  1
  Nb  Nb15  1  0.00431168  0.00721091  0.14516499  1
  Nb  Nb16  1  0.66620521  0.32999910  0.97935553  1
  Nb  Nb17  1  0.67142955  0.33778923  0.47788980  1
  Nb  Nb18  1  0.33833883  0.66443118  0.31193569  1
  Nb  Nb19  1  0.33262132  0.66651579  0.81967662  1
  Zn  Zn20  1  0.99273645  0.00088805  0.35023399  1
  Zn  Zn21  1  0.99993854  -0.00000212  0.85115847  1
  Zn  Zn22  1  0.99960055  0.00051195  0.65417631  1
  Zn  Zn23  1  0.66692967  0.33273402  0.68120510  1
  Zn  Zn24  1  0.65995638  0.32510977  0.18279515  1
  Zn  Zn25  1  0.32530313  0.66576508  0.01644226  1
  Zn  Zn26  1  0.33506874  0.66598232  0.51279438  1
  P  P27  1  0.29513146  0.00434476  0.25391539  1
  P  P28  1  0.71155875  0.70966800  0.25080306  1
  P  P29  1  0.99808486  0.29003125  0.25297612  1
  P  P30  1  0.29408954  0.29535143  0.74944476  1
  P  P31  1  0.00129077  0.70619732  0.74945528  1
  P  P32  1  0.70399051  0.99799081  0.74949801  1
  P  P33  1  0.96228299  0.33430675  0.58516363  1
  P  P34  1  0.37295903  0.03880796  0.58356408  1
  P  P35  1  0.66539697  0.62756159  0.58514205  1
  P  P36  1  0.96155249  0.62433980  0.08705324  1
  P  P37  1  0.66486514  0.04137078  0.08610541  1
  P  P38  1  0.37786896  0.33513284  0.08497272  1
  P  P39  1  0.63249039  0.66967935  0.92176064  1
  P  P40  1  0.03905415  0.36907337  0.92061747  1
  P  P41  1  0.33040861  0.96149723  0.92048813  1
  P  P42  1  0.62987672  0.95847146  0.41957805  1
  P  P43  1  0.33060769  0.37203187  0.41998481  1
  P  P44  1  0.04174972  0.66744764  0.41773708  1
  O  O45  1  0.21475057  0.01887197  0.31192013  1
  O  O46  1  0.82481902  0.79312610  0.30496876  1
  O  O47  1  0.97916020  0.18826897  0.30869823  1
  O  O48  1  0.20637899  0.17639176  0.80206249  1
  O  O49  1  0.97039457  0.79379896  0.80216594  1
  O  O50  1  0.82288767  0.02950026  0.80226041  1
  O  O51  1  0.76590002  0.95410410  0.69020337  1
  O  O52  1  0.18798418  0.23361995  0.69000139  1
  O  O53  1  0.04466263  0.81242184  0.69012490  1
  O  O54  1  0.79488429  0.82456552  0.19250793  1
  O  O55  1  0.02447648  0.19932654  0.19558867  1
  O  O56  1  0.16664040  0.97204974  0.19897837  1
  O  O57  1  0.88280711  0.36055828  0.64220632  1
  O  O58  1  0.47985074  0.12004313  0.64052677  1
  O  O59  1  0.64036176  0.52232436  0.64238576  1
  O  O60  1  0.88127945  0.52935118  0.14518986  1
  O  O61  1  0.64506913  0.12338442  0.14179122  1
  O  O62  1  0.48865305  0.36524897  0.13989860  1
  O  O63  1  0.46703346  0.30453319  0.02817656  1
  O  O64  1  0.83304668  0.52864756  0.03233063  1
  O  O65  1  0.69100679  0.15801484  0.02869107  1
  O  O66  1  0.47561317  0.15572030  0.52666224  1
  O  O67  1  0.67968477  0.52055036  0.52942085  1
  O  O68  1  0.84112085  0.31960058  0.52920601  1
  O  O69  1  0.54734758  0.68591585  0.97801045  1
  O  O70  1  0.14754739  0.45733747  0.97450036  1
  O  O71  1  0.31491654  0.85543849  0.97462259  1
  O  O72  1  0.55018829  0.86406545  0.47811845  1
  O  O73  1  0.31255890  0.45000543  0.47814153  1
  O  O74  1  0.14594945  0.69147272  0.47497496  1
  O  O75  1  0.13336017  0.64044664  0.36127803  1
  O  O76  1  0.50090889  0.86063254  0.36504073  1
  O  O77  1  0.35550807  0.49410585  0.36451435  1
  O  O78  1  0.12960477  0.48925829  0.86203864  1
  O  O79  1  0.35778335  0.87030930  0.86181016  1
  O  O80  1  0.50784664  0.64239545  0.86484410  1
  O  O81  1  0.01861217  0.82339754  0.41054640  1
  O  O82  1  0.80849050  0.98748997  0.41103171  1
  O  O83  1  0.18403169  0.18871155  0.41191113  1
  O  O84  1  0.00943880  0.19006717  0.90946482  1
  O  O85  1  0.18078170  0.99095140  0.91001291  1
  O  O86  1  0.80954211  0.82096366  0.91073470  1
  O  O87  1  0.96651562  0.16449479  0.58337722  1
  O  O88  1  0.19811052  0.03262040  0.58221544  1
  O  O89  1  0.83417249  0.80175016  0.58313616  1
  O  O90  1  0.96471891  0.80626728  0.08956027  1
  O  O91  1  0.83937341  0.03112176  0.08924210  1
  O  O92  1  0.19632384  0.16316282  0.09059329  1
  O  O93  1  0.67099900  0.15190248  0.74515065  1
  O  O94  1  0.48026135  0.32783687  0.74535539  1
  O  O95  1  0.84792575  0.51951669  0.74526441  1
  O  O96  1  0.68358755  0.52861456  0.24333388  1
  O  O97  1  0.85396980  0.33122419  0.24486380  1
  O  O98  1  0.47471517  0.15291884  0.24474829  1
  O  O99  1  0.63803680  0.49481510  0.92280132  1
  O  O100  1  0.85924813  0.36457218  0.92333450  1
  O  O101  1  0.50543809  0.14205940  0.92222969  1
  O  O102  1  0.63016992  0.13796023  0.42059795  1
  O  O103  1  0.50363551  0.36175133  0.42122587  1
  O  O104  1  0.85981572  0.49696050  0.42171968  1
  O  O105  1  0.35110401  0.48870569  0.07625060  1
  O  O106  1  0.14153072  0.65545418  0.07823192  1
  O  O107  1  0.52063934  0.85554247  0.07816930  1
  O  O108  1  0.35276282  0.85800526  0.57791799  1
  O  O109  1  0.50499691  0.64659903  0.57822274  1
  O  O110  1  0.14129893  0.49477994  0.57813261  1
  O  O111  1  0.29694327  0.82469204  0.25619107  1
  O  O112  1  0.52884171  0.69835471  0.25782604  1
  O  O113  1  0.17253014  0.47491503  0.25612901  1
  O  O114  1  0.31429055  0.48269238  0.75907442  1
  O  O115  1  0.16854430  0.68651374  0.75881256  1
  O  O116  1  0.51760872  0.83063205  0.75907975  1
