# generated using pymatgen
data_Na8MgSi5Sn3SO24
_symmetry_space_group_name_H-M   'P 1'
_cell_length_a   9.15108629
_cell_length_b   9.14746520
_cell_length_c   22.49555403
_cell_angle_alpha   90.64381535
_cell_angle_beta   90.16383327
_cell_angle_gamma   120.10750608
_symmetry_Int_Tables_number   1
_chemical_formula_structural   Na8MgSi5Sn3SO24
_chemical_formula_sum   'Na24 Mg3 Si15 Sn9 S3 O72'
_cell_volume   1628.84921656
_cell_formula_units_Z   3
loop_
 _symmetry_equiv_pos_site_id
 _symmetry_equiv_pos_as_xyz
  1  'x, y, z'
loop_
 _atom_site_type_symbol
 _atom_site_label
 _atom_site_symmetry_multiplicity
 _atom_site_fract_x
 _atom_site_fract_y
 _atom_site_fract_z
 _atom_site_occupancy
  Na  Na0  1  0.64494916  0.01700825  0.24751886  1
  Na  Na1  1  0.36233573  0.36346656  0.24408703  1
  Na  Na2  1  0.99091262  0.61607875  0.24535563  1
  Na  Na3  1  0.63309012  0.62248579  0.74850529  1
  Na  Na4  1  0.99049386  0.36508333  0.75231879  1
  Na  Na5  1  0.37740577  0.00908044  0.74849610  1
  Na  Na6  1  0.31300211  0.33312704  0.58812698  1
  Na  Na7  1  0.03170434  0.70597794  0.58437185  1
  Na  Na8  1  0.66047068  0.96394722  0.58966986  1
  Na  Na9  1  0.30704531  0.97041254  0.07922951  1
  Na  Na10  1  0.66395521  0.69410787  0.07886381  1
  Na  Na11  1  0.03155141  0.33863082  0.08089671  1
  Na  Na12  1  0.96552900  0.66610149  0.91528743  1
  Na  Na13  1  0.69998422  0.03388309  0.91505727  1
  Na  Na14  1  0.33414404  0.29991148  0.91539394  1
  Na  Na15  1  0.96631301  0.29052659  0.41247129  1
  Na  Na16  1  0.32362277  0.03226640  0.41885096  1
  Na  Na17  1  0.70811136  0.67583126  0.41889656  1
  Na  Na18  1  0.00093011  0.99453213  0.49633409  1
  Na  Na19  1  0.00043916  0.00068614  0.99643840  1
  Na  Na20  1  0.66633368  0.33298003  0.82824125  1
  Na  Na21  1  0.67628984  0.33230668  0.33434018  1
  Na  Na22  1  0.32830576  0.66084532  0.16021063  1
  Na  Na23  1  0.34099003  0.67313833  0.67147227  1
  Mg  Mg24  1  0.99707249  0.00744908  0.35650485  1
  Mg  Mg25  1  0.65257299  0.32955069  0.68925684  1
  Mg  Mg26  1  0.67659421  0.33336519  0.17645380  1
  Si  Si27  1  0.99693529  0.29404031  0.25341125  1
  Si  Si28  1  0.29117525  0.29254209  0.75060997  1
  Si  Si29  1  0.99982889  0.70063662  0.75093718  1
  Si  Si30  1  0.70695098  0.00174279  0.74989563  1
  Si  Si31  1  0.37333476  0.04029049  0.58456351  1
  Si  Si32  1  0.66663757  0.62714355  0.58516810  1
  Si  Si33  1  0.96161113  0.62736399  0.08612158  1
  Si  Si34  1  0.66178446  0.03935653  0.08477208  1
  Si  Si35  1  0.37995562  0.33748595  0.08588695  1
  Si  Si36  1  0.62687144  0.66640304  0.91680819  1
  Si  Si37  1  0.03983203  0.37373352  0.91637153  1
  Si  Si38  1  0.33332224  0.95976879  0.91701258  1
  Si  Si39  1  0.62861432  0.96174152  0.41564160  1
  Si  Si40  1  0.33259683  0.37146845  0.41754255  1
  Si  Si41  1  0.03504344  0.66576087  0.41799183  1
  Sn  Sn42  1  0.99909928  0.99894236  0.85145409  1
  Sn  Sn43  1  0.00117131  0.98886870  0.65311671  1
  Sn  Sn44  1  0.00404855  0.01321287  0.14444668  1
  Sn  Sn45  1  0.66783333  0.33475672  0.98208102  1
  Sn  Sn46  1  0.65853105  0.33531964  0.48151794  1
  Sn  Sn47  1  0.33341349  0.66662321  0.01710823  1
  Sn  Sn48  1  0.34193735  0.67512455  0.51622490  1
  Sn  Sn49  1  0.32318633  0.65537431  0.32175871  1
  Sn  Sn50  1  0.33452824  0.66659201  0.81457315  1
  S  S51  1  0.29131393  0.99935131  0.25189201  1
  S  S52  1  0.70853103  0.70883638  0.25159248  1
  S  S53  1  0.95794292  0.33384565  0.58364410  1
  O  O54  1  0.20806491  0.01922495  0.30404473  1
  O  O55  1  0.81530053  0.79014467  0.30380779  1
  O  O56  1  0.97123754  0.17510490  0.30857617  1
  O  O57  1  0.20626256  0.17229526  0.80854589  1
  O  O58  1  0.96201588  0.78714064  0.80878974  1
  O  O59  1  0.82636970  0.03584295  0.80892015  1
  O  O60  1  0.78732036  0.96015494  0.68958267  1
  O  O61  1  0.16795588  0.21380171  0.68981388  1
  O  O62  1  0.04747220  0.82129961  0.69101488  1
  O  O63  1  0.78410593  0.81232735  0.19673928  1
  O  O64  1  0.04329837  0.21551269  0.19279956  1
  O  O65  1  0.18416251  0.96525329  0.19663986  1
  O  O66  1  0.88072325  0.36136280  0.63554690  1
  O  O67  1  0.49753380  0.12125316  0.64004614  1
  O  O68  1  0.63187701  0.50772830  0.64051860  1
  O  O69  1  0.88632212  0.51708592  0.14470064  1
  O  O70  1  0.62481485  0.11272156  0.14445335  1
  O  O71  1  0.49019532  0.36954444  0.14563101  1
  O  O72  1  0.45599619  0.29561695  0.02605997  1
  O  O73  1  0.84193354  0.55240167  0.02617749  1
  O  O74  1  0.70694088  0.16010517  0.02614571  1
  O  O75  1  0.45021416  0.15317697  0.52270982  1
  O  O76  1  0.71103301  0.55348776  0.52352270  1
  O  O77  1  0.85433613  0.30406489  0.52773748  1
  O  O78  1  0.54819219  0.70658016  0.97620734  1
  O  O79  1  0.15858670  0.45191705  0.97629142  1
  O  O80  1  0.29330884  0.84143242  0.97599317  1
  O  O81  1  0.54683954  0.84296839  0.47367165  1
  O  O82  1  0.29291037  0.45775068  0.47513459  1
  O  O83  1  0.15795135  0.70047569  0.47586644  1
  O  O84  1  0.11096265  0.62159496  0.35756575  1
  O  O85  1  0.50121851  0.87963090  0.35575541  1
  O  O86  1  0.38222250  0.49507800  0.35831354  1
  O  O87  1  0.12068491  0.49444656  0.85871014  1
  O  O88  1  0.37429640  0.87906973  0.85872325  1
  O  O89  1  0.50527818  0.62533250  0.85842757  1
  O  O90  1  0.01849736  0.83137636  0.40960905  1
  O  O91  1  0.80988031  0.97600770  0.41048935  1
  O  O92  1  0.16956217  0.18646216  0.41160331  1
  O  O93  1  0.02246267  0.18596242  0.91232927  1
  O  O94  1  0.16355707  0.97797641  0.91234077  1
  O  O95  1  0.81451945  0.83698857  0.91244795  1
  O  O96  1  0.97692158  0.18099069  0.58623353  1
  O  O97  1  0.18302283  0.02481613  0.58742356  1
  O  O98  1  0.83588571  0.82232987  0.58729637  1
  O  O99  1  0.98091463  0.81942085  0.09277572  1
  O  O100  1  0.83192081  0.01627666  0.08874955  1
  O  O101  1  0.18864283  0.16293762  0.08773306  1
  O  O102  1  0.69204092  0.16882680  0.74427403  1
  O  O103  1  0.47450218  0.31027892  0.74651236  1
  O  O104  1  0.83509612  0.51706736  0.74333884  1
  O  O105  1  0.68407122  0.53654063  0.24573157  1
  O  O106  1  0.83243447  0.31830416  0.24696048  1
  O  O107  1  0.45994573  0.15266931  0.24647829  1
  O  O108  1  0.64358692  0.49603794  0.92223370  1
  O  O109  1  0.85253934  0.35649875  0.92243714  1
  O  O110  1  0.50401168  0.14742355  0.92257701  1
  O  O111  1  0.64321897  0.14878918  0.42225846  1
  O  O112  1  0.50719235  0.36103055  0.42044911  1
  O  O113  1  0.85164207  0.48877523  0.42336918  1
  O  O114  1  0.35480511  0.50340662  0.07902468  1
  O  O115  1  0.15085870  0.64951428  0.07843182  1
  O  O116  1  0.49500606  0.84860121  0.07805342  1
  O  O117  1  0.34512517  0.84474543  0.57768769  1
  O  O118  1  0.49233059  0.64263669  0.57737150  1
  O  O119  1  0.13010416  0.48784581  0.57776318  1
  O  O120  1  0.31143377  0.84457380  0.25444436  1
  O  O121  1  0.53671638  0.69636702  0.25506065  1
  O  O122  1  0.17949041  0.48967550  0.25473846  1
  O  O123  1  0.30290414  0.47858884  0.75420095  1
  O  O124  1  0.17537456  0.69229050  0.75538714  1
  O  O125  1  0.52166275  0.82593024  0.75420506  1
