# generated using pymatgen
data_K3AuSe13
_symmetry_space_group_name_H-M   'P 1'
_cell_length_a   4.97852845
_cell_length_b   13.74429186
_cell_length_c   15.03592944
_cell_angle_alpha   85.91133156
_cell_angle_beta   90.00000000
_cell_angle_gamma   90.00000000
_symmetry_Int_Tables_number   1
_chemical_formula_structural   K3AuSe13
_chemical_formula_sum   'K6 Au2 Se26'
_cell_volume   1026.23520917
_cell_formula_units_Z   2
loop_
 _symmetry_equiv_pos_site_id
 _symmetry_equiv_pos_as_xyz
  1  'x, y, z'
loop_
 _atom_site_type_symbol
 _atom_site_label
 _atom_site_symmetry_multiplicity
 _atom_site_fract_x
 _atom_site_fract_y
 _atom_site_fract_z
 _atom_site_occupancy
  K  K0  1  0.20434907  0.16244141  0.72127940  1
  K  K1  1  0.20434907  0.33755859  0.27872060  1
  K  K2  1  0.16983718  0.25000000  -0.00000000  1
  K  K3  1  0.83016282  0.75000000  -0.00000000  1
  K  K4  1  0.79565093  0.83755859  0.27872060  1
  K  K5  1  0.79565093  0.66244141  0.72127940  1
  Au  Au6  1  -0.00000000  0.50000000  0.50000000  1
  Au  Au7  1  -0.00000000  0.00000000  0.50000000  1
  Se  Se8  1  0.30301939  0.54857426  0.62127846  1
  Se  Se9  1  0.63256888  0.57719164  0.26592421  1
  Se  Se10  1  0.36743112  0.07719164  0.26592421  1
  Se  Se11  1  0.36743112  0.42280836  0.73407579  1
  Se  Se12  1  0.91718549  0.53533715  0.14691872  1
  Se  Se13  1  0.91718549  0.96466285  0.85308128  1
  Se  Se14  1  0.08281451  0.46466285  0.85308128  1
  Se  Se15  1  0.08281451  0.03533715  0.14691872  1
  Se  Se16  1  0.67713713  0.41847419  0.06986468  1
  Se  Se17  1  0.63256888  0.92280836  0.73407579  1
  Se  Se18  1  0.32286287  0.58152581  0.93013532  1
  Se  Se19  1  0.32286287  0.91847419  0.06986468  1
  Se  Se20  1  0.69606547  0.26631657  0.15127954  1
  Se  Se21  1  0.69606547  0.23368343  0.84872046  1
  Se  Se22  1  0.30393453  0.73368343  0.84872046  1
  Se  Se23  1  0.30393453  0.76631657  0.15127954  1
  Se  Se24  1  0.10344340  0.65805686  0.41316047  1
  Se  Se25  1  0.10344340  0.84194314  0.58683953  1
  Se  Se26  1  0.89655660  0.34194314  0.58683953  1
  Se  Se27  1  0.89655660  0.15805686  0.41316047  1
  Se  Se28  1  0.61393232  0.25000000  0.50000000  1
  Se  Se29  1  0.38606768  0.75000000  0.50000000  1
  Se  Se30  1  0.69698061  0.45142574  0.37872154  1
  Se  Se31  1  0.69698061  0.04857426  0.62127846  1
  Se  Se32  1  0.67713713  0.08152581  0.93013532  1
  Se  Se33  1  0.30301939  0.95142574  0.37872154  1
