# generated using pymatgen
data_Na3HfZn(PO4)3
_symmetry_space_group_name_H-M   'P 1'
_cell_length_a   15.65474295
_cell_length_b   9.05694637
_cell_length_c   8.91433788
_cell_angle_alpha   90.00000000
_cell_angle_beta   124.81111168
_cell_angle_gamma   90.00000000
_symmetry_Int_Tables_number   1
_chemical_formula_structural   Na3HfZn(PO4)3
_chemical_formula_sum   'Na12 Hf4 Zn4 P12 O48'
_cell_volume   1037.72040684
_cell_formula_units_Z   4
loop_
 _symmetry_equiv_pos_site_id
 _symmetry_equiv_pos_as_xyz
  1  'x, y, z'
loop_
 _atom_site_type_symbol
 _atom_site_label
 _atom_site_symmetry_multiplicity
 _atom_site_fract_x
 _atom_site_fract_y
 _atom_site_fract_z
 _atom_site_occupancy
  Na  Na0  1  0.24918242  0.72596448  0.97831028  1
  Na  Na1  1  0.74918242  0.77403552  0.47831028  1
  Na  Na2  1  0.74918242  0.22596448  0.97831028  1
  Na  Na3  1  0.24918242  0.27403552  0.47831028  1
  Na  Na4  1  0.50319625  0.10947655  0.74582359  1
  Na  Na5  1  0.50319625  0.89052345  0.24582359  1
  Na  Na6  1  0.00319625  0.60947655  0.74582359  1
  Na  Na7  1  0.00319625  0.39052345  0.24582359  1
  Na  Na8  1  0.18356559  0.94190759  0.28894467  1
  Na  Na9  1  0.18356559  0.05809241  0.78894467  1
  Na  Na10  1  0.68356559  0.44190759  0.28894467  1
  Na  Na11  1  0.68356559  0.55809241  0.78894467  1
  Hf  Hf12  1  0.89437806  0.75750560  0.94056055  1
  Hf  Hf13  1  0.89437806  0.24249440  0.44056055  1
  Hf  Hf14  1  0.39437806  0.25750560  0.94056055  1
  Hf  Hf15  1  0.39437806  0.74249440  0.44056055  1
  Zn  Zn16  1  0.09779085  0.75047581  0.54867505  1
  Zn  Zn17  1  0.09779085  0.24952419  0.04867505  1
  Zn  Zn18  1  0.59779085  0.25047581  0.54867505  1
  Zn  Zn19  1  0.59779085  0.74952419  0.04867505  1
  P  P20  1  0.00237503  0.95037127  0.76028861  1
  P  P21  1  0.00237503  0.04962873  0.26028861  1
  P  P22  1  0.50237503  0.45037127  0.76028861  1
  P  P23  1  0.50237503  0.54962873  0.26028861  1
  P  P24  1  0.35199444  0.89971541  0.76085933  1
  P  P25  1  0.64555258  0.89401892  0.74677658  1
  P  P26  1  0.64555258  0.10598108  0.24677658  1
  P  P27  1  0.35199444  0.10028459  0.26085933  1
  P  P28  1  0.85199444  0.39971541  0.76085933  1
  P  P29  1  0.14555258  0.39401892  0.74677658  1
  P  P30  1  0.14555258  0.60598108  0.24677658  1
  P  P31  1  0.85199444  0.60028459  0.26085933  1
  O  O32  1  0.15248461  0.56201747  0.73971429  1
  O  O33  1  0.84711816  0.57483152  0.75601808  1
  O  O34  1  0.84711816  0.42516848  0.25601808  1
  O  O35  1  0.15248461  0.43798253  0.23971429  1
  O  O36  1  0.65248461  0.06201747  0.73971429  1
  O  O37  1  0.34711816  0.07483152  0.75601808  1
  O  O38  1  0.34711816  0.92516848  0.25601808  1
  O  O39  1  0.65248461  0.93798253  0.23971429  1
  O  O40  1  0.44251800  0.55825633  0.59319105  1
  O  O41  1  0.56815073  0.53911054  0.93669221  1
  O  O42  1  0.56815073  0.46088946  0.43669221  1
  O  O43  1  0.44251800  0.44174367  0.09319105  1
  O  O44  1  0.94251800  0.05825633  0.59319105  1
  O  O45  1  0.06815073  0.03911054  0.93669221  1
  O  O46  1  0.06815073  0.96088946  0.43669221  1
  O  O47  1  0.94251800  0.94174367  0.09319105  1
  O  O48  1  0.25650258  0.84299165  0.74950026  1
  O  O49  1  0.73715851  0.81590596  0.75189712  1
  O  O50  1  0.73715851  0.18409404  0.25189712  1
  O  O51  1  0.25650258  0.15700835  0.24950026  1
  O  O52  1  0.75650258  0.34299165  0.74950026  1
  O  O53  1  0.23715851  0.31590596  0.75189712  1
  O  O54  1  0.23715851  0.68409404  0.25189712  1
  O  O55  1  0.75650258  0.65700835  0.24950026  1
  O  O56  1  0.35098611  0.85808199  0.58736777  1
  O  O57  1  0.64765736  0.84600683  0.91231085  1
  O  O58  1  0.64765736  0.15399317  0.41231085  1
  O  O59  1  0.35098611  0.14191801  0.08736777  1
  O  O60  1  0.85098611  0.35808199  0.58736777  1
  O  O61  1  0.14765736  0.34600683  0.91231085  1
  O  O62  1  0.14765736  0.65399317  0.41231085  1
  O  O63  1  0.85098611  0.64191801  0.08736777  1
  O  O64  1  0.45352423  0.84861412  0.93443870  1
  O  O65  1  0.54242275  0.83357012  0.56846610  1
  O  O66  1  0.54242275  0.16642988  0.06846610  1
  O  O67  1  0.45352423  0.15138588  0.43443870  1
  O  O68  1  0.95352423  0.34861412  0.93443870  1
  O  O69  1  0.04242275  0.33357012  0.56846610  1
  O  O70  1  0.04242275  0.66642988  0.06846610  1
  O  O71  1  0.95352423  0.65138588  0.43443870  1
  O  O72  1  0.07567660  0.84607265  0.74690985  1
  O  O73  1  0.91776511  0.85229323  0.75325505  1
  O  O74  1  0.91776511  0.14770677  0.25325505  1
  O  O75  1  0.07567660  0.15392735  0.24690985  1
  O  O76  1  0.57567660  0.34607265  0.74690985  1
  O  O77  1  0.41776511  0.35229323  0.75325505  1
  O  O78  1  0.41776511  0.64770677  0.25325505  1
  O  O79  1  0.57567660  0.65392735  0.24690985  1
