# generated using pymatgen
data_Mg(WO3)4
_symmetry_space_group_name_H-M   'P 1'
_cell_length_a   5.37446900
_cell_length_b   5.37446900
_cell_length_c   7.83685900
_cell_angle_alpha   90.00000000
_cell_angle_beta   90.00000000
_cell_angle_gamma   90.00000000
_symmetry_Int_Tables_number   1
_chemical_formula_structural   Mg(WO3)4
_chemical_formula_sum   'Mg1 W4 O12'
_cell_volume   226.36702201
_cell_formula_units_Z   1
loop_
 _symmetry_equiv_pos_site_id
 _symmetry_equiv_pos_as_xyz
  1  'x, y, z'
loop_
 _atom_site_type_symbol
 _atom_site_label
 _atom_site_symmetry_multiplicity
 _atom_site_fract_x
 _atom_site_fract_y
 _atom_site_fract_z
 _atom_site_occupancy
  Mg  Mg0  1  0.25000000  0.75000000  0.50000000  1
  W  W1  1  0.25000000  0.25000000  0.75562300  1
  W  W2  1  0.75000000  0.75000000  0.74843100  1
  W  W3  1  0.75000000  0.75000000  0.24437700  1
  W  W4  1  0.25000000  0.25000000  0.25156900  1
  O  O5  1  0.42250400  0.56517000  0.72350900  1
  O  O6  1  0.94183500  0.44661600  0.75258900  1
  O  O7  1  0.55816500  0.05338400  0.75258900  1
  O  O8  1  0.07749600  0.93483000  0.72350900  1
  O  O9  1  0.25000000  0.25000000  0.99215100  1
  O  O10  1  0.75000000  0.75000000  0.49550600  1
  O  O11  1  0.75000000  0.75000000  0.00784900  1
  O  O12  1  0.25000000  0.25000000  0.50449400  1
  O  O13  1  0.94661600  0.05816500  0.24741100  1
  O  O14  1  0.43483000  0.92250400  0.27649100  1
  O  O15  1  0.06517000  0.57749600  0.27649100  1
  O  O16  1  0.55338400  0.44183500  0.24741100  1
