# generated using pymatgen
data_Na(CoO2)3
_symmetry_space_group_name_H-M   'P 1'
_cell_length_a   8.57391458
_cell_length_b   4.97519423
_cell_length_c   5.53715122
_cell_angle_alpha   61.95193828
_cell_angle_beta   56.89448951
_cell_angle_gamma   30.34972435
_symmetry_Int_Tables_number   1
_chemical_formula_structural   Na(CoO2)3
_chemical_formula_sum   'Na1 Co3 O6'
_cell_volume   99.97107090
_cell_formula_units_Z   1
loop_
 _symmetry_equiv_pos_site_id
 _symmetry_equiv_pos_as_xyz
  1  'x, y, z'
loop_
 _atom_site_type_symbol
 _atom_site_label
 _atom_site_symmetry_multiplicity
 _atom_site_fract_x
 _atom_site_fract_y
 _atom_site_fract_z
 _atom_site_occupancy
  Na  Na0  1  0.20291700  0.96157000  0.44014400  1
  Co  Co1  1  0.99881600  0.96394200  0.06845300  1
  Co  Co2  1  0.48573800  0.94588400  0.62737300  1
  Co  Co3  1  0.66780600  0.96934500  0.02792200  1
  O  O4  1  0.08440200  0.27702300  0.82367300  1
  O  O5  1  0.26534800  0.54542800  0.27330500  1
  O  O6  1  0.40700200  0.30259100  0.83319800  1
  O  O7  1  0.65666400  0.58480500  0.28319000  1
  O  O8  1  0.75766300  0.28197800  0.83275500  1
  O  O9  1  0.83097800  0.78943300  0.28498600  1
