# generated using pymatgen
data_NiH12(N3O2)2
_symmetry_space_group_name_H-M   'P 1'
_cell_length_a   8.01951973
_cell_length_b   8.01951973
_cell_length_c   6.94388762
_cell_angle_alpha   61.75728366
_cell_angle_beta   61.75728366
_cell_angle_gamma   35.43451145
_symmetry_Int_Tables_number   1
_chemical_formula_structural   NiH12(N3O2)2
_chemical_formula_sum   'Ni1 H12 N6 O4'
_cell_volume   224.70752302
_cell_formula_units_Z   1
loop_
 _symmetry_equiv_pos_site_id
 _symmetry_equiv_pos_as_xyz
  1  'x, y, z'
loop_
 _atom_site_type_symbol
 _atom_site_label
 _atom_site_symmetry_multiplicity
 _atom_site_fract_x
 _atom_site_fract_y
 _atom_site_fract_z
 _atom_site_occupancy
  Ni  Ni0  1  0.00000000  -0.00000000  0.00000000  1
  H  H1  1  0.42683146  0.73789732  0.25422311  1
  H  H2  1  0.26210268  0.57316854  0.74577689  1
  H  H3  1  0.57316854  0.26210268  0.74577689  1
  H  H4  1  0.73789732  0.42683146  0.25422311  1
  H  H5  1  0.11338729  0.43160029  0.21156698  1
  H  H6  1  0.56839971  0.88661271  0.78843302  1
  H  H7  1  0.88661271  0.56839971  0.78843302  1
  H  H8  1  0.43160029  0.11338729  0.21156698  1
  H  H9  1  0.08847740  0.66787323  0.41257120  1
  H  H10  1  0.33212677  0.91152260  0.58742880  1
  H  H11  1  0.91152260  0.33212677  0.58742880  1
  H  H12  1  0.66787323  0.08847740  0.41257120  1
  N  N13  1  0.18018457  0.91667389  0.67529082  1
  N  N14  1  0.87891432  0.87891432  0.06945384  1
  N  N15  1  0.12108568  0.12108568  0.93054616  1
  N  N16  1  0.81981543  0.08332611  0.32470918  1
  N  N17  1  0.08332611  0.81981543  0.32470918  1
  N  N18  1  0.91667389  0.18018457  0.67529082  1
  O  O19  1  0.25596205  0.25596205  0.31006754  1
  O  O20  1  0.62445655  0.62445655  0.24796221  1
  O  O21  1  0.37554345  0.37554345  0.75203779  1
  O  O22  1  0.74403795  0.74403795  0.68993246  1
