# generated using pymatgen
data_Tb2Mg(NiO3)2
_symmetry_space_group_name_H-M   'P 1'
_cell_length_a   6.21094727
_cell_length_b   6.21087097
_cell_length_c   6.21088066
_cell_angle_alpha   53.34589305
_cell_angle_beta   53.34514622
_cell_angle_gamma   53.34530917
_symmetry_Int_Tables_number   1
_chemical_formula_structural   Tb2Mg(NiO3)2
_chemical_formula_sum   'Tb2 Mg1 Ni2 O6'
_cell_volume   143.01994517
_cell_formula_units_Z   1
loop_
 _symmetry_equiv_pos_site_id
 _symmetry_equiv_pos_as_xyz
  1  'x, y, z'
loop_
 _atom_site_type_symbol
 _atom_site_label
 _atom_site_symmetry_multiplicity
 _atom_site_fract_x
 _atom_site_fract_y
 _atom_site_fract_z
 _atom_site_occupancy
  Tb  Tb0  1  0.17199720  0.17199301  0.17199390  1
  Tb  Tb1  1  0.79950246  0.79950305  0.79949493  1
  Mg  Mg2  1  0.36668246  0.36668083  0.36667666  1
  Ni  Ni3  1  0.99214164  0.99211798  0.99212858  1
  Ni  Ni4  1  0.57165192  0.57166848  0.57167448  1
  O  O5  1  0.09734280  0.76109876  0.37453092  1
  O  O6  1  0.21999613  0.60570805  0.91435143  1
  O  O7  1  0.60570142  0.91436462  0.21999434  1
  O  O8  1  0.37453014  0.09734082  0.76110148  1
  O  O9  1  0.76109996  0.37453013  0.09734552  1
  O  O10  1  0.91435386  0.21999428  0.60570776  1
