# generated using pymatgen
data_Na10La7TaSi6(SO8)6
_symmetry_space_group_name_H-M   'P 1'
_cell_length_a   19.13132470
_cell_length_b   9.59586050
_cell_length_c   24.35591133
_cell_angle_alpha   90.11256918
_cell_angle_beta   89.71019143
_cell_angle_gamma   120.10001731
_symmetry_Int_Tables_number   1
_chemical_formula_structural   Na10La7TaSi6(SO8)6
_chemical_formula_sum   'Na30 La21 Ta3 Si18 S18 O144'
_cell_volume   3868.29646793
_cell_formula_units_Z   3
loop_
 _symmetry_equiv_pos_site_id
 _symmetry_equiv_pos_as_xyz
  1  'x, y, z'
loop_
 _atom_site_type_symbol
 _atom_site_label
 _atom_site_symmetry_multiplicity
 _atom_site_fract_x
 _atom_site_fract_y
 _atom_site_fract_z
 _atom_site_occupancy
  Na  Na0  1  0.32348832  0.01370708  0.24603845  1
  Na  Na1  1  0.82704297  0.00506949  0.24837216  1
  Na  Na2  1  0.18530370  0.35535044  0.24734744  1
  Na  Na3  1  0.68755950  0.38054532  0.23474285  1
  Na  Na4  1  0.99378185  0.62976174  0.24060522  1
  Na  Na5  1  0.49184290  0.61819469  0.24830211  1
  Na  Na6  1  0.30847437  0.61603560  0.74790401  1
  Na  Na7  1  0.81050220  0.62464895  0.74498718  1
  Na  Na8  1  0.99441946  0.34411692  0.74338612  1
  Na  Na9  1  0.69192391  0.01983270  0.75513707  1
  Na  Na10  1  0.16172035  0.34287933  0.58443092  1
  Na  Na11  1  0.00981657  0.69860528  0.58857195  1
  Na  Na12  1  0.32965990  0.96120406  0.58802831  1
  Na  Na13  1  0.83585348  0.97300718  0.58275596  1
  Na  Na14  1  0.83017432  0.67803855  0.07633750  1
  Na  Na15  1  0.17075010  0.30877282  0.90813947  1
  Na  Na16  1  0.67353917  0.31487165  0.91605185  1
  Na  Na17  1  0.35739046  0.66572993  0.41756117  1
  Na  Na18  1  0.00026045  0.99469604  0.49870485  1
  Na  Na19  1  0.50464633  0.96760272  0.49861136  1
  Na  Na20  1  0.98751787  0.96502670  0.99941075  1
  Na  Na21  1  0.49003430  0.96094857  0.00268885  1
  Na  Na22  1  0.32849940  0.33036138  0.83709563  1
  Na  Na23  1  0.82660577  0.33533346  0.83786697  1
  Na  Na24  1  0.34665270  0.34262731  0.33288025  1
  Na  Na25  1  0.84276259  0.34942321  0.33061140  1
  Na  Na26  1  0.15507796  0.66237670  0.16502845  1
  Na  Na27  1  0.65039656  0.63341668  0.15920757  1
  Na  Na28  1  0.16368160  0.65865398  0.66166798  1
  Na  Na29  1  0.67171485  0.63385724  0.66987196  1
  La  La30  1  0.99874886  0.99901614  0.34735666  1
  La  La31  1  0.50146443  0.99768154  0.34979116  1
  La  La32  1  0.99079374  0.99019943  0.85073514  1
  La  La33  1  0.49593763  0.99358654  0.85240247  1
  La  La34  1  0.50617582  0.00591299  0.65008047  1
  La  La35  1  0.32477024  0.32752630  0.68037692  1
  La  La36  1  0.82870416  0.33788024  0.67866428  1
  La  La37  1  0.33868236  0.34492457  0.17902476  1
  La  La38  1  0.83954559  0.34676896  0.17395715  1
  La  La39  1  0.34396221  0.36817981  0.98927588  1
  La  La40  1  0.83414276  0.35310895  0.99174059  1
  La  La41  1  0.33193332  0.33885822  0.48629335  1
  La  La42  1  0.84288853  0.35303385  0.48897894  1
  La  La43  1  0.16831561  0.67267363  0.01899827  1
  La  La44  1  0.66320101  0.66385389  0.02005574  1
  La  La45  1  0.16397614  0.66511409  0.51842974  1
  La  La46  1  0.66083508  0.65803295  0.51312266  1
  La  La47  1  0.16478600  0.66476724  0.30717078  1
  La  La48  1  0.65937118  0.65410623  0.31645503  1
  La  La49  1  0.16740332  0.66296859  0.81814836  1
  La  La50  1  0.67526060  0.66466347  0.81681929  1
  Ta  Ta51  1  0.00155373  0.01602714  0.64840241  1
  Ta  Ta52  1  0.99972238  0.99043026  0.15504450  1
  Ta  Ta53  1  0.49747701  0.00445829  0.14720579  1
  Si  Si54  1  0.14578091  0.00047034  0.24734056  1
  Si  Si55  1  0.35585330  0.71590560  0.24711744  1
  Si  Si56  1  0.85145068  0.70473497  0.24800175  1
  Si  Si57  1  0.99782038  0.28553680  0.24516428  1
  Si  Si58  1  0.50091540  0.28833471  0.24664575  1
  Si  Si59  1  0.14354141  0.29429124  0.75051162  1
  Si  Si60  1  0.65260997  0.29939044  0.75412545  1
  Si  Si61  1  0.85309642  0.00063360  0.74388609  1
  Si  Si62  1  0.98337545  0.32628983  0.58943575  1
  Si  Si63  1  0.17644647  0.03051316  0.58560114  1
  Si  Si64  1  0.33470464  0.64825452  0.58322381  1
  Si  Si65  1  0.83879799  0.65532843  0.58989836  1
  Si  Si66  1  0.49069971  0.66022506  0.09137145  1
  Si  Si67  1  0.99085288  0.66309160  0.09034183  1
  Si  Si68  1  0.67464865  0.32464107  0.08796211  1
  Si  Si69  1  0.31591537  0.66030676  0.91475402  1
  Si  Si70  1  0.81934278  0.66129843  0.92009994  1
  Si  Si71  1  0.51066396  0.66356953  0.41400952  1
  S  S72  1  0.64481468  0.99908666  0.24382978  1
  S  S73  1  0.00220174  0.71051699  0.74411288  1
  S  S74  1  0.50000413  0.69692699  0.75002194  1
  S  S75  1  0.34764387  0.99813192  0.74844569  1
  S  S76  1  0.48382989  0.33081016  0.58482790  1
  S  S77  1  0.68205407  0.02752791  0.58187168  1
  S  S78  1  0.34094945  0.02902142  0.08794898  1
  S  S79  1  0.84264967  0.02677628  0.08805262  1
  S  S80  1  0.17112479  0.31591607  0.08656405  1
  S  S81  1  0.01501588  0.36543216  0.91681443  1
  S  S82  1  0.51452436  0.36475868  0.91636320  1
  S  S83  1  0.16955563  0.97711087  0.91735840  1
  S  S84  1  0.66875578  0.97703014  0.91465065  1
  S  S85  1  0.31628818  0.96711021  0.41583833  1
  S  S86  1  0.81813744  0.97569612  0.41727220  1
  S  S87  1  0.16713911  0.36530696  0.41596810  1
  S  S88  1  0.67134371  0.36195655  0.41588117  1
  S  S89  1  0.01362894  0.66582623  0.41598952  1
  O  O90  1  0.10865836  0.03399297  0.30180702  1
  O  O91  1  0.61258548  0.02404908  0.29559223  1
  O  O92  1  0.40374642  0.78196111  0.30494086  1
  O  O93  1  0.90865177  0.78321375  0.30068625  1
  O  O94  1  0.49150200  0.18667190  0.30181247  1
  O  O95  1  0.98455772  0.18210639  0.30040163  1
  O  O96  1  0.10550357  0.20355875  0.80822441  1
  O  O97  1  0.60809826  0.19665121  0.81014870  1
  O  O98  1  0.48909946  0.77772295  0.79867893  1
  O  O99  1  0.99644987  0.78842632  0.79460908  1
  O  O100  1  0.39636813  0.00532860  0.79651201  1
  O  O101  1  0.90667795  0.02270453  0.79777650  1
  O  O102  1  0.38680736  0.98623362  0.69674264  1
  O  O103  1  0.90950091  0.99033086  0.69125800  1
  O  O104  1  0.08359717  0.17757435  0.69736541  1
  O  O105  1  0.60046646  0.19917729  0.70002404  1
  O  O106  1  0.00643190  0.80780685  0.69438234  1
  O  O107  1  0.50586468  0.79037661  0.69982790  1
  O  O108  1  0.41426997  0.84188080  0.19663384  1
  O  O109  1  0.90854281  0.82642847  0.19385575  1
  O  O110  1  0.00308324  0.17355816  0.19272706  1
  O  O111  1  0.50476242  0.17718388  0.19412590  1
  O  O112  1  0.08277354  0.98726570  0.19507167  1
  O  O113  1  0.59174734  0.98820549  0.19674929  1
  O  O114  1  0.44429507  0.34533214  0.63491137  1
  O  O115  1  0.94942026  0.36606913  0.64473494  1
  O  O116  1  0.24203071  0.10333955  0.63508745  1
  O  O117  1  0.72363341  0.09895167  0.63468166  1
  O  O118  1  0.32395855  0.53841127  0.63814975  1
  O  O119  1  0.82166703  0.55383613  0.64673563  1
  O  O120  1  0.45248931  0.55350910  0.14680983  1
  O  O121  1  0.95568151  0.56532710  0.14803041  1
  O  O122  1  0.33037126  0.09942973  0.13895138  1
  O  O123  1  0.83085279  0.09519413  0.13954419  1
  O  O124  1  0.22096962  0.33842283  0.13577902  1
  O  O125  1  0.72984262  0.35037695  0.14236267  1
  O  O126  1  0.21015275  0.29425611  0.03664877  1
  O  O127  1  0.71354050  0.29232746  0.03232474  1
  O  O128  1  0.43139160  0.57348564  0.03783068  1
  O  O129  1  0.92308455  0.57261805  0.04155247  1
  O  O130  1  0.35171216  0.12965876  0.03960598  1
  O  O131  1  0.85196615  0.12879561  0.04037275  1
  O  O132  1  0.21080193  0.15153456  0.53293539  1
  O  O133  1  0.72788526  0.13402345  0.53538810  1
  O  O134  1  0.33957768  0.55699884  0.52737804  1
  O  O135  1  0.86233679  0.56874054  0.53986110  1
  O  O136  1  0.43549660  0.31700867  0.53542688  1
  O  O137  1  0.91946832  0.27536377  0.53878185  1
  O  O138  1  0.26190733  0.66764582  0.96551969  1
  O  O139  1  0.77033804  0.66772980  0.97458640  1
  O  O140  1  0.06534957  0.46143824  0.96347058  1
  O  O141  1  0.56106782  0.44896177  0.96568495  1
  O  O142  1  0.16199202  0.87997820  0.96628839  1
  O  O143  1  0.66253668  0.87455890  0.96128065  1
  O  O144  1  0.27395249  0.87510600  0.46659542  1
  O  O145  1  0.77375948  0.88140860  0.46693354  1
  O  O146  1  0.16434017  0.45061859  0.46629400  1
  O  O147  1  0.66799788  0.45253292  0.46416862  1
  O  O148  1  0.05555042  0.66361637  0.46705280  1
  O  O149  1  0.56765051  0.66967711  0.46529008  1
  O  O150  1  0.05864163  0.66333169  0.36655839  1
  O  O151  1  0.55447749  0.65931433  0.35514455  1
  O  O152  1  0.26884513  0.87963970  0.36637991  1
  O  O153  1  0.77370733  0.89014807  0.36642374  1
  O  O154  1  0.16963425  0.45903123  0.36621355  1
  O  O155  1  0.67646988  0.45102448  0.36434874  1
  O  O156  1  0.05087965  0.45409222  0.86419206  1
  O  O157  1  0.55358477  0.46027231  0.86624124  1
  O  O158  1  0.17233164  0.89245585  0.86686589  1
  O  O159  1  0.66967185  0.90005876  0.86136157  1
  O  O160  1  0.26699442  0.64299941  0.85579460  1
  O  O161  1  0.76859287  0.64797936  0.86309371  1
  O  O162  1  0.00590700  0.81155931  0.41821947  1
  O  O163  1  0.49808500  0.82181751  0.41918883  1
  O  O164  1  0.39548575  0.97283073  0.41542282  1
  O  O165  1  0.89955007  0.99130680  0.41878398  1
  O  O166  1  0.09574081  0.20218467  0.41680687  1
  O  O167  1  0.59734939  0.20119639  0.41658422  1
  O  O168  1  0.01768731  0.21193877  0.91660863  1
  O  O169  1  0.51360390  0.20791855  0.91439637  1
  O  O170  1  0.09868131  0.00332154  0.91619227  1
  O  O171  1  0.59724224  0.00225214  0.91676527  1
  O  O172  1  0.40719025  0.81745318  0.91569554  1
  O  O173  1  0.91046264  0.81932449  0.91949639  1
  O  O174  1  0.48726816  0.17892091  0.58639190  1
  O  O175  1  0.99492289  0.16313199  0.59795984  1
  O  O176  1  0.08774214  0.01754775  0.60213146  1
  O  O177  1  0.59961590  0.00444847  0.58145849  1
  O  O178  1  0.41069944  0.83498028  0.58512872  1
  O  O179  1  0.92597841  0.83445654  0.59889126  1
  O  O180  1  0.49362240  0.83734901  0.10008593  1
  O  O181  1  0.99292700  0.84152195  0.09670626  1
  O  O182  1  0.41743529  0.01660264  0.09296610  1
  O  O183  1  0.91768200  0.01133465  0.09236976  1
  O  O184  1  0.08960448  0.16661839  0.09364436  1
  O  O185  1  0.58358401  0.16298461  0.10090982  1
  O  O186  1  0.33833601  0.14135484  0.74898057  1
  O  O187  1  0.84317041  0.15969062  0.73929852  1
  O  O188  1  0.23775902  0.33619780  0.74476932  1
  O  O189  1  0.74349493  0.31489532  0.75311150  1
  O  O190  1  0.42754859  0.53338368  0.74740599  1
  O  O191  1  0.92798176  0.54806607  0.74229037  1
  O  O192  1  0.33769508  0.53004898  0.24114129  1
  O  O193  1  0.83484919  0.51994261  0.24283048  1
  O  O194  1  0.42094391  0.30925304  0.24279791  1
  O  O195  1  0.91832310  0.30802964  0.24162467  1
  O  O196  1  0.23649728  0.15197852  0.23841471  1
  O  O197  1  0.72833501  0.13682079  0.23779085  1
  O  O198  1  0.31529434  0.48551230  0.91847892  1
  O  O199  1  0.81808365  0.48582664  0.91950516  1
  O  O200  1  0.43068053  0.33564773  0.91978275  1
  O  O201  1  0.93168539  0.33490371  0.92113177  1
  O  O202  1  0.24407177  0.13935921  0.91989059  1
  O  O203  1  0.74305762  0.13891825  0.91737520  1
  O  O204  1  0.32610197  0.12949070  0.41711327  1
  O  O205  1  0.82504857  0.13746244  0.41836672  1
  O  O206  1  0.24395600  0.36093748  0.41520149  1
  O  O207  1  0.74469706  0.34593086  0.41861381  1
  O  O208  1  0.41832018  0.50298761  0.41578508  1
  O  O209  1  0.93211092  0.51670952  0.41415743  1
  O  O210  1  0.16107066  0.45855896  0.08095870  1
  O  O211  1  0.67120053  0.49163902  0.08295030  1
  O  O212  1  0.08022530  0.68709591  0.08025459  1
  O  O213  1  0.58139941  0.69068098  0.08282199  1
  O  O214  1  0.27202828  0.86367911  0.08234885  1
  O  O215  1  0.77340411  0.86034441  0.08199221  1
  O  O216  1  0.15477629  0.84301037  0.57738612  1
  O  O217  1  0.67955954  0.87082979  0.57770238  1
  O  O218  1  0.25112685  0.66223047  0.58273819  1
  O  O219  1  0.76663183  0.69473760  0.57775215  1
  O  O220  1  0.07465328  0.47315578  0.57826596  1
  O  O221  1  0.56664500  0.47179703  0.58180871  1
  O  O222  1  0.14290442  0.82607529  0.24669860  1
  O  O223  1  0.64740863  0.84613194  0.24566839  1
  O  O224  1  0.26953740  0.71692288  0.24695392  1
  O  O225  1  0.76761516  0.71243588  0.24829425  1
  O  O226  1  0.08366341  0.45935373  0.24524751  1
  O  O227  1  0.58542393  0.46561995  0.24574114  1
  O  O228  1  0.14351271  0.46865608  0.74593612  1
  O  O229  1  0.66617993  0.48313711  0.75171834  1
  O  O230  1  0.07391193  0.68923443  0.74457467  1
  O  O231  1  0.57623871  0.69337675  0.75398943  1
  O  O232  1  0.26752729  0.84524034  0.75089814  1
  O  O233  1  0.76434145  0.83520452  0.74350187  1
