# generated using pymatgen
data_Na3InSi3Sn3(SO8)3
_symmetry_space_group_name_H-M   'P 1'
_cell_length_a   8.90745048
_cell_length_b   8.94073959
_cell_length_c   23.08198698
_cell_angle_alpha   89.72565267
_cell_angle_beta   90.25163415
_cell_angle_gamma   120.13242099
_symmetry_Int_Tables_number   1
_chemical_formula_structural   Na3InSi3Sn3(SO8)3
_chemical_formula_sum   'Na9 In3 Si9 Sn9 S9 O72'
_cell_volume   1589.80370888
_cell_formula_units_Z   3
loop_
 _symmetry_equiv_pos_site_id
 _symmetry_equiv_pos_as_xyz
  1  'x, y, z'
loop_
 _atom_site_type_symbol
 _atom_site_label
 _atom_site_symmetry_multiplicity
 _atom_site_fract_x
 _atom_site_fract_y
 _atom_site_fract_z
 _atom_site_occupancy
  Na  Na0  1  0.35830178  0.36067519  0.24512301  1
  Na  Na1  1  0.63475572  0.62374526  0.75424258  1
  Na  Na2  1  0.96707250  0.28729018  0.41665295  1
  Na  Na3  1  0.99639900  0.00753937  0.49776591  1
  Na  Na4  1  0.00001718  0.99137813  0.00343711  1
  Na  Na5  1  0.66443981  0.34160384  0.83156888  1
  Na  Na6  1  0.66763204  0.32141872  0.33198703  1
  Na  Na7  1  0.31392204  0.65513696  0.16248048  1
  Na  Na8  1  0.30382525  0.64820943  0.66727905  1
  In  In9  1  0.99414416  0.00772930  0.35373495  1
  In  In10  1  0.67662964  0.33865840  0.68648675  1
  In  In11  1  0.68626319  0.34620121  0.18003953  1
  Si  Si12  1  0.99496664  0.29639026  0.25091819  1
  Si  Si13  1  0.29122461  0.28916142  0.75163755  1
  Si  Si14  1  0.00538707  0.71410892  0.74946570  1
  Si  Si15  1  0.96178545  0.33284248  0.58269497  1
  Si  Si16  1  0.96974471  0.63643115  0.08263658  1
  Si  Si17  1  0.37402393  0.33208615  0.08575468  1
  Si  Si18  1  0.62695686  0.67265311  0.91525417  1
  Si  Si19  1  0.61697854  0.95062568  0.41760597  1
  Si  Si20  1  0.34011785  0.37231054  0.41704601  1
  Sn  Sn21  1  0.00192167  0.99095209  0.85209051  1
  Sn  Sn22  1  0.01216499  0.01438869  0.64845823  1
  Sn  Sn23  1  0.01070581  0.01029351  0.14527943  1
  Sn  Sn24  1  0.66347978  0.35755073  0.98407552  1
  Sn  Sn25  1  0.66060509  0.31773128  0.48071532  1
  Sn  Sn26  1  0.33862106  0.65904057  0.02097553  1
  Sn  Sn27  1  0.33088087  0.65414508  0.51760456  1
  Sn  Sn28  1  0.33666135  0.66137203  0.31638924  1
  Sn  Sn29  1  0.32311475  0.65460585  0.81379886  1
  S  S30  1  0.29156127  0.99380598  0.25117236  1
  S  S31  1  0.70936002  0.71102224  0.25025169  1
  S  S32  1  0.70801439  0.99884284  0.75095855  1
  S  S33  1  0.37004027  0.03427372  0.58352125  1
  S  S34  1  0.66942767  0.63052698  0.58322035  1
  S  S35  1  0.66607428  0.04212289  0.08114283  1
  S  S36  1  0.03287240  0.36795338  0.91721758  1
  S  S37  1  0.33925157  0.95992060  0.91745355  1
  S  S38  1  0.04113702  0.66789675  0.41706821  1
  O  O39  1  0.20958631  0.01781524  0.30300005  1
  O  O40  1  0.81354085  0.78620568  0.30276424  1
  O  O41  1  0.97353045  0.19554320  0.31124949  1
  O  O42  1  0.20196085  0.17752538  0.81066045  1
  O  O43  1  0.95684709  0.78988854  0.80603431  1
  O  O44  1  0.81548557  0.02799847  0.80364529  1
  O  O45  1  0.78271261  0.96414643  0.69861003  1
  O  O46  1  0.17335193  0.21679775  0.69352004  1
  O  O47  1  0.03135889  0.82921044  0.69041708  1
  O  O48  1  0.79114395  0.81514007  0.19741491  1
  O  O49  1  0.04177817  0.20601433  0.19597178  1
  O  O50  1  0.18381429  0.96324556  0.19801866  1
  O  O51  1  0.87716136  0.36315799  0.63899693  1
  O  O52  1  0.47308820  0.11300802  0.63570849  1
  O  O53  1  0.63659709  0.52767545  0.63687651  1
  O  O54  1  0.90470821  0.52101524  0.13993005  1
  O  O55  1  0.63501510  0.11156271  0.13446685  1
  O  O56  1  0.47744696  0.35806729  0.14654849  1
  O  O57  1  0.45163323  0.28862640  0.02761402  1
  O  O58  1  0.85417482  0.55381789  0.02340320  1
  O  O59  1  0.69568184  0.15070189  0.02878674  1
  O  O60  1  0.44658812  0.14469770  0.53079168  1
  O  O61  1  0.69226575  0.54594237  0.53169404  1
  O  O62  1  0.85003511  0.30630372  0.52189786  1
  O  O63  1  0.53583829  0.70327199  0.97127470  1
  O  O64  1  0.14317598  0.44962907  0.96875567  1
  O  O65  1  0.30734071  0.85002878  0.96916243  1
  O  O66  1  0.52695309  0.84160678  0.47667424  1
  O  O67  1  0.28718867  0.45354707  0.47102276  1
  O  O68  1  0.14707368  0.69769092  0.47001067  1
  O  O69  1  0.11606928  0.63135845  0.36499537  1
  O  O70  1  0.49693604  0.87220908  0.35923319  1
  O  O71  1  0.37332128  0.48290932  0.35642860  1
  O  O72  1  0.10662199  0.47770343  0.86436564  1
  O  O73  1  0.35982463  0.87955850  0.86401271  1
  O  O74  1  0.51230753  0.64321126  0.85566819  1
  O  O75  1  0.02179615  0.81876004  0.40999051  1
  O  O76  1  0.80826576  0.97074825  0.41611787  1
  O  O77  1  0.16985202  0.18149575  0.41427135  1
  O  O78  1  0.02218560  0.19875216  0.91067414  1
  O  O79  1  0.18316894  0.98125870  0.91317319  1
  O  O80  1  0.82112893  0.84977015  0.91152555  1
  O  O81  1  0.97643052  0.15405105  0.58657475  1
  O  O82  1  0.19418571  0.01482385  0.58624451  1
  O  O83  1  0.82712426  0.80318207  0.58785655  1
  O  O84  1  0.97303426  0.82149582  0.09034915  1
  O  O85  1  0.82112258  0.02187568  0.08687779  1
  O  O86  1  0.17909162  0.16389532  0.08621477  1
  O  O87  1  0.68614065  0.14892084  0.74587954  1
  O  O88  1  0.48364768  0.31247449  0.74574085  1
  O  O89  1  0.83261033  0.52501383  0.74715625  1
  O  O90  1  0.67752634  0.53279374  0.24681635  1
  O  O91  1  0.82282820  0.31318803  0.24616723  1
  O  O92  1  0.46152216  0.15326708  0.24556944  1
  O  O93  1  0.64298070  0.49586638  0.91831633  1
  O  O94  1  0.85731065  0.34476748  0.92344934  1
  O  O95  1  0.49874103  0.13127570  0.92239697  1
  O  O96  1  0.65019479  0.15061096  0.42037832  1
  O  O97  1  0.52147123  0.36998938  0.42593858  1
  O  O98  1  0.86975813  0.50725637  0.42299193  1
  O  O99  1  0.36234639  0.50800413  0.07901559  1
  O  O100  1  0.16593797  0.66613397  0.07237562  1
  O  O101  1  0.51032394  0.86863147  0.07496091  1
  O  O102  1  0.35412003  0.86287973  0.57678453  1
  O  O103  1  0.51405938  0.65169363  0.57789465  1
  O  O104  1  0.15596645  0.51101581  0.57730245  1
  O  O105  1  0.31054528  0.83816433  0.25561820  1
  O  O106  1  0.53485323  0.69859728  0.25320558  1
  O  O107  1  0.18268151  0.49025792  0.25460196  1
  O  O108  1  0.32142146  0.48773141  0.75549451  1
  O  O109  1  0.18419242  0.70481759  0.75732742  1
  O  O110  1  0.53682659  0.83843326  0.75658335  1
