# generated using pymatgen
data_NaTe
_symmetry_space_group_name_H-M   'P 1'
_cell_length_a   9.16534196
_cell_length_b   9.91995065
_cell_length_c   15.93643261
_cell_angle_alpha   90.00000000
_cell_angle_beta   90.00000000
_cell_angle_gamma   90.00000000
_symmetry_Int_Tables_number   1
_chemical_formula_structural   NaTe
_chemical_formula_sum   'Na24 Te24'
_cell_volume   1448.93630837
_cell_formula_units_Z   24
loop_
 _symmetry_equiv_pos_site_id
 _symmetry_equiv_pos_as_xyz
  1  'x, y, z'
loop_
 _atom_site_type_symbol
 _atom_site_label
 _atom_site_symmetry_multiplicity
 _atom_site_fract_x
 _atom_site_fract_y
 _atom_site_fract_z
 _atom_site_occupancy
  Na  Na0  1  0.72372003  0.51428262  0.80986688  1
  Na  Na1  1  0.22372003  0.98571738  0.69013312  1
  Na  Na2  1  0.77627997  0.51428262  0.19013312  1
  Na  Na3  1  0.27627997  0.98571738  0.30986688  1
  Na  Na4  1  0.27627997  0.48571738  0.19013312  1
  Na  Na5  1  0.77627997  0.01428262  0.30986688  1
  Na  Na6  1  0.22372003  0.48571738  0.80986688  1
  Na  Na7  1  0.72372003  0.01428262  0.69013312  1
  Na  Na8  1  0.93930721  0.68086043  0.97117787  1
  Na  Na9  1  0.43930721  0.81913957  0.52882213  1
  Na  Na10  1  0.56069279  0.68086043  0.02882213  1
  Na  Na11  1  0.06069279  0.81913957  0.47117787  1
  Na  Na12  1  0.06069279  0.31913957  0.02882213  1
  Na  Na13  1  0.56069279  0.18086043  0.47117787  1
  Na  Na14  1  0.43930721  0.31913957  0.97117787  1
  Na  Na15  1  0.93930721  0.18086043  0.52882213  1
  Na  Na16  1  0.75702248  0.67082978  0.61301674  1
  Na  Na17  1  0.25702248  0.82917022  0.88698326  1
  Na  Na18  1  0.74297752  0.67082978  0.38698326  1
  Na  Na19  1  0.24297752  0.82917022  0.11301674  1
  Na  Na20  1  0.24297752  0.32917022  0.38698326  1
  Na  Na21  1  0.74297752  0.17082978  0.11301674  1
  Na  Na22  1  0.25702248  0.32917022  0.61301674  1
  Na  Na23  1  0.75702248  0.17082978  0.88698326  1
  Te  Te24  1  0.75000000  0.92795305  0.50000000  1
  Te  Te25  1  0.25000000  0.57204695  0.00000000  1
  Te  Te26  1  0.25000000  0.07204695  0.50000000  1
  Te  Te27  1  0.75000000  0.42795305  0.00000000  1
  Te  Te28  1  0.51033181  0.24580552  0.25276377  1
  Te  Te29  1  0.01033181  0.25419448  0.24723623  1
  Te  Te30  1  0.98966819  0.24580552  0.74723623  1
  Te  Te31  1  0.48966819  0.25419448  0.75276377  1
  Te  Te32  1  0.48966819  0.75419448  0.74723623  1
  Te  Te33  1  0.98966819  0.74580552  0.75276377  1
  Te  Te34  1  0.01033181  0.75419448  0.25276377  1
  Te  Te35  1  0.51033181  0.74580552  0.24723623  1
  Te  Te36  1  0.30933729  0.14034025  0.13313552  1
  Te  Te37  1  0.80933729  0.35965975  0.36686448  1
  Te  Te38  1  0.19066271  0.14034025  0.86686448  1
  Te  Te39  1  0.69066271  0.35965975  0.63313552  1
  Te  Te40  1  0.69066271  0.85965975  0.86686448  1
  Te  Te41  1  0.19066271  0.64034025  0.63313552  1
  Te  Te42  1  0.80933729  0.85965975  0.13313552  1
  Te  Te43  1  0.30933729  0.64034025  0.36686448  1
  Te  Te44  1  -0.00000000  0.50000000  0.50000000  1
  Te  Te45  1  0.50000000  -0.00000000  0.00000000  1
  Te  Te46  1  0.50000000  0.50000000  0.50000000  1
  Te  Te47  1  -0.00000000  -0.00000000  0.00000000  1
