# generated using pymatgen
data_K3NaSi3(SnO6)2
_symmetry_space_group_name_H-M   'P 1'
_cell_length_a   9.36119585
_cell_length_b   9.36119550
_cell_length_c   22.63364232
_cell_angle_alpha   90.00000000
_cell_angle_beta   90.00000000
_cell_angle_gamma   120.00000119
_symmetry_Int_Tables_number   1
_chemical_formula_structural   K3NaSi3(SnO6)2
_chemical_formula_sum   'K18 Na6 Si18 Sn12 O72'
_cell_volume   1717.70160623
_cell_formula_units_Z   6
loop_
 _symmetry_equiv_pos_site_id
 _symmetry_equiv_pos_as_xyz
  1  'x, y, z'
loop_
 _atom_site_type_symbol
 _atom_site_label
 _atom_site_symmetry_multiplicity
 _atom_site_fract_x
 _atom_site_fract_y
 _atom_site_fract_z
 _atom_site_occupancy
  K  K0  1  0.64852998  -0.00000000  0.25000000  1
  K  K1  1  0.35147002  0.35147002  0.25000000  1
  K  K2  1  1.00000000  0.64852998  0.25000000  1
  K  K3  1  0.64852998  0.64852998  0.75000000  1
  K  K4  1  0.00000000  0.35147002  0.75000000  1
  K  K5  1  0.35147002  -0.00000000  0.75000000  1
  K  K6  1  0.31519698  0.33333300  0.58333300  1
  K  K7  1  0.01813702  0.68480302  0.58333300  1
  K  K8  1  0.66666700  0.98186298  0.58333300  1
  K  K9  1  0.31519698  0.98186298  0.08333300  1
  K  K10  1  0.66666700  0.68480302  0.08333300  1
  K  K11  1  0.01813702  0.33333300  0.08333300  1
  K  K12  1  0.98186298  0.66666700  0.91666700  1
  K  K13  1  0.68480302  0.01813702  0.91666700  1
  K  K14  1  0.33333300  0.31519698  0.91666700  1
  K  K15  1  0.98186298  0.31519698  0.41666700  1
  K  K16  1  0.33333300  0.01813702  0.41666700  1
  K  K17  1  0.68480302  0.66666700  0.41666700  1
  Na  Na18  1  -0.00000000  -0.00000000  0.50000000  1
  Na  Na19  1  -0.00000000  -0.00000000  0.00000000  1
  Na  Na20  1  0.66666700  0.33333300  0.83333300  1
  Na  Na21  1  0.66666700  0.33333300  0.33333300  1
  Na  Na22  1  0.33333300  0.66666700  0.16666700  1
  Na  Na23  1  0.33333300  0.66666700  0.66666700  1
  Si  Si24  1  0.29595462  -0.00000000  0.25000000  1
  Si  Si25  1  0.70404538  0.70404538  0.25000000  1
  Si  Si26  1  0.00000000  0.29595462  0.25000000  1
  Si  Si27  1  0.29595462  0.29595462  0.75000000  1
  Si  Si28  1  1.00000000  0.70404538  0.75000000  1
  Si  Si29  1  0.70404538  -0.00000000  0.75000000  1
  Si  Si30  1  0.96262162  0.33333300  0.58333300  1
  Si  Si31  1  0.37071238  0.03737838  0.58333300  1
  Si  Si32  1  0.66666700  0.62928762  0.58333300  1
  Si  Si33  1  0.96262162  0.62928762  0.08333300  1
  Si  Si34  1  0.66666700  0.03737838  0.08333300  1
  Si  Si35  1  0.37071238  0.33333300  0.08333300  1
  Si  Si36  1  0.62928762  0.66666700  0.91666700  1
  Si  Si37  1  0.03737838  0.37071238  0.91666700  1
  Si  Si38  1  0.33333300  0.96262162  0.91666700  1
  Si  Si39  1  0.62928762  0.96262162  0.41666700  1
  Si  Si40  1  0.33333300  0.37071238  0.41666700  1
  Si  Si41  1  0.03737838  0.66666700  0.41666700  1
  Sn  Sn42  1  -0.00000000  -0.00000000  0.35096893  1
  Sn  Sn43  1  -0.00000000  -0.00000000  0.85096893  1
  Sn  Sn44  1  -0.00000000  -0.00000000  0.64903107  1
  Sn  Sn45  1  -0.00000000  -0.00000000  0.14903107  1
  Sn  Sn46  1  0.66666700  0.33333300  0.68430193  1
  Sn  Sn47  1  0.66666700  0.33333300  0.18430193  1
  Sn  Sn48  1  0.66666700  0.33333300  0.98236407  1
  Sn  Sn49  1  0.66666700  0.33333300  0.48236407  1
  Sn  Sn50  1  0.33333300  0.66666700  0.01763593  1
  Sn  Sn51  1  0.33333300  0.66666700  0.51763593  1
  Sn  Sn52  1  0.33333300  0.66666700  0.31569807  1
  Sn  Sn53  1  0.33333300  0.66666700  0.81569807  1
  O  O54  1  0.20949071  0.03413183  0.30762034  1
  O  O55  1  0.82464112  0.79050929  0.30762034  1
  O  O56  1  0.96586817  0.17535888  0.30762034  1
  O  O57  1  0.20949071  0.17535888  0.80762034  1
  O  O58  1  0.96586817  0.79050929  0.80762034  1
  O  O59  1  0.82464112  0.03413183  0.80762034  1
  O  O60  1  0.79050929  0.96586817  0.69237966  1
  O  O61  1  0.17535888  0.20949071  0.69237966  1
  O  O62  1  0.03413183  0.82464112  0.69237966  1
  O  O63  1  0.79050929  0.82464112  0.19237966  1
  O  O64  1  0.03413183  0.20949071  0.19237966  1
  O  O65  1  0.17535888  0.96586817  0.19237966  1
  O  O66  1  0.87615771  0.36746483  0.64095334  1
  O  O67  1  0.49130812  0.12384229  0.64095334  1
  O  O68  1  0.63253517  0.50869188  0.64095334  1
  O  O69  1  0.87615771  0.50869188  0.14095334  1
  O  O70  1  0.63253517  0.12384229  0.14095334  1
  O  O71  1  0.49130812  0.36746483  0.14095334  1
  O  O72  1  0.45717629  0.29920117  0.02571266  1
  O  O73  1  0.84202588  0.54282371  0.02571266  1
  O  O74  1  0.70079883  0.15797412  0.02571266  1
  O  O75  1  0.45717629  0.15797412  0.52571266  1
  O  O76  1  0.70079883  0.54282371  0.52571266  1
  O  O77  1  0.84202588  0.29920117  0.52571266  1
  O  O78  1  0.54282371  0.70079883  0.97428734  1
  O  O79  1  0.15797412  0.45717629  0.97428734  1
  O  O80  1  0.29920117  0.84202588  0.97428734  1
  O  O81  1  0.54282371  0.84202588  0.47428734  1
  O  O82  1  0.29920117  0.45717629  0.47428734  1
  O  O83  1  0.15797412  0.70079883  0.47428734  1
  O  O84  1  0.12384229  0.63253517  0.35904666  1
  O  O85  1  0.50869188  0.87615771  0.35904666  1
  O  O86  1  0.36746483  0.49130812  0.35904666  1
  O  O87  1  0.12384229  0.49130812  0.85904666  1
  O  O88  1  0.36746483  0.87615771  0.85904666  1
  O  O89  1  0.50869188  0.63253517  0.85904666  1
  O  O90  1  0.01608081  0.83198569  0.41112630  1
  O  O91  1  0.81590489  0.98391919  0.41112630  1
  O  O92  1  0.16801431  0.18409511  0.41112630  1
  O  O93  1  0.01608081  0.18409511  0.91112630  1
  O  O94  1  0.16801431  0.98391919  0.91112630  1
  O  O95  1  0.81590489  0.83198569  0.91112630  1
  O  O96  1  0.98391919  0.16801431  0.58887370  1
  O  O97  1  0.18409511  0.01608081  0.58887370  1
  O  O98  1  0.83198569  0.81590489  0.58887370  1
  O  O99  1  0.98391919  0.81590489  0.08887370  1
  O  O100  1  0.83198569  0.01608081  0.08887370  1
  O  O101  1  0.18409511  0.16801431  0.08887370  1
  O  O102  1  0.68274781  0.16531869  0.74445930  1
  O  O103  1  0.48257189  0.31725219  0.74445930  1
  O  O104  1  0.83468131  0.51742811  0.74445930  1
  O  O105  1  0.68274781  0.51742811  0.24445930  1
  O  O106  1  0.83468131  0.31725219  0.24445930  1
  O  O107  1  0.48257189  0.16531869  0.24445930  1
  O  O108  1  0.65058619  0.50134731  0.92220670  1
  O  O109  1  0.85076211  0.34941381  0.92220670  1
  O  O110  1  0.49865269  0.14923789  0.92220670  1
  O  O111  1  0.65058619  0.14923789  0.42220670  1
  O  O112  1  0.49865269  0.34941381  0.42220670  1
  O  O113  1  0.85076211  0.50134731  0.42220670  1
  O  O114  1  0.34941381  0.49865269  0.07779330  1
  O  O115  1  0.14923789  0.65058619  0.07779330  1
  O  O116  1  0.50134731  0.85076211  0.07779330  1
  O  O117  1  0.34941381  0.85076211  0.57779330  1
  O  O118  1  0.50134731  0.65058619  0.57779330  1
  O  O119  1  0.14923789  0.49865269  0.57779330  1
  O  O120  1  0.31725219  0.83468131  0.25554070  1
  O  O121  1  0.51742811  0.68274781  0.25554070  1
  O  O122  1  0.16531869  0.48257189  0.25554070  1
  O  O123  1  0.31725219  0.48257189  0.75554070  1
  O  O124  1  0.16531869  0.68274781  0.75554070  1
  O  O125  1  0.51742811  0.83468131  0.75554070  1
