# generated using pymatgen
data_Sm10Se19
_symmetry_space_group_name_H-M   'P 1'
_cell_length_a   9.21974370
_cell_length_b   9.21974370
_cell_length_c   16.81143208
_cell_angle_alpha   90.00000000
_cell_angle_beta   90.00000000
_cell_angle_gamma   90.00000000
_symmetry_Int_Tables_number   1
_chemical_formula_structural   Sm10Se19
_chemical_formula_sum   'Sm20 Se38'
_cell_volume   1429.03349040
_cell_formula_units_Z   2
loop_
 _symmetry_equiv_pos_site_id
 _symmetry_equiv_pos_as_xyz
  1  'x, y, z'
loop_
 _atom_site_type_symbol
 _atom_site_label
 _atom_site_symmetry_multiplicity
 _atom_site_fract_x
 _atom_site_fract_y
 _atom_site_fract_z
 _atom_site_occupancy
  Sm  Sm0  1  0.55313035  0.85205258  0.39406315  1
  Sm  Sm1  1  0.14794742  0.05313035  0.89406315  1
  Sm  Sm2  1  0.35205258  0.44686965  0.89406315  1
  Sm  Sm3  1  0.94686965  0.64794742  0.39406315  1
  Sm  Sm4  1  0.44686965  0.14794742  0.60593685  1
  Sm  Sm5  1  0.85205258  0.94686965  0.10593685  1
  Sm  Sm6  1  0.64794742  0.55313035  0.10593685  1
  Sm  Sm7  1  0.05313035  0.35205258  0.60593685  1
  Sm  Sm8  1  0.54367441  0.84751104  0.88012761  1
  Sm  Sm9  1  0.15248896  0.04367441  0.38012761  1
  Sm  Sm10  1  0.34751104  0.45632559  0.38012761  1
  Sm  Sm11  1  0.95632559  0.65248896  0.88012761  1
  Sm  Sm12  1  0.45632559  0.15248896  0.11987239  1
  Sm  Sm13  1  0.84751104  0.95632559  0.61987239  1
  Sm  Sm14  1  0.65248896  0.54367441  0.61987239  1
  Sm  Sm15  1  0.04367441  0.34751104  0.11987239  1
  Sm  Sm16  1  0.25000000  0.75000000  0.11634426  1
  Sm  Sm17  1  0.25000000  0.75000000  0.61634426  1
  Sm  Sm18  1  0.75000000  0.25000000  0.88365574  1
  Sm  Sm19  1  0.75000000  0.25000000  0.38365474  1
  Se  Se20  1  0.75000000  0.75000000  0.75000000  1
  Se  Se21  1  0.25000000  0.25000000  0.25000000  1
  Se  Se22  1  0.17357072  0.52820196  0.75006043  1
  Se  Se23  1  0.47179804  0.67357072  0.25006043  1
  Se  Se24  1  0.02820196  0.82642928  0.25006043  1
  Se  Se25  1  0.32642828  0.97179804  0.75006043  1
  Se  Se26  1  0.82642928  0.47179804  0.24993957  1
  Se  Se27  1  0.52820196  0.32642828  0.74993957  1
  Se  Se28  1  0.97179804  0.17357072  0.74993957  1
  Se  Se29  1  0.67357072  0.02820196  0.24993957  1
  Se  Se30  1  0.65169242  0.54870464  0.92936027  1
  Se  Se31  1  0.45129536  0.15169242  0.42936027  1
  Se  Se32  1  0.04870464  0.34830758  0.42936027  1
  Se  Se33  1  0.84830758  0.95129536  0.92936027  1
  Se  Se34  1  0.34830758  0.45129536  0.07063973  1
  Se  Se35  1  0.54870464  0.84830758  0.57063973  1
  Se  Se36  1  0.95129536  0.65169242  0.57063973  1
  Se  Se37  1  0.15169242  0.04870464  0.07063973  1
  Se  Se38  1  0.64984191  0.55235774  0.43708101  1
  Se  Se39  1  0.44764226  0.14984191  0.93708101  1
  Se  Se40  1  0.11948652  0.56693340  0.25060413  1
  Se  Se41  1  0.43306660  0.61948652  0.75060413  1
  Se  Se42  1  0.06693340  0.88051348  0.75060413  1
  Se  Se43  1  0.38051348  0.93306660  0.25060413  1
  Se  Se44  1  0.88051348  0.43306660  0.74939587  1
  Se  Se45  1  0.56693340  0.38051348  0.24939587  1
  Se  Se46  1  0.93306660  0.11948652  0.24939587  1
  Se  Se47  1  0.61948652  0.06693340  0.74939587  1
  Se  Se48  1  0.75000000  0.25000000  0.06419250  1
  Se  Se49  1  0.75000000  0.25000000  0.56419250  1
  Se  Se50  1  0.25000000  0.75000000  0.93580750  1
  Se  Se51  1  0.25000000  0.75000000  0.43580750  1
  Se  Se52  1  0.14984191  0.05235774  0.56291899  1
  Se  Se53  1  0.94764226  0.64984191  0.06291899  1
  Se  Se54  1  0.55235774  0.85015809  0.06291899  1
  Se  Se55  1  0.35015809  0.44764226  0.56291899  1
  Se  Se56  1  0.85015809  0.94764226  0.43708101  1
  Se  Se57  1  0.05235774  0.35015809  0.93708101  1
