# generated using pymatgen
data_MgMn2Zn2O6
_symmetry_space_group_name_H-M   'P 1'
_cell_length_a   5.92739414
_cell_length_b   5.88895174
_cell_length_c   5.91257603
_cell_angle_alpha   52.49429586
_cell_angle_beta   52.42547477
_cell_angle_gamma   52.51091703
_symmetry_Int_Tables_number   1
_chemical_formula_structural   MgMn2Zn2O6
_chemical_formula_sum   'Mg1 Mn2 Zn2 O6'
_cell_volume   120.16029546
_cell_formula_units_Z   1
loop_
 _symmetry_equiv_pos_site_id
 _symmetry_equiv_pos_as_xyz
  1  'x, y, z'
loop_
 _atom_site_type_symbol
 _atom_site_label
 _atom_site_symmetry_multiplicity
 _atom_site_fract_x
 _atom_site_fract_y
 _atom_site_fract_z
 _atom_site_occupancy
  Mg  Mg0  1  0.29230936  0.29415742  0.29725091  1
  Mn  Mn1  1  0.47856093  0.47989945  0.48120808  1
  Mn  Mn2  1  0.65485484  0.65606250  0.65562636  1
  Zn  Zn3  1  0.03714270  0.03927057  0.03853152  1
  Zn  Zn4  1  0.84733844  0.84201382  0.84727291  1
  O  O5  1  0.05229086  0.69752606  0.43995453  1
  O  O6  1  0.43613519  0.05680636  0.69390675  1
  O  O7  1  0.69787516  0.44338608  0.05119266  1
  O  O8  1  0.26792206  0.58796692  0.87680383  1
  O  O9  1  0.58817258  0.87469154  0.26782230  1
  O  O10  1  0.87358788  0.26631427  0.58852515  1
