# generated using pymatgen
data_Na4YTa3Si5SO24
_symmetry_space_group_name_H-M   'P 1'
_cell_length_a   9.07728290
_cell_length_b   9.04005175
_cell_length_c   22.92454703
_cell_angle_alpha   90.20637676
_cell_angle_beta   89.92249873
_cell_angle_gamma   119.98181191
_symmetry_Int_Tables_number   1
_chemical_formula_structural   Na4YTa3Si5SO24
_chemical_formula_sum   'Na12 Y3 Ta9 Si15 S3 O72'
_cell_volume   1629.42686789
_cell_formula_units_Z   3
loop_
 _symmetry_equiv_pos_site_id
 _symmetry_equiv_pos_as_xyz
  1  'x, y, z'
loop_
 _atom_site_type_symbol
 _atom_site_label
 _atom_site_symmetry_multiplicity
 _atom_site_fract_x
 _atom_site_fract_y
 _atom_site_fract_z
 _atom_site_occupancy
  Na  Na0  1  0.63331094  0.62337704  0.74632326  1
  Na  Na1  1  0.99059218  0.36487593  0.75155236  1
  Na  Na2  1  0.37973450  0.00853602  0.74711381  1
  Na  Na3  1  0.65824540  0.68139311  0.08362355  1
  Na  Na4  1  0.02272648  0.34645139  0.08327465  1
  Na  Na5  1  0.32334176  0.02687599  0.41921638  1
  Na  Na6  1  0.98747835  0.99383819  0.49725375  1
  Na  Na7  1  0.00967002  0.99539413  0.99349738  1
  Na  Na8  1  0.66667066  0.33277508  0.83461556  1
  Na  Na9  1  0.69871981  0.33954912  0.33064914  1
  Na  Na10  1  0.32962755  0.67525133  0.16749632  1
  Na  Na11  1  0.34624983  0.67629498  0.66125192  1
  Y  Y12  1  0.98880701  0.00375155  0.35927931  1
  Y  Y13  1  0.65803542  0.33030482  0.68289129  1
  Y  Y14  1  0.67237225  0.33131612  0.18144986  1
  Ta  Ta15  1  0.99905204  0.00029763  0.85791147  1
  Ta  Ta16  1  0.00227730  0.98975717  0.64629980  1
  Ta  Ta17  1  0.00657672  0.01491344  0.14323762  1
  Ta  Ta18  1  0.66744979  0.33450047  0.97758994  1
  Ta  Ta19  1  0.65953304  0.34105703  0.47884707  1
  Ta  Ta20  1  0.33294719  0.66939205  0.01521002  1
  Ta  Ta21  1  0.34104355  0.67469410  0.51915219  1
  Ta  Ta22  1  0.32324159  0.65407589  0.31677101  1
  Ta  Ta23  1  0.33559808  0.66729111  0.81484849  1
  Si  Si24  1  0.00620822  0.30514790  0.25150676  1
  Si  Si25  1  0.27820232  0.28531736  0.75185964  1
  Si  Si26  1  0.00735935  0.71617136  0.75324374  1
  Si  Si27  1  0.71528208  0.99425690  0.75175730  1
  Si  Si28  1  0.36639588  0.03551634  0.58370462  1
  Si  Si29  1  0.66646117  0.63392643  0.58513635  1
  Si  Si30  1  0.96447826  0.63073011  0.08105948  1
  Si  Si31  1  0.66026093  0.03595654  0.08132693  1
  Si  Si32  1  0.37723453  0.33678060  0.08101034  1
  Si  Si33  1  0.62421987  0.66393249  0.91622894  1
  Si  Si34  1  0.04102124  0.37754511  0.91594133  1
  Si  Si35  1  0.33598255  0.96047297  0.91540654  1
  Si  Si36  1  0.61647718  0.95936466  0.41700827  1
  Si  Si37  1  0.33874595  0.38256240  0.41969663  1
  Si  Si38  1  0.04039613  0.65299736  0.41971452  1
  S  S39  1  0.28451547  0.98966652  0.25060946  1
  S  S40  1  0.70105758  0.71277433  0.24865528  1
  S  S41  1  0.96435595  0.33194662  0.58150431  1
  O  O42  1  0.20675652  -0.00024136  0.30437698  1
  O  O43  1  0.80193387  0.79093880  0.30045116  1
  O  O44  1  0.99624281  0.19407109  0.30582840  1
  O  O45  1  0.18117697  0.16668452  0.80806834  1
  O  O46  1  0.98291963  0.81492535  0.80810984  1
  O  O47  1  0.83189053  0.01452711  0.80851128  1
  O  O48  1  0.80765847  0.96530712  0.69399387  1
  O  O49  1  0.15781737  0.19361969  0.69387539  1
  O  O50  1  0.03556366  0.83591832  0.69394809  1
  O  O51  1  0.79215695  0.81464912  0.19455258  1
  O  O52  1  0.02141560  0.19656665  0.19096721  1
  O  O53  1  0.17493757  0.97564614  0.19813631  1
  O  O54  1  0.90076456  0.36153166  0.63726885  1
  O  O55  1  0.46627879  0.09377991  0.64493485  1
  O  O56  1  0.63500338  0.53805797  0.64666878  1
  O  O57  1  0.90345931  0.50790191  0.13649962  1
  O  O58  1  0.61886104  0.09718902  0.14051731  1
  O  O59  1  0.49353921  0.39587959  0.13775730  1
  O  O60  1  0.47371541  0.30428169  0.02607115  1
  O  O61  1  0.82936167  0.53580064  0.02649400  1
  O  O62  1  0.70724921  0.17280012  0.02754365  1
  O  O63  1  0.47573933  0.16380825  0.52828301  1
  O  O64  1  0.69029781  0.52301542  0.53103651  1
  O  O65  1  0.85068556  0.31176265  0.53257208  1
  O  O66  1  0.52860044  0.68613699  0.97268359  1
  O  O67  1  0.15956502  0.47051218  0.97252891  1
  O  O68  1  0.31253980  0.83600258  0.97000351  1
  O  O69  1  0.51041528  0.84232669  0.47315401  1
  O  O70  1  0.31992263  0.48216149  0.47467327  1
  O  O71  1  0.16020131  0.67062850  0.47423342  1
  O  O72  1  0.13508725  0.62709561  0.35985750  1
  O  O73  1  0.49267806  0.86282613  0.35893100  1
  O  O74  1  0.36231135  0.50071997  0.36045455  1
  O  O75  1  0.13787690  0.49757412  0.85810803  1
  O  O76  1  0.36015806  0.86547646  0.85709845  1
  O  O77  1  0.50409986  0.64076768  0.85840848  1
  O  O78  1  0.03764219  0.82737103  0.41542608  1
  O  O79  1  0.79721973  0.97305223  0.42076164  1
  O  O80  1  0.19040635  0.18803163  0.41834308  1
  O  O81  1  0.02331413  0.18919280  0.90978074  1
  O  O82  1  0.16584603  0.97721783  0.90998564  1
  O  O83  1  0.81144278  0.83457861  0.91020065  1
  O  O84  1  0.97769984  0.17456893  0.58509934  1
  O  O85  1  0.18097289  0.02886943  0.58912130  1
  O  O86  1  0.84002779  0.82451624  0.58866363  1
  O  O87  1  0.97247784  0.81566670  0.09312347  1
  O  O88  1  0.83873447  0.01976131  0.09138258  1
  O  O89  1  0.18345399  0.16327914  0.09029623  1
  O  O90  1  0.69593922  0.16228337  0.74966044  1
  O  O91  1  0.46637788  0.30736478  0.75049506  1
  O  O92  1  0.84405941  0.52738457  0.74934082  1
  O  O93  1  0.66984849  0.53821676  0.24407203  1
  O  O94  1  0.84774947  0.33702816  0.24895675  1
  O  O95  1  0.45359991  0.14174743  0.24486417  1
  O  O96  1  0.64002357  0.49269645  0.92342964  1
  O  O97  1  0.85527988  0.36236106  0.92402845  1
  O  O98  1  0.50759110  0.14533457  0.92465808  1
  O  O99  1  0.62030242  0.14263997  0.42485691  1
  O  O100  1  0.51892397  0.37700135  0.42497416  1
  O  O101  1  0.85582998  0.47958434  0.42770165  1
  O  O102  1  0.33393828  0.48984074  0.06815375  1
  O  O103  1  0.15398609  0.65861440  0.06764958  1
  O  O104  1  0.51245252  0.83850138  0.06921984  1
  O  O105  1  0.32926877  0.84053064  0.57223674  1
  O  O106  1  0.50107006  0.65643086  0.57303818  1
  O  O107  1  0.13781894  0.48128898  0.57378710  1
  O  O108  1  0.29850670  0.83094592  0.25046050  1
  O  O109  1  0.53486833  0.71141869  0.25193557  1
  O  O110  1  0.19104465  0.49347312  0.25382865  1
  O  O111  1  0.29231294  0.47486199  0.75758411  1
  O  O112  1  0.18453678  0.70817273  0.75740315  1
  O  O113  1  0.52656233  0.81842540  0.75748541  1
