# generated using pymatgen
data_Nb4Zn2P6(SO12)3
_symmetry_space_group_name_H-M   'P 1'
_cell_length_a   8.78798797
_cell_length_b   8.78798768
_cell_length_c   22.63056016
_cell_angle_alpha   90.00000000
_cell_angle_beta   90.00000000
_cell_angle_gamma   120.00000105
_symmetry_Int_Tables_number   1
_chemical_formula_structural   Nb4Zn2P6(SO12)3
_chemical_formula_sum   'Nb8 Zn4 P12 S6 O72'
_cell_volume   1513.57806149
_cell_formula_units_Z   2
loop_
 _symmetry_equiv_pos_site_id
 _symmetry_equiv_pos_as_xyz
  1  'x, y, z'
loop_
 _atom_site_type_symbol
 _atom_site_label
 _atom_site_symmetry_multiplicity
 _atom_site_fract_x
 _atom_site_fract_y
 _atom_site_fract_z
 _atom_site_occupancy
  Nb  Nb0  1  0.00000000  -0.00000000  0.64132538  1
  Nb  Nb1  1  0.00000000  -0.00000000  0.14132538  1
  Nb  Nb2  1  0.66666700  0.33333300  0.97553234  1
  Nb  Nb3  1  0.66666700  0.33333300  0.47553234  1
  Nb  Nb4  1  0.33333300  0.66666700  0.02270141  1
  Nb  Nb5  1  0.33333300  0.66666700  0.52270141  1
  Nb  Nb6  1  0.33333300  0.66666700  0.31157998  1
  Nb  Nb7  1  0.33333300  0.66666700  0.81157998  1
  Zn  Zn8  1  0.00000000  0.00000000  0.35839211  1
  Zn  Zn9  1  0.00000000  0.00000000  0.85839211  1
  Zn  Zn10  1  0.66666700  0.33333300  0.68379962  1
  Zn  Zn11  1  0.66666700  0.33333300  0.18379962  1
  P  P12  1  0.95114514  0.33568584  0.58458713  1
  P  P13  1  0.38454170  0.04885486  0.58458713  1
  P  P14  1  0.66431416  0.61545830  0.58458713  1
  P  P15  1  0.95114514  0.61545830  0.08458713  1
  P  P16  1  0.66431416  0.04885486  0.08458713  1
  P  P17  1  0.38454170  0.33568584  0.08458713  1
  P  P18  1  0.62356155  0.67092424  0.91638280  1
  P  P19  1  0.04736169  0.37643845  0.91638280  1
  P  P20  1  0.32907576  0.95263831  0.91638280  1
  P  P21  1  0.62356155  0.95263831  0.41638280  1
  P  P22  1  0.32907576  0.37643845  0.41638280  1
  P  P23  1  0.04736169  0.67092424  0.41638280  1
  S  S24  1  0.29067889  0.00501027  0.25100874  1
  S  S25  1  0.71433139  0.70932111  0.25100874  1
  S  S26  1  0.99498973  0.28566861  0.25100874  1
  S  S27  1  0.29067889  0.28566861  0.75100874  1
  S  S28  1  0.99498973  0.70932111  0.75100874  1
  S  S29  1  0.71433139  0.00501027  0.75100874  1
  O  O30  1  0.20753051  0.02717583  0.30299812  1
  O  O31  1  0.81964532  0.79246949  0.30299812  1
  O  O32  1  0.97282417  0.18035468  0.30299812  1
  O  O33  1  0.20753051  0.18035468  0.80299812  1
  O  O34  1  0.97282417  0.79246949  0.80299812  1
  O  O35  1  0.81964532  0.02717583  0.80299812  1
  O  O36  1  0.79533480  0.96933720  0.69680655  1
  O  O37  1  0.17400241  0.20466520  0.69680655  1
  O  O38  1  0.03066280  0.82599759  0.69680655  1
  O  O39  1  0.79533480  0.82599759  0.19680655  1
  O  O40  1  0.03066280  0.20466520  0.19680655  1
  O  O41  1  0.17400241  0.96933720  0.19680655  1
  O  O42  1  0.88045222  0.37038121  0.63951349  1
  O  O43  1  0.48992999  0.11954778  0.63951349  1
  O  O44  1  0.62961879  0.51007001  0.63951349  1
  O  O45  1  0.88045222  0.51007001  0.13951349  1
  O  O46  1  0.62961879  0.11954778  0.13951349  1
  O  O47  1  0.48992999  0.37038121  0.13951349  1
  O  O48  1  0.46470871  0.30081095  0.02859426  1
  O  O49  1  0.83610324  0.53529129  0.02859426  1
  O  O50  1  0.69918905  0.16389676  0.02859426  1
  O  O51  1  0.46470871  0.16389676  0.52859426  1
  O  O52  1  0.69918905  0.53529129  0.52859426  1
  O  O53  1  0.83610324  0.30081095  0.52859426  1
  O  O54  1  0.52752027  0.68989305  0.97103070  1
  O  O55  1  0.16237179  0.47247973  0.97103070  1
  O  O56  1  0.31010695  0.83762821  0.97103070  1
  O  O57  1  0.52752027  0.83762821  0.47103070  1
  O  O58  1  0.31010695  0.47247973  0.47103070  1
  O  O59  1  0.16237179  0.68989305  0.47103070  1
  O  O60  1  0.13503962  0.63348413  0.36165717  1
  O  O61  1  0.49844351  0.86496038  0.36165717  1
  O  O62  1  0.36651587  0.50155649  0.36165717  1
  O  O63  1  0.13503962  0.50155649  0.86165717  1
  O  O64  1  0.36651587  0.86496038  0.86165717  1
  O  O65  1  0.49844351  0.63348413  0.86165717  1
  O  O66  1  0.02653448  0.82658344  0.40833506  1
  O  O67  1  0.80004895  0.97346552  0.40833506  1
  O  O68  1  0.17341656  0.19995105  0.40833506  1
  O  O69  1  0.02653448  0.19995105  0.90833506  1
  O  O70  1  0.17341656  0.97346552  0.90833506  1
  O  O71  1  0.80004895  0.82658344  0.90833506  1
  O  O72  1  0.97539380  0.17014906  0.59378257  1
  O  O73  1  0.19475526  0.02460620  0.59378257  1
  O  O74  1  0.82985094  0.80524474  0.59378257  1
  O  O75  1  0.97539380  0.80524474  0.09378257  1
  O  O76  1  0.82985094  0.02460620  0.09378257  1
  O  O77  1  0.19475526  0.17014906  0.09378257  1
  O  O78  1  0.68685641  0.15192812  0.74128828  1
  O  O79  1  0.46507271  0.31314359  0.74128828  1
  O  O80  1  0.84807188  0.53492729  0.74128828  1
  O  O81  1  0.68685641  0.53492729  0.24128828  1
  O  O82  1  0.84807188  0.31314359  0.24128828  1
  O  O83  1  0.46507271  0.15192812  0.24128828  1
  O  O84  1  0.63249017  0.49904966  0.92686315  1
  O  O85  1  0.86656049  0.36750983  0.92686315  1
  O  O86  1  0.50095034  0.13343951  0.92686315  1
  O  O87  1  0.63249017  0.13343951  0.42686315  1
  O  O88  1  0.50095034  0.36750983  0.42686315  1
  O  O89  1  0.86656049  0.49904966  0.42686315  1
  O  O90  1  0.35228607  0.49087784  0.07131607  1
  O  O91  1  0.13859076  0.64771393  0.07131607  1
  O  O92  1  0.50912216  0.86140924  0.07131607  1
  O  O93  1  0.35228607  0.86140924  0.57131607  1
  O  O94  1  0.50912216  0.64771393  0.57131607  1
  O  O95  1  0.13859076  0.49087784  0.57131607  1
  O  O96  1  0.30278564  0.83725471  0.25805895  1
  O  O97  1  0.53446807  0.69721436  0.25805895  1
  O  O98  1  0.16274529  0.46553193  0.25805895  1
  O  O99  1  0.30278564  0.46553193  0.75805895  1
  O  O100  1  0.16274529  0.69721436  0.75805895  1
  O  O101  1  0.53446807  0.83725471  0.75805895  1
