# generated using pymatgen
data_Na6Y2Nb2Si5SO24
_symmetry_space_group_name_H-M   'P 1'
_cell_length_a   9.27422055
_cell_length_b   9.26138806
_cell_length_c   22.92950788
_cell_angle_alpha   89.60933243
_cell_angle_beta   90.64681228
_cell_angle_gamma   119.99575481
_symmetry_Int_Tables_number   1
_chemical_formula_structural   Na6Y2Nb2Si5SO24
_chemical_formula_sum   'Na18 Y6 Nb6 Si15 S3 O72'
_cell_volume   1705.56929856
_cell_formula_units_Z   3
loop_
 _symmetry_equiv_pos_site_id
 _symmetry_equiv_pos_as_xyz
  1  'x, y, z'
loop_
 _atom_site_type_symbol
 _atom_site_label
 _atom_site_symmetry_multiplicity
 _atom_site_fract_x
 _atom_site_fract_y
 _atom_site_fract_z
 _atom_site_occupancy
  Na  Na0  1  0.65050465  0.02060595  0.24793698  1
  Na  Na1  1  0.36103728  0.34230214  0.25542980  1
  Na  Na2  1  0.99095187  0.62936058  0.24900799  1
  Na  Na3  1  0.98739497  0.35106281  0.74786750  1
  Na  Na4  1  0.29529107  0.34267602  0.58101260  1
  Na  Na5  1  0.65962535  0.95454574  0.57976272  1
  Na  Na6  1  0.67875198  0.69796459  0.07347457  1
  Na  Na7  1  0.01612394  0.33709284  0.08076874  1
  Na  Na8  1  0.95208526  0.66370323  0.90828078  1
  Na  Na9  1  0.72073297  0.03640221  0.91723220  1
  Na  Na10  1  0.32595964  0.30895250  0.90851854  1
  Na  Na11  1  0.69864144  0.67710168  0.41739215  1
  Na  Na12  1  0.01399916  0.02240047  0.49594700  1
  Na  Na13  1  0.98635689  0.99495650  0.99797926  1
  Na  Na14  1  0.66372990  0.34778110  0.82852056  1
  Na  Na15  1  0.66225998  0.31689076  0.33493707  1
  Na  Na16  1  0.32984148  0.69947390  0.16227799  1
  Na  Na17  1  0.32930807  0.68048526  0.66228117  1
  Y  Y18  1  0.00683719  0.01272870  0.35478054  1
  Y  Y19  1  0.99391423  0.99682043  0.84194903  1
  Y  Y20  1  0.66919837  0.32946927  0.18195019  1
  Y  Y21  1  0.68589404  0.34394043  0.98241221  1
  Y  Y22  1  0.33652786  0.67589597  0.01791061  1
  Y  Y23  1  0.32520888  0.66520132  0.52321539  1
  Nb  Nb24  1  0.99285285  0.99006088  0.64855440  1
  Nb  Nb25  1  0.99246967  0.99222016  0.15426567  1
  Nb  Nb26  1  0.66621092  0.33577141  0.68602119  1
  Nb  Nb27  1  0.65191812  0.31876131  0.48252376  1
  Nb  Nb28  1  0.34862870  0.67114072  0.31420879  1
  Nb  Nb29  1  0.33595192  0.65137683  0.80518777  1
  Si  Si30  1  0.29307303  0.99292897  0.25254724  1
  Si  Si31  1  0.70073953  0.70242525  0.25462149  1
  Si  Si32  1  0.00869305  0.30231747  0.24961866  1
  Si  Si33  1  0.29994371  0.28917120  0.74891254  1
  Si  Si34  1  0.00180663  0.69962028  0.75081893  1
  Si  Si35  1  0.69641918  0.99776858  0.74822786  1
  Si  Si36  1  0.94776572  0.32366684  0.58641232  1
  Si  Si37  1  0.36966323  0.04782545  0.58706609  1
  Si  Si38  1  0.67831551  0.62451592  0.58228249  1
  Si  Si39  1  0.97457592  0.64952245  0.08634786  1
  Si  Si40  1  0.67446449  0.02598683  0.08598982  1
  Si  Si41  1  0.62707371  0.66541566  0.91541952  1
  Si  Si42  1  0.04227899  0.37263834  0.91411378  1
  Si  Si43  1  0.62438364  0.96521250  0.42128559  1
  Si  Si44  1  0.34402614  0.37488694  0.42164045  1
  S  S45  1  0.35466028  0.32122836  0.08306122  1
  S  S46  1  0.33407192  0.96063260  0.91199521  1
  S  S47  1  0.03161501  0.65260832  0.41385588  1
  O  O48  1  0.21309384  0.03223254  0.30669519  1
  O  O49  1  0.81301021  0.77386840  0.31169524  1
  O  O50  1  0.96098923  0.17353333  0.30227320  1
  O  O51  1  0.23528736  0.19758067  0.81047210  1
  O  O52  1  0.96959374  0.76184819  0.81176802  1
  O  O53  1  0.80820359  0.04779095  0.80712819  1
  O  O54  1  0.80187880  0.97172640  0.69407110  1
  O  O55  1  0.16202891  0.19056046  0.69581293  1
  O  O56  1  0.02131024  0.83410273  0.69780719  1
  O  O57  1  0.80144934  0.83411283  0.19789665  1
  O  O58  1  0.03828252  0.20829680  0.19133287  1
  O  O59  1  0.16394406  0.96851180  0.19578805  1
  O  O60  1  0.85280691  0.33760981  0.64354026  1
  O  O61  1  0.49519363  0.15795839  0.63943987  1
  O  O62  1  0.66532408  0.50503979  0.63710937  1
  O  O63  1  0.87988232  0.53917554  0.14289621  1
  O  O64  1  0.65391091  0.11127189  0.14384345  1
  O  O65  1  0.45517759  0.34192775  0.13598407  1
  O  O66  1  0.43836382  0.30695700  0.03031762  1
  O  O67  1  0.85633352  0.57260550  0.02735816  1
  O  O68  1  0.70242217  0.13980931  0.02694202  1
  O  O69  1  0.46411451  0.16860061  0.52721159  1
  O  O70  1  0.69561670  0.53148658  0.52297623  1
  O  O71  1  0.82301430  0.30352124  0.52928664  1
  O  O72  1  0.55222110  0.69181122  0.97528053  1
  O  O73  1  0.14176510  0.45781034  0.97410478  1
  O  O74  1  0.31323553  0.86635332  0.96685653  1
  O  O75  1  0.53591152  0.86128224  0.47899557  1
  O  O76  1  0.32995380  0.46309532  0.47947248  1
  O  O77  1  0.13139151  0.67132655  0.46695058  1
  O  O78  1  0.12096921  0.64460485  0.36061536  1
  O  O79  1  0.50001716  0.86069598  0.36185492  1
  O  O80  1  0.36043569  0.50327168  0.36296743  1
  O  O81  1  0.15261551  0.49342400  0.85683977  1
  O  O82  1  0.35004381  0.87230840  0.86135711  1
  O  O83  1  0.50199323  0.66025867  0.85955439  1
  O  O84  1  0.00485734  0.79677979  0.41202154  1
  O  O85  1  0.79926298  0.96855023  0.41560581  1
  O  O86  1  0.19213508  0.18830565  0.41707156  1
  O  O87  1  0.02495380  0.18832631  0.91117750  1
  O  O88  1  0.18580904  0.98135921  0.90860998  1
  O  O89  1  0.81508700  0.82499139  0.91052026  1
  O  O90  1  0.95367781  0.14661940  0.59046671  1
  O  O91  1  0.19147254  0.04443644  0.59269209  1
  O  O92  1  0.84486651  0.81241716  0.59129349  1
  O  O93  1  0.98710524  0.83473195  0.09436690  1
  O  O94  1  0.85587818  0.02557166  0.09206470  1
  O  O95  1  0.18669668  0.17252166  0.08689447  1
  O  O96  1  0.67696226  0.16167921  0.73644356  1
  O  O97  1  0.48849853  0.32791263  0.73748951  1
  O  O98  1  0.84623570  0.51018247  0.73878446  1
  O  O99  1  0.64973472  0.51215841  0.24265388  1
  O  O100  1  0.85711347  0.34119088  0.24428588  1
  O  O101  1  0.48001509  0.14644340  0.24421770  1
  O  O102  1  0.62250847  0.48615943  0.91341616  1
  O  O103  1  0.85957879  0.36230329  0.91205885  1
  O  O104  1  0.48766857  0.12800404  0.91634613  1
  O  O105  1  0.63894751  0.15226029  0.42403932  1
  O  O106  1  0.52885751  0.38180401  0.42116138  1
  O  O107  1  0.86733419  0.49666665  0.41604432  1
  O  O108  1  0.33652351  0.47261606  0.07993919  1
  O  O109  1  0.15118307  0.65430488  0.08289419  1
  O  O110  1  0.52827379  0.83143562  0.08469337  1
  O  O111  1  0.36634345  0.87322232  0.58596174  1
  O  O112  1  0.51372765  0.64401458  0.58403762  1
  O  O113  1  0.13616817  0.47749967  0.58531729  1
  O  O114  1  0.29477754  0.81403662  0.25777369  1
  O  O115  1  0.52340745  0.70966755  0.25843967  1
  O  O116  1  0.18613854  0.48212901  0.25867620  1
  O  O117  1  0.30681606  0.47542373  0.75296547  1
  O  O118  1  0.17032028  0.67968242  0.75418031  1
  O  O119  1  0.51279966  0.82800326  0.75507534  1
