# generated using pymatgen
data_Na2MoO4
_symmetry_space_group_name_H-M   'P 1'
_cell_length_a   8.14809892
_cell_length_b   7.07124275
_cell_length_c   6.04664667
_cell_angle_alpha   76.35232975
_cell_angle_beta   57.51100116
_cell_angle_gamma   46.11094058
_symmetry_Int_Tables_number   1
_chemical_formula_structural   Na2MoO4
_chemical_formula_sum   'Na4 Mo2 O8'
_cell_volume   206.38174913
_cell_formula_units_Z   2
loop_
 _symmetry_equiv_pos_site_id
 _symmetry_equiv_pos_as_xyz
  1  'x, y, z'
loop_
 _atom_site_type_symbol
 _atom_site_label
 _atom_site_symmetry_multiplicity
 _atom_site_fract_x
 _atom_site_fract_y
 _atom_site_fract_z
 _atom_site_occupancy
  Na  Na0  1  0.81859863  0.18149767  0.81944013  1
  Na  Na1  1  0.18092521  0.81834096  0.18103025  1
  Na  Na2  1  0.06904892  0.43167681  0.06897353  1
  Na  Na3  1  0.43139157  0.06853562  0.43056293  1
  Mo  Mo4  1  0.50008715  0.49990417  0.49994764  1
  Mo  Mo5  1  0.74990696  0.75009100  0.75006868  1
  O  O6  1  0.77436877  0.88065029  0.93505247  1
  O  O7  1  0.40982343  0.93507426  0.88075847  1
  O  O8  1  0.93522140  0.40989537  0.77422943  1
  O  O9  1  0.88041190  0.77443613  0.41007881  1
  O  O10  1  0.47563355  0.36939303  0.31489835  1
  O  O11  1  0.84018717  0.31492359  0.36920049  1
  O  O12  1  0.36960979  0.47547577  0.83992480  1
  O  O13  1  0.31478456  0.84010433  0.47583301  1
