# generated using pymatgen
data_Ti(SeO3)2
_symmetry_space_group_name_H-M   'P 1'
_cell_length_a   4.76435195
_cell_length_b   6.78256177
_cell_length_c   8.34112571
_cell_angle_alpha   90.00000000
_cell_angle_beta   90.00000000
_cell_angle_gamma   110.34159131
_symmetry_Int_Tables_number   1
_chemical_formula_structural   Ti(SeO3)2
_chemical_formula_sum   'Ti2 Se4 O12'
_cell_volume   252.73007423
_cell_formula_units_Z   2
loop_
 _symmetry_equiv_pos_site_id
 _symmetry_equiv_pos_as_xyz
  1  'x, y, z'
loop_
 _atom_site_type_symbol
 _atom_site_label
 _atom_site_symmetry_multiplicity
 _atom_site_fract_x
 _atom_site_fract_y
 _atom_site_fract_z
 _atom_site_occupancy
  Ti  Ti0  1  0.00000000  0.50000000  0.50000000  1
  Ti  Ti1  1  0.50000000  -0.00000000  -0.00000000  1
  Se  Se2  1  0.69044683  0.82375462  0.35829376  1
  Se  Se3  1  0.80955317  0.67624538  0.85829376  1
  Se  Se4  1  0.30955317  0.17624538  0.64170624  1
  Se  Se5  1  0.19044683  0.32375462  0.14170624  1
  O  O6  1  0.74181941  0.90747607  0.84597511  1
  O  O7  1  0.75818059  0.59252393  0.34597511  1
  O  O8  1  0.25818059  0.09252393  0.15402489  1
  O  O9  1  0.24181941  0.40747607  0.65402489  1
  O  O10  1  0.15043177  0.74940668  0.94797808  1
  O  O11  1  0.34956823  0.75059332  0.44797808  1
  O  O12  1  0.08966799  0.32853819  0.33853709  1
  O  O13  1  0.41033201  0.17146181  0.83853709  1
  O  O14  1  0.91033201  0.67146181  0.66146291  1
  O  O15  1  0.58966799  0.82853819  0.16146291  1
  O  O16  1  0.65043177  0.24940668  0.55202192  1
  O  O17  1  0.84956823  0.25059332  0.05202192  1
