# generated using pymatgen
data_Na5HfTa3(SiO4)6
_symmetry_space_group_name_H-M   'P 1'
_cell_length_a   9.04383328
_cell_length_b   9.03423137
_cell_length_c   22.71271079
_cell_angle_alpha   90.21577239
_cell_angle_beta   89.83702958
_cell_angle_gamma   120.15360065
_symmetry_Int_Tables_number   1
_chemical_formula_structural   Na5HfTa3(SiO4)6
_chemical_formula_sum   'Na15 Hf3 Ta9 Si18 O72'
_cell_volume   1604.59612718
_cell_formula_units_Z   3
loop_
 _symmetry_equiv_pos_site_id
 _symmetry_equiv_pos_as_xyz
  1  'x, y, z'
loop_
 _atom_site_type_symbol
 _atom_site_label
 _atom_site_symmetry_multiplicity
 _atom_site_fract_x
 _atom_site_fract_y
 _atom_site_fract_z
 _atom_site_occupancy
  Na  Na0  1  0.36627946  0.36249036  0.24840739  1
  Na  Na1  1  0.99348598  0.63212202  0.24824136  1
  Na  Na2  1  0.63627310  0.63066449  0.74895001  1
  Na  Na3  1  0.99820929  0.36749301  0.74931094  1
  Na  Na4  1  0.03060309  0.69611709  0.58420299  1
  Na  Na5  1  0.30482779  0.97021280  0.08397460  1
  Na  Na6  1  0.69901576  0.03275786  0.91782346  1
  Na  Na7  1  0.96918535  0.29727083  0.41512329  1
  Na  Na8  1  0.33116047  0.03396130  0.41557927  1
  Na  Na9  1  0.99244043  0.99871763  0.49936346  1
  Na  Na10  1  0.00024344  -0.00000302  0.00103479  1
  Na  Na11  1  0.65904650  0.33226044  0.83358258  1
  Na  Na12  1  0.66688881  0.33288579  0.33014441  1
  Na  Na13  1  0.34072079  0.66741405  0.16476982  1
  Na  Na14  1  0.34112160  0.67450902  0.66551328  1
  Hf  Hf15  1  0.99510246  0.99512811  0.35392141  1
  Hf  Hf16  1  0.66096192  0.32678714  0.68685349  1
  Hf  Hf17  1  0.66689282  0.32905473  0.18500977  1
  Ta  Ta18  1  0.00504668  0.00005038  0.85562587  1
  Ta  Ta19  1  0.00063415  0.00369412  0.64484705  1
  Ta  Ta20  1  0.99441742  0.99977492  0.14509918  1
  Ta  Ta21  1  0.66797027  0.33862006  0.97966805  1
  Ta  Ta22  1  0.66647293  0.33635701  0.48024735  1
  Ta  Ta23  1  0.33184736  0.66163764  0.02056338  1
  Ta  Ta24  1  0.33792629  0.66649301  0.52119965  1
  Ta  Ta25  1  0.33698525  0.66986744  0.31201304  1
  Ta  Ta26  1  0.33307232  0.66956333  0.81328768  1
  Si  Si27  1  0.29031627  0.00028445  0.25034103  1
  Si  Si28  1  0.70872284  0.71057335  0.24968803  1
  Si  Si29  1  0.99713564  0.28829205  0.25139764  1
  Si  Si30  1  0.28910096  0.28747707  0.75082884  1
  Si  Si31  1  0.00387594  0.71490618  0.74955868  1
  Si  Si32  1  0.71221038  0.99941069  0.75110719  1
  Si  Si33  1  0.95552931  0.33067224  0.58338980  1
  Si  Si34  1  0.37582376  0.04301838  0.58286222  1
  Si  Si35  1  0.66394139  0.62337057  0.58490518  1
  Si  Si36  1  0.95777502  0.62410125  0.08392111  1
  Si  Si37  1  0.66888165  0.04301416  0.08153772  1
  Si  Si38  1  0.37744942  0.33597552  0.08409541  1
  Si  Si39  1  0.62040496  0.66339653  0.91609985  1
  Si  Si40  1  0.04360252  0.37802894  0.91634458  1
  Si  Si41  1  0.33128371  0.95561149  0.91802129  1
  Si  Si42  1  0.62332001  0.95537841  0.41752798  1
  Si  Si43  1  0.33748124  0.38039706  0.41640914  1
  Si  Si44  1  0.04394135  0.66611414  0.41741865  1
  O  O45  1  0.20578928  0.03151714  0.30902375  1
  O  O46  1  0.83098163  0.79601207  0.30614977  1
  O  O47  1  0.97363287  0.17919130  0.31043658  1
  O  O48  1  0.19025479  0.16740291  0.80759793  1
  O  O49  1  0.97245275  0.80998697  0.80586250  1
  O  O50  1  0.83082163  0.02718382  0.80924203  1
  O  O51  1  0.80474761  0.96481960  0.69416143  1
  O  O52  1  0.16290092  0.19621916  0.69389455  1
  O  O53  1  0.03093802  0.83104666  0.69087398  1
  O  O54  1  0.80416639  0.83383779  0.19232949  1
  O  O55  1  0.03388615  0.19538342  0.19469997  1
  O  O56  1  0.16627667  0.96536872  0.19225674  1
  O  O57  1  0.87692217  0.37240022  0.64139535  1
  O  O58  1  0.49529328  0.12889520  0.63959278  1
  O  O59  1  0.63583091  0.51196411  0.64367746  1
  O  O60  1  0.87866670  0.51338046  0.14271790  1
  O  O61  1  0.62559472  0.12473144  0.13764168  1
  O  O62  1  0.48764159  0.36585901  0.14306028  1
  O  O63  1  0.47251713  0.30072997  0.02748667  1
  O  O64  1  0.83291994  0.52588717  0.02687407  1
  O  O65  1  0.69511720  0.16101669  0.02275697  1
  O  O66  1  0.46718351  0.16167074  0.52400909  1
  O  O67  1  0.69806386  0.52790072  0.52806342  1
  O  O68  1  0.83584869  0.30513443  0.52489725  1
  O  O69  1  0.52836318  0.70012229  0.97149956  1
  O  O70  1  0.16670559  0.47334185  0.97218338  1
  O  O71  1  0.30508940  0.83912446  0.97553315  1
  O  O72  1  0.52407742  0.83480172  0.47397394  1
  O  O73  1  0.30564071  0.47564712  0.47226499  1
  O  O74  1  0.16421949  0.69267847  0.47477950  1
  O  O75  1  0.13328644  0.63145291  0.35908796  1
  O  O76  1  0.49570648  0.86286265  0.36061334  1
  O  O77  1  0.36377939  0.49835863  0.35788190  1
  O  O78  1  0.13529509  0.49594138  0.85752081  1
  O  O79  1  0.36464908  0.86033013  0.86094578  1
  O  O80  1  0.50281496  0.63747427  0.85702766  1
  O  O81  1  0.03410344  0.83903157  0.41287926  1
  O  O82  1  0.81396847  0.98576385  0.41366763  1
  O  O83  1  0.16792066  0.19179379  0.41280748  1
  O  O84  1  0.01729380  0.18491372  0.90969403  1
  O  O85  1  0.16240882  0.97496239  0.90928902  1
  O  O86  1  0.80713216  0.83937839  0.90886423  1
  O  O87  1  0.97514979  0.16127351  0.59019283  1
  O  O88  1  0.18271121  0.01764746  0.58960760  1
  O  O89  1  0.84129972  0.81031995  0.58955759  1
  O  O90  1  0.98416673  0.81822776  0.08903210  1
  O  O91  1  0.83921646  0.02458333  0.08951664  1
  O  O92  1  0.19018944  0.15855061  0.08972464  1
  O  O93  1  0.70199323  0.17248115  0.74543909  1
  O  O94  1  0.48061678  0.31839680  0.74654902  1
  O  O95  1  0.83402519  0.52545722  0.74549965  1
  O  O96  1  0.68490436  0.52078446  0.24348603  1
  O  O97  1  0.83928675  0.32269324  0.24473764  1
  O  O98  1  0.47537644  0.17066674  0.24430771  1
  O  O99  1  0.64035016  0.49503662  0.92397558  1
  O  O100  1  0.85135349  0.35226833  0.92330900  1
  O  O101  1  0.50747834  0.14180371  0.92356240  1
  O  O102  1  0.63603758  0.14428255  0.42389044  1
  O  O103  1  0.50577263  0.35790151  0.42410655  1
  O  O104  1  0.85800151  0.48865930  0.42404202  1
  O  O105  1  0.35412735  0.50214220  0.07363842  1
  O  O106  1  0.15138695  0.65323713  0.07424147  1
  O  O107  1  0.49558213  0.85454661  0.07317712  1
  O  O108  1  0.34459700  0.84827259  0.57488016  1
  O  O109  1  0.49785226  0.64612636  0.57498869  1
  O  O110  1  0.14298832  0.50422293  0.57407437  1
  O  O111  1  0.29852068  0.82184365  0.25725561  1
  O  O112  1  0.51684846  0.68890827  0.25645154  1
  O  O113  1  0.17542507  0.47959294  0.25649667  1
  O  O114  1  0.30239230  0.47704690  0.75714761  1
  O  O115  1  0.17182149  0.69081675  0.75748901  1
  O  O116  1  0.52533002  0.82273311  0.75726264  1
