# generated using pymatgen
data_Na5Zr2Zn2P5SO24
_symmetry_space_group_name_H-M   'P 1'
_cell_length_a   9.03805019
_cell_length_b   9.04469066
_cell_length_c   22.54173029
_cell_angle_alpha   90.27262835
_cell_angle_beta   89.95911672
_cell_angle_gamma   120.04171113
_symmetry_Int_Tables_number   1
_chemical_formula_structural   Na5Zr2Zn2P5SO24
_chemical_formula_sum   'Na15 Zr6 Zn6 P15 S3 O72'
_cell_volume   1595.13679394
_cell_formula_units_Z   3
loop_
 _symmetry_equiv_pos_site_id
 _symmetry_equiv_pos_as_xyz
  1  'x, y, z'
loop_
 _atom_site_type_symbol
 _atom_site_label
 _atom_site_symmetry_multiplicity
 _atom_site_fract_x
 _atom_site_fract_y
 _atom_site_fract_z
 _atom_site_occupancy
  Na  Na0  1  0.63538424  0.00040225  0.25268686  1
  Na  Na1  1  0.37178138  0.37492014  0.24580595  1
  Na  Na2  1  0.99362274  0.62069624  0.25290912  1
  Na  Na3  1  0.64232034  0.62904087  0.74502359  1
  Na  Na4  1  0.98455471  0.35544069  0.74574822  1
  Na  Na5  1  0.37280407  0.01685705  0.74576219  1
  Na  Na6  1  0.30257188  0.96184105  0.07278941  1
  Na  Na7  1  0.04047926  0.34700335  0.07422512  1
  Na  Na8  1  0.70873660  0.67761467  0.41390846  1
  Na  Na9  1  0.00815285  0.00665706  0.49589554  1
  Na  Na10  1  0.99767446  0.99709082  0.98521668  1
  Na  Na11  1  0.66717973  0.32816661  0.83067972  1
  Na  Na12  1  0.68136863  0.32687973  0.33073322  1
  Na  Na13  1  0.34857119  0.66265389  0.16011003  1
  Na  Na14  1  0.33527359  0.66528605  0.66293639  1
  Zr  Zr15  1  0.99860613  0.99821627  0.64595581  1
  Zr  Zr16  1  0.98926541  0.99657013  0.14650898  1
  Zr  Zr17  1  0.66711078  0.33328222  0.98016670  1
  Zr  Zr18  1  0.67187655  0.32781188  0.48332046  1
  Zr  Zr19  1  0.32992183  0.67265583  0.51883734  1
  Zr  Zr20  1  0.32785926  0.66736326  0.81884768  1
  Zn  Zn21  1  0.98713991  0.99683591  0.35038167  1
  Zn  Zn22  1  0.01141223  0.01076299  0.85026698  1
  Zn  Zn23  1  0.66884188  0.33623404  0.67817574  1
  Zn  Zn24  1  0.67166006  0.34121361  0.17678940  1
  Zn  Zn25  1  0.33143475  0.66642534  0.01397638  1
  Zn  Zn26  1  0.32656238  0.66560150  0.31982998  1
  P  P27  1  0.70103969  0.69848139  0.25390589  1
  P  P28  1  -0.00011869  0.29523655  0.25216920  1
  P  P29  1  0.29696027  0.29413180  0.75103913  1
  P  P30  1  0.99658976  0.70743148  0.75243370  1
  P  P31  1  0.70872249  0.00099373  0.75277466  1
  P  P32  1  0.96441530  0.33427185  0.58729055  1
  P  P33  1  0.37314504  0.04119568  0.58663328  1
  P  P34  1  0.66457678  0.62694745  0.58422937  1
  P  P35  1  0.96552847  0.62813014  0.08594924  1
  P  P36  1  0.65969109  0.03723691  0.08607440  1
  P  P37  1  0.37435057  0.33787796  0.08713938  1
  P  P38  1  0.03616299  0.36350889  0.92014356  1
  P  P39  1  0.32613078  0.96334546  0.92030672  1
  P  P40  1  0.62783588  0.96095015  0.41243383  1
  P  P41  1  0.03687147  0.67087908  0.41258643  1
  S  S42  1  0.29230287  0.00036852  0.25121638  1
  S  S43  1  0.62981299  0.66956411  0.91823645  1
  S  S44  1  0.33174743  0.36895871  0.41483520  1
  O  O45  1  0.20636569  0.02107139  0.30278654  1
  O  O46  1  0.80711894  0.77478573  0.31056661  1
  O  O47  1  0.97571285  0.17959932  0.30462000  1
  O  O48  1  0.21963228  0.18428387  0.80529917  1
  O  O49  1  0.96793595  0.79028247  0.80616194  1
  O  O50  1  0.82029101  0.02886134  0.80637130  1
  O  O51  1  0.79154615  0.96924531  0.69632246  1
  O  O52  1  0.17851446  0.20868273  0.69580721  1
  O  O53  1  0.02931624  0.82155154  0.69634066  1
  O  O54  1  0.80230328  0.81968750  0.20010764  1
  O  O55  1  0.02254069  0.20858388  0.19396765  1
  O  O56  1  0.19145394  0.98392616  0.19560401  1
  O  O57  1  0.89136877  0.35970810  0.64483697  1
  O  O58  1  0.47048449  0.11431288  0.64433218  1
  O  O59  1  0.64056982  0.52674860  0.64104765  1
  O  O60  1  0.89201348  0.52868970  0.14388708  1
  O  O61  1  0.63571647  0.11537295  0.14364819  1
  O  O62  1  0.46876240  0.35570353  0.14581512  1
  O  O63  1  0.46712524  0.30809806  0.03432682  1
  O  O64  1  0.84766598  0.53500704  0.03245789  1
  O  O65  1  0.69043078  0.16035085  0.03338692  1
  O  O66  1  0.46991254  0.15430840  0.53265781  1
  O  O67  1  0.68383440  0.53535179  0.52847118  1
  O  O68  1  0.84944735  0.31534102  0.53295198  1
  O  O69  1  0.54197475  0.68474705  0.96992909  1
  O  O70  1  0.13853766  0.44982421  0.97637420  1
  O  O71  1  0.31484267  0.86319279  0.97622256  1
  O  O72  1  0.52458703  0.84097181  0.46504307  1
  O  O73  1  0.31658314  0.46248713  0.46692229  1
  O  O74  1  0.14924588  0.67925115  0.46635743  1
  O  O75  1  0.10755847  0.64106894  0.35447714  1
  O  O76  1  0.52876219  0.88531629  0.35424102  1
  O  O77  1  0.36259362  0.47162833  0.36014245  1
  O  O78  1  0.13100735  0.47860663  0.86413139  1
  O  O79  1  0.35167822  0.87142712  0.86413050  1
  O  O80  1  0.52681830  0.64690898  0.86224995  1
  O  O81  1  0.01772134  0.83037251  0.41382867  1
  O  O82  1  0.80444882  0.97434122  0.41421571  1
  O  O83  1  0.18288710  0.19843346  0.41272448  1
  O  O84  1  0.01088245  0.18553714  0.91295575  1
  O  O85  1  0.16837318  0.98002866  0.91318644  1
  O  O86  1  0.80101326  0.81781100  0.91286551  1
  O  O87  1  0.98103068  0.17195826  0.58778265  1
  O  O88  1  0.19317663  0.02264775  0.58717166  1
  O  O89  1  0.82763487  0.80721159  0.58639017  1
  O  O90  1  0.98590192  0.81106328  0.08895618  1
  O  O91  1  0.83015564  0.02946585  0.08897624  1
  O  O92  1  0.19328371  0.16606276  0.08897545  1
  O  O93  1  0.67982810  0.15440583  0.74543717  1
  O  O94  1  0.47949442  0.32415098  0.74290978  1
  O  O95  1  0.84399039  0.52495836  0.74439123  1
  O  O96  1  0.68051183  0.51925181  0.24538403  1
  O  O97  1  0.83789261  0.31224786  0.24658879  1
  O  O98  1  0.46593938  0.15298793  0.24706791  1
  O  O99  1  0.64115538  0.50897577  0.92053825  1
  O  O100  1  0.85824214  0.35643531  0.92161311  1
  O  O101  1  0.49295920  0.14438134  0.92210780  1
  O  O102  1  0.64653907  0.14092233  0.42180640  1
  O  O103  1  0.49330622  0.35965564  0.42227681  1
  O  O104  1  0.85194170  0.50970088  0.42132966  1
  O  O105  1  0.34246157  0.48707965  0.07920847  1
  O  O106  1  0.14561381  0.65204912  0.07847033  1
  O  O107  1  0.50536240  0.86028467  0.07707785  1
  O  O108  1  0.35052975  0.85955909  0.57705632  1
  O  O109  1  0.50614724  0.64947084  0.57525249  1
  O  O110  1  0.14443126  0.49198596  0.57715083  1
  O  O111  1  0.30552298  0.84263051  0.25219428  1
  O  O112  1  0.52508276  0.68935937  0.25435102  1
  O  O113  1  0.16485521  0.47347140  0.25506934  1
  O  O114  1  0.30965608  0.47513917  0.75574274  1
  O  O115  1  0.16489522  0.69303637  0.75666842  1
  O  O116  1  0.52691411  0.83294143  0.75673001  1
