# generated using pymatgen
data_Na18Ca8Ta4Si9(SO8)9
_symmetry_space_group_name_H-M   'P 1'
_cell_length_a   9.35466062
_cell_length_b   9.33360173
_cell_length_c   22.94671789
_cell_angle_alpha   90.51935384
_cell_angle_beta   90.21269605
_cell_angle_gamma   119.97801317
_symmetry_Int_Tables_number   1
_chemical_formula_structural   Na18Ca8Ta4Si9(SO8)9
_chemical_formula_sum   'Na18 Ca8 Ta4 Si9 S9 O72'
_cell_volume   1735.35042336
_cell_formula_units_Z   1
loop_
 _symmetry_equiv_pos_site_id
 _symmetry_equiv_pos_as_xyz
  1  'x, y, z'
loop_
 _atom_site_type_symbol
 _atom_site_label
 _atom_site_symmetry_multiplicity
 _atom_site_fract_x
 _atom_site_fract_y
 _atom_site_fract_z
 _atom_site_occupancy
  Na  Na0  1  0.67217683  0.03729889  0.26334827  1
  Na  Na1  1  0.33082431  0.32022959  0.25951727  1
  Na  Na2  1  0.99593414  0.64422408  0.23962418  1
  Na  Na3  1  0.64608983  0.64512759  0.73050867  1
  Na  Na4  1  0.98823763  0.32785343  0.73626351  1
  Na  Na5  1  0.36756642  0.04297121  0.75347592  1
  Na  Na6  1  0.29667284  0.34634290  0.59164523  1
  Na  Na7  1  0.01934532  0.67961864  0.58501359  1
  Na  Na8  1  0.67512665  0.94872462  0.57875605  1
  Na  Na9  1  0.27370758  0.93913132  0.08143010  1
  Na  Na10  1  0.68223268  0.70563155  0.08218215  1
  Na  Na11  1  0.03042452  0.34915249  0.09635477  1
  Na  Na12  1  0.95743386  0.99408452  0.49819831  1
  Na  Na13  1  0.01946703  0.97551411  0.99236190  1
  Na  Na14  1  0.64370796  0.31210773  0.82473426  1
  Na  Na15  1  0.66249992  0.30891635  0.33372535  1
  Na  Na16  1  0.28835161  0.65775331  0.16989711  1
  Na  Na17  1  0.33941936  0.64188355  0.65253459  1
  Ca  Ca18  1  0.99897939  0.00911843  0.35223263  1
  Ca  Ca19  1  0.01217859  0.01265799  0.85081507  1
  Ca  Ca20  1  0.99017095  0.01125678  0.65012506  1
  Ca  Ca21  1  0.01621152  0.00550761  0.15845341  1
  Ca  Ca22  1  0.66822176  0.33501216  0.68238679  1
  Ca  Ca23  1  0.67224349  0.33316439  0.18556329  1
  Ca  Ca24  1  0.32515688  0.67145799  0.01150683  1
  Ca  Ca25  1  0.34295231  0.66892541  0.51251075  1
  Ta  Ta26  1  0.66960330  0.33694095  0.97570434  1
  Ta  Ta27  1  0.67620499  0.33082532  0.48270094  1
  Ta  Ta28  1  0.33187889  0.67580716  0.32181156  1
  Ta  Ta29  1  0.34265341  0.68137355  0.81868823  1
  Si  Si30  1  0.30428076  0.99272778  0.24922821  1
  Si  Si31  1  0.00928873  0.31295577  0.24877503  1
  Si  Si32  1  0.30749666  0.31373225  0.75218413  1
  Si  Si33  1  0.69473560  0.99749070  0.75150434  1
  Si  Si34  1  0.96925558  0.33459289  0.58489354  1
  Si  Si35  1  0.67075802  0.62995104  0.58196494  1
  Si  Si36  1  0.96153802  0.63107202  0.08281940  1
  Si  Si37  1  0.33479344  0.97144323  0.92486472  1
  Si  Si38  1  0.63477267  0.97792142  0.42411673  1
  S  S39  1  0.68007204  0.69761906  0.25113552  1
  S  S40  1  0.01400165  0.69903915  0.75458838  1
  S  S41  1  0.37410240  0.04569026  0.57925069  1
  S  S42  1  0.67342620  0.04627134  0.07770992  1
  S  S43  1  0.38043025  0.33290720  0.07809625  1
  S  S44  1  0.62673073  0.65501608  0.91949294  1
  S  S45  1  0.02254905  0.37206237  0.91960395  1
  S  S46  1  0.35329851  0.37745767  0.41577664  1
  S  S47  1  0.02672984  0.65215085  0.41801251  1
  O  O48  1  0.19944947  0.02266307  0.29720097  1
  O  O49  1  0.79532149  0.77756216  0.29914891  1
  O  O50  1  0.95552764  0.16078718  0.29175464  1
  O  O51  1  0.21910268  0.16740942  0.79801316  1
  O  O52  1  0.98938800  0.78189027  0.80321808  1
  O  O53  1  0.81274449  0.01934425  0.80474711  1
  O  O54  1  0.73982773  0.93654600  0.69097743  1
  O  O55  1  0.20439781  0.27074934  0.69032471  1
  O  O56  1  0.05301884  0.79419015  0.69945496  1
  O  O57  1  0.74089801  0.79161573  0.19588413  1
  O  O58  1  0.06485249  0.26939639  0.18573070  1
  O  O59  1  0.20585086  0.93554406  0.18625635  1
  O  O60  1  0.88843087  0.34958706  0.64435249  1
  O  O61  1  0.46376019  0.11398711  0.63447304  1
  O  O62  1  0.65367330  0.53386573  0.64142869  1
  O  O63  1  0.87488617  0.53840718  0.14196778  1
  O  O64  1  0.64716983  0.11476035  0.13211209  1
  O  O65  1  0.46688004  0.34465405  0.13308253  1
  O  O66  1  0.48219641  0.32400263  0.02750067  1
  O  O67  1  0.83050606  0.50295970  0.02706022  1
  O  O68  1  0.67534977  0.15316770  0.02737228  1
  O  O69  1  0.48000105  0.15328401  0.52894601  1
  O  O70  1  0.66504257  0.49929839  0.52586175  1
  O  O71  1  0.83566839  0.32611249  0.52829210  1
  O  O72  1  0.55574032  0.66738682  0.97509576  1
  O  O73  1  0.10802642  0.44322792  0.97453953  1
  O  O74  1  0.33426238  0.89181590  0.98615996  1
  O  O75  1  0.55474029  0.89290748  0.48392661  1
  O  O76  1  0.33507854  0.44868406  0.46998128  1
  O  O77  1  0.11642037  0.67142952  0.47184672  1
  O  O78  1  0.12539242  0.63315242  0.36705707  1
  O  O79  1  0.49641777  0.85128308  0.36858700  1
  O  O80  1  0.36204595  0.48782720  0.36466940  1
  O  O81  1  0.10737894  0.47918075  0.86942791  1
  O  O82  1  0.35063369  0.85086404  0.87087895  1
  O  O83  1  0.51104779  0.63395655  0.87002780  1
  O  O84  1  0.00085283  0.78995846  0.40619137  1
  O  O85  1  0.81266235  0.00067233  0.41333032  1
  O  O86  1  0.21320787  0.21160191  0.40706485  1
  O  O87  1  0.98816453  0.20182683  0.91323795  1
  O  O88  1  0.18333284  0.00125369  0.91680079  1
  O  O89  1  0.79158978  0.78962258  0.91088607  1
  O  O90  1  0.97291585  0.16423395  0.57579940  1
  O  O91  1  0.21854300  0.04928036  0.57709726  1
  O  O92  1  0.84903971  0.79877712  0.57576994  1
  O  O93  1  0.96708608  0.80831859  0.07538344  1
  O  O94  1  0.83386960  0.05079056  0.07783551  1
  O  O95  1  0.21706066  0.18164288  0.07509331  1
  O  O96  1  0.65058577  0.14475266  0.74946625  1
  O  O97  1  0.50087342  0.36380061  0.75044787  1
  O  O98  1  0.87581091  0.52864963  0.74897076  1
  O  O99  1  0.64193862  0.52399551  0.24488161  1
  O  O100  1  0.86319205  0.36010741  0.24966137  1
  O  O101  1  0.49425704  0.14423403  0.24884547  1
  O  O102  1  0.63222408  0.49141744  0.92122744  1
  O  O103  1  0.85055919  0.36150202  0.92221111  1
  O  O104  1  0.51632523  0.15896785  0.92570405  1
  O  O105  1  0.63597713  0.16125002  0.42205330  1
  O  O106  1  0.51191890  0.37371342  0.41507428  1
  O  O107  1  0.86244445  0.49198853  0.41845683  1
  O  O108  1  0.36727545  0.48377422  0.07249783  1
  O  O109  1  0.14196874  0.64136582  0.08088166  1
  O  O110  1  0.53876845  0.87258335  0.07223961  1
  O  O111  1  0.34165828  0.87475591  0.57345170  1
  O  O112  1  0.51063016  0.65448648  0.57822204  1
  O  O113  1  0.14458193  0.50347268  0.57720906  1
  O  O114  1  0.31535656  0.81834057  0.26732601  1
  O  O115  1  0.51556394  0.69070427  0.26272161  1
  O  O116  1  0.18504443  0.49081366  0.26951162  1
  O  O117  1  0.30664817  0.48927987  0.77626558  1
  O  O118  1  0.16933774  0.68280305  0.76589300  1
  O  O119  1  0.50367316  0.82304485  0.76884095  1
