# generated using pymatgen
data_KRbS
_symmetry_space_group_name_H-M   'P 1'
_cell_length_a   5.00379309
_cell_length_b   8.26427651
_cell_length_c   9.46624698
_cell_angle_alpha   90.00000000
_cell_angle_beta   90.00000000
_cell_angle_gamma   90.00000000
_symmetry_Int_Tables_number   1
_chemical_formula_structural   KRbS
_chemical_formula_sum   'K4 Rb4 S4'
_cell_volume   391.45515259
_cell_formula_units_Z   4
loop_
 _symmetry_equiv_pos_site_id
 _symmetry_equiv_pos_as_xyz
  1  'x, y, z'
loop_
 _atom_site_type_symbol
 _atom_site_label
 _atom_site_symmetry_multiplicity
 _atom_site_fract_x
 _atom_site_fract_y
 _atom_site_fract_z
 _atom_site_occupancy
  K  K0  1  0.75000000  0.64686021  0.57580824  1
  K  K1  1  0.25000000  0.35313979  0.42419176  1
  K  K2  1  0.75000000  0.14686021  0.92419176  1
  K  K3  1  0.25000000  0.85313979  0.07580824  1
  Rb  Rb4  1  0.25000000  0.97856644  0.67756752  1
  Rb  Rb5  1  0.75000000  0.02143356  0.32243248  1
  Rb  Rb6  1  0.25000000  0.47856644  0.82243248  1
  Rb  Rb7  1  0.75000000  0.52143356  0.17756752  1
  S  S8  1  0.25000000  0.73627874  0.39095196  1
  S  S9  1  0.75000000  0.26372126  0.60904804  1
  S  S10  1  0.25000000  0.23627874  0.10904804  1
  S  S11  1  0.75000000  0.76372126  0.89095196  1
