# generated using pymatgen
data_Na21Ta2Zn10P15(SO24)3
_symmetry_space_group_name_H-M   'P 1'
_cell_length_a   9.03887629
_cell_length_b   9.06067503
_cell_length_c   21.92225093
_cell_angle_alpha   89.64778563
_cell_angle_beta   89.75644435
_cell_angle_gamma   120.05368320
_symmetry_Int_Tables_number   1
_chemical_formula_structural   Na21Ta2Zn10P15(SO24)3
_chemical_formula_sum   'Na21 Ta2 Zn10 P15 S3 O72'
_cell_volume   1553.93128691
_cell_formula_units_Z   1
loop_
 _symmetry_equiv_pos_site_id
 _symmetry_equiv_pos_as_xyz
  1  'x, y, z'
loop_
 _atom_site_type_symbol
 _atom_site_label
 _atom_site_symmetry_multiplicity
 _atom_site_fract_x
 _atom_site_fract_y
 _atom_site_fract_z
 _atom_site_occupancy
  Na  Na0  1  0.36481725  0.35358698  0.24707177  1
  Na  Na1  1  0.98529703  0.35278308  0.74184850  1
  Na  Na2  1  0.36642468  0.01278859  0.74210624  1
  Na  Na3  1  0.29412237  0.32763263  0.58075435  1
  Na  Na4  1  0.03993212  0.70086630  0.58339543  1
  Na  Na5  1  0.66724041  0.97363019  0.58230000  1
  Na  Na6  1  0.29882645  0.97375558  0.08633399  1
  Na  Na7  1  0.66227778  0.69473339  0.08887511  1
  Na  Na8  1  0.04006971  0.33152069  0.08726712  1
  Na  Na9  1  0.96241296  0.66946033  0.91460987  1
  Na  Na10  1  0.70798216  0.03818893  0.91510110  1
  Na  Na11  1  0.33009760  0.29083965  0.91760312  1
  Na  Na12  1  0.96132567  0.29229819  0.41664142  1
  Na  Na13  1  0.33068293  0.03965253  0.41725444  1
  Na  Na14  1  0.70697072  0.66856765  0.41411895  1
  Na  Na15  1  0.00490661  0.00573487  0.49861917  1
  Na  Na16  1  0.00629775  0.00535412  0.99949619  1
  Na  Na17  1  0.66571049  0.34281328  0.82884375  1
  Na  Na18  1  0.67654224  0.33314614  0.32943624  1
  Na  Na19  1  0.33275726  0.66984281  0.16623169  1
  Na  Na20  1  0.33628535  0.66645815  0.65835668  1
  Ta  Ta21  1  0.33326850  0.66983334  0.31340810  1
  Ta  Ta22  1  0.33581693  0.66641893  0.81379003  1
  Zn  Zn23  1  0.99624195  0.99873813  0.34427054  1
  Zn  Zn24  1  0.99936396  0.99678390  0.84439396  1
  Zn  Zn25  1  0.00652458  0.00707516  0.65462253  1
  Zn  Zn26  1  0.00625301  0.00652643  0.16416803  1
  Zn  Zn27  1  0.66713720  0.33174833  0.68083249  1
  Zn  Zn28  1  0.66642369  0.33615945  0.18807529  1
  Zn  Zn29  1  0.65850050  0.33118459  0.98303982  1
  Zn  Zn30  1  0.66500573  0.32342139  0.48394970  1
  Zn  Zn31  1  0.33366060  0.65839946  0.01195331  1
  Zn  Zn32  1  0.32605469  0.66655706  0.51288137  1
  P  P33  1  0.29709806  -0.00041872  0.25018151  1
  P  P34  1  0.70463808  0.70414768  0.25041814  1
  P  P35  1  0.99713803  0.29874378  0.25104351  1
  P  P36  1  0.29971218  0.29814410  0.75133259  1
  P  P37  1  0.99628766  0.70150162  0.75153672  1
  P  P38  1  0.70567051  0.99915119  0.75055514  1
  P  P39  1  0.96434857  0.33275804  0.58350830  1
  P  P40  1  0.36809673  0.03604349  0.58396365  1
  P  P41  1  0.36867518  0.33238157  0.08309963  1
  P  P42  1  0.63099148  0.67001306  0.91873564  1
  P  P43  1  0.03624529  0.36961486  0.91877614  1
  P  P44  1  0.33225564  0.95848525  0.91901123  1
  P  P45  1  0.62791229  0.95785111  0.41858241  1
  P  P46  1  0.33320415  0.37248258  0.41854040  1
  P  P47  1  0.03721602  0.66878576  0.41832459  1
  S  S48  1  0.66776051  0.62864021  0.58285850  1
  S  S49  1  0.96116916  0.62786813  0.08177828  1
  S  S50  1  0.66729201  0.03917683  0.08225942  1
  O  O51  1  0.21315105  0.02701266  0.30639256  1
  O  O52  1  0.80681021  0.78546550  0.30759941  1
  O  O53  1  0.97759909  0.19520966  0.30858059  1
  O  O54  1  0.21912810  0.19043970  0.80971960  1
  O  O55  1  0.97709521  0.78067048  0.81074152  1
  O  O56  1  0.81189946  0.02704099  0.80860305  1
  O  O57  1  0.77872796  0.96583004  0.69321274  1
  O  O58  1  0.18467909  0.23071879  0.69520698  1
  O  O59  1  0.04073004  0.81663266  0.69512576  1
  O  O60  1  0.77758084  0.81004981  0.19107727  1
  O  O61  1  0.04438514  0.23216353  0.19305112  1
  O  O62  1  0.19155215  0.96160534  0.19106944  1
  O  O63  1  0.88371323  0.36303150  0.64133152  1
  O  O64  1  0.47650543  0.11786776  0.64169024  1
  O  O65  1  0.64147486  0.51970183  0.63696730  1
  O  O66  1  0.87574598  0.51650073  0.13473594  1
  O  O67  1  0.64476636  0.12558904  0.13489212  1
  O  O68  1  0.48246695  0.36030488  0.13889446  1
  O  O69  1  0.44750731  0.30375378  0.02378065  1
  O  O70  1  0.86343787  0.55193771  0.02426840  1
  O  O71  1  0.69476730  0.14009347  0.02438211  1
  O  O72  1  0.44892280  0.14878960  0.52609907  1
  O  O73  1  0.69262891  0.55271699  0.52612757  1
  O  O74  1  0.85526159  0.30729434  0.52583249  1
  O  O75  1  0.55471247  0.70014021  0.97659377  1
  O  O76  1  0.14396888  0.44839560  0.97573898  1
  O  O77  1  0.30515171  0.84936477  0.97614909  1
  O  O78  1  0.54952274  0.85142795  0.47669709  1
  O  O79  1  0.30581958  0.45307304  0.47559521  1
  O  O80  1  0.14271010  0.69915325  0.47622955  1
  O  O81  1  0.14237916  0.64774364  0.36356987  1
  O  O82  1  0.50440265  0.85361253  0.36376218  1
  O  O83  1  0.35234379  0.49195916  0.36144138  1
  O  O84  1  0.13731075  0.49121641  0.86208089  1
  O  O85  1  0.35091760  0.85812894  0.86235274  1
  O  O86  1  0.50517401  0.64915028  0.86423446  1
  O  O87  1  0.01911734  0.82752485  0.40981580  1
  O  O88  1  0.80628104  0.97799582  0.41082565  1
  O  O89  1  0.17409289  0.19469295  0.41163215  1
  O  O90  1  0.01836331  0.19249168  0.91128946  1
  O  O91  1  0.17328722  0.97806806  0.91211228  1
  O  O92  1  0.80899313  0.82888619  0.91040240  1
  O  O93  1  0.97883889  0.16822390  0.58787093  1
  O  O94  1  0.18537556  0.01410847  0.58830540  1
  O  O95  1  0.82311855  0.80118541  0.58777542  1
  O  O96  1  0.97665025  0.79961766  0.08642720  1
  O  O97  1  0.82043633  0.01739964  0.08694059  1
  O  O98  1  0.18653114  0.17005515  0.08788581  1
  O  O99  1  0.67501848  0.15247664  0.74694087  1
  O  O100  1  0.47755631  0.31892394  0.74450329  1
  O  O101  1  0.84976282  0.51755459  0.74661103  1
  O  O102  1  0.66659336  0.51866210  0.24665184  1
  O  O103  1  0.84524709  0.32649353  0.24389705  1
  O  O104  1  0.47597572  0.15807765  0.24498020  1
  O  O105  1  0.63837513  0.50352474  0.91734085  1
  O  O106  1  0.86171300  0.36236656  0.91840644  1
  O  O107  1  0.49958677  0.13288388  0.91698918  1
  O  O108  1  0.63471324  0.13192656  0.41647169  1
  O  O109  1  0.50097487  0.36566891  0.41741122  1
  O  O110  1  0.86280888  0.50141097  0.41772456  1
  O  O111  1  0.35046319  0.49622531  0.07955535  1
  O  O112  1  0.13746423  0.65017551  0.07891908  1
  O  O113  1  0.50930375  0.86622525  0.07917723  1
  O  O114  1  0.35385241  0.85724449  0.58013704  1
  O  O115  1  0.51289019  0.64754762  0.57964212  1
  O  O116  1  0.14741227  0.49317118  0.57987516  1
  O  O117  1  0.31631190  0.83499476  0.25904285  1
  O  O118  1  0.51631517  0.68447370  0.25738349  1
  O  O119  1  0.17012619  0.48259582  0.25854283  1
  O  O120  1  0.31425292  0.48133237  0.76041685  1
  O  O121  1  0.16938205  0.68610005  0.75899024  1
  O  O122  1  0.51752160  0.83463678  0.75912321  1
