# generated using pymatgen
data_Na2CaSiSn(SO6)2
_symmetry_space_group_name_H-M   'P 1'
_cell_length_a   9.20044708
_cell_length_b   9.18827203
_cell_length_c   22.95346446
_cell_angle_alpha   90.95034890
_cell_angle_beta   90.00000000
_cell_angle_gamma   120.04384246
_symmetry_Int_Tables_number   1
_chemical_formula_structural   Na2CaSiSn(SO6)2
_chemical_formula_sum   'Na12 Ca6 Si6 Sn6 S12 O72'
_cell_volume   1679.38351128
_cell_formula_units_Z   6
loop_
 _symmetry_equiv_pos_site_id
 _symmetry_equiv_pos_as_xyz
  1  'x, y, z'
loop_
 _atom_site_type_symbol
 _atom_site_label
 _atom_site_symmetry_multiplicity
 _atom_site_fract_x
 _atom_site_fract_y
 _atom_site_fract_z
 _atom_site_occupancy
  Na  Na0  1  0.00265002  0.64553473  0.23516237  1
  Na  Na1  1  0.64288471  0.64553473  0.73516237  1
  Na  Na2  1  0.65868589  0.95855952  0.57510281  1
  Na  Na3  1  0.29987464  0.95855952  0.07510281  1
  Na  Na4  1  0.68910024  0.02139439  0.90274616  1
  Na  Na5  1  0.33229316  0.02139439  0.40274616  1
  Na  Na6  1  0.95961555  0.97921447  0.49703806  1
  Na  Na7  1  0.01959892  0.97921447  0.99703806  1
  Na  Na8  1  0.65323649  0.29574368  0.82992013  1
  Na  Na9  1  0.64250819  0.29574368  0.32992013  1
  Na  Na10  1  0.31705241  0.65565063  0.16324753  1
  Na  Na11  1  0.33859722  0.65565063  0.66324753  1
  Ca  Ca12  1  0.99210270  0.00302545  0.35365520  1
  Ca  Ca13  1  0.01092275  0.00302545  0.85365520  1
  Ca  Ca14  1  0.66464773  0.32423126  0.68688953  1
  Ca  Ca15  1  0.65958453  0.32423126  0.18688953  1
  Ca  Ca16  1  0.32435931  0.66625519  0.02014423  1
  Ca  Ca17  1  0.34189488  0.66625519  0.52014423  1
  Si  Si18  1  0.29684066  0.99035617  0.25672732  1
  Si  Si19  1  0.69351551  0.99035617  0.75672732  1
  Si  Si20  1  0.67503803  0.63485336  0.59067087  1
  Si  Si21  1  0.95981633  0.63485336  0.09067087  1
  Si  Si22  1  0.34730206  0.98277316  0.92714855  1
  Si  Si23  1  0.63547011  0.98277316  0.42714855  1
  Sn  Sn24  1  0.98758834  0.98745438  0.65130478  1
  Sn  Sn25  1  -0.00013395  0.98745438  0.15130478  1
  Sn  Sn26  1  0.67484262  0.34472227  0.98344466  1
  Sn  Sn27  1  0.66988065  0.34472227  0.48344466  1
  Sn  Sn28  1  0.34814034  0.69001453  0.31739451  1
  Sn  Sn29  1  0.34187319  0.69001453  0.81739451  1
  S  S30  1  0.69152015  0.70954206  0.25028096  1
  S  S31  1  0.01941943  0.30497669  0.24916491  1
  S  S32  1  0.28555726  0.30497669  0.74916491  1
  S  S33  1  0.01802191  0.70954206  0.75028096  1
  S  S34  1  0.95859429  0.31975082  0.58424803  1
  S  S35  1  0.35118800  0.04146862  0.58198512  1
  S  S36  1  0.69028162  0.04146862  0.08198512  1
  S  S37  1  0.36115754  0.31975082  0.08424803  1
  S  S38  1  0.62041091  0.65013201  0.91531234  1
  S  S39  1  0.03270191  0.38383056  0.91334329  1
  S  S40  1  0.35112765  0.38383056  0.41334329  1
  S  S41  1  0.02972010  0.65013201  0.41531234  1
  O  O42  1  0.20635013  0.98882318  0.31610980  1
  O  O43  1  0.78586217  0.79671727  0.30229569  1
  O  O44  1  0.99917454  0.20604710  0.29996322  1
  O  O45  1  0.20687256  0.20604710  0.79996322  1
  O  O46  1  0.01085510  0.79671727  0.80229569  1
  O  O47  1  0.78247305  0.98882318  0.81610980  1
  O  O48  1  0.79143385  0.96237713  0.69741160  1
  O  O49  1  0.19019540  0.21677347  0.69317628  1
  O  O50  1  0.04659349  0.81288585  0.69602997  1
  O  O51  1  0.76629236  0.81288585  0.19602997  1
  O  O52  1  0.02657808  0.21677347  0.19317628  1
  O  O53  1  0.17094329  0.96237713  0.19741160  1
  O  O54  1  0.87868277  0.33275089  0.63698070  1
  O  O55  1  0.46578476  0.12379091  0.63065035  1
  O  O56  1  0.67663012  0.54970811  0.65006543  1
  O  O57  1  0.87307898  0.54970811  0.15006543  1
  O  O58  1  0.65800715  0.12379091  0.13065035  1
  O  O59  1  0.45406912  0.33275089  0.13698070  1
  O  O60  1  0.44293767  0.29143792  0.03074393  1
  O  O61  1  0.83988795  0.53398946  0.03038373  1
  O  O62  1  0.70858293  0.13295334  0.02566805  1
  O  O63  1  0.42437142  0.13295334  0.52566805  1
  O  O64  1  0.69410251  0.53398946  0.53038373  1
  O  O65  1  0.84850124  0.29143792  0.53074393  1
  O  O66  1  0.52764905  0.65834019  0.96495294  1
  O  O67  1  0.12677276  0.46304256  0.96599957  1
  O  O68  1  0.34550273  0.89431220  0.98632746  1
  O  O69  1  0.54880847  0.89431220  0.48632746  1
  O  O70  1  0.33626880  0.46304256  0.46599957  1
  O  O71  1  0.13069014  0.65834019  0.46495294  1
  O  O72  1  0.10268141  0.62712645  0.35828287  1
  O  O73  1  0.49991568  0.88223566  0.36956300  1
  O  O74  1  0.35718564  0.47948884  0.35900916  1
  O  O75  1  0.12230220  0.47948884  0.85900916  1
  O  O76  1  0.38231898  0.88223566  0.86956300  1
  O  O77  1  0.52444404  0.62712645  0.85828287  1
  O  O78  1  0.01727356  0.80415240  0.41327428  1
  O  O79  1  0.82022693  0.01209401  0.41914933  1
  O  O80  1  0.21284148  0.20890910  0.40913818  1
  O  O81  1  0.99606762  0.20890910  0.90913818  1
  O  O82  1  0.19186708  0.01209401  0.91914933  1
  O  O83  1  0.78687884  0.80415240  0.91327428  1
  O  O84  1  0.96882807  0.15945284  0.58622637  1
  O  O85  1  0.18918714  0.04461267  0.59001369  1
  O  O86  1  0.84949461  0.83019112  0.58554359  1
  O  O87  1  0.98069651  0.83019112  0.08554359  1
  O  O88  1  0.85542553  0.04461267  0.09001369  1
  O  O89  1  0.19062477  0.15945284  0.08622637  1
  O  O90  1  0.65968135  0.14388854  0.75092250  1
  O  O91  1  0.46074680  0.34151187  0.74549985  1
  O  O92  1  0.86397528  0.54550581  0.74551473  1
  O  O93  1  0.68153153  0.54550581  0.24551473  1
  O  O94  1  0.88076607  0.34151187  0.24549985  1
  O  O95  1  0.48420819  0.14388854  0.25092250  1
  O  O96  1  0.64317746  0.49897487  0.91823984  1
  O  O97  1  0.86488070  0.37833545  0.91430725  1
  O  O98  1  0.53791007  0.16755933  0.92391894  1
  O  O99  1  0.62965026  0.16755933  0.42391894  1
  O  O100  1  0.51345574  0.37833545  0.41430725  1
  O  O101  1  0.85579841  0.49897487  0.41823984  1
  O  O102  1  0.33836311  0.46462714  0.07751200  1
  O  O103  1  0.15117479  0.67053401  0.08729963  1
  O  O104  1  0.55183291  0.86602530  0.07752956  1
  O  O105  1  0.31419139  0.86602530  0.57752956  1
  O  O106  1  0.51935822  0.67053401  0.58729963  1
  O  O107  1  0.12626302  0.46462714  0.57751200  1
  O  O108  1  0.29359452  0.80033938  0.25223367  1
  O  O109  1  0.51592428  0.68412285  0.25293395  1
  O  O110  1  0.18228466  0.47157880  0.25219753  1
  O  O111  1  0.28929314  0.47157880  0.75219753  1
  O  O112  1  0.16819757  0.68412285  0.75293395  1
  O  O113  1  0.50674385  0.80033938  0.75223367  1
