# generated using pymatgen
data_Na14Y4Zr4Si9(SO16)3
_symmetry_space_group_name_H-M   'P 1'
_cell_length_a   18.86250034
_cell_length_b   9.42729233
_cell_length_c   23.02528843
_cell_angle_alpha   89.98317233
_cell_angle_beta   89.86865960
_cell_angle_gamma   119.98573876
_symmetry_Int_Tables_number   1
_chemical_formula_structural   Na14Y4Zr4Si9(SO16)3
_chemical_formula_sum   'Na42 Y12 Zr12 Si27 S9 O144'
_cell_volume   3546.35818575
_cell_formula_units_Z   3
loop_
 _symmetry_equiv_pos_site_id
 _symmetry_equiv_pos_as_xyz
  1  'x, y, z'
loop_
 _atom_site_type_symbol
 _atom_site_label
 _atom_site_symmetry_multiplicity
 _atom_site_fract_x
 _atom_site_fract_y
 _atom_site_fract_z
 _atom_site_occupancy
  Na  Na0  1  0.82375691  0.01455013  0.25926075  1
  Na  Na1  1  0.17148772  0.34708387  0.25601118  1
  Na  Na2  1  0.69425703  0.36930370  0.25508682  1
  Na  Na3  1  0.99689432  0.62938321  0.24354954  1
  Na  Na4  1  0.49897448  0.65065272  0.24734858  1
  Na  Na5  1  0.32172788  0.63145260  0.75383171  1
  Na  Na6  1  0.99741719  0.34494934  0.73607998  1
  Na  Na7  1  0.49986366  0.36819595  0.73921003  1
  Na  Na8  1  0.19193941  0.01796483  0.74807410  1
  Na  Na9  1  0.67895319  0.00213412  0.74716562  1
  Na  Na10  1  0.14397992  0.31320640  0.58049367  1
  Na  Na11  1  0.65462102  0.32844898  0.58167161  1
  Na  Na12  1  0.33622462  0.99773562  0.58953510  1
  Na  Na13  1  0.83354784  0.97462350  0.58319343  1
  Na  Na14  1  0.14570465  0.97779553  0.07934482  1
  Na  Na15  1  0.64848665  0.97736188  0.07669782  1
  Na  Na16  1  0.33402608  0.67888189  0.08146400  1
  Na  Na17  1  0.83668201  0.67714634  0.09023053  1
  Na  Na18  1  0.48011522  0.67875149  0.91517066  1
  Na  Na19  1  0.97840745  0.68149066  0.92922371  1
  Na  Na20  1  0.33980440  0.01609650  0.90195516  1
  Na  Na21  1  0.83941861  0.01395102  0.90449631  1
  Na  Na22  1  0.17589334  0.29558658  0.90743479  1
  Na  Na23  1  0.67076633  0.28737018  0.90817118  1
  Na  Na24  1  0.48393952  0.28346278  0.43408055  1
  Na  Na25  1  0.97831170  0.27739214  0.42210266  1
  Na  Na26  1  0.16830531  0.05296450  0.41366516  1
  Na  Na27  1  0.67798753  0.05606333  0.41694168  1
  Na  Na28  1  0.34191974  0.66805953  0.41004142  1
  Na  Na29  1  0.84135267  0.66444096  0.42133589  1
  Na  Na30  1  0.99574910  0.99222825  0.50335452  1
  Na  Na31  1  0.50992206  0.01895798  0.50538885  1
  Na  Na32  1  0.00497474  0.99518783  0.00269357  1
  Na  Na33  1  0.50611689  0.99770928  0.99698763  1
  Na  Na34  1  0.32876995  0.33687400  0.82307492  1
  Na  Na35  1  0.81703799  0.32727983  0.82658664  1
  Na  Na36  1  0.31552679  0.29897301  0.33470837  1
  Na  Na37  1  0.82723238  0.31837686  0.33133258  1
  Na  Na38  1  0.15094104  0.64308381  0.16788270  1
  Na  Na39  1  0.66306267  0.65584765  0.16827085  1
  Na  Na40  1  0.16052948  0.66827280  0.66626206  1
  Na  Na41  1  0.66022664  0.66149032  0.66314675  1
  Y  Y42  1  0.00097624  0.00782918  0.35005550  1
  Y  Y43  1  0.50060523  0.00327009  0.35093156  1
  Y  Y44  1  -0.00001838  0.99797163  0.84920531  1
  Y  Y45  1  0.50097007  0.99384906  0.84863809  1
  Y  Y46  1  0.33616431  0.32883283  0.68144361  1
  Y  Y47  1  0.83591963  0.34358067  0.18221487  1
  Y  Y48  1  0.33105558  0.33943787  0.98397376  1
  Y  Y49  1  0.82714812  0.33740716  0.98473388  1
  Y  Y50  1  0.32817947  0.31850695  0.48495550  1
  Y  Y51  1  0.83190048  0.33372231  0.48720322  1
  Y  Y52  1  0.67446529  0.67595240  0.31568637  1
  Y  Y53  1  0.17282607  0.67050125  0.81377079  1
  Zr  Zr54  1  0.99686590  0.00254391  0.64758396  1
  Zr  Zr55  1  0.50701980  0.00922385  0.65454601  1
  Zr  Zr56  1  0.00585356  0.00511131  0.15404802  1
  Zr  Zr57  1  0.50182769  0.99244806  0.14946448  1
  Zr  Zr58  1  0.82894903  0.32726795  0.67842306  1
  Zr  Zr59  1  0.33061079  0.34394400  0.18301369  1
  Zr  Zr60  1  0.16627121  0.66813209  0.01930308  1
  Zr  Zr61  1  0.66533866  0.66489622  0.01987691  1
  Zr  Zr62  1  0.16475144  0.66533618  0.51948237  1
  Zr  Zr63  1  0.67199879  0.66370101  0.52154347  1
  Zr  Zr64  1  0.17591140  0.67241316  0.30947444  1
  Zr  Zr65  1  0.67663918  0.68222259  0.80844186  1
  Si  Si66  1  0.15394910  0.00226340  0.25127747  1
  Si  Si67  1  0.64937911  0.99458284  0.25081644  1
  Si  Si68  1  0.35235708  0.69951943  0.25007972  1
  Si  Si69  1  0.85131937  0.70405818  0.24944886  1
  Si  Si70  1  0.00069326  0.30198471  0.25388912  1
  Si  Si71  1  0.14800934  0.29973272  0.75066630  1
  Si  Si72  1  0.65437377  0.30595967  0.75291887  1
  Si  Si73  1  0.50059780  0.69936160  0.75467924  1
  Si  Si74  1  0.35079724  0.99938865  0.75034105  1
  Si  Si75  1  0.85309789  0.01551680  0.75214972  1
  Si  Si76  1  0.48691882  0.32606461  0.58227367  1
  Si  Si77  1  0.98590153  0.33891203  0.58444579  1
  Si  Si78  1  0.17780928  0.02284660  0.58440737  1
  Si  Si79  1  0.67893606  0.02462291  0.58195986  1
  Si  Si80  1  0.83648874  0.63676312  0.57878706  1
  Si  Si81  1  0.48610076  0.63475391  0.08428485  1
  Si  Si82  1  0.98775807  0.64710148  0.08229623  1
  Si  Si83  1  0.17969123  0.33507848  0.08240444  1
  Si  Si84  1  0.67606553  0.33061138  0.08440062  1
  Si  Si85  1  0.31821402  0.67200418  0.91948713  1
  Si  Si86  1  0.81199345  0.66649022  0.91811169  1
  Si  Si87  1  0.16664420  0.96454888  0.91560652  1
  Si  Si88  1  0.66798283  0.96132149  0.91745332  1
  Si  Si89  1  0.31207418  0.95919944  0.41784104  1
  Si  Si90  1  0.81838848  0.96963250  0.41818725  1
  Si  Si91  1  0.16838335  0.37489700  0.41670062  1
  Si  Si92  1  0.66667395  0.36672332  0.41398667  1
  S  S93  1  0.49509713  0.29313146  0.24808758  1
  S  S94  1  0.99563741  0.69616916  0.74953161  1
  S  S95  1  0.33352036  0.64140892  0.58175863  1
  S  S96  1  0.33375338  0.03415679  0.08279390  1
  S  S97  1  0.83382044  0.02639393  0.08162785  1
  S  S98  1  0.01980175  0.37301640  0.91834495  1
  S  S99  1  0.52343360  0.37928915  0.91587736  1
  S  S100  1  0.02418785  0.66560610  0.41387678  1
  S  S101  1  0.51948994  0.66497200  0.41723217  1
  O  O102  1  0.12061426  0.04987812  0.30969436  1
  O  O103  1  0.60947572  0.02414686  0.30975741  1
  O  O104  1  0.40620479  0.77467824  0.30889878  1
  O  O105  1  0.90375278  0.79089452  0.30813242  1
  O  O106  1  0.48606858  0.20648759  0.30412739  1
  O  O107  1  0.98765825  0.20363564  0.31497034  1
  O  O108  1  0.11158727  0.19959771  0.81251670  1
  O  O109  1  0.61785927  0.19603848  0.81216335  1
  O  O110  1  0.48628999  0.76736011  0.81660191  1
  O  O111  1  0.98793061  0.76526108  0.80630055  1
  O  O112  1  0.39971029  0.01370331  0.81097227  1
  O  O113  1  0.90345203  0.03732534  0.81257971  1
  O  O114  1  0.40339361  0.98778028  0.69442828  1
  O  O115  1  0.90332269  0.99757343  0.69709455  1
  O  O116  1  0.08857041  0.18216936  0.69754249  1
  O  O117  1  0.59261352  0.20682574  0.69739577  1
  O  O118  1  0.00168474  0.80522074  0.70121835  1
  O  O119  1  0.51486412  0.83715857  0.70433618  1
  O  O120  1  0.39915555  0.81231634  0.19271526  1
  O  O121  1  0.90172400  0.81749475  0.19163341  1
  O  O122  1  0.01552325  0.19525284  0.20233864  1
  O  O123  1  0.50028630  0.19601543  0.19905542  1
  O  O124  1  0.09299534  0.97915847  0.19524422  1
  O  O125  1  0.58949765  0.99013001  0.19549629  1
  O  O126  1  0.44524587  0.34901973  0.64083403  1
  O  O127  1  0.93763490  0.35410390  0.64205111  1
  O  O128  1  0.23969138  0.10679042  0.63951001  1
  O  O129  1  0.74249733  0.12395837  0.63736575  1
  O  O130  1  0.32341179  0.53897955  0.63360468  1
  O  O131  1  0.82236650  0.49824550  0.62873863  1
  O  O132  1  0.43688268  0.51893270  0.14109930  1
  O  O133  1  0.94603515  0.54130647  0.14075103  1
  O  O134  1  0.32589427  0.12981867  0.13124121  1
  O  O135  1  0.82373379  0.10784069  0.13342403  1
  O  O136  1  0.24514731  0.36012527  0.13640134  1
  O  O137  1  0.73636735  0.36443759  0.13974085  1
  O  O138  1  0.21934408  0.29907208  0.02485478  1
  O  O139  1  0.71499056  0.28621497  0.02741603  1
  O  O140  1  0.43222715  0.55424598  0.02594551  1
  O  O141  1  0.93117423  0.55807874  0.02440040  1
  O  O142  1  0.34528068  0.12105267  0.02684782  1
  O  O143  1  0.84121350  0.11977427  0.02769290  1
  O  O144  1  0.21738285  0.14265067  0.52690165  1
  O  O145  1  0.71727214  0.14092001  0.52439278  1
  O  O146  1  0.34144518  0.56349661  0.52782046  1
  O  O147  1  0.85047136  0.57623445  0.51587161  1
  O  O148  1  0.42827144  0.29655866  0.52504599  1
  O  O149  1  0.93311661  0.31058515  0.52550100  1
  O  O150  1  0.26386866  0.67463048  0.97666541  1
  O  O151  1  0.76326700  0.67466726  0.97724897  1
  O  O152  1  0.07317027  0.46865982  0.96859233  1
  O  O153  1  0.57292733  0.47285942  0.96773333  1
  O  O154  1  0.16188460  0.84648377  0.97177911  1
  O  O155  1  0.66204708  0.85239402  0.97627125  1
  O  O156  1  0.26303731  0.85231849  0.47636172  1
  O  O157  1  0.76226608  0.85211887  0.47310926  1
  O  O158  1  0.16329425  0.47550295  0.47442652  1
  O  O159  1  0.66216064  0.47744291  0.46868809  1
  O  O160  1  0.07358879  0.67194856  0.46585263  1
  O  O161  1  0.57270926  0.67561804  0.46633233  1
  O  O162  1  0.06517364  0.65542378  0.36010692  1
  O  O163  1  0.55340100  0.64646769  0.36094114  1
  O  O164  1  0.25430116  0.85637353  0.36193410  1
  O  O165  1  0.76658241  0.88963486  0.35783904  1
  O  O166  1  0.17168648  0.48275073  0.35857495  1
  O  O167  1  0.66693037  0.45657769  0.35273106  1
  O  O168  1  0.05486574  0.46440327  0.86355357  1
  O  O169  1  0.56155001  0.47283428  0.86206152  1
  O  O170  1  0.17004117  0.87519242  0.85567361  1
  O  O171  1  0.67129526  0.85770001  0.86060547  1
  O  O172  1  0.26381048  0.64621405  0.86083013  1
  O  O173  1  0.75350262  0.65273729  0.86294731  1
  O  O174  1  0.01940698  0.81871592  0.41495855  1
  O  O175  1  0.51306442  0.81748377  0.41741462  1
  O  O176  1  0.40221386  0.97142626  0.41582255  1
  O  O177  1  0.90599005  0.96933622  0.42107184  1
  O  O178  1  0.08835678  0.18955570  0.41953093  1
  O  O179  1  0.58260245  0.18349767  0.41980423  1
  O  O180  1  0.01576918  0.21074199  0.91857275  1
  O  O181  1  0.51944247  0.21735332  0.91683155  1
  O  O182  1  0.08331722  0.98127247  0.91989169  1
  O  O183  1  0.58746525  0.98558332  0.91942546  1
  O  O184  1  0.40592724  0.84568374  0.92161397  1
  O  O185  1  0.90275053  0.83400859  0.91641487  1
  O  O186  1  0.49445702  0.15704756  0.58702398  1
  O  O187  1  0.99537121  0.17220014  0.59082075  1
  O  O188  1  0.08730403  0.00589979  0.59267997  1
  O  O189  1  0.58884376  0.00813563  0.59225990  1
  O  O190  1  0.40459605  0.81000005  0.58694345  1
  O  O191  1  0.90962482  0.82416026  0.59243617  1
  O  O192  1  0.49104976  0.81808854  0.08979639  1
  O  O193  1  0.99591430  0.83210207  0.08564802  1
  O  O194  1  0.40293642  0.00268765  0.09108016  1
  O  O195  1  0.90514481  0.00011295  0.08620726  1
  O  O196  1  0.08976357  0.17236933  0.09163200  1
  O  O197  1  0.58301822  0.16831389  0.09144758  1
  O  O198  1  0.34047003  0.16263730  0.74829417  1
  O  O199  1  0.84358006  0.18046389  0.74536534  1
  O  O200  1  0.24225765  0.33528905  0.74418050  1
  O  O201  1  0.74410590  0.32085383  0.74123895  1
  O  O202  1  0.41900475  0.52168726  0.74450959  1
  O  O203  1  0.92397430  0.52819032  0.74381067  1
  O  O204  1  0.34382412  0.51375943  0.24333421  1
  O  O205  1  0.84059859  0.51980575  0.24730849  1
  O  O206  1  0.42285946  0.31709329  0.24171451  1
  O  O207  1  0.91918749  0.31650536  0.24421296  1
  O  O208  1  0.24579431  0.16286840  0.23801149  1
  O  O209  1  0.74253334  0.14785273  0.24366291  1
  O  O210  1  0.33154469  0.51166760  0.92077308  1
  O  O211  1  0.82139447  0.50097248  0.91751440  1
  O  O212  1  0.43887208  0.35385854  0.92085192  1
  O  O213  1  0.93612240  0.34893506  0.92539889  1
  O  O214  1  0.25250347  0.14327049  0.91865810  1
  O  O215  1  0.75452351  0.13958262  0.91692125  1
  O  O216  1  0.32102943  0.14288691  0.41689619  1
  O  O217  1  0.83164833  0.15607138  0.42059746  1
  O  O218  1  0.25527569  0.37074802  0.41631660  1
  O  O219  1  0.75094470  0.35459009  0.41559969  1
  O  O220  1  0.43536904  0.52002036  0.42350954  1
  O  O221  1  0.94123560  0.51874840  0.41675729  1
  O  O222  1  0.17839329  0.50906999  0.08049469  1
  O  O223  1  0.67051483  0.49958901  0.07717775  1
  O  O224  1  0.08326050  0.68025610  0.07756640  1
  O  O225  1  0.58203089  0.67556444  0.08219490  1
  O  O226  1  0.25540327  0.86929814  0.08132997  1
  O  O227  1  0.75699417  0.85860660  0.07939205  1
  O  O228  1  0.17149467  0.84210493  0.57669163  1
  O  O229  1  0.67535498  0.84714508  0.57849371  1
  O  O230  1  0.25651656  0.65434736  0.57939291  1
  O  O231  1  0.75044462  0.64710956  0.57983049  1
  O  O232  1  0.08170667  0.49357377  0.58163329  1
  O  O233  1  0.58055488  0.48222327  0.57540839  1
  O  O234  1  0.15306207  0.82725369  0.25474596  1
  O  O235  1  0.64352629  0.81452842  0.24797395  1
  O  O236  1  0.25761472  0.66456677  0.25179154  1
  O  O237  1  0.75985063  0.68864458  0.24697556  1
  O  O238  1  0.08356604  0.48643406  0.25401858  1
  O  O239  1  0.57074010  0.45805753  0.24762700  1
  O  O240  1  0.14380346  0.47060124  0.74780535  1
  O  O241  1  0.65473951  0.48080324  0.75592180  1
  O  O242  1  0.07208090  0.68397708  0.74903503  1
  O  O243  1  0.58334153  0.68032491  0.75464593  1
  O  O244  1  0.25937380  0.83181417  0.74664161  1
  O  O245  1  0.75889507  0.85487126  0.75298245  1
