# generated using pymatgen
data_Na6Nb2Ga6Si5S7O48
_symmetry_space_group_name_H-M   'P 1'
_cell_length_a   17.47266892
_cell_length_b   8.81286699
_cell_length_c   22.40016546
_cell_angle_alpha   89.93761933
_cell_angle_beta   90.54679674
_cell_angle_gamma   120.34165068
_symmetry_Int_Tables_number   1
_chemical_formula_structural   Na6Nb2Ga6Si5S7O48
_chemical_formula_sum   'Na18 Nb6 Ga18 Si15 S21 O144'
_cell_volume   2976.65854754
_cell_formula_units_Z   3
loop_
 _symmetry_equiv_pos_site_id
 _symmetry_equiv_pos_as_xyz
  1  'x, y, z'
loop_
 _atom_site_type_symbol
 _atom_site_label
 _atom_site_symmetry_multiplicity
 _atom_site_fract_x
 _atom_site_fract_y
 _atom_site_fract_z
 _atom_site_occupancy
  Na  Na0  1  0.98740450  0.67225703  0.91135810  1
  Na  Na1  1  0.34831634  0.03527418  0.91453272  1
  Na  Na2  1  0.16741398  0.30433797  0.91146716  1
  Na  Na3  1  0.48703098  0.30347672  0.42015001  1
  Na  Na4  1  0.66667045  0.02814694  0.41571403  1
  Na  Na5  1  0.84626231  0.65884151  0.41828191  1
  Na  Na6  1  0.00103944  0.00737342  0.49528635  1
  Na  Na7  1  0.49453824  0.98861531  0.49676166  1
  Na  Na8  1  0.99498779  0.00512521  0.99482495  1
  Na  Na9  1  0.50050983  0.99382258  0.99322813  1
  Na  Na10  1  0.33811285  0.34529642  0.83333709  1
  Na  Na11  1  0.82892150  0.32293472  0.82469732  1
  Na  Na12  1  0.33013483  0.33705216  0.32817876  1
  Na  Na13  1  0.83630447  0.32741492  0.33829130  1
  Na  Na14  1  0.17246317  0.67340214  0.16368347  1
  Na  Na15  1  0.66536103  0.66962569  0.16820888  1
  Na  Na16  1  0.16782708  0.66276454  0.66719921  1
  Na  Na17  1  0.66422292  0.66257702  0.65917038  1
  Nb  Nb18  1  0.99804306  0.98725811  0.65047589  1
  Nb  Nb19  1  0.49901251  0.01469840  0.63921130  1
  Nb  Nb20  1  0.99855448  0.99375804  0.14314291  1
  Nb  Nb21  1  0.49725129  0.00831333  0.15038456  1
  Nb  Nb22  1  0.16449012  0.67225258  0.31095897  1
  Nb  Nb23  1  0.66212613  0.65370604  0.80833390  1
  Ga  Ga24  1  0.00422893  0.99093406  0.36021525  1
  Ga  Ga25  1  0.49874339  0.01261093  0.34747348  1
  Ga  Ga26  1  0.00149246  0.98561707  0.84448917  1
  Ga  Ga27  1  0.50330075  0.01673416  0.85699686  1
  Ga  Ga28  1  0.33966189  0.35300426  0.67548284  1
  Ga  Ga29  1  0.83366491  0.33118688  0.69464280  1
  Ga  Ga30  1  0.33442101  0.33633796  0.19609755  1
  Ga  Ga31  1  0.82813145  0.31387834  0.18139642  1
  Ga  Ga32  1  0.34051996  0.35259264  0.97123851  1
  Ga  Ga33  1  0.82959025  0.31222492  0.98338443  1
  Ga  Ga34  1  0.33710608  0.35080389  0.48935561  1
  Ga  Ga35  1  0.83821531  0.32404878  0.47305021  1
  Ga  Ga36  1  0.17414564  0.68960344  0.00655826  1
  Ga  Ga37  1  0.66682231  0.67239717  0.01961666  1
  Ga  Ga38  1  0.16659810  0.66207683  0.52069072  1
  Ga  Ga39  1  0.66513646  0.64358410  0.51301248  1
  Ga  Ga40  1  0.66805595  0.64904013  0.31928735  1
  Ga  Ga41  1  0.17337192  0.69341598  0.81545961  1
  Si  Si42  1  0.14291012  0.00992141  0.25330062  1
  Si  Si43  1  0.35747824  0.70827857  0.25489550  1
  Si  Si44  1  0.50535846  0.31143573  0.25479662  1
  Si  Si45  1  0.64323863  0.27258636  0.75278819  1
  Si  Si46  1  0.00500815  0.69747254  0.75406039  1
  Si  Si47  1  0.85886769  0.00766708  0.75507041  1
  Si  Si48  1  0.48237026  0.35643755  0.57927748  1
  Si  Si49  1  0.32384243  0.61538782  0.58293492  1
  Si  Si50  1  0.82485470  0.03505358  0.08186956  1
  Si  Si51  1  0.31232497  0.67295341  0.91244474  1
  Si  Si52  1  0.52623532  0.38059328  0.92274410  1
  Si  Si53  1  0.16348751  0.96165692  0.91798830  1
  Si  Si54  1  0.80877053  0.94376784  0.41447557  1
  Si  Si55  1  0.66374928  0.36364776  0.41649264  1
  Si  Si56  1  0.02487452  0.66811568  0.42308824  1
  S  S57  1  0.65067696  0.00666211  0.25000970  1
  S  S58  1  0.85372894  0.69675567  0.24803373  1
  S  S59  1  0.99436147  0.28406710  0.25021834  1
  S  S60  1  0.15179641  0.29544650  0.75038726  1
  S  S61  1  0.49405178  0.70769554  0.75107901  1
  S  S62  1  0.35415206  0.00821001  0.74887220  1
  S  S63  1  0.97585778  0.33228991  0.58419377  1
  S  S64  1  0.18954602  0.04512552  0.58334480  1
  S  S65  1  0.69341965  0.04701147  0.58328587  1
  S  S66  1  0.83275188  0.61625780  0.58305623  1
  S  S67  1  0.47560150  0.61870668  0.08400499  1
  S  S68  1  0.97863512  0.61534187  0.08265200  1
  S  S69  1  0.33000009  0.04411668  0.08252603  1
  S  S70  1  0.19086023  0.34330104  0.08272696  1
  S  S71  1  0.69021981  0.33580322  0.08301067  1
  S  S72  1  0.81128139  0.66015707  0.92034601  1
  S  S73  1  0.01802702  0.37655307  0.91882854  1
  S  S74  1  0.66892747  0.96135553  0.91751713  1
  S  S75  1  0.31109841  0.96071684  0.41908117  1
  S  S76  1  0.16995571  0.37654322  0.41793515  1
  S  S77  1  0.51710445  0.66267886  0.41608301  1
  O  O78  1  0.09426218  0.03573034  0.30887915  1
  O  O79  1  0.61095863  0.02872438  0.30474004  1
  O  O80  1  0.42012436  0.80662567  0.31094783  1
  O  O81  1  0.90663314  0.77311715  0.30254099  1
  O  O82  1  0.48869544  0.19162221  0.31306066  1
  O  O83  1  0.98134405  0.18242319  0.30401346  1
  O  O84  1  0.11107851  0.19271966  0.80607265  1
  O  O85  1  0.59799085  0.15725356  0.81058144  1
  O  O86  1  0.48446306  0.78569182  0.80567805  1
  O  O87  1  0.98855200  0.78179612  0.81351329  1
  O  O88  1  0.40628242  0.03457557  0.80440379  1
  O  O89  1  0.92140587  0.03569889  0.81194981  1
  O  O90  1  0.39939165  0.98593903  0.69531186  1
  O  O91  1  0.90440855  0.96932942  0.69491754  1
  O  O92  1  0.09171735  0.19748681  0.69714255  1
  O  O93  1  0.58136869  0.18887861  0.69313285  1
  O  O94  1  0.01900517  0.83626565  0.69596451  1
  O  O95  1  0.50624547  0.81182465  0.69686297  1
  O  O96  1  0.40439747  0.83869503  0.19444065  1
  O  O97  1  0.90056453  0.81385458  0.19393987  1
  O  O98  1  0.00534490  0.19768730  0.19553851  1
  O  O99  1  0.51912582  0.20234605  0.19500131  1
  O  O100  1  0.08127916  0.97300443  0.19233881  1
  O  O101  1  0.59284607  0.98803731  0.19575467  1
  O  O102  1  0.43646775  0.36917567  0.63969548  1
  O  O103  1  0.93410799  0.35282863  0.63746745  1
  O  O104  1  0.24171428  0.12852709  0.63811666  1
  O  O105  1  0.74605988  0.13643015  0.63689768  1
  O  O106  1  0.30608953  0.49847458  0.64225105  1
  O  O107  1  0.82559947  0.51476034  0.63637970  1
  O  O108  1  0.43347072  0.51367182  0.13727885  1
  O  O109  1  0.93352968  0.51384193  0.13642439  1
  O  O110  1  0.32178755  0.12846400  0.13615372  1
  O  O111  1  0.81245630  0.12127011  0.14191328  1
  O  O112  1  0.24396725  0.36322851  0.13627909  1
  O  O113  1  0.74337691  0.35880917  0.13794256  1
  O  O114  1  0.22445043  0.30827121  0.02754664  1
  O  O115  1  0.73133888  0.31283403  0.02859935  1
  O  O116  1  0.42160539  0.54282683  0.02886028  1
  O  O117  1  0.92578848  0.54276774  0.02693301  1
  O  O118  1  0.34304845  0.14252363  0.02701185  1
  O  O119  1  0.85139354  0.16167692  0.02433317  1
  O  O120  1  0.22855627  0.14911434  0.52841631  1
  O  O121  1  0.72771900  0.15189470  0.52793079  1
  O  O122  1  0.34784750  0.54445554  0.52377367  1
  O  O123  1  0.84568857  0.54441830  0.52715617  1
  O  O124  1  0.42195373  0.30404265  0.51850802  1
  O  O125  1  0.92227148  0.30022112  0.52893580  1
  O  O126  1  0.27522470  0.72277146  0.97287371  1
  O  O127  1  0.77208783  0.68584907  0.97420699  1
  O  O128  1  0.07501097  0.45775217  0.97368037  1
  O  O129  1  0.58760969  0.47718989  0.98000807  1
  O  O130  1  0.13116240  0.82403521  0.97470277  1
  O  O131  1  0.66169234  0.86285306  0.97245925  1
  O  O132  1  0.27133759  0.85673595  0.47255400  1
  O  O133  1  0.76615182  0.81445916  0.47286108  1
  O  O134  1  0.16040416  0.46128356  0.47155275  1
  O  O135  1  0.63201901  0.43696104  0.47175004  1
  O  O136  1  0.08825861  0.69638541  0.47893472  1
  O  O137  1  0.57328371  0.69497306  0.47018554  1
  O  O138  1  0.07281552  0.63947239  0.36236884  1
  O  O139  1  0.55621594  0.63089219  0.36230346  1
  O  O140  1  0.25728872  0.86728927  0.36354834  1
  O  O141  1  0.74234140  0.86269261  0.35586492  1
  O  O142  1  0.18259468  0.48513943  0.36296364  1
  O  O143  1  0.69043309  0.49317642  0.35928653  1
  O  O144  1  0.05653581  0.48463846  0.86536776  1
  O  O145  1  0.57439200  0.50659214  0.86317842  1
  O  O146  1  0.18892456  0.88032017  0.86220556  1
  O  O147  1  0.68283214  0.87948835  0.86377066  1
  O  O148  1  0.24125640  0.62027681  0.85725136  1
  O  O149  1  0.75748194  0.63632391  0.86537886  1
  O  O150  1  0.01360392  0.83906085  0.41510599  1
  O  O151  1  0.50884164  0.82135484  0.41081798  1
  O  O152  1  0.40087869  0.98307479  0.41358932  1
  O  O153  1  0.90732782  0.96496378  0.40503316  1
  O  O154  1  0.08693457  0.20416061  0.41244754  1
  O  O155  1  0.57775904  0.16026562  0.40814237  1
  O  O156  1  0.00746888  0.20031385  0.91476298  1
  O  O157  1  0.51353195  0.18612662  0.91466014  1
  O  O158  1  0.07775036  0.99360779  0.90873903  1
  O  O159  1  0.58747345  0.97084594  0.91289827  1
  O  O160  1  0.40963027  0.84745968  0.90375307  1
  O  O161  1  0.90128875  0.81690173  0.91464425  1
  O  O162  1  0.49201518  0.17331626  0.58731361  1
  O  O163  1  0.98758720  0.17272886  0.59017314  1
  O  O164  1  0.09909135  0.03078623  0.58817941  1
  O  O165  1  0.60002362  0.02188992  0.58962189  1
  O  O166  1  0.41477397  0.81364280  0.59384300  1
  O  O167  1  0.91680859  0.80139841  0.58912472  1
  O  O168  1  0.48739114  0.80176913  0.08993584  1
  O  O169  1  0.98808241  0.79810736  0.08750435  1
  O  O170  1  0.41298542  0.02472794  0.08868877  1
  O  O171  1  0.91500425  0.01293262  0.09218933  1
  O  O172  1  0.09716332  0.17808044  0.09030829  1
  O  O173  1  0.60099075  0.16882721  0.08761538  1
  O  O174  1  0.34292128  0.16248625  0.74125680  1
  O  O175  1  0.84516394  0.16960592  0.74326601  1
  O  O176  1  0.23779956  0.30317856  0.74405835  1
  O  O177  1  0.74122069  0.31096414  0.74304619  1
  O  O178  1  0.41789091  0.52520158  0.74556269  1
  O  O179  1  0.91644453  0.51686555  0.74062372  1
  O  O180  1  0.34498155  0.51975528  0.24321495  1
  O  O181  1  0.84625644  0.52252993  0.23786876  1
  O  O182  1  0.41663949  0.31383918  0.24035673  1
  O  O183  1  0.91940789  0.31657690  0.24199168  1
  O  O184  1  0.24018717  0.17010584  0.24263668  1
  O  O185  1  0.73801025  0.17468349  0.24411130  1
  O  O186  1  0.31788029  0.49539349  0.92178990  1
  O  O187  1  0.82209439  0.50066774  0.92470122  1
  O  O188  1  0.42705384  0.35400845  0.92318167  1
  O  O189  1  0.92923839  0.36691801  0.92482367  1
  O  O190  1  0.25114538  0.15298609  0.92933839  1
  O  O191  1  0.74859128  0.14523558  0.92080376  1
  O  O192  1  0.31785426  0.13519968  0.41932562  1
  O  O193  1  0.81755049  0.13600999  0.42321324  1
  O  O194  1  0.24833123  0.35233418  0.42190844  1
  O  O195  1  0.75153352  0.34682233  0.42736972  1
  O  O196  1  0.42752421  0.49903444  0.42093354  1
  O  O197  1  0.92604949  0.49656416  0.42373838  1
  O  O198  1  0.17688247  0.49551980  0.07766056  1
  O  O199  1  0.67809512  0.48805081  0.08023777  1
  O  O200  1  0.06741224  0.63668336  0.08012584  1
  O  O201  1  0.56503496  0.64046611  0.07915885  1
  O  O202  1  0.25116108  0.86173038  0.07876830  1
  O  O203  1  0.74124274  0.83620012  0.07516402  1
  O  O204  1  0.17627804  0.86714340  0.58018412  1
  O  O205  1  0.68339704  0.87232881  0.57832197  1
  O  O206  1  0.24126406  0.65099924  0.57590780  1
  O  O207  1  0.75622803  0.64385998  0.57995591  1
  O  O208  1  0.06519519  0.48969658  0.57917214  1
  O  O209  1  0.58130889  0.52609458  0.57478651  1
  O  O210  1  0.14900834  0.82568208  0.25892882  1
  O  O211  1  0.65945448  0.85167894  0.24975237  1
  O  O212  1  0.25974502  0.69335213  0.25916591  1
  O  O213  1  0.76799303  0.68796677  0.24914268  1
  O  O214  1  0.07901780  0.46053190  0.25299305  1
  O  O215  1  0.59422536  0.50373553  0.25709617  1
  O  O216  1  0.15781365  0.46630778  0.75129361  1
  O  O217  1  0.64958500  0.47084432  0.75906501  1
  O  O218  1  0.09440371  0.68538611  0.75701553  1
  O  O219  1  0.57876836  0.69527028  0.75536346  1
  O  O220  1  0.26810029  0.84135995  0.75129365  1
  O  O221  1  0.76144966  0.82620768  0.76169784  1
