# generated using pymatgen
data_Na6Mg(CoO3)2
_symmetry_space_group_name_H-M   'P 1'
_cell_length_a   7.42657048
_cell_length_b   7.42656280
_cell_length_c   4.21687600
_cell_angle_alpha   90.00000000
_cell_angle_beta   90.00000000
_cell_angle_gamma   78.96724342
_symmetry_Int_Tables_number   1
_chemical_formula_structural   Na6Mg(CoO3)2
_chemical_formula_sum   'Na6 Mg1 Co2 O6'
_cell_volume   228.27861838
_cell_formula_units_Z   1
loop_
 _symmetry_equiv_pos_site_id
 _symmetry_equiv_pos_as_xyz
  1  'x, y, z'
loop_
 _atom_site_type_symbol
 _atom_site_label
 _atom_site_symmetry_multiplicity
 _atom_site_fract_x
 _atom_site_fract_y
 _atom_site_fract_z
 _atom_site_occupancy
  Na  Na0  1  0.08555700  0.59112200  0.25000000  1
  Na  Na1  1  0.32820700  0.85832100  0.75000000  1
  Na  Na2  1  0.58785500  0.58785500  0.25000000  1
  Na  Na3  1  0.42109000  0.42109000  0.75000000  1
  Na  Na4  1  0.59112200  0.08555600  0.25000000  1
  Na  Na5  1  0.85832000  0.32820700  0.75000000  1
  Mg  Mg6  1  0.99374400  0.99374400  0.25000000  1
  Co  Co7  1  0.22384700  0.22384700  0.25000000  1
  Co  Co8  1  0.79361000  0.79361000  0.75000000  1
  O  O9  1  0.05043400  0.74673600  0.75000000  1
  O  O10  1  0.26855300  0.96534900  0.25000000  1
  O  O11  1  0.38146100  0.38146100  0.25000000  1
  O  O12  1  0.63411500  0.63411500  0.75000000  1
  O  O13  1  0.96534900  0.26855300  0.25000000  1
  O  O14  1  0.74673600  0.05043400  0.75000000  1
