# generated using pymatgen
data_Na6MgSi2Ge3(PO6)4
_symmetry_space_group_name_H-M   'P 1'
_cell_length_a   15.12814912
_cell_length_b   8.72343487
_cell_length_c   8.74979572
_cell_angle_alpha   89.70849012
_cell_angle_beta   124.91258013
_cell_angle_gamma   90.07062189
_symmetry_Int_Tables_number   1
_chemical_formula_structural   Na6MgSi2Ge3(PO6)4
_chemical_formula_sum   'Na12 Mg2 Si4 Ge6 P8 O48'
_cell_volume   946.87455740
_cell_formula_units_Z   2
loop_
 _symmetry_equiv_pos_site_id
 _symmetry_equiv_pos_as_xyz
  1  'x, y, z'
loop_
 _atom_site_type_symbol
 _atom_site_label
 _atom_site_symmetry_multiplicity
 _atom_site_fract_x
 _atom_site_fract_y
 _atom_site_fract_z
 _atom_site_occupancy
  Na  Na0  1  0.25012657  0.74860306  0.99904827  1
  Na  Na1  1  0.74759796  0.74675210  0.48922744  1
  Na  Na2  1  0.75012657  0.24860306  0.99904827  1
  Na  Na3  1  0.24759796  0.24675210  0.48922744  1
  Na  Na4  1  0.50587442  0.09382472  0.76072555  1
  Na  Na5  1  0.50054208  0.88947943  0.24054960  1
  Na  Na6  1  0.00587442  0.59382472  0.76072555  1
  Na  Na7  1  0.00054208  0.38947943  0.24054960  1
  Na  Na8  1  0.80337735  0.92472993  0.21230690  1
  Na  Na9  1  0.18447746  0.07869971  0.79679886  1
  Na  Na10  1  0.30337735  0.42472993  0.21230690  1
  Na  Na11  1  0.68447746  0.57869971  0.79679886  1
  Mg  Mg12  1  0.10465522  0.24582427  0.06380223  1
  Mg  Mg13  1  0.60465522  0.74582427  0.06380223  1
  Si  Si14  1  0.65006232  0.89963770  0.74689900  1
  Si  Si15  1  0.35766310  0.10091962  0.25785872  1
  Si  Si16  1  0.15006232  0.39963770  0.74689900  1
  Si  Si17  1  0.85766310  0.60091962  0.25785872  1
  Ge  Ge18  1  0.10376795  0.74910623  0.56178003  1
  Ge  Ge19  1  0.89458200  0.75209094  0.93618386  1
  Ge  Ge20  1  0.89843570  0.25256856  0.44076637  1
  Ge  Ge21  1  0.60376795  0.24910623  0.56178003  1
  Ge  Ge22  1  0.39458200  0.25209094  0.93618386  1
  Ge  Ge23  1  0.39843570  0.75256856  0.44076637  1
  P  P24  1  0.99501078  0.95712143  0.74491681  1
  P  P25  1  0.00100426  0.03615974  0.25650696  1
  P  P26  1  0.49501078  0.45712143  0.74491681  1
  P  P27  1  0.50100426  0.53615974  0.25650696  1
  P  P28  1  0.35236745  0.89327084  0.75175738  1
  P  P29  1  0.64681770  0.11869743  0.25123395  1
  P  P30  1  0.85236745  0.39327084  0.75175738  1
  P  P31  1  0.14681770  0.61869743  0.25123395  1
  O  O32  1  0.15530540  0.58756539  0.73031731  1
  O  O33  1  0.84845496  0.57433153  0.75383766  1
  O  O34  1  0.85683830  0.41081550  0.26558335  1
  O  O35  1  0.15236512  0.44278428  0.24811687  1
  O  O36  1  0.65530540  0.08756539  0.73031731  1
  O  O37  1  0.34845496  0.07433153  0.75383766  1
  O  O38  1  0.35683830  0.91081550  0.26558335  1
  O  O39  1  0.65236512  0.94278428  0.24811687  1
  O  O40  1  0.42003881  0.55174221  0.56039509  1
  O  O41  1  0.56490748  0.55670259  0.91297853  1
  O  O42  1  0.57005036  0.44028486  0.43752804  1
  O  O43  1  0.43032629  0.43180316  0.08249920  1
  O  O44  1  0.92003881  0.05174221  0.56039509  1
  O  O45  1  0.06490748  0.05670259  0.91297853  1
  O  O46  1  0.07005036  0.94028486  0.43752804  1
  O  O47  1  0.93032629  0.93180316  0.08249920  1
  O  O48  1  0.24763685  0.83714176  0.72970235  1
  O  O49  1  0.75193785  0.81437316  0.76063075  1
  O  O50  1  0.74526006  0.18753339  0.26247840  1
  O  O51  1  0.26061771  0.18201020  0.24802418  1
  O  O52  1  0.74763685  0.33714176  0.72970235  1
  O  O53  1  0.25193785  0.31437316  0.76063075  1
  O  O54  1  0.24526006  0.68753339  0.26247840  1
  O  O55  1  0.76061771  0.68201020  0.24802418  1
  O  O56  1  0.35693164  0.86049822  0.58049447  1
  O  O57  1  0.64796595  0.87523261  0.92586912  1
  O  O58  1  0.64556149  0.15834536  0.42101494  1
  O  O59  1  0.36055287  0.12891528  0.07034855  1
  O  O60  1  0.85693164  0.36049822  0.58049447  1
  O  O61  1  0.14796595  0.37523261  0.92586912  1
  O  O62  1  0.14556149  0.65834536  0.42101494  1
  O  O63  1  0.86055287  0.62891528  0.07034855  1
  O  O64  1  0.44876255  0.83090346  0.93293921  1
  O  O65  1  0.54259774  0.81376174  0.56247473  1
  O  O66  1  0.54405679  0.18163784  0.06481937  1
  O  O67  1  0.46837787  0.17181824  0.44027858  1
  O  O68  1  0.94876255  0.33090346  0.93293921  1
  O  O69  1  0.04259774  0.31376174  0.56247473  1
  O  O70  1  0.04405679  0.68163784  0.06481937  1
  O  O71  1  0.96837787  0.67181824  0.44027858  1
  O  O72  1  0.07786314  0.85492991  0.73421856  1
  O  O73  1  0.92020461  0.84164706  0.75676251  1
  O  O74  1  0.91235365  0.12906968  0.25983432  1
  O  O75  1  0.07467020  0.14866689  0.24849201  1
  O  O76  1  0.57786314  0.35492991  0.73421856  1
  O  O77  1  0.42020461  0.34164706  0.75676251  1
  O  O78  1  0.41235365  0.62906968  0.25983432  1
  O  O79  1  0.57467020  0.64866689  0.24849201  1
