# generated using pymatgen
data_Na15Mg2Ta10Si15(PO24)3
_symmetry_space_group_name_H-M   'P 1'
_cell_length_a   8.98133639
_cell_length_b   8.99119287
_cell_length_c   22.53285376
_cell_angle_alpha   90.04067548
_cell_angle_beta   90.02457605
_cell_angle_gamma   119.95730370
_symmetry_Int_Tables_number   1
_chemical_formula_structural   Na15Mg2Ta10Si15(PO24)3
_chemical_formula_sum   'Na15 Mg2 Ta10 Si15 P3 O72'
_cell_volume   1576.49104499
_cell_formula_units_Z   1
loop_
 _symmetry_equiv_pos_site_id
 _symmetry_equiv_pos_as_xyz
  1  'x, y, z'
loop_
 _atom_site_type_symbol
 _atom_site_label
 _atom_site_symmetry_multiplicity
 _atom_site_fract_x
 _atom_site_fract_y
 _atom_site_fract_z
 _atom_site_occupancy
  Na  Na0  1  0.63429190  0.01882665  0.24468320  1
  Na  Na1  1  0.38220047  0.36688000  0.24123057  1
  Na  Na2  1  0.98623294  0.61572972  0.24054558  1
  Na  Na3  1  0.63296483  0.61769188  0.74194932  1
  Na  Na4  1  0.97964697  0.36769988  0.74315415  1
  Na  Na5  1  0.38310640  0.01342699  0.74029084  1
  Na  Na6  1  0.02229999  0.68536211  0.58466004  1
  Na  Na7  1  0.66044985  0.97784003  0.58490756  1
  Na  Na8  1  0.02288119  0.33886105  0.08627687  1
  Na  Na9  1  0.01120495  0.01197280  0.49763960  1
  Na  Na10  1  0.00085800  0.98822836  0.99878660  1
  Na  Na11  1  0.67242095  0.33223088  0.83200547  1
  Na  Na12  1  0.66741859  0.32899093  0.33246891  1
  Na  Na13  1  0.34179449  0.67497000  0.16189578  1
  Na  Na14  1  0.33226564  0.65398418  0.66291781  1
  Mg  Mg15  1  0.66972552  0.33446873  0.68407443  1
  Mg  Mg16  1  0.66600886  0.33258131  0.18391703  1
  Ta  Ta17  1  0.00367998  0.00541937  0.35805484  1
  Ta  Ta18  1  0.99505454  0.99666487  0.85862816  1
  Ta  Ta19  1  0.99910725  0.99746432  0.64335479  1
  Ta  Ta20  1  0.00792413  0.00008280  0.14271448  1
  Ta  Ta21  1  0.66407259  0.33761175  0.97878433  1
  Ta  Ta22  1  0.66614626  0.33216317  0.47901696  1
  Ta  Ta23  1  0.33318515  0.66745224  0.02010668  1
  Ta  Ta24  1  0.33404309  0.66465316  0.51934770  1
  Ta  Ta25  1  0.32966086  0.66539991  0.31427970  1
  Ta  Ta26  1  0.33306666  0.67008593  0.81469871  1
  Si  Si27  1  0.29025885  0.99929237  0.25108881  1
  Si  Si28  1  0.00014276  0.28921780  0.24978396  1
  Si  Si29  1  0.00023275  0.71008950  0.75093287  1
  Si  Si30  1  0.70918815  0.99869193  0.75077779  1
  Si  Si31  1  0.95815026  0.33635383  0.58588226  1
  Si  Si32  1  0.38000828  0.04771423  0.58572008  1
  Si  Si33  1  0.65867358  0.61427618  0.58673818  1
  Si  Si34  1  0.95458473  0.62164830  0.08595641  1
  Si  Si35  1  0.38297178  0.33861291  0.08669168  1
  Si  Si36  1  0.62008653  0.66274375  0.91658321  1
  Si  Si37  1  0.04088027  0.37716839  0.91726510  1
  Si  Si38  1  0.33701678  0.96047675  0.91754827  1
  Si  Si39  1  0.62314434  0.95960107  0.41654034  1
  Si  Si40  1  0.33923761  0.37891972  0.41572622  1
  Si  Si41  1  0.03918872  0.66388831  0.41754998  1
  P  P42  1  0.71493606  0.71918289  0.25076046  1
  P  P43  1  0.28248967  0.28588347  0.75158466  1
  P  P44  1  0.66312560  0.04219662  0.08525909  1
  O  O45  1  0.18321831  0.01294358  0.30727662  1
  O  O46  1  0.82409395  0.80975228  0.30623774  1
  O  O47  1  0.98171326  0.16590477  0.30623013  1
  O  O48  1  0.19089011  0.17732845  0.80679368  1
  O  O49  1  0.99097207  0.82156382  0.80671615  1
  O  O50  1  0.83356622  0.01764691  0.80688512  1
  O  O51  1  0.80254536  0.97017519  0.69136826  1
  O  O52  1  0.16724468  0.19715970  0.69600260  1
  O  O53  1  0.03282931  0.83230200  0.69126713  1
  O  O54  1  0.80077648  0.83404447  0.19548591  1
  O  O55  1  0.02793105  0.19659518  0.19041345  1
  O  O56  1  0.16177413  0.96684424  0.19284748  1
  O  O57  1  0.89198456  0.38015972  0.64567114  1
  O  O58  1  0.49213902  0.11305964  0.64507333  1
  O  O59  1  0.63232569  0.51765924  0.64800960  1
  O  O60  1  0.88864459  0.50943703  0.14529570  1
  O  O61  1  0.63679688  0.11120308  0.14375869  1
  O  O62  1  0.48089664  0.36364488  0.14770713  1
  O  O63  1  0.47558075  0.30910828  0.02852795  1
  O  O64  1  0.83424848  0.52088683  0.02813110  1
  O  O65  1  0.69506642  0.16228333  0.03146336  1
  O  O66  1  0.47399500  0.16653407  0.52728707  1
  O  O67  1  0.69896309  0.52654404  0.52956405  1
  O  O68  1  0.82931923  0.29942471  0.52887155  1
  O  O69  1  0.52330476  0.68945733  0.97268107  1
  O  O70  1  0.16182452  0.47156084  0.97498051  1
  O  O71  1  0.30821745  0.83336540  0.97270211  1
  O  O72  1  0.52916777  0.84147914  0.47454611  1
  O  O73  1  0.31178749  0.47758804  0.47151650  1
  O  O74  1  0.16067319  0.69262873  0.47495634  1
  O  O75  1  0.13730089  0.64095851  0.35823245  1
  O  O76  1  0.50496880  0.86209701  0.35715975  1
  O  O77  1  0.35930875  0.49279641  0.35573270  1
  O  O78  1  0.13642922  0.49602429  0.85785421  1
  O  O79  1  0.36031170  0.86543248  0.85724085  1
  O  O80  1  0.50615381  0.63996884  0.85640414  1
  O  O81  1  0.02134325  0.83414310  0.40925947  1
  O  O82  1  0.81141106  0.97490895  0.40962107  1
  O  O83  1  0.16532441  0.19001649  0.41042986  1
  O  O84  1  0.02704014  0.18999526  0.90986417  1
  O  O85  1  0.16692655  0.97886418  0.90947662  1
  O  O86  1  0.81058541  0.83402480  0.91040039  1
  O  O87  1  0.97159248  0.15985108  0.59054324  1
  O  O88  1  0.18397698  0.02073210  0.58956238  1
  O  O89  1  0.83790053  0.81207484  0.58954807  1
  O  O90  1  0.96847975  0.81150645  0.08969886  1
  O  O91  1  0.83094681  0.02814564  0.08906894  1
  O  O92  1  0.18141478  0.16574107  0.08864388  1
  O  O93  1  0.68510393  0.16379668  0.74938803  1
  O  O94  1  0.46089207  0.30656996  0.74777247  1
  O  O95  1  0.83129037  0.52407884  0.75070667  1
  O  O96  1  0.69358157  0.53988774  0.24731754  1
  O  O97  1  0.83445962  0.31319637  0.24883662  1
  O  O98  1  0.47742504  0.16639255  0.24848577  1
  O  O99  1  0.64077702  0.49361525  0.92372518  1
  O  O100  1  0.85142215  0.35563207  0.92460204  1
  O  O101  1  0.50886687  0.14610116  0.92470218  1
  O  O102  1  0.64122952  0.14767494  0.42262038  1
  O  O103  1  0.50791600  0.36023737  0.42369017  1
  O  O104  1  0.85319123  0.49216002  0.42370923  1
  O  O105  1  0.34302633  0.49768928  0.07579965  1
  O  O106  1  0.15037174  0.65122465  0.07430740  1
  O  O107  1  0.50876092  0.85889125  0.07462539  1
  O  O108  1  0.34629155  0.84960772  0.57461419  1
  O  O109  1  0.50564074  0.66099974  0.57520227  1
  O  O110  1  0.14995506  0.50240582  0.57349960  1
  O  O111  1  0.30121685  0.82003123  0.25421029  1
  O  O112  1  0.53350778  0.70553881  0.25466231  1
  O  O113  1  0.18217845  0.47785080  0.25429005  1
  O  O114  1  0.29328275  0.46573657  0.75461647  1
  O  O115  1  0.17896094  0.69665440  0.75445592  1
  O  O116  1  0.52131792  0.81575827  0.75437108  1
