# generated using pymatgen
data_Na3CaZr(PO4)3
_symmetry_space_group_name_H-M   'P 1'
_cell_length_a   16.07692901
_cell_length_b   9.29877024
_cell_length_c   9.14125204
_cell_angle_alpha   90.00000000
_cell_angle_beta   125.58159238
_cell_angle_gamma   90.00000000
_symmetry_Int_Tables_number   1
_chemical_formula_structural   Na3CaZr(PO4)3
_chemical_formula_sum   'Na12 Ca4 Zr4 P12 O48'
_cell_volume   1111.42079846
_cell_formula_units_Z   4
loop_
 _symmetry_equiv_pos_site_id
 _symmetry_equiv_pos_as_xyz
  1  'x, y, z'
loop_
 _atom_site_type_symbol
 _atom_site_label
 _atom_site_symmetry_multiplicity
 _atom_site_fract_x
 _atom_site_fract_y
 _atom_site_fract_z
 _atom_site_occupancy
  Na  Na0  1  0.25563927  0.72300539  0.99046004  1
  Na  Na1  1  0.75563927  0.77699461  0.49046004  1
  Na  Na2  1  0.75563927  0.22300539  0.99046004  1
  Na  Na3  1  0.25563927  0.27699461  0.49046004  1
  Na  Na4  1  0.50354752  0.10824565  0.74313412  1
  Na  Na5  1  0.50354752  0.89175435  0.24313412  1
  Na  Na6  1  0.00354752  0.60824565  0.74313412  1
  Na  Na7  1  0.00354752  0.39175435  0.24313412  1
  Na  Na8  1  0.18184216  0.94116497  0.29664327  1
  Na  Na9  1  0.18184216  0.05883503  0.79664327  1
  Na  Na10  1  0.68184216  0.44116497  0.29664327  1
  Na  Na11  1  0.68184216  0.55883503  0.79664327  1
  Ca  Ca12  1  0.10245071  0.74892938  0.55891005  1
  Ca  Ca13  1  0.10245071  0.25107062  0.05891005  1
  Ca  Ca14  1  0.60245071  0.24892938  0.55891005  1
  Ca  Ca15  1  0.60245071  0.75107062  0.05891005  1
  Zr  Zr16  1  0.89507194  0.75861441  0.94426427  1
  Zr  Zr17  1  0.89507194  0.24138559  0.44426427  1
  Zr  Zr18  1  0.39507194  0.25861441  0.94426427  1
  Zr  Zr19  1  0.39507194  0.74138559  0.44426427  1
  P  P20  1  0.99703093  0.94875254  0.76291144  1
  P  P21  1  0.99703093  0.05124746  0.26291144  1
  P  P22  1  0.49703093  0.44875254  0.76291144  1
  P  P23  1  0.49703093  0.55124746  0.26291144  1
  P  P24  1  0.35290925  0.91446745  0.75840322  1
  P  P25  1  0.64801354  0.88391693  0.74105428  1
  P  P26  1  0.64801354  0.11608307  0.24105428  1
  P  P27  1  0.35290925  0.08553255  0.25840322  1
  P  P28  1  0.85290925  0.41446745  0.75840322  1
  P  P29  1  0.14801354  0.38391693  0.74105428  1
  P  P30  1  0.14801354  0.61608307  0.24105428  1
  P  P31  1  0.85290925  0.58553255  0.25840322  1
  O  O32  1  0.15595477  0.54810073  0.74883015  1
  O  O33  1  0.84916352  0.58446823  0.74424819  1
  O  O34  1  0.84916352  0.41553177  0.24424819  1
  O  O35  1  0.15595477  0.45189927  0.24883015  1
  O  O36  1  0.65595477  0.04810073  0.74883015  1
  O  O37  1  0.34916352  0.08446823  0.74424819  1
  O  O38  1  0.34916352  0.91553177  0.24424819  1
  O  O39  1  0.65595477  0.95189927  0.24883015  1
  O  O40  1  0.44203991  0.55980020  0.60015940  1
  O  O41  1  0.56206769  0.53143791  0.93731444  1
  O  O42  1  0.56206769  0.46856209  0.43731444  1
  O  O43  1  0.44203991  0.44019980  0.10015940  1
  O  O44  1  0.94203991  0.05980020  0.60015940  1
  O  O45  1  0.06206769  0.03143791  0.93731444  1
  O  O46  1  0.06206769  0.96856209  0.43731444  1
  O  O47  1  0.94203991  0.94019980  0.10015940  1
  O  O48  1  0.26098568  0.86339305  0.75377126  1
  O  O49  1  0.73639096  0.81179592  0.73919531  1
  O  O50  1  0.73639096  0.18820408  0.23919531  1
  O  O51  1  0.26098568  0.13660695  0.25377126  1
  O  O52  1  0.76098568  0.36339305  0.75377126  1
  O  O53  1  0.23639096  0.31179592  0.73919531  1
  O  O54  1  0.23639096  0.68820408  0.23919531  1
  O  O55  1  0.76098568  0.63660695  0.25377126  1
  O  O56  1  0.35110473  0.86239609  0.58916258  1
  O  O57  1  0.65362749  0.82341271  0.89947640  1
  O  O58  1  0.65362749  0.17658729  0.39947640  1
  O  O59  1  0.35110473  0.13760391  0.08916258  1
  O  O60  1  0.85110473  0.36239609  0.58916258  1
  O  O61  1  0.15362749  0.32341271  0.89947640  1
  O  O62  1  0.15362749  0.67658729  0.39947640  1
  O  O63  1  0.85110473  0.63760391  0.08916258  1
  O  O64  1  0.45336643  0.86906968  0.93052056  1
  O  O65  1  0.54302978  0.83159339  0.56310571  1
  O  O66  1  0.54302978  0.16840661  0.06310571  1
  O  O67  1  0.45336643  0.13093032  0.43052056  1
  O  O68  1  0.95336643  0.36906968  0.93052056  1
  O  O69  1  0.04302978  0.33159339  0.56310571  1
  O  O70  1  0.04302978  0.66840661  0.06310571  1
  O  O71  1  0.95336643  0.63093032  0.43052056  1
  O  O72  1  0.06544349  0.84378241  0.74734956  1
  O  O73  1  0.91032025  0.86084278  0.75108574  1
  O  O74  1  0.91032025  0.13915722  0.25108574  1
  O  O75  1  0.06544349  0.15621759  0.24734956  1
  O  O76  1  0.56544349  0.34378241  0.74734956  1
  O  O77  1  0.41032025  0.36084278  0.75108574  1
  O  O78  1  0.41032025  0.63915722  0.25108574  1
  O  O79  1  0.56544349  0.65621759  0.24734956  1
