# generated using pymatgen
data_Na10Ca4Ga4Si3(S3O16)3
_symmetry_space_group_name_H-M   'P 1'
_cell_length_a   18.19366122
_cell_length_b   9.18075801
_cell_length_c   22.85215664
_cell_angle_alpha   89.80801210
_cell_angle_beta   87.13997558
_cell_angle_gamma   120.36736894
_symmetry_Int_Tables_number   1
_chemical_formula_structural   Na10Ca4Ga4Si3(S3O16)3
_chemical_formula_sum   'Na30 Ca12 Ga12 Si9 S27 O144'
_cell_volume   3287.43095221
_cell_formula_units_Z   3
loop_
 _symmetry_equiv_pos_site_id
 _symmetry_equiv_pos_as_xyz
  1  'x, y, z'
loop_
 _atom_site_type_symbol
 _atom_site_label
 _atom_site_symmetry_multiplicity
 _atom_site_fract_x
 _atom_site_fract_y
 _atom_site_fract_z
 _atom_site_occupancy
  Na  Na0  1  0.18944118  0.37493288  0.24487634  1
  Na  Na1  1  0.68955385  0.37743264  0.24493539  1
  Na  Na2  1  0.98929328  0.64282045  0.25576661  1
  Na  Na3  1  0.49252462  0.63702725  0.26024788  1
  Na  Na4  1  0.32466483  0.65194280  0.74647100  1
  Na  Na5  1  0.82115393  0.64601597  0.74711472  1
  Na  Na6  1  0.99213234  0.34507611  0.75366874  1
  Na  Na7  1  0.18548878  -0.00209810  0.74115101  1
  Na  Na8  1  0.68762258  0.00233599  0.74241107  1
  Na  Na9  1  0.52026933  0.70730123  0.57486641  1
  Na  Na10  1  0.32427029  0.97328077  0.58929186  1
  Na  Na11  1  0.82316509  0.96671021  0.58761423  1
  Na  Na12  1  0.15289394  0.97922443  0.08188087  1
  Na  Na13  1  0.65293094  0.97959060  0.08140311  1
  Na  Na14  1  0.32708293  0.68361569  0.09185018  1
  Na  Na15  1  0.82694858  0.68361843  0.09215121  1
  Na  Na16  1  0.65827667  0.00828848  0.42465939  1
  Na  Na17  1  0.35637220  0.66728757  0.41046692  1
  Na  Na18  1  0.01613572  0.00586709  0.50319036  1
  Na  Na19  1  0.50937743  0.00906657  0.50101272  1
  Na  Na20  1  0.00774595  0.02493250  0.00217759  1
  Na  Na21  1  0.50854313  0.02679258  0.00183149  1
  Na  Na22  1  0.34490815  0.31452682  0.83329115  1
  Na  Na23  1  0.83376816  0.31658929  0.83716055  1
  Na  Na24  1  0.33587815  0.33039184  0.33716886  1
  Na  Na25  1  0.83928079  0.35220838  0.33504772  1
  Na  Na26  1  0.17032163  0.65099457  0.16849566  1
  Na  Na27  1  0.67132751  0.65315633  0.16931889  1
  Na  Na28  1  0.16459012  0.68269137  0.66157622  1
  Na  Na29  1  0.66137756  0.66250998  0.66514381  1
  Ca  Ca30  1  0.99629444  0.99064975  0.35360525  1
  Ca  Ca31  1  0.49872795  0.99963762  0.35095738  1
  Ca  Ca32  1  0.99843796  0.00290475  0.85413853  1
  Ca  Ca33  1  0.49781322  0.00461388  0.85400552  1
  Ca  Ca34  1  0.33278175  0.32529794  0.68383483  1
  Ca  Ca35  1  0.83128655  0.32913223  0.68089428  1
  Ca  Ca36  1  0.33298788  0.33231652  0.18328791  1
  Ca  Ca37  1  0.83339397  0.33378048  0.18288815  1
  Ca  Ca38  1  0.16235225  0.65039521  0.01742478  1
  Ca  Ca39  1  0.66277311  0.65107562  0.01721927  1
  Ca  Ca40  1  0.16071757  0.66839616  0.51957318  1
  Ca  Ca41  1  0.66687808  0.66454066  0.51469900  1
  Ga  Ga42  1  0.00109357  0.99677889  0.64839745  1
  Ga  Ga43  1  0.50425783  0.01944346  0.65152016  1
  Ga  Ga44  1  0.99588524  0.01595818  0.15499216  1
  Ga  Ga45  1  0.49842312  0.01549573  0.15494512  1
  Ga  Ga46  1  0.32605636  0.32448489  0.98655387  1
  Ga  Ga47  1  0.82442928  0.32303344  0.98602601  1
  Ga  Ga48  1  0.33262508  0.32619224  0.48389376  1
  Ga  Ga49  1  0.82944571  0.33511919  0.49059170  1
  Ga  Ga50  1  0.18102868  0.68316672  0.31956778  1
  Ga  Ga51  1  0.67497762  0.67596316  0.32418190  1
  Ga  Ga52  1  0.18345292  0.68891628  0.82510587  1
  Ga  Ga53  1  0.67202702  0.67691692  0.82068659  1
  Si  Si54  1  0.35091804  0.71201735  0.25138920  1
  Si  Si55  1  0.84968465  0.71367765  0.25112506  1
  Si  Si56  1  0.35180303  0.99420624  0.75195330  1
  Si  Si57  1  0.85251358  0.99253314  0.75009397  1
  Si  Si58  1  0.18155531  0.04513836  0.58689916  1
  Si  Si59  1  0.67882589  0.03746212  0.58778271  1
  Si  Si60  1  0.17881578  0.31948887  0.08924648  1
  Si  Si61  1  0.67863440  0.31990637  0.08900033  1
  Si  Si62  1  0.51507984  0.65046945  0.41960558  1
  S  S63  1  0.14632431  0.98353185  0.24999509  1
  S  S64  1  0.64689479  0.98658363  0.24837663  1
  S  S65  1  0.00462275  0.30294869  0.25107961  1
  S  S66  1  0.50409755  0.30250039  0.24875341  1
  S  S67  1  0.14593044  0.30674815  0.75012328  1
  S  S68  1  0.64592311  0.30934927  0.75027391  1
  S  S69  1  0.00392108  0.70786661  0.75062764  1
  S  S70  1  0.50581055  0.70918376  0.75113047  1
  S  S71  1  0.48096241  0.32068507  0.58163688  1
  S  S72  1  0.97745760  0.31738833  0.58258374  1
  S  S73  1  0.33689461  0.63720733  0.58249622  1
  S  S74  1  0.83917900  0.63788760  0.58209487  1
  S  S75  1  0.47822603  0.63565775  0.08016253  1
  S  S76  1  0.97840770  0.63592548  0.08003425  1
  S  S77  1  0.33779212  0.04389411  0.07887914  1
  S  S78  1  0.83785054  0.04476444  0.07868839  1
  S  S79  1  0.31407618  0.64492117  0.91734648  1
  S  S80  1  0.81300291  0.64442983  0.91628352  1
  S  S81  1  0.01338459  0.38128958  0.91573150  1
  S  S82  1  0.51365437  0.38237651  0.91677209  1
  S  S83  1  0.17415211  0.97314876  0.91767653  1
  S  S84  1  0.67367357  0.97152541  0.91711289  1
  S  S85  1  0.31014129  0.96979997  0.41618722  1
  S  S86  1  0.81524059  0.98229230  0.41825077  1
  S  S87  1  0.16941048  0.37732501  0.41463720  1
  S  S88  1  0.67592676  0.37261069  0.41573434  1
  S  S89  1  0.01358457  0.64636644  0.41626776  1
  O  O90  1  0.10708686  0.01763934  0.30125280  1
  O  O91  1  0.60873569  0.01270590  0.30258212  1
  O  O92  1  0.40285209  0.78709019  0.30859238  1
  O  O93  1  0.91388251  0.79733494  0.30126757  1
  O  O94  1  0.49367027  0.20559375  0.30193058  1
  O  O95  1  0.99405886  0.20329309  0.30328451  1
  O  O96  1  0.11193139  0.19679142  0.80277360  1
  O  O97  1  0.60982945  0.20011154  0.80261605  1
  O  O98  1  0.49448990  0.78999620  0.80286704  1
  O  O99  1  0.99129602  0.78299741  0.80349017  1
  O  O100  1  0.40276472  -0.00025680  0.80623817  1
  O  O101  1  0.91356921  0.02727330  0.80177702  1
  O  O102  1  0.39782034  0.96141178  0.68942165  1
  O  O103  1  0.89705770  0.95423186  0.68808042  1
  O  O104  1  0.09372731  0.22395758  0.69906567  1
  O  O105  1  0.59703196  0.22797090  0.69767478  1
  O  O106  1  0.01904976  0.81731090  0.69722969  1
  O  O107  1  0.52175547  0.81535720  0.69633510  1
  O  O108  1  0.40031276  0.83253650  0.18897947  1
  O  O109  1  0.89550134  0.83025702  0.18651070  1
  O  O110  1  0.01927194  0.22349886  0.19666077  1
  O  O111  1  0.51605833  0.21793655  0.19522419  1
  O  O112  1  0.09639884  0.96102534  0.19671069  1
  O  O113  1  0.59481061  0.97153641  0.19691816  1
  O  O114  1  0.44399895  0.35042314  0.63540038  1
  O  O115  1  0.94452913  0.34028321  0.63976801  1
  O  O116  1  0.23071510  0.11234459  0.64634237  1
  O  O117  1  0.73282645  0.11195139  0.64441789  1
  O  O118  1  0.32827130  0.54631629  0.63785001  1
  O  O119  1  0.82989576  0.54990168  0.63814547  1
  O  O120  1  0.44510232  0.54403644  0.13668687  1
  O  O121  1  0.94582609  0.54548765  0.13697560  1
  O  O122  1  0.32523763  0.11625773  0.13246317  1
  O  O123  1  0.82551405  0.11699470  0.13246513  1
  O  O124  1  0.23101242  0.34748378  0.14666354  1
  O  O125  1  0.73115971  0.34734248  0.14618277  1
  O  O126  1  0.22683513  0.27593500  0.03115930  1
  O  O127  1  0.72615119  0.27547998  0.03082539  1
  O  O128  1  0.42455948  0.53598596  0.03110767  1
  O  O129  1  0.92472587  0.53523572  0.03132923  1
  O  O130  1  0.35112023  0.15363470  0.02561451  1
  O  O131  1  0.85103221  0.15440512  0.02548204  1
  O  O132  1  0.23714909  0.17372667  0.52775975  1
  O  O133  1  0.72833687  0.15850236  0.52595127  1
  O  O134  1  0.34791046  0.54947400  0.53048493  1
  O  O135  1  0.84932586  0.54505313  0.53069145  1
  O  O136  1  0.42819170  0.29963361  0.53080426  1
  O  O137  1  0.92167750  0.30764151  0.53409013  1
  O  O138  1  0.27225348  0.66343798  0.97058916  1
  O  O139  1  0.77195390  0.66168494  0.97023957  1
  O  O140  1  0.06152820  0.46307713  0.96641271  1
  O  O141  1  0.55993734  0.45945579  0.96855809  1
  O  O142  1  0.16336725  0.87435158  0.97111313  1
  O  O143  1  0.66330295  0.87403498  0.97080599  1
  O  O144  1  0.27224352  0.86929900  0.47054093  1
  O  O145  1  0.77859552  0.88999633  0.47437745  1
  O  O146  1  0.16047968  0.45941384  0.46663766  1
  O  O147  1  0.66420414  0.44935895  0.46780253  1
  O  O148  1  0.06318670  0.66200285  0.46607729  1
  O  O149  1  0.56811472  0.68523457  0.47673675  1
  O  O150  1  0.05685994  0.62961596  0.35954163  1
  O  O151  1  0.56913225  0.63492358  0.35838307  1
  O  O152  1  0.25693299  0.87990166  0.36471464  1
  O  O153  1  0.75944966  0.88687625  0.36876482  1
  O  O154  1  0.17995931  0.48443753  0.35914622  1
  O  O155  1  0.68463550  0.47265184  0.36061660  1
  O  O156  1  0.06007108  0.48849411  0.85967082  1
  O  O157  1  0.56094433  0.49298692  0.86184105  1
  O  O158  1  0.18210508  0.88307541  0.86308437  1
  O  O159  1  0.68266634  0.88348240  0.86275178  1
  O  O160  1  0.26250439  0.63024489  0.86404183  1
  O  O161  1  0.76258720  0.63144744  0.86333139  1
  O  O162  1  0.00276180  0.79399301  0.41214236  1
  O  O163  1  0.50264684  0.81470143  0.41325558  1
  O  O164  1  0.39581178  0.99172085  0.40879377  1
  O  O165  1  0.90176856  0.01304454  0.41045322  1
  O  O166  1  0.09607579  0.20618327  0.41118581  1
  O  O167  1  0.60223638  0.19684432  0.41261595  1
  O  O168  1  0.00275076  0.21206850  0.91172648  1
  O  O169  1  0.50309874  0.21368441  0.91146137  1
  O  O170  1  0.10039485  0.99606394  0.91294863  1
  O  O171  1  0.60026110  0.99589045  0.91260145  1
  O  O172  1  0.40017573  0.79079374  0.91123066  1
  O  O173  1  0.89946832  0.79079749  0.91062943  1
  O  O174  1  0.48067657  0.15621877  0.58680284  1
  O  O175  1  0.97439079  0.15106054  0.58270854  1
  O  O176  1  0.08504882  0.03067851  0.59201217  1
  O  O177  1  0.58126604  0.01822400  0.59418604  1
  O  O178  1  0.41664049  0.80813546  0.58153353  1
  O  O179  1  0.91708936  0.80934173  0.58009315  1
  O  O180  1  0.47776688  0.79823825  0.08022711  1
  O  O181  1  0.97808470  0.79844387  0.07988202  1
  O  O182  1  0.41313840  0.02117003  0.08044368  1
  O  O183  1  0.91362845  0.02311600  0.08014652  1
  O  O184  1  0.08274750  0.13564725  0.09601327  1
  O  O185  1  0.58297987  0.13603157  0.09499393  1
  O  O186  1  0.32957981  0.14325572  0.74958689  1
  O  O187  1  0.83567836  0.15044402  0.74643639  1
  O  O188  1  0.23636171  0.35157352  0.74171156  1
  O  O189  1  0.73574195  0.34598704  0.74272264  1
  O  O190  1  0.42787625  0.54140628  0.74661097  1
  O  O191  1  0.92656830  0.53648617  0.74596822  1
  O  O192  1  0.33830827  0.52306694  0.24620350  1
  O  O193  1  0.83587115  0.52327783  0.24569427  1
  O  O194  1  0.43048840  0.32782172  0.24479268  1
  O  O195  1  0.93065852  0.32741435  0.24612645  1
  O  O196  1  0.23459962  0.12466679  0.24321539  1
  O  O197  1  0.73415988  0.13179358  0.24245903  1
  O  O198  1  0.31681551  0.48431026  0.91966727  1
  O  O199  1  0.81691897  0.48393178  0.91910427  1
  O  O200  1  0.42704782  0.36923182  0.92094206  1
  O  O201  1  0.92690978  0.36816157  0.92016962  1
  O  O202  1  0.25560301  0.14074621  0.91746054  1
  O  O203  1  0.75537445  0.13999130  0.91741856  1
  O  O204  1  0.31487113  0.13567565  0.41780107  1
  O  O205  1  0.81519147  0.14675427  0.41875404  1
  O  O206  1  0.25102551  0.37388791  0.41427251  1
  O  O207  1  0.75579552  0.36094425  0.41770896  1
  O  O208  1  0.41540148  0.47613904  0.42619835  1
  O  O209  1  0.92629301  0.48541025  0.42278511  1
  O  O210  1  0.17370324  0.48893212  0.08078400  1
  O  O211  1  0.67365112  0.48961660  0.08094052  1
  O  O212  1  0.06859918  0.67933154  0.07325794  1
  O  O213  1  0.56840635  0.67944428  0.07321172  1
  O  O214  1  0.25947164  0.87320231  0.07442341  1
  O  O215  1  0.75977087  0.87408615  0.07429234  1
  O  O216  1  0.17405752  0.86148233  0.57952854  1
  O  O217  1  0.66697227  0.84904871  0.58157394  1
  O  O218  1  0.26260876  0.66203035  0.57895609  1
  O  O219  1  0.76365701  0.65763774  0.57761011  1
  O  O220  1  0.06542622  0.45578131  0.57465849  1
  O  O221  1  0.56867660  0.46225215  0.57485150  1
  O  O222  1  0.14495674  0.81768630  0.25754827  1
  O  O223  1  0.64722303  0.82437230  0.25172762  1
  O  O224  1  0.25229788  0.68907904  0.25635621  1
  O  O225  1  0.75097504  0.68994840  0.26198436  1
  O  O226  1  0.08385552  0.47421585  0.25162825  1
  O  O227  1  0.58387520  0.47126338  0.24839185  1
  O  O228  1  0.14502035  0.46927261  0.75743822  1
  O  O229  1  0.65050935  0.47666918  0.75641790  1
  O  O230  1  0.08074655  0.68843546  0.75305883  1
  O  O231  1  0.58463700  0.69420376  0.75521199  1
  O  O232  1  0.25291845  0.80645234  0.75818299  1
  O  O233  1  0.75495805  0.81038431  0.75954350  1
