# generated using pymatgen
data_Sr5(AlSb3)2
_symmetry_space_group_name_H-M   'P 1'
_cell_length_a   10.42027424
_cell_length_b   12.21689202
_cell_length_c   13.51607695
_cell_angle_alpha   90.00000000
_cell_angle_beta   90.00000000
_cell_angle_gamma   90.00000000
_symmetry_Int_Tables_number   1
_chemical_formula_structural   Sr5(AlSb3)2
_chemical_formula_sum   'Sr20 Al8 Sb24'
_cell_volume   1720.64208016
_cell_formula_units_Z   4
loop_
 _symmetry_equiv_pos_site_id
 _symmetry_equiv_pos_as_xyz
  1  'x, y, z'
loop_
 _atom_site_type_symbol
 _atom_site_label
 _atom_site_symmetry_multiplicity
 _atom_site_fract_x
 _atom_site_fract_y
 _atom_site_fract_z
 _atom_site_occupancy
  Sr  Sr0  1  0.97810884  0.83042410  0.46540493  1
  Sr  Sr1  1  0.25000000  0.16213797  0.81446703  1
  Sr  Sr2  1  0.47810884  0.66957590  0.96540493  1
  Sr  Sr3  1  0.52189116  0.33042410  0.03459507  1
  Sr  Sr4  1  0.47442649  0.58002004  0.26260403  1
  Sr  Sr5  1  0.52557351  0.91997996  0.76260403  1
  Sr  Sr6  1  0.75000000  0.33786203  0.31446703  1
  Sr  Sr7  1  0.47810884  0.16957590  0.53459507  1
  Sr  Sr8  1  0.02557351  0.08002004  0.23739597  1
  Sr  Sr9  1  0.02557351  0.58002004  0.26260403  1
  Sr  Sr10  1  0.52557351  0.41997996  0.73739597  1
  Sr  Sr11  1  0.75000000  0.83786203  0.18553297  1
  Sr  Sr12  1  0.97810884  0.33042410  0.03459507  1
  Sr  Sr13  1  0.52189116  0.83042410  0.46540493  1
  Sr  Sr14  1  0.02189116  0.66957590  0.96540493  1
  Sr  Sr15  1  0.47442649  0.08002004  0.23739597  1
  Sr  Sr16  1  0.97442649  0.41997996  0.73739597  1
  Sr  Sr17  1  0.97442649  0.91997996  0.76260403  1
  Sr  Sr18  1  0.25000000  0.66213797  0.68553297  1
  Sr  Sr19  1  0.02189116  0.16957590  0.53459507  1
  Al  Al20  1  0.75000000  0.57876888  0.56669092  1
  Al  Al21  1  0.25000000  0.42123112  0.43330908  1
  Al  Al22  1  0.25000000  0.81031108  0.29960022  1
  Al  Al23  1  0.75000000  0.18968892  0.70039978  1
  Al  Al24  1  0.25000000  0.92123112  0.06669092  1
  Al  Al25  1  0.75000000  0.68968892  0.79960022  1
  Al  Al26  1  0.75000000  0.07876888  0.93330908  1
  Al  Al27  1  0.25000000  0.31031108  0.20039978  1
  Sb  Sb28  1  0.75000000  0.64460412  0.37862234  1
  Sb  Sb29  1  0.05683084  0.82668665  0.17083455  1
  Sb  Sb30  1  0.94316916  0.67331335  0.67083455  1
  Sb  Sb31  1  0.25000000  0.95419871  0.62143987  1
  Sb  Sb32  1  0.05683084  0.32668665  0.32916545  1
  Sb  Sb33  1  0.25000000  0.64845626  0.43553237  1
  Sb  Sb34  1  0.44316916  0.32668665  0.32916545  1
  Sb  Sb35  1  0.55683084  0.17331335  0.82916545  1
  Sb  Sb36  1  0.25000000  0.49987959  0.08977877  1
  Sb  Sb37  1  0.75000000  0.35154374  0.56446763  1
  Sb  Sb38  1  0.25000000  0.14845626  0.06446763  1
  Sb  Sb39  1  0.25000000  0.45419871  0.87856013  1
  Sb  Sb40  1  0.55683084  0.67331335  0.67083455  1
  Sb  Sb41  1  0.25000000  0.35539588  0.62137766  1
  Sb  Sb42  1  0.75000000  0.14460412  0.12137766  1
  Sb  Sb43  1  0.94316916  0.17331335  0.82916545  1
  Sb  Sb44  1  0.75000000  0.00012041  0.58977877  1
  Sb  Sb45  1  0.75000000  0.04580129  0.37856013  1
  Sb  Sb46  1  0.75000000  0.54580129  0.12143987  1
  Sb  Sb47  1  0.75000000  0.50012041  0.91022123  1
  Sb  Sb48  1  0.25000000  -0.00012041  0.41022123  1
  Sb  Sb49  1  0.75000000  0.85154374  0.93553237  1
  Sb  Sb50  1  0.44316916  0.82668665  0.17083455  1
  Sb  Sb51  1  0.25000000  0.85539588  0.87862234  1
