# generated using pymatgen
data_TaInP2SO12
_symmetry_space_group_name_H-M   'P 1'
_cell_length_a   8.85281381
_cell_length_b   8.88857811
_cell_length_c   22.76187528
_cell_angle_alpha   90.40117938
_cell_angle_beta   90.00000000
_cell_angle_gamma   119.86698855
_symmetry_Int_Tables_number   1
_chemical_formula_structural   TaInP2SO12
_chemical_formula_sum   'Ta6 In6 P12 S6 O72'
_cell_volume   1553.16883879
_cell_formula_units_Z   6
loop_
 _symmetry_equiv_pos_site_id
 _symmetry_equiv_pos_as_xyz
  1  'x, y, z'
loop_
 _atom_site_type_symbol
 _atom_site_label
 _atom_site_symmetry_multiplicity
 _atom_site_fract_x
 _atom_site_fract_y
 _atom_site_fract_z
 _atom_site_occupancy
  Ta  Ta0  1  0.99324876  0.00542754  0.64287326  1
  Ta  Ta1  1  0.01217878  0.00542754  0.14287326  1
  Ta  Ta2  1  0.65991576  0.33876054  0.97620626  1
  Ta  Ta3  1  0.67884578  0.33876054  0.47620626  1
  Ta  Ta4  1  0.32658176  0.67209454  0.30954026  1
  Ta  Ta5  1  0.34551178  0.67209454  0.80954026  1
  In  In6  1  0.99836331  0.00087200  0.35544176  1
  In  In7  1  0.00250869  0.00087200  0.85544176  1
  In  In8  1  0.66503031  0.33420500  0.68877476  1
  In  In9  1  0.66917569  0.33420500  0.18877476  1
  In  In10  1  0.33169631  0.66753900  0.02210876  1
  In  In11  1  0.33584169  0.66753900  0.52210876  1
  P  P12  1  0.28651360  -0.00019094  0.25046500  1
  P  P13  1  0.00483989  0.28803590  0.25073354  1
  P  P14  1  0.28319601  0.28803590  0.75073354  1
  P  P15  1  0.71329546  -0.00019094  0.75046500  1
  P  P16  1  0.95318060  0.33314206  0.58379800  1
  P  P17  1  0.67150689  0.62136890  0.58406654  1
  P  P18  1  0.94986301  0.62136890  0.08406654  1
  P  P19  1  0.37996246  0.33314206  0.08379800  1
  P  P20  1  0.61984660  0.66647606  0.91713200  1
  P  P21  1  0.33817289  0.95470290  0.91740054  1
  P  P22  1  0.61652901  0.95470290  0.41740054  1
  P  P23  1  0.04662846  0.66647606  0.41713200  1
  S  S24  1  0.70645485  0.71524078  0.24981955  1
  S  S25  1  0.00878592  0.71524078  0.74981955  1
  S  S26  1  0.37312185  0.04857378  0.58315255  1
  S  S27  1  0.67545292  0.04857378  0.08315255  1
  S  S28  1  0.03978785  0.38190778  0.91648655  1
  S  S29  1  0.34211892  0.38190778  0.41648655  1
  O  O30  1  0.20768179  0.02751117  0.30476919  1
  O  O31  1  0.81039797  0.78692172  0.30285650  1
  O  O32  1  0.97328735  0.18083523  0.30489162  1
  O  O33  1  0.20754788  0.18083523  0.80489162  1
  O  O34  1  0.97652375  0.78692172  0.80285650  1
  O  O35  1  0.81982938  0.02751117  0.80476919  1
  O  O36  1  0.80305785  0.96618816  0.69536555  1
  O  O37  1  0.16033448  0.19333585  0.69579319  1
  O  O38  1  0.03907331  0.82794401  0.69774200  1
  O  O39  1  0.78887070  0.82794401  0.19774200  1
  O  O40  1  0.03300137  0.19333585  0.19579319  1
  O  O41  1  0.16313031  0.96618816  0.19536555  1
  O  O42  1  0.87434879  0.36084417  0.63810219  1
  O  O43  1  0.47706497  0.12025472  0.63618950  1
  O  O44  1  0.63995435  0.51416823  0.63822462  1
  O  O45  1  0.87421488  0.51416823  0.13822462  1
  O  O46  1  0.64319075  0.12025472  0.13618950  1
  O  O47  1  0.48649638  0.36084417  0.13810219  1
  O  O48  1  0.46972485  0.29952116  0.02869855  1
  O  O49  1  0.82700148  0.52666885  0.02912619  1
  O  O50  1  0.70574031  0.16127701  0.03107500  1
  O  O51  1  0.45553770  0.16127701  0.53107500  1
  O  O52  1  0.69966837  0.52666885  0.52912619  1
  O  O53  1  0.82979731  0.29952116  0.52869855  1
  O  O54  1  0.54101479  0.69417817  0.97143619  1
  O  O55  1  0.14373097  0.45358872  0.96952350  1
  O  O56  1  0.30662035  0.84750223  0.97155862  1
  O  O57  1  0.54088088  0.84750223  0.47155862  1
  O  O58  1  0.30985675  0.45358872  0.46952350  1
  O  O59  1  0.15316238  0.69417817  0.47143619  1
  O  O60  1  0.13639085  0.63285516  0.36203255  1
  O  O61  1  0.49366748  0.86000285  0.36246019  1
  O  O62  1  0.37240631  0.49461101  0.36440900  1
  O  O63  1  0.12220370  0.49461101  0.86440900  1
  O  O64  1  0.36633437  0.86000285  0.86246019  1
  O  O65  1  0.49646331  0.63285516  0.86203255  1
  O  O66  1  0.01034910  0.81152783  0.40594545  1
  O  O67  1  0.79966895  0.99269643  0.40652252  1
  O  O68  1  0.19837315  0.20578220  0.40839301  1
  O  O69  1  0.00740905  0.20578220  0.90839301  1
  O  O70  1  0.19302748  0.99269643  0.90652252  1
  O  O71  1  0.80117872  0.81152783  0.90594545  1
  O  O72  1  0.95964091  0.15811470  0.59217089  1
  O  O73  1  0.19869301  0.03868932  0.59191089  1
  O  O74  1  0.84636994  0.80106812  0.59430610  1
  O  O75  1  0.95469817  0.80106812  0.09430610  1
  O  O76  1  0.83999631  0.03868932  0.09191089  1
  O  O77  1  0.19847379  0.15811470  0.09217089  1
  O  O78  1  0.67701610  0.14486083  0.73927845  1
  O  O79  1  0.46633595  0.32602943  0.73985552  1
  O  O80  1  0.86504015  0.53911520  0.74172601  1
  O  O81  1  0.67407605  0.53911520  0.24172601  1
  O  O82  1  0.85969448  0.32602943  0.23985552  1
  O  O83  1  0.46784572  0.14486083  0.23927845  1
  O  O84  1  0.62630791  0.49144770  0.92550389  1
  O  O85  1  0.86536001  0.37202232  0.92524389  1
  O  O86  1  0.51303694  0.13440112  0.92763910  1
  O  O87  1  0.62136517  0.13440112  0.42763910  1
  O  O88  1  0.50666331  0.37202232  0.42524389  1
  O  O89  1  0.86514079  0.49144770  0.42550389  1
  O  O90  1  0.34368210  0.47819483  0.07261245  1
  O  O91  1  0.13300195  0.65936343  0.07318952  1
  O  O92  1  0.53170615  0.87244920  0.07506001  1
  O  O93  1  0.34074205  0.87244920  0.57506001  1
  O  O94  1  0.52636048  0.65936343  0.57318952  1
  O  O95  1  0.13451172  0.47819483  0.57261245  1
  O  O96  1  0.29297391  0.82478170  0.25883789  1
  O  O97  1  0.53202601  0.70535632  0.25857789  1
  O  O98  1  0.17970294  0.46773512  0.26097310  1
  O  O99  1  0.28803117  0.46773512  0.76097310  1
  O  O100  1  0.17332931  0.70535632  0.75857789  1
  O  O101  1  0.53180679  0.82478170  0.75883789  1
