# generated using pymatgen
data_MgTi2Cd2O6
_symmetry_space_group_name_H-M   'P 1'
_cell_length_a   6.03696716
_cell_length_b   6.03567369
_cell_length_c   6.03045566
_cell_angle_alpha   54.78640895
_cell_angle_beta   54.79474419
_cell_angle_gamma   54.79242092
_symmetry_Int_Tables_number   1
_chemical_formula_structural   MgTi2Cd2O6
_chemical_formula_sum   'Mg1 Ti2 Cd2 O6'
_cell_volume   136.52820711
_cell_formula_units_Z   1
loop_
 _symmetry_equiv_pos_site_id
 _symmetry_equiv_pos_as_xyz
  1  'x, y, z'
loop_
 _atom_site_type_symbol
 _atom_site_label
 _atom_site_symmetry_multiplicity
 _atom_site_fract_x
 _atom_site_fract_y
 _atom_site_fract_z
 _atom_site_occupancy
  Mg  Mg0  1  0.79147376  0.79058120  0.79162856  1
  Ti  Ti1  1  0.97916382  0.97905680  0.97988123  1
  Ti  Ti2  1  0.16794210  0.16531455  0.16659329  1
  Cd  Cd3  1  0.58555303  0.58536457  0.58546040  1
  Cd  Cd4  1  0.40576028  0.40482665  0.40594136  1
  O  O5  1  0.83805733  0.36543124  0.94463209  1
  O  O6  1  0.36499089  0.94516047  0.83969839  1
  O  O7  1  0.94426709  0.83811876  0.36625353  1
  O  O8  1  0.07785253  0.55985119  0.03180450  1
  O  O9  1  0.03299888  0.07529969  0.56112650  1
  O  O10  1  0.56194029  0.03057787  0.07698015  1
