# generated using pymatgen
data_LaZrP(SO6)2
_symmetry_space_group_name_H-M   'P 1'
_cell_length_a   9.35174933
_cell_length_b   9.35890654
_cell_length_c   23.31832845
_cell_angle_alpha   89.97973442
_cell_angle_beta   90.00000000
_cell_angle_gamma   119.97470550
_symmetry_Int_Tables_number   1
_chemical_formula_structural   LaZrP(SO6)2
_chemical_formula_sum   'La6 Zr6 P6 S12 O72'
_cell_volume   1767.89560763
_cell_formula_units_Z   6
loop_
 _symmetry_equiv_pos_site_id
 _symmetry_equiv_pos_as_xyz
  1  'x, y, z'
loop_
 _atom_site_type_symbol
 _atom_site_label
 _atom_site_symmetry_multiplicity
 _atom_site_fract_x
 _atom_site_fract_y
 _atom_site_fract_z
 _atom_site_occupancy
  La  La0  1  0.00320475  0.00209255  0.36574800  1
  La  La1  1  0.99888780  0.00209255  0.86574800  1
  La  La2  1  0.67845905  0.33817524  0.69896515  1
  La  La3  1  0.65971719  0.33817524  0.19896515  1
  La  La4  1  0.32811091  0.65261488  0.03223296  1
  La  La5  1  0.32450297  0.65261488  0.53223296  1
  Zr  Zr6  1  0.99983877  0.00037331  0.64547539  1
  Zr  Zr7  1  0.00053455  0.00037331  0.14547539  1
  Zr  Zr8  1  0.66343238  0.33094586  0.97949223  1
  Zr  Zr9  1  0.66751448  0.33094586  0.47949223  1
  Zr  Zr10  1  0.34588966  0.66255616  0.31191570  1
  Zr  Zr11  1  0.31666550  0.66255616  0.81191570  1
  P  P12  1  0.70993777  0.73929634  0.25006612  1
  P  P13  1  0.02935858  0.73929634  0.75006612  1
  P  P14  1  0.92860641  0.29648819  0.58290145  1
  P  P15  1  0.36788277  0.29648819  0.08290145  1
  P  P16  1  0.03107954  0.39911595  0.91648966  1
  P  P17  1  0.36803541  0.39911595  0.41648966  1
  S  S18  1  0.26689470  0.96156616  0.24961120  1
  S  S19  1  0.03296976  0.30134060  0.24855819  1
  S  S20  1  0.26837083  0.30134060  0.74855819  1
  S  S21  1  0.69467146  0.96156616  0.74961120  1
  S  S22  1  0.36730318  0.06542172  0.58310478  1
  S  S23  1  0.70003049  0.63428410  0.58264711  1
  S  S24  1  0.93425460  0.63428410  0.08264711  1
  S  S25  1  0.69811954  0.06542172  0.08310478  1
  S  S26  1  0.59991968  0.63371565  0.91591976  1
  S  S27  1  0.36667026  0.96577501  0.91669969  1
  S  S28  1  0.59910375  0.96577501  0.41669969  1
  S  S29  1  0.03379498  0.63371565  0.41591976  1
  O  O30  1  0.20152172  -0.00052712  0.30052688  1
  O  O31  1  0.81280524  0.81365991  0.30375709  1
  O  O32  1  0.99945342  0.20194910  0.30024472  1
  O  O33  1  0.20249568  0.20194910  0.80024472  1
  O  O34  1  0.00085466  0.81365991  0.80375709  1
  O  O35  1  0.79795116  -0.00052712  0.80052688  1
  O  O36  1  0.78358855  0.94417052  0.69841050  1
  O  O37  1  0.15821082  0.21542830  0.69785590  1
  O  O38  1  0.05203243  0.85191640  0.69671742  1
  O  O39  1  0.79988397  0.85191640  0.19671742  1
  O  O40  1  0.05721748  0.21542830  0.19785590  1
  O  O41  1  0.16058198  0.94417052  0.19841050  1
  O  O42  1  0.85547729  0.32999301  0.63618166  1
  O  O43  1  0.46589646  0.13424181  0.63489504  1
  O  O44  1  0.66148501  0.53249976  0.63421174  1
  O  O45  1  0.87101575  0.53249976  0.13421174  1
  O  O46  1  0.66834635  0.13424181  0.13489504  1
  O  O47  1  0.47451672  0.32999301  0.13618166  1
  O  O48  1  0.46025244  0.27511813  0.03004003  1
  O  O49  1  0.82638736  0.54715944  0.03179138  1
  O  O50  1  0.72140798  0.17435714  0.03197190  1
  O  O51  1  0.45295016  0.17435714  0.53197190  1
  O  O52  1  0.72077308  0.54715944  0.53179138  1
  O  O53  1  0.81486669  0.27511813  0.53004003  1
  O  O54  1  0.53546358  0.66873521  0.96807783  1
  O  O55  1  0.14182354  0.47393744  0.96872286  1
  O  O56  1  0.33782173  0.86691057  0.96848313  1
  O  O57  1  0.52908784  0.86691057  0.46848313  1
  O  O58  1  0.33211290  0.47393744  0.46872286  1
  O  O59  1  0.13327063  0.66873521  0.46807783  1
  O  O60  1  0.12042931  0.61342361  0.36499096  1
  O  O61  1  0.49334987  0.87994283  0.36505285  1
  O  O62  1  0.39316546  0.51554746  0.36326792  1
  O  O63  1  0.12238099  0.51554746  0.86326792  1
  O  O64  1  0.38659196  0.87994283  0.86505285  1
  O  O65  1  0.49299330  0.61342361  0.86499096  1
  O  O66  1  0.99528000  0.76592103  0.40703419  1
  O  O67  1  0.76864839  0.00136759  0.40781171  1
  O  O68  1  0.22910049  0.22466668  0.40336950  1
  O  O69  1  0.99556619  0.22466668  0.90336950  1
  O  O70  1  0.23271920  0.00136759  0.90781171  1
  O  O71  1  0.77064104  0.76592103  0.90703419  1
  O  O72  1  0.93544487  0.13477800  0.59288422  1
  O  O73  1  0.20512886  0.06088549  0.59046651  1
  O  O74  1  0.85935079  0.79273910  0.59096721  1
  O  O75  1  0.93338831  0.79273910  0.09096721  1
  O  O76  1  0.85575664  0.06088549  0.09046651  1
  O  O77  1  0.19933313  0.13477800  0.09288422  1
  O  O78  1  0.65625698  0.09369198  0.73977163  1
  O  O79  1  0.43666860  0.33556137  0.73741505  1
  O  O80  1  0.88947514  0.56383758  0.73946090  1
  O  O81  1  0.67436344  0.56383758  0.23946090  1
  O  O82  1  0.89889377  0.33556137  0.23741505  1
  O  O83  1  0.43743600  0.09369198  0.23977163  1
  O  O84  1  0.60327953  0.47638999  0.92479696  1
  O  O85  1  0.86425965  0.39531495  0.92734373  1
  O  O86  1  0.52530062  0.12726726  0.92318677  1
  O  O87  1  0.60196764  0.12726726  0.42318677  1
  O  O88  1  0.53105630  0.39531495  0.42734373  1
  O  O89  1  0.87311145  0.47638999  0.42479696  1
  O  O90  1  0.33195440  0.43599841  0.07187467  1
  O  O91  1  0.10502716  0.67500521  0.07233586  1
  O  O92  1  0.56292646  0.89783443  0.07255311  1
  O  O93  1  0.33490697  0.89783443  0.57255311  1
  O  O94  1  0.56997706  0.67500521  0.57233586  1
  O  O95  1  0.10404302  0.43599841  0.57187467  1
  O  O96  1  0.26683520  0.80296357  0.25846405  1
  O  O97  1  0.53818379  0.73108025  0.25838240  1
  O  O98  1  0.19032000  0.46247189  0.25685433  1
  O  O99  1  0.27215089  0.46247189  0.75685433  1
  O  O100  1  0.19289546  0.73108025  0.75838240  1
  O  O101  1  0.53612737  0.80296357  0.75846405  1
