# generated using pymatgen
data_KSn2Cl5
_symmetry_space_group_name_H-M   'P 1'
_cell_length_a   8.03283406
_cell_length_b   8.03283431
_cell_length_c   9.03930761
_cell_angle_alpha   116.38035078
_cell_angle_beta   116.38035329
_cell_angle_gamma   90.00000402
_symmetry_Int_Tables_number   1
_chemical_formula_structural   KSn2Cl5
_chemical_formula_sum   'K2 Sn4 Cl10'
_cell_volume   453.73531381
_cell_formula_units_Z   2
loop_
 _symmetry_equiv_pos_site_id
 _symmetry_equiv_pos_as_xyz
  1  'x, y, z'
loop_
 _atom_site_type_symbol
 _atom_site_label
 _atom_site_symmetry_multiplicity
 _atom_site_fract_x
 _atom_site_fract_y
 _atom_site_fract_z
 _atom_site_occupancy
  K  K0  1  0.25000000  0.25000000  0.50000000  1
  K  K1  1  0.75000000  0.75000000  0.50000000  1
  Sn  Sn2  1  0.32420118  0.17579882  0.00000000  1
  Sn  Sn3  1  0.17579882  0.67579882  -0.00000000  1
  Sn  Sn4  1  0.67579882  0.82420118  -0.00000000  1
  Sn  Sn5  1  0.82420118  0.32420118  0.00000000  1
  Cl  Cl6  1  0.19497104  0.69497104  0.73035218  1
  Cl  Cl7  1  0.46462086  0.96462086  0.26964782  1
  Cl  Cl8  1  0.80502896  0.30502896  0.26964782  1
  Cl  Cl9  1  0.96462086  0.80502896  0.26964782  1
  Cl  Cl10  1  0.30502896  0.46462086  0.26964782  1
  Cl  Cl11  1  0.03537914  0.19497104  0.73035218  1
  Cl  Cl12  1  0.00000000  0.00000000  0.00000000  1
  Cl  Cl13  1  0.50000000  0.50000000  0.00000000  1
  Cl  Cl14  1  0.53537914  0.03537914  0.73035218  1
  Cl  Cl15  1  0.69497104  0.53537914  0.73035218  1
