# generated using pymatgen
data_Na3Zr2In2P5SO24
_symmetry_space_group_name_H-M   'P 1'
_cell_length_a   8.94172935
_cell_length_b   8.92485197
_cell_length_c   23.29776784
_cell_angle_alpha   90.09971981
_cell_angle_beta   89.90840755
_cell_angle_gamma   119.87953963
_symmetry_Int_Tables_number   1
_chemical_formula_structural   Na3Zr2In2P5SO24
_chemical_formula_sum   'Na9 Zr6 In6 P15 S3 O72'
_cell_volume   1612.10215760
_cell_formula_units_Z   3
loop_
 _symmetry_equiv_pos_site_id
 _symmetry_equiv_pos_as_xyz
  1  'x, y, z'
loop_
 _atom_site_type_symbol
 _atom_site_label
 _atom_site_symmetry_multiplicity
 _atom_site_fract_x
 _atom_site_fract_y
 _atom_site_fract_z
 _atom_site_occupancy
  Na  Na0  1  0.00395106  0.36424144  0.75123349  1
  Na  Na1  1  0.66773981  0.96470557  0.58392874  1
  Na  Na2  1  0.03715190  0.33325136  0.08403568  1
  Na  Na3  1  0.00905527  0.99256383  0.50360939  1
  Na  Na4  1  0.00802766  0.99325043  0.00276619  1
  Na  Na5  1  0.65549397  0.32468629  0.83410130  1
  Na  Na6  1  0.68093841  0.33784428  0.33321078  1
  Na  Na7  1  0.34676143  0.67145973  0.16756852  1
  Na  Na8  1  0.33359616  0.66825670  0.66687664  1
  Zr  Zr9  1  0.98567473  0.99300220  0.35161897  1
  Zr  Zr10  1  0.00561193  0.00312751  0.85109909  1
  Zr  Zr11  1  0.66186236  0.33711874  0.68599450  1
  Zr  Zr12  1  0.66898359  0.33715791  0.18636350  1
  Zr  Zr13  1  0.66494880  0.32912248  0.98180834  1
  Zr  Zr14  1  0.67373692  0.33659758  0.48157662  1
  In  In15  1  0.00686553  0.99788598  0.64812808  1
  In  In16  1  0.99401254  0.99433998  0.14812348  1
  In  In17  1  0.33295979  0.67143674  0.01852841  1
  In  In18  1  0.32604101  0.66600288  0.51831252  1
  In  In19  1  0.33065178  0.66523032  0.31630182  1
  In  In20  1  0.33538178  0.67612949  0.81683116  1
  P  P21  1  0.70011517  0.70489840  0.24913773  1
  P  P22  1  0.00376688  0.29684195  0.24779477  1
  P  P23  1  0.29319744  0.29658713  0.74990366  1
  P  P24  1  0.00134365  0.70602648  0.74937573  1
  P  P25  1  0.70527522  0.99664357  0.74736214  1
  P  P26  1  0.96301155  0.33442200  0.58533864  1
  P  P27  1  0.37363129  0.04255908  0.58244749  1
  P  P28  1  0.66484662  0.62827708  0.58252597  1
  P  P29  1  0.95896825  0.62796597  0.08299307  1
  P  P30  1  0.66425469  0.03771070  0.08417285  1
  P  P31  1  0.37307054  0.33355005  0.08380032  1
  P  P32  1  0.03858509  0.37188799  0.91691082  1
  P  P33  1  0.33298983  0.96187389  0.91727218  1
  P  P34  1  0.62350177  0.95896504  0.41804467  1
  P  P35  1  0.04059200  0.66816835  0.41598335  1
  S  S36  1  0.29244155  -0.00035858  0.24984022  1
  S  S37  1  0.62889221  0.66712883  0.91665064  1
  S  S38  1  0.33285120  0.36884610  0.41662009  1
  O  O39  1  0.20669837  0.02049067  0.30128198  1
  O  O40  1  0.81524372  0.79355667  0.30285932  1
  O  O41  1  0.98359928  0.17864555  0.29976269  1
  O  O42  1  0.20574568  0.18208787  0.80337890  1
  O  O43  1  0.97923187  0.79471969  0.80307239  1
  O  O44  1  0.82736667  0.02537288  0.79892996  1
  O  O45  1  0.78164874  0.97479495  0.69087451  1
  O  O46  1  0.17953041  0.21999541  0.69653345  1
  O  O47  1  0.02840616  0.80997523  0.69472490  1
  O  O48  1  0.78165348  0.80997129  0.19477991  1
  O  O49  1  0.02892253  0.22113602  0.19142138  1
  O  O50  1  0.19238975  0.97739098  0.19716757  1
  O  O51  1  0.87434553  0.35266467  0.64044472  1
  O  O52  1  0.48603809  0.13544295  0.63624536  1
  O  O53  1  0.64846726  0.51999622  0.63667919  1
  O  O54  1  0.86623594  0.51414220  0.13665345  1
  O  O55  1  0.64759429  0.13087481  0.13795507  1
  O  O56  1  0.48231888  0.35116707  0.13757458  1
  O  O57  1  0.46399202  0.31609037  0.02990692  1
  O  O58  1  0.85021770  0.53667953  0.02925440  1
  O  O59  1  0.68588443  0.15121794  0.03055151  1
  O  O60  1  0.46739518  0.15063540  0.52885502  1
  O  O61  1  0.68199963  0.53599309  0.52901993  1
  O  O62  1  0.84687511  0.31369407  0.53258499  1
  O  O63  1  0.55327352  0.69606057  0.96877129  1
  O  O64  1  0.14698247  0.44864045  0.97162118  1
  O  O65  1  0.30196906  0.85294769  0.97115739  1
  O  O66  1  0.55274718  0.85459678  0.47379851  1
  O  O67  1  0.30194220  0.44398672  0.46866919  1
  O  O68  1  0.14797986  0.70053070  0.47045063  1
  O  O69  1  0.11473220  0.63068269  0.36229866  1
  O  O70  1  0.51247150  0.87566163  0.36516366  1
  O  O71  1  0.36380228  0.47473754  0.36484068  1
  O  O72  1  0.11816616  0.47783185  0.86204283  1
  O  O73  1  0.37161761  0.89001876  0.86311758  1
  O  O74  1  0.52355987  0.63701377  0.86474216  1
  O  O75  1  0.02069080  0.83073840  0.40774606  1
  O  O76  1  0.80929297  0.98465042  0.40979200  1
  O  O77  1  0.17918130  0.19333941  0.40944978  1
  O  O78  1  0.01218407  0.18636981  0.90970679  1
  O  O79  1  0.17018764  0.98105119  0.90966935  1
  O  O80  1  0.80381571  0.82139632  0.91014968  1
  O  O81  1  0.96623226  0.16309428  0.58716336  1
  O  O82  1  0.19499347  0.02548610  0.58534562  1
  O  O83  1  0.82637413  0.80992471  0.58537890  1
  O  O84  1  0.97830969  0.80783222  0.08666434  1
  O  O85  1  0.83592289  0.03504606  0.08645813  1
  O  O86  1  0.19119405  0.17149519  0.08702319  1
  O  O87  1  0.69824252  0.16904418  0.74472409  1
  O  O88  1  0.47270709  0.31195801  0.74458162  1
  O  O89  1  0.83577214  0.52282848  0.74563067  1
  O  O90  1  0.68560652  0.52352948  0.24528569  1
  O  O91  1  0.83404400  0.30646292  0.24516090  1
  O  O92  1  0.46556647  0.15966959  0.24645637  1
  O  O93  1  0.65043865  0.51270008  0.92243004  1
  O  O94  1  0.85621017  0.35268018  0.92352756  1
  O  O95  1  0.49109482  0.14743222  0.92417073  1
  O  O96  1  0.64673531  0.14318791  0.42372279  1
  O  O97  1  0.48714475  0.34766136  0.42299325  1
  O  O98  1  0.85539219  0.50925815  0.42320834  1
  O  O99  1  0.35287468  0.49589703  0.08007676  1
  O  O100  1  0.13293209  0.63013995  0.08023488  1
  O  O101  1  0.50396731  0.85859456  0.08023624  1
  O  O102  1  0.36997986  0.86737491  0.58037301  1
  O  O103  1  0.50214019  0.64675528  0.57941078  1
  O  O104  1  0.14127395  0.49550376  0.58042991  1
  O  O105  1  0.31544648  0.84710669  0.25454005  1
  O  O106  1  0.52032401  0.68454844  0.25606820  1
  O  O107  1  0.16102673  0.47808806  0.25515641  1
  O  O108  1  0.31002315  0.47568598  0.75799789  1
  O  O109  1  0.15385753  0.67144309  0.75499350  1
  O  O110  1  0.52562842  0.83984142  0.75533173  1
