# generated using pymatgen
data_Na10Sc2Ta6Si11SO48
_symmetry_space_group_name_H-M   'P 1'
_cell_length_a   18.02591680
_cell_length_b   9.03607050
_cell_length_c   22.70500533
_cell_angle_alpha   89.97749023
_cell_angle_beta   90.03761582
_cell_angle_gamma   120.01241312
_symmetry_Int_Tables_number   1
_chemical_formula_structural   Na10Sc2Ta6Si11SO48
_chemical_formula_sum   'Na30 Sc6 Ta18 Si33 S3 O144'
_cell_volume   3202.39413406
_cell_formula_units_Z   3
loop_
 _symmetry_equiv_pos_site_id
 _symmetry_equiv_pos_as_xyz
  1  'x, y, z'
loop_
 _atom_site_type_symbol
 _atom_site_label
 _atom_site_symmetry_multiplicity
 _atom_site_fract_x
 _atom_site_fract_y
 _atom_site_fract_z
 _atom_site_occupancy
  Na  Na0  1  0.31725061  0.99177770  0.25190222  1
  Na  Na1  1  0.81838813  0.99227383  0.25199718  1
  Na  Na2  1  0.81906219  0.64079323  0.74821922  1
  Na  Na3  1  0.18247865  0.98757124  0.75004409  1
  Na  Na4  1  0.68102672  0.00099798  0.74926516  1
  Na  Na5  1  0.01792029  0.70815869  0.58485729  1
  Na  Na6  1  0.83594281  0.96507104  0.58495127  1
  Na  Na7  1  0.64750707  0.96939861  0.08412010  1
  Na  Na8  1  0.33573444  0.70634510  0.08562336  1
  Na  Na9  1  0.83762090  0.70774020  0.08701029  1
  Na  Na10  1  0.01806905  0.32649348  0.08589476  1
  Na  Na11  1  0.51500102  0.32384720  0.08625991  1
  Na  Na12  1  0.98717986  0.66262507  0.91476921  1
  Na  Na13  1  0.34721304  0.02875850  0.91474391  1
  Na  Na14  1  0.48586139  0.31162652  0.41568318  1
  Na  Na15  1  0.98720179  0.31264691  0.41546697  1
  Na  Na16  1  0.34508240  0.66216234  0.41605487  1
  Na  Na17  1  0.84580690  0.66327371  0.41568288  1
  Na  Na18  1  0.00842922  0.00888166  0.50458979  1
  Na  Na19  1  0.50392732  0.99976793  0.50367289  1
  Na  Na20  1  0.00599279  0.00879219  0.00413631  1
  Na  Na21  1  0.50192644  0.99861754  0.00024981  1
  Na  Na22  1  0.33658225  0.34720586  0.83366237  1
  Na  Na23  1  0.83560542  0.32807508  0.83367421  1
  Na  Na24  1  0.33179979  0.33646779  0.33352731  1
  Na  Na25  1  0.83233367  0.33712166  0.33337108  1
  Na  Na26  1  0.16351831  0.65766949  0.17160914  1
  Na  Na27  1  0.66420654  0.65122471  0.17375731  1
  Na  Na28  1  0.17062708  0.66707393  0.66967501  1
  Na  Na29  1  0.65993614  0.65422662  0.66446634  1
  Sc  Sc30  1  0.99967662  0.99625846  0.64510143  1
  Sc  Sc31  1  0.00012165  0.00251857  0.14625716  1
  Sc  Sc32  1  0.49538105  0.00338401  0.14718582  1
  Sc  Sc33  1  0.16435058  0.65264584  0.31565540  1
  Sc  Sc34  1  0.66480421  0.65319401  0.31568310  1
  Sc  Sc35  1  0.16836248  0.66940274  0.81564687  1
  Ta  Ta36  1  0.99564331  0.99640966  0.35490427  1
  Ta  Ta37  1  0.49493486  0.99640138  0.35472824  1
  Ta  Ta38  1  0.99443930  0.99696348  0.85632275  1
  Ta  Ta39  1  0.49969186  0.99661461  0.85420888  1
  Ta  Ta40  1  0.49833290  0.99974646  0.64511422  1
  Ta  Ta41  1  0.33943004  0.33579140  0.68481223  1
  Ta  Ta42  1  0.83600374  0.33652925  0.68709001  1
  Ta  Ta43  1  0.33785910  0.34354243  0.18632707  1
  Ta  Ta44  1  0.83966240  0.34718694  0.18666680  1
  Ta  Ta45  1  0.33212292  0.33769565  0.97885298  1
  Ta  Ta46  1  0.83155004  0.32695657  0.97793373  1
  Ta  Ta47  1  0.33199234  0.33147699  0.48168665  1
  Ta  Ta48  1  0.83092105  0.32828934  0.48086635  1
  Ta  Ta49  1  0.16686304  0.66856459  0.01950946  1
  Ta  Ta50  1  0.66677984  0.66679103  0.01894321  1
  Ta  Ta51  1  0.16945033  0.66816327  0.52152355  1
  Ta  Ta52  1  0.66280912  0.66219138  0.52072777  1
  Ta  Ta53  1  0.66269294  0.66292926  0.81283077  1
  Si  Si54  1  0.35215571  0.70462224  0.24857265  1
  Si  Si55  1  0.85304615  0.70750707  0.24818354  1
  Si  Si56  1  0.00220530  0.29559820  0.24810226  1
  Si  Si57  1  0.50184254  0.29734682  0.24847267  1
  Si  Si58  1  0.64209237  0.28800032  0.74953746  1
  Si  Si59  1  0.00189967  0.70880725  0.74941924  1
  Si  Si60  1  0.49648273  0.70934275  0.74947694  1
  Si  Si61  1  0.35474031  0.99886884  0.74989477  1
  Si  Si62  1  0.85534283  0.00263702  0.74881083  1
  Si  Si63  1  0.47946369  0.33186897  0.58198519  1
  Si  Si64  1  0.98046314  0.33470862  0.58268787  1
  Si  Si65  1  0.18893741  0.04360828  0.58424630  1
  Si  Si66  1  0.68679703  0.04299893  0.58445865  1
  Si  Si67  1  0.33338984  0.62160108  0.58406733  1
  Si  Si68  1  0.83046598  0.61968251  0.58295301  1
  Si  Si69  1  0.47945713  0.62441156  0.08224636  1
  Si  Si70  1  0.97994810  0.62607661  0.08063058  1
  Si  Si71  1  0.33010037  0.04438123  0.08288182  1
  Si  Si72  1  0.83207030  0.04458022  0.08418645  1
  Si  Si73  1  0.18813119  0.33035046  0.08311889  1
  Si  Si74  1  0.68967752  0.33387366  0.08305102  1
  Si  Si75  1  0.31143480  0.66439187  0.91576250  1
  Si  Si76  1  0.80916490  0.66321213  0.91591467  1
  Si  Si77  1  0.02326761  0.37684198  0.91627707  1
  Si  Si78  1  0.52129994  0.37499102  0.91694358  1
  Si  Si79  1  0.16697036  0.96030831  0.91554234  1
  Si  Si80  1  0.66572940  0.95551601  0.91604624  1
  Si  Si81  1  0.30781449  0.95843743  0.41468819  1
  Si  Si82  1  0.80754030  0.95567081  0.41549172  1
  Si  Si83  1  0.16700970  0.37430645  0.41723247  1
  Si  Si84  1  0.66669627  0.37377732  0.41684213  1
  Si  Si85  1  0.02345310  0.66955672  0.41743672  1
  Si  Si86  1  0.52262806  0.66964325  0.41608244  1
  S  S87  1  0.14436019  0.00177178  0.24986755  1
  S  S88  1  0.64499562  0.00183963  0.24945752  1
  S  S89  1  0.14408646  0.28742015  0.74995189  1
  O  O90  1  0.10301973  0.02721536  0.30358781  1
  O  O91  1  0.60225262  0.02638485  0.30227155  1
  O  O92  1  0.41565316  0.80214133  0.30762141  1
  O  O93  1  0.91570955  0.80223650  0.30763796  1
  O  O94  1  0.48568778  0.16591715  0.30653059  1
  O  O95  1  0.98523259  0.16546625  0.30671489  1
  O  O96  1  0.10274380  0.17557295  0.80340480  1
  O  O97  1  0.59827009  0.16295488  0.80669031  1
  O  O98  1  0.48558777  0.80469524  0.80759109  1
  O  O99  1  0.98459879  0.80478706  0.80744476  1
  O  O100  1  0.41584912  0.03030196  0.80863323  1
  O  O101  1  0.91696139  0.02888747  0.80650321  1
  O  O102  1  0.40680325  0.98012581  0.69368473  1
  O  O103  1  0.89192431  0.95907136  0.69115322  1
  O  O104  1  0.09288915  0.20874582  0.69710078  1
  O  O105  1  0.58354106  0.19552740  0.69221800  1
  O  O106  1  0.01537196  0.82532823  0.69200128  1
  O  O107  1  0.51769448  0.83765226  0.69348404  1
  O  O108  1  0.39772297  0.81948951  0.19087281  1
  O  O109  1  0.89784084  0.82152109  0.19056613  1
  O  O110  1  0.01125908  0.20474176  0.18989445  1
  O  O111  1  0.51250421  0.20821505  0.18993914  1
  O  O112  1  0.09393516  0.97861008  0.19714884  1
  O  O113  1  0.59554529  0.97982332  0.19514926  1
  O  O114  1  0.43246936  0.36264052  0.63938021  1
  O  O115  1  0.93057909  0.36680815  0.63914781  1
  O  O116  1  0.24907408  0.13701714  0.64279579  1
  O  O117  1  0.74969124  0.13318450  0.64226832  1
  O  O118  1  0.31955851  0.49647625  0.64050906  1
  O  O119  1  0.81765576  0.50022546  0.64160976  1
  O  O120  1  0.43411517  0.49646542  0.13988107  1
  O  O121  1  0.93270333  0.49511292  0.13850406  1
  O  O122  1  0.31765113  0.13650575  0.14202055  1
  O  O123  1  0.81293845  0.13163261  0.14203438  1
  O  O124  1  0.25371083  0.36701997  0.13968622  1
  O  O125  1  0.75368293  0.36862839  0.13978380  1
  O  O126  1  0.23888243  0.31114794  0.02654953  1
  O  O127  1  0.73802728  0.30786760  0.02632744  1
  O  O128  1  0.41667772  0.52638421  0.02716002  1
  O  O129  1  0.91699449  0.52730342  0.02433661  1
  O  O130  1  0.34737162  0.16786179  0.02565188  1
  O  O131  1  0.84505875  0.16915454  0.02798054  1
  O  O132  1  0.23995214  0.16738625  0.52796901  1
  O  O133  1  0.73642673  0.16491705  0.52764039  1
  O  O134  1  0.34749518  0.53246544  0.52526177  1
  O  O135  1  0.84555488  0.52564447  0.52614426  1
  O  O136  1  0.42090634  0.30757414  0.52415382  1
  O  O137  1  0.91850220  0.30820227  0.52548758  1
  O  O138  1  0.26725527  0.70012577  0.97505736  1
  O  O139  1  0.76570833  0.69502656  0.97466991  1
  O  O140  1  0.08138482  0.46560789  0.97639944  1
  O  O141  1  0.58200477  0.46969385  0.97516177  1
  O  O142  1  0.14887048  0.82907768  0.97232159  1
  O  O143  1  0.65313597  0.83591359  0.97475223  1
  O  O144  1  0.26533818  0.82920139  0.47163633  1
  O  O145  1  0.76689870  0.83211250  0.47407478  1
  O  O146  1  0.14810326  0.46621988  0.47397563  1
  O  O147  1  0.64834570  0.46646249  0.47376865  1
  O  O148  1  0.08163162  0.69690635  0.47683395  1
  O  O149  1  0.58319895  0.69743556  0.47452079  1
  O  O150  1  0.06068197  0.62135153  0.36168769  1
  O  O151  1  0.56081179  0.62199985  0.36090143  1
  O  O152  1  0.25702112  0.88392454  0.35477208  1
  O  O153  1  0.75638884  0.88217816  0.35564666  1
  O  O154  1  0.19097988  0.49709206  0.36120103  1
  O  O155  1  0.69096855  0.49703656  0.36110746  1
  O  O156  1  0.06087306  0.50153095  0.86104123  1
  O  O157  1  0.57024394  0.50076109  0.86084615  1
  O  O158  1  0.18849544  0.88684652  0.85778678  1
  O  O159  1  0.67992943  0.86294048  0.85847654  1
  O  O160  1  0.25346696  0.63129429  0.85931601  1
  O  O161  1  0.75124788  0.63988285  0.85787088  1
  O  O162  1  0.00889823  0.83595731  0.40927086  1
  O  O163  1  0.50927226  0.83734480  0.40915873  1
  O  O164  1  0.40633828  0.97626234  0.40961045  1
  O  O165  1  0.90629754  0.97594203  0.40968867  1
  O  O166  1  0.07980729  0.18592642  0.40817247  1
  O  O167  1  0.57946867  0.18581209  0.40826549  1
  O  O168  1  0.01245488  0.18562141  0.90850341  1
  O  O169  1  0.51026538  0.18536730  0.90966191  1
  O  O170  1  0.07923783  0.97292352  0.90847647  1
  O  O171  1  0.58106728  0.97443189  0.90935332  1
  O  O172  1  0.40589051  0.84267531  0.91091786  1
  O  O173  1  0.90594072  0.83292791  0.90917416  1
  O  O174  1  0.48798832  0.16258141  0.59014011  1
  O  O175  1  0.98360480  0.16159520  0.58776103  1
  O  O176  1  0.09385654  0.01654232  0.58685437  1
  O  O177  1  0.59320023  0.02387658  0.59057513  1
  O  O178  1  0.41797117  0.81042060  0.59195938  1
  O  O179  1  0.91599725  0.80591522  0.58603604  1
  O  O180  1  0.49138942  0.81202878  0.08762500  1
  O  O181  1  0.98425651  0.80579625  0.08680563  1
  O  O182  1  0.41499204  0.02412608  0.08589624  1
  O  O183  1  0.91524498  0.02326522  0.08571102  1
  O  O184  1  0.09323944  0.17064703  0.08630039  1
  O  O185  1  0.59647372  0.16566930  0.08680039  1
  O  O186  1  0.34384656  0.17203955  0.74267720  1
  O  O187  1  0.84054105  0.16802462  0.74432512  1
  O  O188  1  0.23040937  0.29729312  0.74579409  1
  O  O189  1  0.73814637  0.30774663  0.74261372  1
  O  O190  1  0.41263587  0.51920080  0.74268652  1
  O  O191  1  0.91006268  0.52214274  0.74420159  1
  O  O192  1  0.34487268  0.51445207  0.24362514  1
  O  O193  1  0.84496016  0.51561801  0.24339476  1
  O  O194  1  0.40752068  0.29319021  0.24430814  1
  O  O195  1  0.90760438  0.29325434  0.24348723  1
  O  O196  1  0.23257249  0.16009435  0.24561684  1
  O  O197  1  0.73281435  0.16029649  0.24559084  1
  O  O198  1  0.32539835  0.50088051  0.92610726  1
  O  O199  1  0.82522861  0.50150838  0.92300377  1
  O  O200  1  0.42576412  0.35026905  0.92368366  1
  O  O201  1  0.92753769  0.35679657  0.92716344  1
  O  O202  1  0.25242186  0.14643615  0.92668935  1
  O  O203  1  0.75129093  0.14354914  0.92397801  1
  O  O204  1  0.32962248  0.15575214  0.42536504  1
  O  O205  1  0.82896442  0.15350167  0.42560149  1
  O  O206  1  0.25228299  0.35575561  0.42715116  1
  O  O207  1  0.75186569  0.35553578  0.42700432  1
  O  O208  1  0.42566697  0.50289103  0.42640008  1
  O  O209  1  0.92525210  0.50196011  0.42704283  1
  O  O210  1  0.18365897  0.50888687  0.07589644  1
  O  O211  1  0.68242460  0.50842382  0.07588269  1
  O  O212  1  0.07123714  0.62852204  0.07609678  1
  O  O213  1  0.57326505  0.63526904  0.07630199  1
  O  O214  1  0.24652538  0.85158295  0.07584133  1
  O  O215  1  0.74483924  0.85482041  0.07600487  1
  O  O216  1  0.18051332  0.85421415  0.57566613  1
  O  O217  1  0.68383126  0.85894440  0.57597194  1
  O  O218  1  0.24787880  0.63922819  0.57525343  1
  O  O219  1  0.74666454  0.64385358  0.57646378  1
  O  O220  1  0.07171419  0.51295010  0.57681175  1
  O  O221  1  0.57310511  0.50556424  0.57629974  1
  O  O222  1  0.15756906  0.85346046  0.25630806  1
  O  O223  1  0.65744678  0.85357092  0.25558859  1
  O  O224  1  0.26204199  0.69976814  0.25462710  1
  O  O225  1  0.76211469  0.69978776  0.25451825  1
  O  O226  1  0.08136418  0.48522063  0.25411208  1
  O  O227  1  0.58179472  0.48586467  0.25408039  1
  O  O228  1  0.15546227  0.46002752  0.75677986  1
  O  O229  1  0.65785043  0.48302305  0.75731056  1
  O  O230  1  0.08538733  0.69017313  0.75529749  1
  O  O231  1  0.58466038  0.69588861  0.75796367  1
  O  O232  1  0.25967051  0.83603427  0.75218692  1
  O  O233  1  0.75899571  0.83255671  0.75984748  1
