# generated using pymatgen
data_Na14Zr3Zn5(PO4)12
_symmetry_space_group_name_H-M   'P 1'
_cell_length_a   18.22529762
_cell_length_b   9.10339917
_cell_length_c   22.29631161
_cell_angle_alpha   90.09763528
_cell_angle_beta   89.90722526
_cell_angle_gamma   120.22509961
_symmetry_Int_Tables_number   1
_chemical_formula_structural   Na14Zr3Zn5(PO4)12
_chemical_formula_sum   'Na42 Zr9 Zn15 P36 O144'
_cell_volume   3196.32924101
_cell_formula_units_Z   3
loop_
 _symmetry_equiv_pos_site_id
 _symmetry_equiv_pos_as_xyz
  1  'x, y, z'
loop_
 _atom_site_type_symbol
 _atom_site_label
 _atom_site_symmetry_multiplicity
 _atom_site_fract_x
 _atom_site_fract_y
 _atom_site_fract_z
 _atom_site_occupancy
  Na  Na0  1  0.18629934  0.35933696  0.24648718  1
  Na  Na1  1  0.68690096  0.36062428  0.24693291  1
  Na  Na2  1  0.99179879  0.62542487  0.24742142  1
  Na  Na3  1  0.49182159  0.62457998  0.24639440  1
  Na  Na4  1  0.31976631  0.62558389  0.74642678  1
  Na  Na5  1  0.82044702  0.62790425  0.74661380  1
  Na  Na6  1  0.18711348  0.01719077  0.74646381  1
  Na  Na7  1  0.68765069  0.01590090  0.74596909  1
  Na  Na8  1  0.15588820  0.34821367  0.57764247  1
  Na  Na9  1  0.65623166  0.34888596  0.57749613  1
  Na  Na10  1  0.01751811  0.68696361  0.57800350  1
  Na  Na11  1  0.51752082  0.68645714  0.57785294  1
  Na  Na12  1  0.32541747  0.96408042  0.57748176  1
  Na  Na13  1  0.82571269  0.96386969  0.57783825  1
  Na  Na14  1  0.15660460  0.96717930  0.07820916  1
  Na  Na15  1  0.65354387  0.95948996  0.08063139  1
  Na  Na16  1  0.32551848  0.68630104  0.07799861  1
  Na  Na17  1  0.02121895  0.34955645  0.08032256  1
  Na  Na18  1  0.51754267  0.34964421  0.07734751  1
  Na  Na19  1  0.47944134  0.66473237  0.91874064  1
  Na  Na20  1  0.98845724  0.68452109  0.91335596  1
  Na  Na21  1  0.35243438  0.03893320  0.91834384  1
  Na  Na22  1  0.16769297  0.29174486  0.91874255  1
  Na  Na23  1  0.65964605  0.29731194  0.91394161  1
  Na  Na24  1  0.48082198  0.29527661  0.41823816  1
  Na  Na25  1  0.98083041  0.29501902  0.41813656  1
  Na  Na26  1  0.16662491  0.03924694  0.41851474  1
  Na  Na27  1  0.66679314  0.03921267  0.41861754  1
  Na  Na28  1  0.35267312  0.66561217  0.41871957  1
  Na  Na29  1  0.85288584  0.66596035  0.41852190  1
  Na  Na30  1  0.00002034  0.00015375  0.49210416  1
  Na  Na31  1  0.49999854  0.00017616  0.49194494  1
  Na  Na32  1  0.98929959  0.99197945  0.99180724  1
  Na  Na33  1  0.49857069  0.99867380  0.99256562  1
  Na  Na34  1  0.33939157  0.33384420  0.83162006  1
  Na  Na35  1  0.84097259  0.32510065  0.82524414  1
  Na  Na36  1  0.33278195  0.32049366  0.33167182  1
  Na  Na37  1  0.83320733  0.32104843  0.33192127  1
  Na  Na38  1  0.17226677  0.67802067  0.16116713  1
  Na  Na39  1  0.67767463  0.67789926  0.15867002  1
  Na  Na40  1  0.16087542  0.65635406  0.66033162  1
  Na  Na41  1  0.66140540  0.65713953  0.66046388  1
  Zr  Zr42  1  0.99982195  0.00278930  0.65013518  1
  Zr  Zr43  1  0.49985965  0.00246947  0.64992461  1
  Zr  Zr44  1  0.99560655  0.99425075  0.14859162  1
  Zr  Zr45  1  0.49905022  0.00057243  0.14982402  1
  Zr  Zr46  1  0.83337015  0.33069560  0.98158269  1
  Zr  Zr47  1  0.16885974  0.67227792  0.31549366  1
  Zr  Zr48  1  0.66896168  0.67260900  0.31559615  1
  Zr  Zr49  1  0.16427429  0.66268784  0.81535373  1
  Zr  Zr50  1  0.66499049  0.66395803  0.81601069  1
  Zn  Zn51  1  0.99931731  0.00182740  0.34573212  1
  Zn  Zn52  1  0.49943459  0.00186474  0.34612913  1
  Zn  Zn53  1  0.99558864  0.00316844  0.84789477  1
  Zn  Zn54  1  0.49828269  0.00022022  0.84581344  1
  Zn  Zn55  1  0.33776431  0.33412175  0.67937702  1
  Zn  Zn56  1  0.83825628  0.33437554  0.67891957  1
  Zn  Zn57  1  0.33248071  0.32395724  0.17950757  1
  Zn  Zn58  1  0.83279162  0.32535868  0.18140412  1
  Zn  Zn59  1  0.33290712  0.33191808  0.98834200  1
  Zn  Zn60  1  0.33390938  0.33350370  0.48759553  1
  Zn  Zn61  1  0.83409115  0.33379598  0.48759692  1
  Zn  Zn62  1  0.16786476  0.66852502  0.01185753  1
  Zn  Zn63  1  0.67186324  0.66852087  0.01376870  1
  Zn  Zn64  1  0.16612425  0.66620769  0.51122268  1
  Zn  Zn65  1  0.66626514  0.66621488  0.51119859  1
  P  P66  1  0.14839828  0.00357227  0.25135506  1
  P  P67  1  0.64924079  0.00404957  0.25201454  1
  P  P68  1  0.35189521  0.69998298  0.25208478  1
  P  P69  1  0.85179556  0.69969497  0.25325943  1
  P  P70  1  0.99793947  0.29598060  0.25236661  1
  P  P71  1  0.49817883  0.29719292  0.25289006  1
  P  P72  1  0.14979883  0.29559101  0.75255622  1
  P  P73  1  0.65010165  0.29672038  0.75234228  1
  P  P74  1  0.99823559  0.70208306  0.75229870  1
  P  P75  1  0.49821683  0.70163198  0.75217552  1
  P  P76  1  0.35142994  0.00412122  0.75290200  1
  P  P77  1  0.85196581  0.00370076  0.75186114  1
  P  P78  1  0.48136502  0.33539933  0.58204080  1
  P  P79  1  0.98156228  0.33532720  0.58180627  1
  P  P80  1  0.18573677  0.03716870  0.58392077  1
  P  P81  1  0.68576316  0.03723254  0.58380178  1
  P  P82  1  0.33237444  0.62756490  0.58402898  1
  P  P83  1  0.83248189  0.62767153  0.58399458  1
  P  P84  1  0.48134474  0.62807866  0.08385986  1
  P  P85  1  0.98260927  0.62875600  0.08512572  1
  P  P86  1  0.33244515  0.03719719  0.08200933  1
  P  P87  1  0.83096858  0.03623053  0.08510625  1
  P  P88  1  0.18555565  0.33432640  0.08411907  1
  P  P89  1  0.68599802  0.33816786  0.08618889  1
  P  P90  1  0.31620295  0.66755743  0.91820227  1
  P  P91  1  0.81599959  0.67018080  0.91789571  1
  P  P92  1  0.01955262  0.36759327  0.92001179  1
  P  P93  1  0.51723029  0.36757371  0.92044360  1
  P  P94  1  0.16652275  0.96543241  0.91855969  1
  P  P95  1  0.66425860  0.96096684  0.91864392  1
  P  P96  1  0.31680365  0.96569602  0.42022347  1
  P  P97  1  0.81683204  0.96590599  0.42026800  1
  P  P98  1  0.16626113  0.36777346  0.41823948  1
  P  P99  1  0.66626329  0.36767749  0.41823147  1
  P  P100  1  0.01747423  0.66790605  0.41834908  1
  P  P101  1  0.51749644  0.66786274  0.41830475  1
  O  O102  1  0.10715773  0.02706106  0.30779176  1
  O  O103  1  0.60728873  0.02733937  0.30805118  1
  O  O104  1  0.40604375  0.78470083  0.30760838  1
  O  O105  1  0.90485738  0.78059373  0.30968068  1
  O  O106  1  0.48919185  0.19463701  0.30907688  1
  O  O107  1  0.98913074  0.19463772  0.30906991  1
  O  O108  1  0.10713847  0.18623234  0.80766606  1
  O  O109  1  0.60782561  0.18861186  0.80801063  1
  O  O110  1  0.48666911  0.78501200  0.80838227  1
  O  O111  1  0.98723894  0.78549312  0.80852228  1
  O  O112  1  0.40243139  0.02177811  0.80917096  1
  O  O113  1  0.90605179  0.02387341  0.80549998  1
  O  O114  1  0.39492210  0.97522938  0.69649725  1
  O  O115  1  0.89250691  0.97364716  0.69380475  1
  O  O116  1  0.09436800  0.20990116  0.69524522  1
  O  O117  1  0.59447188  0.20973953  0.69542859  1
  O  O118  1  0.01262487  0.81763178  0.69567916  1
  O  O119  1  0.51307652  0.81820509  0.69574890  1
  O  O120  1  0.39532027  0.81176843  0.19509099  1
  O  O121  1  0.89734033  0.81669595  0.19808597  1
  O  O122  1  0.01175644  0.20802743  0.19602322  1
  O  O123  1  0.51239496  0.20978905  0.19627816  1
  O  O124  1  0.09006229  0.97344232  0.19500387  1
  O  O125  1  0.59121166  0.97450984  0.19537711  1
  O  O126  1  0.43958241  0.36633827  0.63624344  1
  O  O127  1  0.93985904  0.36661068  0.63618693  1
  O  O128  1  0.23932460  0.11820755  0.64060175  1
  O  O129  1  0.73924657  0.11851156  0.64062963  1
  O  O130  1  0.31892874  0.52014725  0.64063406  1
  O  O131  1  0.81876017  0.51969850  0.64064987  1
  O  O132  1  0.44029531  0.52090571  0.14039774  1
  O  O133  1  0.94063231  0.52148885  0.14096198  1
  O  O134  1  0.31717350  0.12081816  0.13617250  1
  O  O135  1  0.81702006  0.11882745  0.13989825  1
  O  O136  1  0.24006106  0.36328840  0.14034250  1
  O  O137  1  0.73680316  0.35549927  0.14262806  1
  O  O138  1  0.22220348  0.29739857  0.02716170  1
  O  O139  1  0.72901879  0.30801562  0.02962880  1
  O  O140  1  0.42610156  0.55471722  0.02692875  1
  O  O141  1  0.92728255  0.54141206  0.02802293  1
  O  O142  1  0.35261271  0.14467253  0.02426550  1
  O  O143  1  0.84741716  0.15498719  0.02915042  1
  O  O144  1  0.22262767  0.14749220  0.52718176  1
  O  O145  1  0.72256792  0.14741362  0.52713976  1
  O  O146  1  0.35139111  0.55498437  0.52724938  1
  O  O147  1  0.85110211  0.55449631  0.52726434  1
  O  O148  1  0.42768285  0.29505109  0.52442723  1
  O  O149  1  0.92770545  0.29517163  0.52436734  1
  O  O150  1  0.27546317  0.69559070  0.97439468  1
  O  O151  1  0.77191786  0.68959469  0.97192273  1
  O  O152  1  0.07091327  0.44761924  0.97735948  1
  O  O153  1  0.57149111  0.44699875  0.97674925  1
  O  O154  1  0.15187083  0.85377153  0.97428549  1
  O  O155  1  0.65249785  0.85439609  0.97447809  1
  O  O156  1  0.27714687  0.85734963  0.47697717  1
  O  O157  1  0.77706584  0.85740959  0.47701533  1
  O  O158  1  0.15258200  0.44970906  0.47456771  1
  O  O159  1  0.65242615  0.44947533  0.47460242  1
  O  O160  1  0.07264345  0.69624629  0.47440563  1
  O  O161  1  0.57266054  0.69636341  0.47438388  1
  O  O162  1  0.06450501  0.64621521  0.36200032  1
  O  O163  1  0.56449113  0.64620994  0.36205337  1
  O  O164  1  0.25641318  0.86721284  0.36568648  1
  O  O165  1  0.75647635  0.86747571  0.36574087  1
  O  O166  1  0.17720625  0.48411719  0.36219857  1
  O  O167  1  0.67713022  0.48385035  0.36223773  1
  O  O168  1  0.06433258  0.48882547  0.86519368  1
  O  O169  1  0.56734180  0.48861420  0.86581248  1
  O  O170  1  0.17680414  0.87018762  0.86221375  1
  O  O171  1  0.67710606  0.87549229  0.86144261  1
  O  O172  1  0.25780669  0.64558440  0.86227444  1
  O  O173  1  0.76016538  0.63952584  0.85997821  1
  O  O174  1  0.00902130  0.82805063  0.41270290  1
  O  O175  1  0.50890608  0.82790295  0.41257396  1
  O  O176  1  0.40512762  0.98262606  0.41325187  1
  O  O177  1  0.90517026  0.98293299  0.41330773  1
  O  O178  1  0.08607029  0.18971740  0.41265005  1
  O  O179  1  0.58597477  0.18954049  0.41274003  1
  O  O180  1  0.01276788  0.19487902  0.91206552  1
  O  O181  1  0.50857011  0.19035054  0.91278052  1
  O  O182  1  0.08709178  0.98372028  0.91267514  1
  O  O183  1  0.58573141  0.98238917  0.91294374  1
  O  O184  1  0.40525020  0.82803018  0.91258325  1
  O  O185  1  0.90733111  0.81786089  0.91244369  1
  O  O186  1  0.49032537  0.17108689  0.59017257  1
  O  O187  1  0.99055434  0.17124858  0.58990220  1
  O  O188  1  0.09419098  0.01829568  0.58994470  1
  O  O189  1  0.59419063  0.01836980  0.58994322  1
  O  O190  1  0.41475077  0.81140909  0.59022107  1
  O  O191  1  0.91493545  0.81109102  0.59008160  1
  O  O192  1  0.49058100  0.81140910  0.08973448  1
  O  O193  1  0.99321363  0.81100286  0.08759719  1
  O  O194  1  0.41451777  0.01910333  0.08982437  1
  O  O195  1  0.91570316  0.03044513  0.08857492  1
  O  O196  1  0.09405941  0.16994710  0.09068180  1
  O  O197  1  0.59592237  0.16658693  0.08808953  1
  O  O198  1  0.33537886  0.15242804  0.74629297  1
  O  O199  1  0.83502164  0.15181910  0.74581371  1
  O  O200  1  0.23890751  0.31749230  0.74631411  1
  O  O201  1  0.73910660  0.31745841  0.74658453  1
  O  O202  1  0.41839875  0.52769129  0.74474678  1
  O  O203  1  0.91825634  0.52736907  0.74480304  1
  O  O204  1  0.34125147  0.52189943  0.24614527  1
  O  O205  1  0.84147211  0.52221815  0.24616389  1
  O  O206  1  0.42379827  0.32855131  0.24623115  1
  O  O207  1  0.92407992  0.32893818  0.24624588  1
  O  O208  1  0.23564329  0.16304649  0.24418003  1
  O  O209  1  0.73618375  0.16342266  0.24515859  1
  O  O210  1  0.32157478  0.50326781  0.91872369  1
  O  O211  1  0.82051766  0.49978071  0.92160569  1
  O  O212  1  0.42980461  0.35631668  0.91966310  1
  O  O213  1  0.93182469  0.36197057  0.92189187  1
  O  O214  1  0.24930473  0.14023375  0.91921268  1
  O  O215  1  0.74506104  0.14396792  0.92129293  1
  O  O216  1  0.32200389  0.14040526  0.42009795  1
  O  O217  1  0.82194967  0.14049440  0.42015776  1
  O  O218  1  0.24830202  0.35699249  0.41896233  1
  O  O219  1  0.74822886  0.35680919  0.41897356  1
  O  O220  1  0.42988146  0.50288426  0.41910560  1
  O  O221  1  0.92990651  0.50293788  0.41913800  1
  O  O222  1  0.17348188  0.49081768  0.07936796  1
  O  O223  1  0.66887434  0.48508359  0.07994205  1
  O  O224  1  0.07212793  0.65057626  0.07965678  1
  O  O225  1  0.57159016  0.65345971  0.07931432  1
  O  O226  1  0.25425813  0.85514805  0.07833186  1
  O  O227  1  0.75197822  0.86148325  0.07755196  1
  O  O228  1  0.17314415  0.85594652  0.57943097  1
  O  O229  1  0.67312334  0.85599208  0.57946223  1
  O  O230  1  0.25436762  0.65190716  0.57957226  1
  O  O231  1  0.75434136  0.65176301  0.57960646  1
  O  O232  1  0.07252450  0.49156141  0.57827892  1
  O  O233  1  0.57243751  0.49139304  0.57839504  1
  O  O234  1  0.15130099  0.83393152  0.25420447  1
  O  O235  1  0.65169368  0.83434663  0.25455691  1
  O  O236  1  0.26131617  0.68025667  0.25450557  1
  O  O237  1  0.76125956  0.67956472  0.25495150  1
  O  O238  1  0.08346731  0.47545081  0.25425511  1
  O  O239  1  0.58343630  0.47582228  0.25472508  1
  O  O240  1  0.15987255  0.47731268  0.75487024  1
  O  O241  1  0.65994152  0.47803589  0.75470526  1
  O  O242  1  0.08282827  0.69594323  0.75447408  1
  O  O243  1  0.58312942  0.69653412  0.75488762  1
  O  O244  1  0.26199049  0.83309952  0.75472286  1
  O  O245  1  0.76209160  0.83333003  0.75506361  1
