# generated using pymatgen
data_NaNbGa3P3(SO8)3
_symmetry_space_group_name_H-M   'P 1'
_cell_length_a   8.58458474
_cell_length_b   8.55736963
_cell_length_c   22.32788516
_cell_angle_alpha   90.59870147
_cell_angle_beta   89.94184502
_cell_angle_gamma   120.15737907
_symmetry_Int_Tables_number   1
_chemical_formula_structural   NaNbGa3P3(SO8)3
_chemical_formula_sum   'Na3 Nb3 Ga9 P9 S9 O72'
_cell_volume   1418.13629078
_cell_formula_units_Z   3
loop_
 _symmetry_equiv_pos_site_id
 _symmetry_equiv_pos_as_xyz
  1  'x, y, z'
loop_
 _atom_site_type_symbol
 _atom_site_label
 _atom_site_symmetry_multiplicity
 _atom_site_fract_x
 _atom_site_fract_y
 _atom_site_fract_z
 _atom_site_occupancy
  Na  Na0  1  0.00069372  0.01166217  0.99923289  1
  Na  Na1  1  0.67831170  0.33986989  0.83457550  1
  Na  Na2  1  0.66443554  0.33984198  0.33784672  1
  Nb  Nb3  1  0.00294298  0.99563121  0.64395241  1
  Nb  Nb4  1  0.65858859  0.33276180  0.18496669  1
  Nb  Nb5  1  0.32834056  0.65638195  0.52415049  1
  Ga  Ga6  1  0.99943512  0.99777300  0.35572875  1
  Ga  Ga7  1  0.99696623  0.00141977  0.85367635  1
  Ga  Ga8  1  0.98988241  0.00203234  0.14586133  1
  Ga  Ga9  1  0.67454594  0.34193265  0.68593145  1
  Ga  Ga10  1  0.66827690  0.32227523  0.98066011  1
  Ga  Ga11  1  0.65865405  0.33216565  0.48198399  1
  Ga  Ga12  1  0.33493249  0.65525839  0.02094520  1
  Ga  Ga13  1  0.34717737  0.66092654  0.31267568  1
  Ga  Ga14  1  0.31358303  0.65924417  0.81445439  1
  P  P15  1  0.71807434  0.72463793  0.25149488  1
  P  P16  1  0.99781006  0.70760499  0.75420313  1
  P  P17  1  0.93794647  0.32718438  0.58294803  1
  P  P18  1  0.39327741  0.05695625  0.58391070  1
  P  P19  1  0.66616903  0.60968152  0.58334675  1
  P  P20  1  0.66439387  0.03541980  0.07906042  1
  P  P21  1  0.36793924  0.32704139  0.07850795  1
  P  P22  1  0.04159373  0.37557677  0.91706099  1
  P  P23  1  0.33430355  0.36960518  0.41299415  1
  S  S24  1  0.28164012  0.98994035  0.25151966  1
  S  S25  1  0.00509643  0.29182433  0.25174803  1
  S  S26  1  0.29601189  0.29425203  0.75277498  1
  S  S27  1  0.70434374  0.99854695  0.75259648  1
  S  S28  1  0.96001291  0.62794845  0.08105983  1
  S  S29  1  0.62255055  0.66566962  0.91568158  1
  S  S30  1  0.33220889  0.95528907  0.91683545  1
  S  S31  1  0.62412488  0.95982281  0.41492329  1
  S  S32  1  0.04306811  0.66526932  0.41356882  1
  O  O33  1  0.21190747  0.03612452  0.30519964  1
  O  O34  1  0.83602251  0.79876910  0.30806770  1
  O  O35  1  0.96653545  0.17789770  0.30500165  1
  O  O36  1  0.21245353  0.17990816  0.80554368  1
  O  O37  1  0.96385859  0.79793556  0.80835905  1
  O  O38  1  0.82258182  0.03805156  0.80571538  1
  O  O39  1  0.79310049  0.97506983  0.69759253  1
  O  O40  1  0.18174810  0.20821223  0.69764007  1
  O  O41  1  0.02072125  0.82651160  0.69676479  1
  O  O42  1  0.80261330  0.83243075  0.19487481  1
  O  O43  1  0.03666662  0.21484894  0.19677214  1
  O  O44  1  0.17947703  0.96795512  0.19646656  1
  O  O45  1  0.87293023  0.37333250  0.63967082  1
  O  O46  1  0.50282027  0.13003717  0.64073398  1
  O  O47  1  0.62397028  0.49996882  0.63957864  1
  O  O48  1  0.87109528  0.51370844  0.13653287  1
  O  O49  1  0.64137633  0.13535478  0.13714652  1
  O  O50  1  0.49234124  0.35800797  0.13729824  1
  O  O51  1  0.45992301  0.29430155  0.02532455  1
  O  O52  1  0.84235729  0.54699276  0.02827333  1
  O  O53  1  0.70872311  0.16200468  0.02613988  1
  O  O54  1  0.45889286  0.16506838  0.52703332  1
  O  O55  1  0.70892154  0.54289110  0.52618787  1
  O  O56  1  0.83084829  0.29242545  0.52560799  1
  O  O57  1  0.54647900  0.70066974  0.97048407  1
  O  O58  1  0.15877488  0.45941756  0.97358938  1
  O  O59  1  0.30548195  0.84733815  0.97075895  1
  O  O60  1  0.53634092  0.84855784  0.46888782  1
  O  O61  1  0.30831712  0.46544650  0.47018156  1
  O  O62  1  0.15406722  0.69099002  0.46874109  1
  O  O63  1  0.12761648  0.63689286  0.36008704  1
  O  O64  1  0.50872238  0.88099169  0.36095730  1
  O  O65  1  0.37116574  0.49187849  0.35894132  1
  O  O66  1  0.12094754  0.48783162  0.85986152  1
  O  O67  1  0.36602741  0.87762413  0.86175552  1
  O  O68  1  0.51354484  0.63901866  0.86104289  1
  O  O69  1  0.02976749  0.82968296  0.41007309  1
  O  O70  1  0.79974555  0.97059783  0.40954519  1
  O  O71  1  0.16117602  0.18707569  0.40701763  1
  O  O72  1  0.02285026  0.18450300  0.90986272  1
  O  O73  1  0.16857163  0.97241904  0.91078089  1
  O  O74  1  0.80598215  0.82911477  0.91088743  1
  O  O75  1  0.97099136  0.16746904  0.59389029  1
  O  O76  1  0.19991811  0.02931134  0.59405850  1
  O  O77  1  0.82928493  0.80382173  0.59305967  1
  O  O78  1  0.97797725  0.80708281  0.09029167  1
  O  O79  1  0.83263715  0.01898706  0.08915778  1
  O  O80  1  0.18740208  0.15641771  0.09137511  1
  O  O81  1  0.68496495  0.16020907  0.74543379  1
  O  O82  1  0.47311339  0.30703275  0.74516629  1
  O  O83  1  0.82740535  0.52020263  0.74565267  1
  O  O84  1  0.69583854  0.52840536  0.24260960  1
  O  O85  1  0.83950487  0.30987605  0.24407770  1
  O  O86  1  0.47121745  0.15828742  0.24498945  1
  O  O87  1  0.63887722  0.50150838  0.92165000  1
  O  O88  1  0.85224194  0.35745917  0.92322376  1
  O  O89  1  0.49451437  0.13982024  0.92123902  1
  O  O90  1  0.64624072  0.14260770  0.42141288  1
  O  O91  1  0.50371858  0.35325885  0.42182082  1
  O  O92  1  0.86343277  0.50123724  0.42002137  1
  O  O93  1  0.35845187  0.49870307  0.07598426  1
  O  O94  1  0.13442114  0.63918638  0.07645813  1
  O  O95  1  0.49071903  0.85628028  0.07288886  1
  O  O96  1  0.36170366  0.86326087  0.57231079  1
  O  O97  1  0.50345583  0.64041489  0.57326229  1
  O  O98  1  0.13193864  0.49546929  0.57286350  1
  O  O99  1  0.30352834  0.83290104  0.25968576  1
  O  O100  1  0.52988479  0.69894400  0.25834430  1
  O  O101  1  0.16106380  0.47433098  0.25931624  1
  O  O102  1  0.31293943  0.47325822  0.75790020  1
  O  O103  1  0.17092564  0.69911362  0.75774374  1
  O  O104  1  0.53022446  0.83250168  0.75891906  1
