# generated using pymatgen
data_Na9NbZn5P6(SO12)3
_symmetry_space_group_name_H-M   'P 1'
_cell_length_a   9.00468352
_cell_length_b   9.00468321
_cell_length_c   22.17215639
_cell_angle_alpha   90.24486390
_cell_angle_beta   89.75513610
_cell_angle_gamma   120.17275072
_symmetry_Int_Tables_number   1
_chemical_formula_structural   Na9NbZn5P6(SO12)3
_chemical_formula_sum   'Na18 Nb2 Zn10 P12 S6 O72'
_cell_volume   1554.21660528
_cell_formula_units_Z   2
loop_
 _symmetry_equiv_pos_site_id
 _symmetry_equiv_pos_as_xyz
  1  'x, y, z'
loop_
 _atom_site_type_symbol
 _atom_site_label
 _atom_site_symmetry_multiplicity
 _atom_site_fract_x
 _atom_site_fract_y
 _atom_site_fract_z
 _atom_site_occupancy
  Na  Na0  1  0.36314965  0.35312873  0.24798365  1
  Na  Na1  1  0.64687127  0.63685035  0.74798365  1
  Na  Na2  1  0.03279016  0.70152434  0.58554065  1
  Na  Na3  1  0.66635269  0.96621799  0.58501317  1
  Na  Na4  1  0.29847566  0.96720984  0.08554065  1
  Na  Na5  1  0.03378201  0.33364731  0.08501317  1
  Na  Na6  1  0.96197591  0.67052113  0.91402945  1
  Na  Na7  1  0.70657020  0.03476398  0.91382988  1
  Na  Na8  1  0.32946518  0.29233164  0.91292294  1
  Na  Na9  1  0.96523602  0.29342980  0.41382988  1
  Na  Na10  1  0.32947887  0.03802409  0.41402945  1
  Na  Na11  1  0.70766836  0.67053482  0.41292294  1
  Na  Na12  1  0.01163355  0.01286030  0.49858289  1
  Na  Na13  1  0.98713970  0.98836645  0.99858289  1
  Na  Na14  1  0.66651107  0.32319864  0.82781863  1
  Na  Na15  1  0.67680136  0.33348893  0.32781863  1
  Na  Na16  1  0.34721735  0.67838303  0.16370553  1
  Na  Na17  1  0.32161697  0.65278265  0.66370553  1
  Nb  Nb18  1  0.33328033  0.67079663  0.31250993  1
  Nb  Nb19  1  0.32920337  0.66671967  0.81250993  1
  Zn  Zn20  1  0.99684512  0.99751215  0.34336114  1
  Zn  Zn21  1  0.00248785  0.00315488  0.84336114  1
  Zn  Zn22  1  0.00827397  0.00801745  0.66302526  1
  Zn  Zn23  1  0.99198255  0.99172603  0.16302526  1
  Zn  Zn24  1  0.66361777  0.32391464  0.68871151  1
  Zn  Zn25  1  0.67608536  0.33638223  0.18871151  1
  Zn  Zn26  1  0.66733495  0.33654533  0.98140676  1
  Zn  Zn27  1  0.66345467  0.33266505  0.48140676  1
  Zn  Zn28  1  0.33829298  0.66821362  0.00975495  1
  Zn  Zn29  1  0.33178638  0.66170702  0.50975495  1
  P  P30  1  0.29648052  0.00226356  0.24941033  1
  P  P31  1  0.70580483  0.70284087  0.25176461  1
  P  P32  1  0.99679616  0.29373270  0.25062472  1
  P  P33  1  0.29715913  0.29419517  0.75176461  1
  P  P34  1  0.99773644  0.70351948  0.74941033  1
  P  P35  1  0.70626730  0.00320384  0.75062472  1
  P  P36  1  0.62829086  0.66848442  0.91720085  1
  P  P37  1  0.03935256  0.37141704  0.91980636  1
  P  P38  1  0.33169743  0.96025693  0.91981626  1
  P  P39  1  0.62858296  0.96064744  0.41980636  1
  P  P40  1  0.33151558  0.37170914  0.41720085  1
  P  P41  1  0.03974307  0.66830257  0.41981626  1
  S  S42  1  0.96072682  0.33308585  0.58262984  1
  S  S43  1  0.37090937  0.03981329  0.58259095  1
  S  S44  1  0.66554288  0.62883676  0.58339758  1
  S  S45  1  0.96018671  0.62909063  0.08259095  1
  S  S46  1  0.66691415  0.03927318  0.08262984  1
  S  S47  1  0.37116324  0.33445712  0.08339758  1
  O  O48  1  0.21552886  0.02988952  0.30625912  1
  O  O49  1  0.80463106  0.77760959  0.31037563  1
  O  O50  1  0.97782330  0.19286989  0.30813460  1
  O  O51  1  0.22239041  0.19536894  0.81037563  1
  O  O52  1  0.97011048  0.78447114  0.80625912  1
  O  O53  1  0.80713011  0.02217670  0.80813460  1
  O  O54  1  0.77435263  0.95604448  0.69373256  1
  O  O55  1  0.18631777  0.22299115  0.69592255  1
  O  O56  1  0.03513311  0.81043631  0.69165350  1
  O  O57  1  0.77700885  0.81368223  0.19592255  1
  O  O58  1  0.04395552  0.22564737  0.19373256  1
  O  O59  1  0.18956369  0.96486689  0.19165350  1
  O  O60  1  0.87417191  0.35899424  0.63480256  1
  O  O61  1  0.48170037  0.12694634  0.63442124  1
  O  O62  1  0.64822813  0.52874113  0.63785145  1
  O  O63  1  0.87305366  0.51829963  0.13442124  1
  O  O64  1  0.64100576  0.12582809  0.13480256  1
  O  O65  1  0.47125887  0.35177187  0.13785145  1
  O  O66  1  0.45237804  0.31126036  0.02778186  1
  O  O67  1  0.86547705  0.55258562  0.02516371  1
  O  O68  1  0.69276261  0.14081020  0.02581494  1
  O  O69  1  0.44741438  0.13452295  0.52516371  1
  O  O70  1  0.68873964  0.54762196  0.52778186  1
  O  O71  1  0.85918980  0.30723739  0.52581494  1
  O  O72  1  0.54737888  0.70148287  0.97217370  1
  O  O73  1  0.14502247  0.44902900  0.97724576  1
  O  O74  1  0.30123393  0.85376316  0.97712498  1
  O  O75  1  0.55097100  0.85497753  0.47724576  1
  O  O76  1  0.29851713  0.45262112  0.47217370  1
  O  O77  1  0.14623684  0.69876607  0.47712498  1
  O  O78  1  0.14207629  0.64601177  0.36516878  1
  O  O79  1  0.50439863  0.85745402  0.36535788  1
  O  O80  1  0.35513505  0.48892347  0.36028903  1
  O  O81  1  0.14254598  0.49560137  0.86535788  1
  O  O82  1  0.35398823  0.85792371  0.86516878  1
  O  O83  1  0.51107653  0.64486495  0.86028903  1
  O  O84  1  0.02098687  0.82734412  0.41147864  1
  O  O85  1  0.80727833  0.98070823  0.41159637  1
  O  O86  1  0.17333783  0.19080501  0.41025458  1
  O  O87  1  0.01929177  0.19272167  0.91159637  1
  O  O88  1  0.17265588  0.97901313  0.91147864  1
  O  O89  1  0.80919499  0.82666217  0.91025458  1
  O  O90  1  0.97387031  0.17492637  0.58821828  1
  O  O91  1  0.19425553  0.01445966  0.58734901  1
  O  O92  1  0.82523730  0.80438894  0.58600597  1
  O  O93  1  0.98554034  0.80574447  0.08734901  1
  O  O94  1  0.82507363  0.02612969  0.08821828  1
  O  O95  1  0.19561106  0.17476270  0.08600597  1
  O  O96  1  0.67621293  0.15398963  0.74442459  1
  O  O97  1  0.48448104  0.33555342  0.74544750  1
  O  O98  1  0.83877224  0.52356998  0.74384289  1
  O  O99  1  0.66444658  0.51551896  0.24544750  1
  O  O100  1  0.84601037  0.32378707  0.24442459  1
  O  O101  1  0.47643002  0.16122776  0.24384289  1
  O  O102  1  0.63639224  0.50022123  0.91868969  1
  O  O103  1  0.86336811  0.36319350  0.91918460  1
  O  O104  1  0.50020590  0.13642519  0.91957525  1
  O  O105  1  0.63680650  0.13663189  0.41918460  1
  O  O106  1  0.49977877  0.36360776  0.41868969  1
  O  O107  1  0.86357481  0.49979410  0.41957525  1
  O  O108  1  0.34690494  0.48657564  0.07968898  1
  O  O109  1  0.13614740  0.64540942  0.08028540  1
  O  O110  1  0.50800811  0.86650421  0.07861308  1
  O  O111  1  0.35459058  0.86385260  0.58028540  1
  O  O112  1  0.51342436  0.65309506  0.57968898  1
  O  O113  1  0.13349579  0.49199189  0.57861308  1
  O  O114  1  0.31588495  0.83696730  0.25896662  1
  O  O115  1  0.51717712  0.68329506  0.25949857  1
  O  O116  1  0.16908925  0.47946573  0.25883525  1
  O  O117  1  0.31670494  0.48282288  0.75949857  1
  O  O118  1  0.16303270  0.68411505  0.75896662  1
  O  O119  1  0.52053427  0.83091075  0.75883525  1
