# generated using pymatgen
data_Na2ScAlSi(SO6)2
_symmetry_space_group_name_H-M   'P 1'
_cell_length_a   8.74465609
_cell_length_b   8.78592786
_cell_length_c   22.34140658
_cell_angle_alpha   89.56501258
_cell_angle_beta   89.67001100
_cell_angle_gamma   119.91714655
_symmetry_Int_Tables_number   1
_chemical_formula_structural   Na2ScAlSi(SO6)2
_chemical_formula_sum   'Na12 Sc6 Al6 Si6 S12 O72'
_cell_volume   1487.62899493
_cell_formula_units_Z   6
loop_
 _symmetry_equiv_pos_site_id
 _symmetry_equiv_pos_as_xyz
  1  'x, y, z'
loop_
 _atom_site_type_symbol
 _atom_site_label
 _atom_site_symmetry_multiplicity
 _atom_site_fract_x
 _atom_site_fract_y
 _atom_site_fract_z
 _atom_site_occupancy
  Na  Na0  1  0.00007978  0.62880764  0.25018832  1
  Na  Na1  1  0.37424967  0.00335673  0.74821058  1
  Na  Na2  1  0.66014365  0.96560866  0.59092309  1
  Na  Na3  1  0.03093071  0.33813728  0.09254269  1
  Na  Na4  1  0.98279711  0.67466139  0.92437241  1
  Na  Na5  1  0.32518567  0.02050729  0.42153633  1
  Na  Na6  1  0.00899178  0.98966066  0.50041685  1
  Na  Na7  1  0.01221045  0.98757137  0.00148568  1
  Na  Na8  1  0.66328879  0.31148386  0.83178806  1
  Na  Na9  1  0.68387271  0.33677157  0.33540573  1
  Na  Na10  1  0.33583774  0.66193477  0.17018073  1
  Na  Na11  1  0.33264512  0.66215112  0.66525562  1
  Sc  Sc12  1  0.99598628  0.00721286  0.84951681  1
  Sc  Sc13  1  0.00052634  0.99556811  0.15203050  1
  Sc  Sc14  1  0.66114297  0.33102574  0.98109776  1
  Sc  Sc15  1  0.32633907  0.68109183  0.02180222  1
  Sc  Sc16  1  0.31601986  0.67838480  0.51817144  1
  Sc  Sc17  1  0.35265381  0.68647318  0.81016381  1
  Al  Al18  1  0.98371051  0.99411879  0.35087952  1
  Al  Al19  1  0.00933091  0.00079646  0.64749279  1
  Al  Al20  1  0.66515716  0.32089116  0.68272322  1
  Al  Al21  1  0.68294433  0.32787578  0.18782882  1
  Al  Al22  1  0.66869347  0.34757633  0.48353546  1
  Al  Al23  1  0.30449682  0.63779225  0.31720533  1
  Si  Si24  1  -0.00022027  0.28884821  0.25151042  1
  Si  Si25  1  0.71898502  0.01171225  0.74161736  1
  Si  Si26  1  0.37480847  0.05766153  0.58269858  1
  Si  Si27  1  0.95157610  0.62591397  0.08521177  1
  Si  Si28  1  0.33561900  0.97089496  0.91300741  1
  Si  Si29  1  0.02354226  0.66507933  0.41327336  1
  S  S30  1  0.30471562  0.00403998  0.25318313  1
  S  S31  1  0.69542015  0.70319211  0.25436634  1
  S  S32  1  0.29561839  0.29213400  0.74455472  1
  S  S33  1  0.98685602  0.69972884  0.74594516  1
  S  S34  1  0.94960670  0.33141290  0.58347934  1
  S  S35  1  0.67289544  0.61784521  0.58525196  1
  S  S36  1  0.66435425  0.04360120  0.08753508  1
  S  S37  1  0.38317697  0.33362630  0.08844425  1
  S  S38  1  0.62450890  0.66622615  0.91685005  1
  S  S39  1  0.04583284  0.37371737  0.91740840  1
  S  S40  1  0.62665183  0.95544381  0.41451451  1
  S  S41  1  0.33176404  0.37487642  0.41559748  1
  O  O42  1  0.22218059  0.03132253  0.30720480  1
  O  O43  1  0.82141897  0.78687746  0.30468661  1
  O  O44  1  0.97552829  0.15602650  0.30646741  1
  O  O45  1  0.22509616  0.18149894  0.79958552  1
  O  O46  1  0.96315048  0.77145758  0.80278279  1
  O  O47  1  0.82640525  0.03216015  0.80269925  1
  O  O48  1  0.81846160  0.98500591  0.68368680  1
  O  O49  1  0.18324283  0.20047846  0.69267806  1
  O  O50  1  0.02689187  0.82683701  0.69538723  1
  O  O51  1  0.77082713  0.80876050  0.19878673  1
  O  O52  1  0.02944297  0.21484754  0.18828516  1
  O  O53  1  0.18432471  0.96038754  0.20110112  1
  O  O54  1  0.87068529  0.35946340  0.63801010  1
  O  O55  1  0.50110828  0.14488954  0.64053219  1
  O  O56  1  0.65484533  0.51074383  0.63877914  1
  O  O57  1  0.85123430  0.49736507  0.14339657  1
  O  O58  1  0.63938105  0.12801140  0.14103024  1
  O  O59  1  0.48721895  0.34259274  0.14151557  1
  O  O60  1  0.45859566  0.31124962  0.03244658  1
  O  O61  1  0.85278035  0.54075764  0.02212985  1
  O  O62  1  0.68710502  0.14661359  0.03250887  1
  O  O63  1  0.47312312  0.17224652  0.52089827  1
  O  O64  1  0.69703217  0.53874593  0.53005555  1
  O  O65  1  0.83890448  0.30788925  0.53001022  1
  O  O66  1  0.53821523  0.67833232  0.97140533  1
  O  O67  1  0.14300749  0.45015637  0.97350214  1
  O  O68  1  0.30086463  0.83937083  0.97049185  1
  O  O69  1  0.55743915  0.85552559  0.47198481  1
  O  O70  1  0.30688063  0.45480376  0.46973142  1
  O  O71  1  0.15992467  0.71986721  0.47018852  1
  O  O72  1  0.12312441  0.63601233  0.35553864  1
  O  O73  1  0.50667136  0.86182097  0.36443188  1
  O  O74  1  0.35980028  0.48808919  0.36196107  1
  O  O75  1  0.13654555  0.48351536  0.86441888  1
  O  O76  1  0.35438371  0.87892298  0.85156960  1
  O  O77  1  0.52139278  0.64475774  0.86262636  1
  O  O78  1  0.01486065  0.84834934  0.40200189  1
  O  O79  1  0.80548416  0.97787769  0.40689951  1
  O  O80  1  0.17541608  0.19544515  0.40871999  1
  O  O81  1  0.02145891  0.19611042  0.91380691  1
  O  O82  1  0.15135311  0.97512925  0.90996893  1
  O  O83  1  0.80207422  0.82603526  0.91276019  1
  O  O84  1  0.96354518  0.16956222  0.58731024  1
  O  O85  1  0.17531191  0.02943676  0.59235587  1
  O  O86  1  0.83044734  0.79808468  0.58887166  1
  O  O87  1  0.97874877  0.82183683  0.09055486  1
  O  O88  1  0.82765660  0.03277774  0.09115949  1
  O  O89  1  0.20081742  0.17971114  0.09101179  1
  O  O90  1  0.68818938  0.18290253  0.73853101  1
  O  O91  1  0.47635337  0.31736308  0.73747780  1
  O  O92  1  0.82775571  0.52803129  0.73629512  1
  O  O93  1  0.67778910  0.52646773  0.24756913  1
  O  O94  1  0.82381757  0.31616773  0.24583366  1
  O  O95  1  0.47645867  0.16585271  0.24174543  1
  O  O96  1  0.65332192  0.51295197  0.91833508  1
  O  O97  1  0.87008207  0.36322707  0.91959577  1
  O  O98  1  0.50951344  0.16116637  0.91903194  1
  O  O99  1  0.63873124  0.13063265  0.41939152  1
  O  O100  1  0.49126123  0.35432081  0.41995310  1
  O  O101  1  0.83343729  0.48866915  0.42819722  1
  O  O102  1  0.36811305  0.49473524  0.08497038  1
  O  O103  1  0.14513997  0.63271460  0.08441412  1
  O  O104  1  0.51007119  0.86567315  0.08436757  1
  O  O105  1  0.36403233  0.86242519  0.57852179  1
  O  O106  1  0.51315432  0.63650603  0.58095299  1
  O  O107  1  0.12894950  0.48523964  0.57820645  1
  O  O108  1  0.32914388  0.84873907  0.26039817  1
  O  O109  1  0.52234438  0.68991125  0.26523165  1
  O  O110  1  0.17285843  0.49043957  0.25874327  1
  O  O111  1  0.30425890  0.46270235  0.75051120  1
  O  O112  1  0.14551764  0.67849464  0.74956193  1
  O  O113  1  0.51764990  0.83619224  0.74502416  1
