# generated using pymatgen
data_Na3ScSiGe(PO6)2
_symmetry_space_group_name_H-M   'P 1'
_cell_length_a   15.35080669
_cell_length_b   8.92542990
_cell_length_c   8.96443612
_cell_angle_alpha   90.00000000
_cell_angle_beta   125.57317331
_cell_angle_gamma   90.00000000
_symmetry_Int_Tables_number   1
_chemical_formula_structural   Na3ScSiGe(PO6)2
_chemical_formula_sum   'Na12 Sc4 Si4 Ge4 P8 O48'
_cell_volume   999.01773420
_cell_formula_units_Z   4
loop_
 _symmetry_equiv_pos_site_id
 _symmetry_equiv_pos_as_xyz
  1  'x, y, z'
loop_
 _atom_site_type_symbol
 _atom_site_label
 _atom_site_symmetry_multiplicity
 _atom_site_fract_x
 _atom_site_fract_y
 _atom_site_fract_z
 _atom_site_occupancy
  Na  Na0  1  0.25244156  0.73122258  0.99889368  1
  Na  Na1  1  0.75244156  0.76877742  0.49889368  1
  Na  Na2  1  0.75244156  0.23122258  0.99889368  1
  Na  Na3  1  0.25244156  0.26877742  0.49889368  1
  Na  Na4  1  0.50483906  0.10130691  0.75538353  1
  Na  Na5  1  0.50483906  0.89869309  0.25538353  1
  Na  Na6  1  0.00483906  0.60130691  0.75538353  1
  Na  Na7  1  0.00483906  0.39869309  0.25538353  1
  Na  Na8  1  0.18507177  0.93196990  0.29081774  1
  Na  Na9  1  0.18507177  0.06803010  0.79081774  1
  Na  Na10  1  0.68507177  0.43196990  0.29081774  1
  Na  Na11  1  0.68507177  0.56803010  0.79081774  1
  Sc  Sc12  1  0.10645145  0.74470862  0.56678778  1
  Sc  Sc13  1  0.10645145  0.25529138  0.06678778  1
  Sc  Sc14  1  0.60645145  0.24470862  0.56678778  1
  Sc  Sc15  1  0.60645145  0.75529138  0.06678778  1
  Si  Si16  1  0.64934110  0.88715431  0.74851489  1
  Si  Si17  1  0.64934110  0.11284569  0.24851489  1
  Si  Si18  1  0.14934110  0.38715431  0.74851489  1
  Si  Si19  1  0.14934110  0.61284569  0.24851489  1
  Ge  Ge20  1  0.89810786  0.76091646  0.93868275  1
  Ge  Ge21  1  0.89810786  0.23908354  0.43868275  1
  Ge  Ge22  1  0.39810786  0.26091646  0.93868275  1
  Ge  Ge23  1  0.39810786  0.73908354  0.43868275  1
  P  P24  1  0.99243167  0.96014120  0.75125518  1
  P  P25  1  0.99243167  0.03985880  0.25125518  1
  P  P26  1  0.49243167  0.46014120  0.75125518  1
  P  P27  1  0.49243167  0.53985880  0.25125518  1
  P  P28  1  0.35510508  0.90498690  0.75349789  1
  P  P29  1  0.35510508  0.09501310  0.25349789  1
  P  P30  1  0.85510508  0.40498690  0.75349789  1
  P  P31  1  0.85510508  0.59501310  0.25349789  1
  O  O32  1  0.15363401  0.56786753  0.74406397  1
  O  O33  1  0.85302093  0.58186114  0.75699728  1
  O  O34  1  0.85302093  0.41813886  0.25699728  1
  O  O35  1  0.15363401  0.43213247  0.24406397  1
  O  O36  1  0.65363401  0.06786753  0.74406397  1
  O  O37  1  0.35302093  0.08186114  0.75699728  1
  O  O38  1  0.35302093  0.91813886  0.25699728  1
  O  O39  1  0.65363401  0.93213247  0.24406397  1
  O  O40  1  0.42472966  0.56109823  0.57590633  1
  O  O41  1  0.56047444  0.55255622  0.92608703  1
  O  O42  1  0.56047444  0.44744378  0.42608703  1
  O  O43  1  0.42472966  0.43890177  0.07590633  1
  O  O44  1  0.92472966  0.06109823  0.57590633  1
  O  O45  1  0.06047444  0.05255622  0.92608703  1
  O  O46  1  0.06047444  0.94744378  0.42608703  1
  O  O47  1  0.92472966  0.93890177  0.07590633  1
  O  O48  1  0.25705912  0.84985956  0.74378778  1
  O  O49  1  0.75123736  0.80188274  0.76644064  1
  O  O50  1  0.75123736  0.19811726  0.26644064  1
  O  O51  1  0.25705912  0.15014044  0.24378778  1
  O  O52  1  0.75705912  0.34985956  0.74378778  1
  O  O53  1  0.25123736  0.30188274  0.76644064  1
  O  O54  1  0.25123736  0.69811726  0.26644064  1
  O  O55  1  0.75705912  0.65014044  0.24378778  1
  O  O56  1  0.35476489  0.86855016  0.58129705  1
  O  O57  1  0.64539789  0.84101971  0.91691431  1
  O  O58  1  0.64539789  0.15898029  0.41691431  1
  O  O59  1  0.35476489  0.13144984  0.08129705  1
  O  O60  1  0.85476489  0.36855016  0.58129705  1
  O  O61  1  0.14539789  0.34101971  0.91691431  1
  O  O62  1  0.14539789  0.65898029  0.41691431  1
  O  O63  1  0.85476489  0.63144984  0.08129705  1
  O  O64  1  0.45522772  0.84577187  0.93032471  1
  O  O65  1  0.53900116  0.81100290  0.55814349  1
  O  O66  1  0.53900116  0.18899710  0.05814349  1
  O  O67  1  0.45522772  0.15422813  0.43032471  1
  O  O68  1  0.95522772  0.34577187  0.93032471  1
  O  O69  1  0.03900116  0.31100290  0.55814349  1
  O  O70  1  0.03900116  0.68899710  0.05814349  1
  O  O71  1  0.95522772  0.65422813  0.43032471  1
  O  O72  1  0.07031077  0.85798838  0.74129686  1
  O  O73  1  0.91135250  0.85729518  0.75490712  1
  O  O74  1  0.91135250  0.14270482  0.25490712  1
  O  O75  1  0.07031077  0.14201162  0.24129686  1
  O  O76  1  0.57031077  0.35798838  0.74129686  1
  O  O77  1  0.41135250  0.35729518  0.75490712  1
  O  O78  1  0.41135250  0.64270482  0.25490712  1
  O  O79  1  0.57031077  0.64201162  0.24129686  1
