# generated using pymatgen
data_Na3ScNb3Si3(PO8)3
_symmetry_space_group_name_H-M   'P 1'
_cell_length_a   8.90783585
_cell_length_b   8.93285064
_cell_length_c   22.94487403
_cell_angle_alpha   89.93995216
_cell_angle_beta   89.98386488
_cell_angle_gamma   119.93302888
_symmetry_Int_Tables_number   1
_chemical_formula_structural   Na3ScNb3Si3(PO8)3
_chemical_formula_sum   'Na9 Sc3 Nb9 Si9 P9 O72'
_cell_volume   1582.23449415
_cell_formula_units_Z   3
loop_
 _symmetry_equiv_pos_site_id
 _symmetry_equiv_pos_as_xyz
  1  'x, y, z'
loop_
 _atom_site_type_symbol
 _atom_site_label
 _atom_site_symmetry_multiplicity
 _atom_site_fract_x
 _atom_site_fract_y
 _atom_site_fract_z
 _atom_site_occupancy
  Na  Na0  1  0.63783499  0.00193717  0.24943218  1
  Na  Na1  1  0.36973483  0.36406073  0.24865077  1
  Na  Na2  1  0.70585252  0.67373235  0.41524041  1
  Na  Na3  1  0.00538010  0.00538927  0.49610722  1
  Na  Na4  1  0.00065460  0.00051478  0.99995571  1
  Na  Na5  1  0.66705219  0.33319737  0.83142283  1
  Na  Na6  1  0.67258747  0.33629856  0.33272116  1
  Na  Na7  1  0.32930943  0.66530578  0.16486120  1
  Na  Na8  1  0.33436930  0.66618855  0.66591604  1
  Sc  Sc9  1  0.00142508  0.99974667  0.35500281  1
  Sc  Sc10  1  0.66471606  0.33626655  0.68559760  1
  Sc  Sc11  1  0.67080913  0.34400507  0.18312301  1
  Nb  Nb12  1  0.00118935  0.00120752  0.85582644  1
  Nb  Nb13  1  0.99731431  0.99701115  0.64460346  1
  Nb  Nb14  1  0.99794014  0.99799630  0.14498366  1
  Nb  Nb15  1  0.66057859  0.33137321  0.97751841  1
  Nb  Nb16  1  0.66818367  0.33434695  0.47899590  1
  Nb  Nb17  1  0.33347359  0.66306814  0.01930479  1
  Nb  Nb18  1  0.33547413  0.66567721  0.51981404  1
  Nb  Nb19  1  0.33290563  0.66742523  0.31618550  1
  Nb  Nb20  1  0.33318979  0.66665708  0.81386241  1
  Si  Si21  1  0.71225614  0.70610546  0.25143206  1
  Si  Si22  1  0.66390676  0.61983136  0.58431555  1
  Si  Si23  1  0.37622205  0.33411176  0.08418613  1
  Si  Si24  1  0.62160159  0.66708124  0.91642544  1
  Si  Si25  1  0.04404451  0.37883395  0.91652263  1
  Si  Si26  1  0.33363766  0.95305489  0.91696134  1
  Si  Si27  1  0.62416378  0.96041494  0.41766245  1
  Si  Si28  1  0.32716856  0.37094511  0.41770540  1
  Si  Si29  1  0.04539917  0.66851632  0.41824856  1
  P  P30  1  0.28761024  0.99795903  0.25000675  1
  P  P31  1  0.99861899  0.28925889  0.25016608  1
  P  P32  1  0.28814333  0.28788546  0.74999944  1
  P  P33  1  0.99927426  0.71160500  0.75037317  1
  P  P34  1  0.71210634  0.00102640  0.75030411  1
  P  P35  1  0.95557325  0.33466004  0.58452004  1
  P  P36  1  0.37937889  0.04454490  0.58432960  1
  P  P37  1  0.95676214  0.62209355  0.08260586  1
  P  P38  1  0.66470240  0.04367178  0.08367576  1
  O  O39  1  0.21111118  0.03570667  0.30304156  1
  O  O40  1  0.82140078  0.79403740  0.30877110  1
  O  O41  1  0.96851738  0.17748465  0.30341673  1
  O  O42  1  0.19467141  0.17296191  0.80423641  1
  O  O43  1  0.97743430  0.80480941  0.80415976  1
  O  O44  1  0.82716971  0.02201639  0.80416517  1
  O  O45  1  0.80228142  0.97171715  0.69592103  1
  O  O46  1  0.17018457  0.19908029  0.69603116  1
  O  O47  1  0.02872964  0.83078650  0.69598877  1
  O  O48  1  0.80428225  0.83858139  0.19385146  1
  O  O49  1  0.03432618  0.20390494  0.19510598  1
  O  O50  1  0.17161020  0.97139765  0.19486235  1
  O  O51  1  0.87600775  0.36288936  0.63823342  1
  O  O52  1  0.48780278  0.12203846  0.63814252  1
  O  O53  1  0.63359629  0.50557151  0.64073040  1
  O  O54  1  0.88165500  0.51452761  0.13762648  1
  O  O55  1  0.63671172  0.11806300  0.13989548  1
  O  O56  1  0.48632539  0.36635359  0.14261770  1
  O  O57  1  0.47071292  0.30408442  0.02686560  1
  O  O58  1  0.84165538  0.53780688  0.02855956  1
  O  O59  1  0.69690758  0.15940177  0.02934043  1
  O  O60  1  0.46258211  0.15879984  0.52897764  1
  O  O61  1  0.69801652  0.53525930  0.52496995  1
  O  O62  1  0.84101305  0.30169556  0.52897696  1
  O  O63  1  0.53161404  0.69906553  0.97330206  1
  O  O64  1  0.16781381  0.46899927  0.97318206  1
  O  O65  1  0.30149644  0.83272750  0.97378231  1
  O  O66  1  0.52633153  0.83062891  0.47263076  1
  O  O67  1  0.30860179  0.47528670  0.47318370  1
  O  O68  1  0.16712864  0.69215217  0.47399746  1
  O  O69  1  0.13525246  0.63254498  0.36003868  1
  O  O70  1  0.50005869  0.86835804  0.35855943  1
  O  O71  1  0.37148567  0.50187178  0.35935529  1
  O  O72  1  0.13790673  0.50162743  0.85940868  1
  O  O73  1  0.36378917  0.86190935  0.85938335  1
  O  O74  1  0.49844748  0.63560947  0.85943474  1
  O  O75  1  0.01561604  0.82922307  0.41277238  1
  O  O76  1  0.80551026  0.96766304  0.41205116  1
  O  O77  1  0.16238554  0.18665288  0.41180115  1
  O  O78  1  0.02481083  0.18837496  0.90693001  1
  O  O79  1  0.16450615  0.97629065  0.90686520  1
  O  O80  1  0.81261209  0.83675768  0.90698803  1
  O  O81  1  0.97745648  0.17070512  0.59178401  1
  O  O82  1  0.19420303  0.02563146  0.59180475  1
  O  O83  1  0.83881841  0.81683807  0.59281091  1
  O  O84  1  0.97586782  0.80584879  0.09058170  1
  O  O85  1  0.83038039  0.02415321  0.09025770  1
  O  O86  1  0.18189888  0.16075736  0.09117320  1
  O  O87  1  0.69287366  0.15948335  0.74457218  1
  O  O88  1  0.46668735  0.30580365  0.74558983  1
  O  O89  1  0.84124118  0.53290756  0.74501378  1
  O  O90  1  0.67646385  0.51082981  0.24486410  1
  O  O91  1  0.83544114  0.30406619  0.24206012  1
  O  O92  1  0.47228770  0.15483586  0.24242238  1
  O  O93  1  0.64412631  0.49787921  0.92539052  1
  O  O94  1  0.85372122  0.35725513  0.92593734  1
  O  O95  1  0.50451774  0.14476895  0.92500157  1
  O  O96  1  0.63681799  0.14722968  0.42530980  1
  O  O97  1  0.51056363  0.36884706  0.42518674  1
  O  O98  1  0.85288528  0.49278251  0.42518578  1
  O  O99  1  0.35257861  0.50367478  0.07438099  1
  O  O100  1  0.14091550  0.64791278  0.07468662  1
  O  O101  1  0.50563119  0.86117780  0.07488614  1
  O  O102  1  0.35208968  0.86087467  0.57497453  1
  O  O103  1  0.49803757  0.64920919  0.57500824  1
  O  O104  1  0.13823773  0.49310892  0.57517406  1
  O  O105  1  0.30901259  0.83465772  0.25465993  1
  O  O106  1  0.51616028  0.69276312  0.25500869  1
  O  O107  1  0.16771472  0.46958816  0.25500997  1
  O  O108  1  0.30278533  0.46879422  0.75733395  1
  O  O109  1  0.16683231  0.69820408  0.75688427  1
  O  O110  1  0.53176766  0.83365381  0.75699325  1
