# generated using pymatgen
data_Na6Mg4Ga4SiS11O48
_symmetry_space_group_name_H-M   'P 1'
_cell_length_a   17.22449597
_cell_length_b   8.63345627
_cell_length_c   22.28378848
_cell_angle_alpha   89.87619680
_cell_angle_beta   89.85658773
_cell_angle_gamma   120.01652845
_symmetry_Int_Tables_number   1
_chemical_formula_structural   Na6Mg4Ga4SiS11O48
_chemical_formula_sum   'Na18 Mg12 Ga12 Si3 S33 O144'
_cell_volume   2869.28563647
_cell_formula_units_Z   3
loop_
 _symmetry_equiv_pos_site_id
 _symmetry_equiv_pos_as_xyz
  1  'x, y, z'
loop_
 _atom_site_type_symbol
 _atom_site_label
 _atom_site_symmetry_multiplicity
 _atom_site_fract_x
 _atom_site_fract_y
 _atom_site_fract_z
 _atom_site_occupancy
  Na  Na0  1  0.81781102  0.99624037  0.24807619  1
  Na  Na1  1  0.99681247  0.63627457  0.25305374  1
  Na  Na2  1  0.31760007  0.64604592  0.74863810  1
  Na  Na3  1  0.81695876  0.64308840  0.74667962  1
  Na  Na4  1  0.99590179  0.35826199  0.75092985  1
  Na  Na5  1  0.68899101  0.00040588  0.74907151  1
  Na  Na6  1  0.99839109  0.99820668  0.49863898  1
  Na  Na7  1  0.50208710  0.00242769  0.49679107  1
  Na  Na8  1  0.00104085  0.00132991  0.00125283  1
  Na  Na9  1  0.50000674  -0.00001678  0.00147536  1
  Na  Na10  1  0.33503737  0.31329863  0.83497630  1
  Na  Na11  1  0.83417650  0.32401510  0.83699847  1
  Na  Na12  1  0.33475888  0.33517038  0.33173685  1
  Na  Na13  1  0.82759979  0.34560067  0.33524044  1
  Na  Na14  1  0.17472980  0.66975246  0.16623975  1
  Na  Na15  1  0.66482781  0.65522667  0.16795405  1
  Na  Na16  1  0.17276808  0.68797874  0.66491814  1
  Na  Na17  1  0.66882421  0.66962715  0.66348807  1
  Mg  Mg18  1  0.49843516  0.99940322  0.35283114  1
  Mg  Mg19  1  0.83383489  0.32778927  0.68138347  1
  Mg  Mg20  1  0.33437674  0.33630259  0.18357184  1
  Mg  Mg21  1  0.82900608  0.33957529  0.18371429  1
  Mg  Mg22  1  0.33307876  0.33274142  0.98381924  1
  Mg  Mg23  1  0.83266350  0.33248664  0.98317621  1
  Mg  Mg24  1  0.83271819  0.33331877  0.48143374  1
  Mg  Mg25  1  0.16529766  0.66326563  0.51686233  1
  Mg  Mg26  1  0.66889823  0.66908398  0.51781871  1
  Mg  Mg27  1  0.17377617  0.67270647  0.31767799  1
  Mg  Mg28  1  0.17204520  0.68338485  0.81505711  1
  Mg  Mg29  1  0.66644940  0.66632823  0.81623099  1
  Ga  Ga30  1  0.99765111  0.98679796  0.35190192  1
  Ga  Ga31  1  0.99762694  0.00473399  0.85297349  1
  Ga  Ga32  1  0.49360995  0.00839372  0.85269633  1
  Ga  Ga33  1  0.99217591  0.99504552  0.64641500  1
  Ga  Ga34  1  0.49577118  0.99821445  0.64723077  1
  Ga  Ga35  1  0.99408889  0.99170938  0.15007630  1
  Ga  Ga36  1  0.49901544  0.00082087  0.15106407  1
  Ga  Ga37  1  0.33424097  0.31475108  0.68373521  1
  Ga  Ga38  1  0.33286014  0.33133666  0.48017425  1
  Ga  Ga39  1  0.16704911  0.66805351  0.01700746  1
  Ga  Ga40  1  0.66546195  0.66687376  0.01743658  1
  Ga  Ga41  1  0.66619156  0.65329068  0.31551995  1
  Si  Si42  1  0.85165737  0.70433050  0.25137315  1
  Si  Si43  1  0.35497541  0.00416013  0.74842513  1
  Si  Si44  1  0.85411877  0.00033354  0.75105723  1
  S  S45  1  0.14725521  0.00525014  0.25014567  1
  S  S46  1  0.64273557  0.99620830  0.25051856  1
  S  S47  1  0.35459154  0.70877106  0.24960158  1
  S  S48  1  0.00413544  0.29207145  0.24979212  1
  S  S49  1  0.49884672  0.29037247  0.25033297  1
  S  S50  1  0.14555694  0.28495096  0.74946475  1
  S  S51  1  0.64259351  0.28809317  0.75012519  1
  S  S52  1  0.00221653  0.71562005  0.74959945  1
  S  S53  1  0.49946360  0.70913957  0.74963760  1
  S  S54  1  0.47936733  0.33392658  0.58220205  1
  S  S55  1  0.98283500  0.33414769  0.58354346  1
  S  S56  1  0.18558726  0.04244704  0.58329989  1
  S  S57  1  0.68181512  0.03623554  0.58481434  1
  S  S58  1  0.33447901  0.61944764  0.58417773  1
  S  S59  1  0.83449134  0.62872180  0.58411081  1
  S  S60  1  0.48230182  0.63217614  0.08297700  1
  S  S61  1  0.98342031  0.63108266  0.08263509  1
  S  S62  1  0.33329960  0.03596735  0.08332611  1
  S  S63  1  0.83320180  0.03649948  0.08270708  1
  S  S64  1  0.18351949  0.33152932  0.08358284  1
  S  S65  1  0.68285686  0.33239487  0.08239009  1
  S  S66  1  0.31387726  0.66615866  0.91676355  1
  S  S67  1  0.81393201  0.66678072  0.91690064  1
  S  S68  1  0.02195287  0.37481163  0.91618184  1
  S  S69  1  0.52155008  0.37489404  0.91728010  1
  S  S70  1  0.16437236  0.96026316  0.91682265  1
  S  S71  1  0.66395745  0.95984585  0.91558853  1
  S  S72  1  0.31389835  0.96376098  0.41889519  1
  S  S73  1  0.81405749  0.96163294  0.41546334  1
  S  S74  1  0.16599519  0.36732336  0.41666733  1
  S  S75  1  0.66581739  0.37247030  0.41767424  1
  S  S76  1  0.02020105  0.66873105  0.41586283  1
  S  S77  1  0.52061224  0.66397224  0.41704323  1
  O  O78  1  0.10790653  0.03719354  0.30479613  1
  O  O79  1  0.60329158  0.02781170  0.30325604  1
  O  O80  1  0.40922396  0.79252532  0.30272142  1
  O  O81  1  0.91890865  0.79556020  0.30817513  1
  O  O82  1  0.48659961  0.18210837  0.30349327  1
  O  O83  1  0.98812444  0.18034398  0.30408369  1
  O  O84  1  0.10990463  0.17469153  0.80452361  1
  O  O85  1  0.60598435  0.16951885  0.80411278  1
  O  O86  1  0.48330233  0.78903221  0.80406213  1
  O  O87  1  0.98639933  0.79463537  0.80436095  1
  O  O88  1  0.41563756  0.04199442  0.80879652  1
  O  O89  1  0.92162013  0.04779797  0.80875633  1
  O  O90  1  0.39862500  0.95628803  0.69057796  1
  O  O91  1  0.89744011  0.95358636  0.69327644  1
  O  O92  1  0.09011142  0.20395636  0.69554398  1
  O  O93  1  0.59047578  0.20729845  0.69516292  1
  O  O94  1  0.02055566  0.82669731  0.69514111  1
  O  O95  1  0.52125477  0.82589895  0.69559678  1
  O  O96  1  0.39483845  0.82002372  0.19350031  1
  O  O97  1  0.89301540  0.84018631  0.19266874  1
  O  O98  1  0.02153804  0.21666472  0.19488600  1
  O  O99  1  0.51674306  0.21442952  0.19447514  1
  O  O100  1  0.08901423  0.96923491  0.19585300  1
  O  O101  1  0.58974160  0.96943148  0.19436541  1
  O  O102  1  0.43965385  0.36531304  0.63729296  1
  O  O103  1  0.94428593  0.35727745  0.64039400  1
  O  O104  1  0.24029246  0.12326024  0.63828194  1
  O  O105  1  0.73285244  0.11382547  0.64103523  1
  O  O106  1  0.32183447  0.51286880  0.64067356  1
  O  O107  1  0.82318132  0.52901649  0.64109069  1
  O  O108  1  0.44325649  0.52277521  0.13694994  1
  O  O109  1  0.94560164  0.52573150  0.13830959  1
  O  O110  1  0.31806596  0.11409600  0.13725342  1
  O  O111  1  0.81968840  0.11230391  0.13871012  1
  O  O112  1  0.23823306  0.36213158  0.13732524  1
  O  O113  1  0.73677023  0.36218914  0.13642248  1
  O  O114  1  0.22326412  0.30310410  0.02919724  1
  O  O115  1  0.72266867  0.30358796  0.02829923  1
  O  O116  1  0.42849663  0.55314437  0.02881053  1
  O  O117  1  0.92769140  0.54780390  0.02979821  1
  O  O118  1  0.34780197  0.14340743  0.02883617  1
  O  O119  1  0.84473285  0.14642357  0.02973203  1
  O  O120  1  0.22667332  0.15632279  0.52945317  1
  O  O121  1  0.72368939  0.14864636  0.53211566  1
  O  O122  1  0.34756586  0.53291762  0.53052520  1
  O  O123  1  0.84598454  0.54081456  0.53192735  1
  O  O124  1  0.42151052  0.30113004  0.52898014  1
  O  O125  1  0.92542276  0.30509280  0.53169074  1
  O  O126  1  0.27173168  0.69861291  0.97052870  1
  O  O127  1  0.77103793  0.69757244  0.97045679  1
  O  O128  1  0.07824904  0.46121717  0.97012058  1
  O  O129  1  0.57716107  0.45746662  0.97202339  1
  O  O130  1  0.14821772  0.84805211  0.97192119  1
  O  O131  1  0.64914907  0.84615119  0.96996050  1
  O  O132  1  0.27206988  0.85543139  0.47279071  1
  O  O133  1  0.77269225  0.84924779  0.46827682  1
  O  O134  1  0.15219328  0.44626839  0.47103941  1
  O  O135  1  0.65245941  0.45640510  0.47066300  1
  O  O136  1  0.07535811  0.69264979  0.46877868  1
  O  O137  1  0.57370724  0.68835813  0.47070744  1
  O  O138  1  0.06017929  0.64644428  0.35960247  1
  O  O139  1  0.56051059  0.63291639  0.36167210  1
  O  O140  1  0.26025025  0.88835887  0.36433257  1
  O  O141  1  0.76025117  0.88174418  0.35938633  1
  O  O142  1  0.18147304  0.47633036  0.36240004  1
  O  O143  1  0.68109812  0.48249548  0.36174227  1
  O  O144  1  0.06183332  0.47749777  0.86052817  1
  O  O145  1  0.56257272  0.48037614  0.86311758  1
  O  O146  1  0.17739994  0.87881726  0.86319874  1
  O  O147  1  0.67709722  0.88058207  0.86068526  1
  O  O148  1  0.26190666  0.64132775  0.86162260  1
  O  O149  1  0.76264538  0.64224584  0.86140833  1
  O  O150  1  0.01440292  0.83750095  0.41314764  1
  O  O151  1  0.50938281  0.82155116  0.41014967  1
  O  O152  1  0.40400367  0.98539783  0.41299454  1
  O  O153  1  0.90570032  0.98211955  0.41025850  1
  O  O154  1  0.08508929  0.18563515  0.41004032  1
  O  O155  1  0.58530012  0.19428437  0.41094909  1
  O  O156  1  0.01634908  0.19558722  0.91415424  1
  O  O157  1  0.51636527  0.19553528  0.91451169  1
  O  O158  1  0.08107144  0.97502569  0.91121663  1
  O  O159  1  0.58110741  0.97484400  0.91050297  1
  O  O160  1  0.40513497  0.83060461  0.91326212  1
  O  O161  1  0.90500475  0.83067491  0.91344452  1
  O  O162  1  0.48728271  0.17003871  0.58743746  1
  O  O163  1  0.99293650  0.17028640  0.58773117  1
  O  O164  1  0.09605913  0.02756238  0.59013046  1
  O  O165  1  0.59012222  0.02071317  0.59051384  1
  O  O166  1  0.41798153  0.79711366  0.58724688  1
  O  O167  1  0.91967743  0.80918785  0.58645566  1
  O  O168  1  0.49292433  0.81478296  0.08960787  1
  O  O169  1  0.99457465  0.81407809  0.08805877  1
  O  O170  1  0.41463043  0.01552594  0.08976406  1
  O  O171  1  0.91600278  0.02146668  0.08624766  1
  O  O172  1  0.09201518  0.16947709  0.09049411  1
  O  O173  1  0.59151522  0.16988446  0.08941327  1
  O  O174  1  0.34654169  0.18457181  0.74343165  1
  O  O175  1  0.84400069  0.17810131  0.74646030  1
  O  O176  1  0.23886214  0.31998982  0.74238896  1
  O  O177  1  0.73507693  0.31535523  0.74424177  1
  O  O178  1  0.41514759  0.53554403  0.74192021  1
  O  O179  1  0.91822054  0.53844528  0.74366059  1
  O  O180  1  0.34587584  0.53092883  0.24268190  1
  O  O181  1  0.84662718  0.51392541  0.24554880  1
  O  O182  1  0.41874315  0.30798868  0.24284834  1
  O  O183  1  0.92055277  0.30237544  0.24294612  1
  O  O184  1  0.23629308  0.16223605  0.24283374  1
  O  O185  1  0.73529961  0.14986137  0.24288014  1
  O  O186  1  0.32318507  0.50714966  0.92409275  1
  O  O187  1  0.82314730  0.50707949  0.92402626  1
  O  O188  1  0.43145762  0.35253782  0.92373896  1
  O  O189  1  0.93193383  0.35348618  0.92296547  1
  O  O190  1  0.24392153  0.13886908  0.92382343  1
  O  O191  1  0.74411461  0.13798997  0.92273980  1
  O  O192  1  0.32244510  0.14700326  0.42438631  1
  O  O193  1  0.82308762  0.14029004  0.42094106  1
  O  O194  1  0.24866308  0.34953625  0.42286917  1
  O  O195  1  0.74704416  0.35636529  0.42221099  1
  O  O196  1  0.42882572  0.49814565  0.42204939  1
  O  O197  1  0.92981591  0.51064433  0.42150311  1
  O  O198  1  0.17392239  0.49551550  0.07648756  1
  O  O199  1  0.67345706  0.49607849  0.07584812  1
  O  O200  1  0.07470200  0.64918534  0.07598320  1
  O  O201  1  0.57431476  0.65207661  0.07636102  1
  O  O202  1  0.25166991  0.85233071  0.07658462  1
  O  O203  1  0.75156682  0.85321620  0.07642381  1
  O  O204  1  0.17717639  0.86514642  0.57742601  1
  O  O205  1  0.67135805  0.85678992  0.57874560  1
  O  O206  1  0.25482407  0.63919309  0.57894298  1
  O  O207  1  0.75547165  0.65246489  0.57930471  1
  O  O208  1  0.07254285  0.49426370  0.57782262  1
  O  O209  1  0.56828796  0.49299080  0.57662494  1
  O  O210  1  0.15235411  0.83850016  0.25618062  1
  O  O211  1  0.65022953  0.83137616  0.25603004  1
  O  O212  1  0.26499768  0.69271712  0.25409438  1
  O  O213  1  0.75418457  0.69577527  0.25782330  1
  O  O214  1  0.08083633  0.47561053  0.25611271  1
  O  O215  1  0.58021821  0.47228809  0.25523364  1
  O  O216  1  0.15033267  0.46125332  0.75627337  1
  O  O217  1  0.65005052  0.46408624  0.75728469  1
  O  O218  1  0.07743195  0.68145241  0.75620055  1
  O  O219  1  0.57715371  0.68375193  0.75670968  1
  O  O220  1  0.25812267  0.82284829  0.75242298  1
  O  O221  1  0.75506623  0.82266232  0.75495116  1
