# generated using pymatgen
data_Tm2MgMo2(ClO4)2
_symmetry_space_group_name_H-M   'P 1'
_cell_length_a   6.58756745
_cell_length_b   6.58756660
_cell_length_c   7.08653682
_cell_angle_alpha   75.97612367
_cell_angle_beta   75.97612550
_cell_angle_gamma   61.92101049
_symmetry_Int_Tables_number   1
_chemical_formula_structural   Tm2MgMo2(ClO4)2
_chemical_formula_sum   'Tm2 Mg1 Mo2 Cl2 O8'
_cell_volume   260.27231663
_cell_formula_units_Z   1
loop_
 _symmetry_equiv_pos_site_id
 _symmetry_equiv_pos_as_xyz
  1  'x, y, z'
loop_
 _atom_site_type_symbol
 _atom_site_label
 _atom_site_symmetry_multiplicity
 _atom_site_fract_x
 _atom_site_fract_y
 _atom_site_fract_z
 _atom_site_occupancy
  Tm  Tm0  1  0.26713300  0.28634220  0.87897845  1
  Tm  Tm1  1  0.71365780  0.73286700  0.12102155  1
  Mg  Mg2  1  0.75717652  0.24282348  1.00000000  1
  Mo  Mo3  1  0.62433961  0.67366842  0.70563160  1
  Mo  Mo4  1  0.32633158  0.37566039  0.29436840  1
  Cl  Cl5  1  0.06412722  0.04705267  0.20524592  1
  Cl  Cl6  1  0.95294733  0.93587278  0.79475408  1
  O  O7  1  0.29456250  0.29533797  0.55686811  1
  O  O8  1  0.70466203  0.70543750  0.44313189  1
  O  O9  1  0.51781531  0.11730822  0.14428962  1
  O  O10  1  0.55146943  0.49423548  0.19831905  1
  O  O11  1  0.88269178  0.48218469  0.85571038  1
  O  O12  1  0.09606579  0.51916141  0.13407103  1
  O  O13  1  0.50576452  0.44853057  0.80168095  1
  O  O14  1  0.48083859  0.90393421  0.86592897  1
