# generated using pymatgen
data_K3W2Cl9
_symmetry_space_group_name_H-M   'P 1'
_cell_length_a   7.23184069
_cell_length_b   7.23145894
_cell_length_c   16.40074696
_cell_angle_alpha   90.00174677
_cell_angle_beta   89.98957915
_cell_angle_gamma   119.99415834
_symmetry_Int_Tables_number   1
_chemical_formula_structural   K3W2Cl9
_chemical_formula_sum   'K6 W4 Cl18'
_cell_volume   742.83881477
_cell_formula_units_Z   2
loop_
 _symmetry_equiv_pos_site_id
 _symmetry_equiv_pos_as_xyz
  1  'x, y, z'
loop_
 _atom_site_type_symbol
 _atom_site_label
 _atom_site_symmetry_multiplicity
 _atom_site_fract_x
 _atom_site_fract_y
 _atom_site_fract_z
 _atom_site_occupancy
  K  K0  1  0.00096482  1.00048025  0.24992292  1
  K  K1  1  0.00076548  0.00028091  0.75004289  1
  K  K2  1  0.33285167  0.66657075  0.56946481  1
  K  K3  1  0.66617370  0.33310194  0.06962181  1
  K  K4  1  0.33298445  0.66680140  0.93031451  1
  K  K5  1  0.66622492  0.33306538  0.43044532  1
  W  W6  1  0.33329776  0.66662176  0.32623594  1
  W  W7  1  0.66657180  0.33329281  0.82645663  1
  W  W8  1  0.66659952  0.33331916  0.67378915  1
  W  W9  1  0.33353281  0.66673867  0.17355063  1
  Cl  Cl10  1  0.11913228  0.35395680  0.09279580  1
  Cl  Cl11  1  0.76494598  0.11913016  0.59284706  1
  Cl  Cl12  1  0.35374571  0.23476328  0.59309313  1
  Cl  Cl13  1  0.64574491  0.76495404  0.09251982  1
  Cl  Cl14  1  0.23484598  0.88090474  0.09280439  1
  Cl  Cl15  1  0.88071814  0.64593813  0.59287398  1
  Cl  Cl16  1  0.88064711  0.64587982  0.90735884  1
  Cl  Cl17  1  0.23468953  0.88092863  0.40697950  1
  Cl  Cl18  1  0.64565653  0.76494999  0.40726704  1
  Cl  Cl19  1  0.35376412  0.23475699  0.90716935  1
  Cl  Cl20  1  0.44250921  0.43358464  0.24991543  1
  Cl  Cl21  1  0.00866486  0.44178892  0.75009377  1
  Cl  Cl22  1  0.43357621  0.99119719  0.75011066  1
  Cl  Cl23  1  0.56741978  0.00853331  0.24991043  1
  Cl  Cl24  1  0.99140966  0.55822082  0.24990201  1
  Cl  Cl25  1  0.55867881  0.56727576  0.75013368  1
  Cl  Cl26  1  0.11893773  0.35383006  0.40700397  1
  Cl  Cl27  1  0.76494850  0.11913272  0.90737555  1
