# generated using pymatgen
data_Ni(HO)2
_symmetry_space_group_name_H-M   'P 1'
_cell_length_a   4.47344830
_cell_length_b   5.46105412
_cell_length_c   5.46105378
_cell_angle_alpha   33.22159756
_cell_angle_beta   34.94392245
_cell_angle_gamma   34.94392135
_symmetry_Int_Tables_number   1
_chemical_formula_structural   Ni(HO)2
_chemical_formula_sum   'Ni1 H2 O2'
_cell_volume   37.85891767
_cell_formula_units_Z   1
loop_
 _symmetry_equiv_pos_site_id
 _symmetry_equiv_pos_as_xyz
  1  'x, y, z'
loop_
 _atom_site_type_symbol
 _atom_site_label
 _atom_site_symmetry_multiplicity
 _atom_site_fract_x
 _atom_site_fract_y
 _atom_site_fract_z
 _atom_site_occupancy
  Ni  Ni0  1  0.00000000  0.88708603  0.11291397  1
  H  H1  1  0.22616174  0.55383267  0.77907986  1
  H  H2  1  0.77383826  0.22092014  0.44616733  1
  O  O3  1  0.44150921  0.55412454  0.77948638  1
  O  O4  1  0.55849079  0.22051362  0.44587546  1
