# generated using pymatgen
data_Na5In3Si3Sn(SO8)3
_symmetry_space_group_name_H-M   'P 1'
_cell_length_a   9.13155018
_cell_length_b   9.12327966
_cell_length_c   22.94955196
_cell_angle_alpha   90.73365412
_cell_angle_beta   90.32500763
_cell_angle_gamma   120.11083367
_symmetry_Int_Tables_number   1
_chemical_formula_structural   Na5In3Si3Sn(SO8)3
_chemical_formula_sum   'Na15 In9 Si9 Sn3 S9 O72'
_cell_volume   1653.62164745
_cell_formula_units_Z   3
loop_
 _symmetry_equiv_pos_site_id
 _symmetry_equiv_pos_as_xyz
  1  'x, y, z'
loop_
 _atom_site_type_symbol
 _atom_site_label
 _atom_site_symmetry_multiplicity
 _atom_site_fract_x
 _atom_site_fract_y
 _atom_site_fract_z
 _atom_site_occupancy
  Na  Na0  1  0.64654397  0.00787019  0.25686396  1
  Na  Na1  1  0.00144300  0.61962968  0.24786451  1
  Na  Na2  1  0.62659954  0.63409261  0.74579498  1
  Na  Na3  1  0.37176259  0.01542202  0.75733201  1
  Na  Na4  1  0.66717938  0.95119704  0.58576506  1
  Na  Na5  1  0.97216554  0.68401273  0.92293176  1
  Na  Na6  1  0.69223038  0.01495896  0.91099466  1
  Na  Na7  1  0.96147482  0.30226386  0.40913382  1
  Na  Na8  1  0.70981381  0.68529935  0.42459782  1
  Na  Na9  1  -0.00033549  0.97553588  0.50165379  1
  Na  Na10  1  0.00802291  0.98388092  0.99859624  1
  Na  Na11  1  0.64449198  0.32198820  0.83146860  1
  Na  Na12  1  0.66924936  0.32295935  0.33438746  1
  Na  Na13  1  0.30325862  0.63553168  0.16038487  1
  Na  Na14  1  0.33365972  0.63940634  0.66759314  1
  In  In15  1  0.99603709  0.99923369  0.35121151  1
  In  In16  1  0.00403211  0.00960530  0.84971042  1
  In  In17  1  0.99143446  0.99767362  0.65281529  1
  In  In18  1  0.00154031  0.00008691  0.14483086  1
  In  In19  1  0.65860456  0.33590021  0.68559073  1
  In  In20  1  0.68450452  0.34155218  0.17971374  1
  In  In21  1  0.33255535  0.67739020  0.01718794  1
  In  In22  1  0.33891927  0.67336616  0.51585024  1
  In  In23  1  0.32075725  0.66326318  0.32051413  1
  Si  Si24  1  0.00455864  0.29552057  0.24988238  1
  Si  Si25  1  0.28978399  0.29652723  0.75013865  1
  Si  Si26  1  0.69946077  0.00306008  0.75048075  1
  Si  Si27  1  0.66693661  0.63261137  0.58406096  1
  Si  Si28  1  0.97057331  0.63474593  0.08374061  1
  Si  Si29  1  0.62980271  0.66721924  0.91852449  1
  Si  Si30  1  0.33215468  0.96445567  0.91671323  1
  Si  Si31  1  0.62974108  0.96763097  0.41721882  1
  Si  Si32  1  0.03418424  0.66765946  0.41731891  1
  Sn  Sn33  1  0.65890434  0.34297182  0.98131108  1
  Sn  Sn34  1  0.67355424  0.34073009  0.48318073  1
  Sn  Sn35  1  0.35177878  0.67168372  0.81684348  1
  S  S36  1  0.29933224  0.00456042  0.24930750  1
  S  S37  1  0.69788456  0.69892280  0.24977426  1
  S  S38  1  0.00558465  0.70163271  0.75166038  1
  S  S39  1  0.96257325  0.33508087  0.58266628  1
  S  S40  1  0.37126319  0.04152382  0.58176185  1
  S  S41  1  0.66593308  0.03961139  0.08245496  1
  S  S42  1  0.37393731  0.33353536  0.08414133  1
  S  S43  1  0.03857815  0.37544526  0.91749967  1
  S  S44  1  0.33742647  0.36956783  0.41761755  1
  O  O45  1  0.22385558  0.02615640  0.30299160  1
  O  O46  1  0.80367492  0.76976434  0.30406985  1
  O  O47  1  0.97043051  0.18647431  0.30998468  1
  O  O48  1  0.21579658  0.16932257  0.80435817  1
  O  O49  1  0.97340875  0.77474986  0.80466600  1
  O  O50  1  0.80299377  0.02383654  0.81075209  1
  O  O51  1  0.76772554  0.95181035  0.69198995  1
  O  O52  1  0.18476280  0.21294485  0.68954044  1
  O  O53  1  0.03818970  0.80918039  0.69994050  1
  O  O54  1  0.78241546  0.80685989  0.19938432  1
  O  O55  1  0.02086684  0.19632052  0.19356062  1
  O  O56  1  0.18934059  0.97150140  0.19753271  1
  O  O57  1  0.87709552  0.35399825  0.63366701  1
  O  O58  1  0.47534109  0.11655950  0.63559465  1
  O  O59  1  0.65046417  0.52702978  0.64214249  1
  O  O60  1  0.89359888  0.53832329  0.14549698  1
  O  O61  1  0.64192578  0.11398372  0.13749570  1
  O  O62  1  0.47456162  0.35035628  0.13737316  1
  O  O63  1  0.45165709  0.30437685  0.03070311  1
  O  O64  1  0.84797255  0.53489945  0.02511832  1
  O  O65  1  0.67940959  0.14425645  0.03084110  1
  O  O66  1  0.46062177  0.14659633  0.52979140  1
  O  O67  1  0.68396426  0.54020846  0.52301055  1
  O  O68  1  0.85573101  0.30486244  0.52744632  1
  O  O69  1  0.53843955  0.69752689  0.97341269  1
  O  O70  1  0.13992098  0.45087903  0.97097340  1
  O  O71  1  0.28684484  0.83939014  0.97069082  1
  O  O72  1  0.55528328  0.84745825  0.47343327  1
  O  O73  1  0.30710637  0.44542718  0.46958796  1
  O  O74  1  0.14735952  0.68559820  0.47386430  1
  O  O75  1  0.09449397  0.61496816  0.35709056  1
  O  O76  1  0.52458072  0.88567310  0.35559986  1
  O  O77  1  0.37247908  0.47650201  0.36536702  1
  O  O78  1  0.11752803  0.48319436  0.86539788  1
  O  O79  1  0.37101767  0.88316235  0.85649159  1
  O  O80  1  0.52023436  0.62873742  0.85692750  1
  O  O81  1  0.00600105  0.83091502  0.41157844  1
  O  O82  1  0.82423393  0.99964531  0.41394359  1
  O  O83  1  0.18662816  0.20023661  0.41060479  1
  O  O84  1  0.01060607  0.20313179  0.91227521  1
  O  O85  1  0.16575315  0.98324014  0.91035436  1
  O  O86  1  0.81807605  0.83812418  0.91375688  1
  O  O87  1  0.97279156  0.17770967  0.58442591  1
  O  O88  1  0.20449069  0.02576829  0.58450637  1
  O  O89  1  0.83842335  0.82483452  0.58478054  1
  O  O90  1  0.98048934  0.82106067  0.08459351  1
  O  O91  1  0.82376522  0.03188488  0.08426878  1
  O  O92  1  0.20349850  0.18153259  0.08554825  1
  O  O93  1  0.67173932  0.16640412  0.74392372  1
  O  O94  1  0.48746366  0.33363819  0.74794342  1
  O  O95  1  0.85440090  0.53208029  0.74426335  1
  O  O96  1  0.67598758  0.52661308  0.24385831  1
  O  O97  1  0.82612130  0.30871163  0.24727137  1
  O  O98  1  0.47109705  0.15662837  0.24319477  1
  O  O99  1  0.66039600  0.50170934  0.92093030  1
  O  O100  1  0.86705995  0.36126600  0.92141859  1
  O  O101  1  0.52053098  0.14479643  0.92535666  1
  O  O102  1  0.64807165  0.15844865  0.42535389  1
  O  O103  1  0.49189337  0.35340617  0.42388101  1
  O  O104  1  0.83868374  0.49620811  0.42250773  1
  O  O105  1  0.36411503  0.48926809  0.07966553  1
  O  O106  1  0.15331259  0.64335338  0.07979580  1
  O  O107  1  0.51725236  0.86863470  0.07950144  1
  O  O108  1  0.35977474  0.87321625  0.57735368  1
  O  O109  1  0.49803592  0.65570114  0.58018002  1
  O  O110  1  0.13009767  0.48684684  0.57746728  1
  O  O111  1  0.32118945  0.85180558  0.25257091  1
  O  O112  1  0.53265534  0.69148482  0.25562292  1
  O  O113  1  0.16783712  0.49126429  0.25278773  1
  O  O114  1  0.30648655  0.48689277  0.75678345  1
  O  O115  1  0.16029939  0.68736915  0.75859981  1
  O  O116  1  0.50445615  0.83056374  0.75375867  1
