# generated using pymatgen
data_Na14Hf4Mg4Si7S5O48
_symmetry_space_group_name_H-M   'P 1'
_cell_length_a   18.27348792
_cell_length_b   9.14756333
_cell_length_c   22.40723644
_cell_angle_alpha   90.06757543
_cell_angle_beta   89.84543610
_cell_angle_gamma   119.93429532
_symmetry_Int_Tables_number   1
_chemical_formula_structural   Na14Hf4Mg4Si7S5O48
_chemical_formula_sum   'Na42 Hf12 Mg12 Si21 S15 O144'
_cell_volume   3245.87188493
_cell_formula_units_Z   3
loop_
 _symmetry_equiv_pos_site_id
 _symmetry_equiv_pos_as_xyz
  1  'x, y, z'
loop_
 _atom_site_type_symbol
 _atom_site_label
 _atom_site_symmetry_multiplicity
 _atom_site_fract_x
 _atom_site_fract_y
 _atom_site_fract_z
 _atom_site_occupancy
  Na  Na0  1  0.80532078  0.98327253  0.25888227  1
  Na  Na1  1  0.18356461  0.35331773  0.25761353  1
  Na  Na2  1  0.69296402  0.36727623  0.25731154  1
  Na  Na3  1  0.98972881  0.64343532  0.24400536  1
  Na  Na4  1  0.50181674  0.65095599  0.25290280  1
  Na  Na5  1  0.30634637  0.62856847  0.74435993  1
  Na  Na6  1  0.00108776  0.34990114  0.74639931  1
  Na  Na7  1  0.49263439  0.34196046  0.73705146  1
  Na  Na8  1  0.19170177  0.01740455  0.75169475  1
  Na  Na9  1  0.68618419  0.01528461  0.75199029  1
  Na  Na10  1  0.14771547  0.33022198  0.58661557  1
  Na  Na11  1  0.65906294  0.33608518  0.58023350  1
  Na  Na12  1  0.33885186  0.99654344  0.57881659  1
  Na  Na13  1  0.83624072  0.98350777  0.57670473  1
  Na  Na14  1  0.15746718  0.98250855  0.08728779  1
  Na  Na15  1  0.64822743  0.96483169  0.09188151  1
  Na  Na16  1  0.33606873  0.68757929  0.08759233  1
  Na  Na17  1  0.83744660  0.68550526  0.08439267  1
  Na  Na18  1  0.48338751  0.67856207  0.92658622  1
  Na  Na19  1  0.97288784  0.66479087  0.92324174  1
  Na  Na20  1  0.35447980  0.04303803  0.91488556  1
  Na  Na21  1  0.84885590  0.02967336  0.90795621  1
  Na  Na22  1  0.16774632  0.28548824  0.91354638  1
  Na  Na23  1  0.67324519  0.29083013  0.90613824  1
  Na  Na24  1  0.47564721  0.28511234  0.42433446  1
  Na  Na25  1  0.97411724  0.27091018  0.42639081  1
  Na  Na26  1  0.17080861  0.05674735  0.40624438  1
  Na  Na27  1  0.67790681  0.04166538  0.41126847  1
  Na  Na28  1  0.35093024  0.66987362  0.40851413  1
  Na  Na29  1  0.85028435  0.68014066  0.41752812  1
  Na  Na30  1  0.98965983  0.99536413  0.49328250  1
  Na  Na31  1  0.50382485  0.00339170  0.49747461  1
  Na  Na32  1  0.99880077  0.99793011  0.00065949  1
  Na  Na33  1  0.49974317  0.00071095  0.00123781  1
  Na  Na34  1  0.32484227  0.31747681  0.82179082  1
  Na  Na35  1  0.82177381  0.33226537  0.83285945  1
  Na  Na36  1  0.32346326  0.31340071  0.33626709  1
  Na  Na37  1  0.82249563  0.31339885  0.33081997  1
  Na  Na38  1  0.16936838  0.67936857  0.17056777  1
  Na  Na39  1  0.66208266  0.66431993  0.17876161  1
  Na  Na40  1  0.16028400  0.65584628  0.67452969  1
  Na  Na41  1  0.66890203  0.65865539  0.66237595  1
  Hf  Hf42  1  0.99368945  0.00007278  0.64903856  1
  Hf  Hf43  1  0.50092099  0.01469467  0.64946292  1
  Hf  Hf44  1  0.00073041  0.98912645  0.14994791  1
  Hf  Hf45  1  0.49382163  0.98827781  0.15026400  1
  Hf  Hf46  1  0.83085637  0.33296939  0.68091292  1
  Hf  Hf47  1  0.33000220  0.32631461  0.18175057  1
  Hf  Hf48  1  0.16481502  0.66497682  0.02562491  1
  Hf  Hf49  1  0.66593798  0.67260078  0.01712506  1
  Hf  Hf50  1  0.16585754  0.66037065  0.51715835  1
  Hf  Hf51  1  0.67147154  0.67557539  0.52252147  1
  Hf  Hf52  1  0.17739674  0.68005159  0.31420749  1
  Hf  Hf53  1  0.67766156  0.67623653  0.81294913  1
  Mg  Mg54  1  0.99901568  0.99857934  0.35157039  1
  Mg  Mg55  1  0.49800703  0.99186185  0.34649752  1
  Mg  Mg56  1  0.99626266  0.00076452  0.84500843  1
  Mg  Mg57  1  0.50658525  0.00960976  0.84642560  1
  Mg  Mg58  1  0.33619052  0.32590507  0.68561416  1
  Mg  Mg59  1  0.83612260  0.34212037  0.18730228  1
  Mg  Mg60  1  0.33514374  0.33405663  0.99908564  1
  Mg  Mg61  1  0.83157919  0.33996043  0.97976052  1
  Mg  Mg62  1  0.33326293  0.32644929  0.47950285  1
  Mg  Mg63  1  0.83247337  0.32085138  0.49000159  1
  Mg  Mg64  1  0.67374285  0.68786709  0.31325438  1
  Mg  Mg65  1  0.16837383  0.66241248  0.81085758  1
  Si  Si66  1  0.14789525  0.99832332  0.25392929  1
  Si  Si67  1  0.64975912  0.00504040  0.25089221  1
  Si  Si68  1  0.35116451  0.69456222  0.25259328  1
  Si  Si69  1  0.84961060  0.69979871  0.25336938  1
  Si  Si70  1  0.14993340  0.29320681  0.75286458  1
  Si  Si71  1  0.65020139  0.30187794  0.75347914  1
  Si  Si72  1  0.34996365  0.99608475  0.75570201  1
  Si  Si73  1  0.85195390  0.00953180  0.75328850  1
  Si  Si74  1  0.47820177  0.33641490  0.58279672  1
  Si  Si75  1  0.98565499  0.34252509  0.58421102  1
  Si  Si76  1  0.68113070  0.03510000  0.58148616  1
  Si  Si77  1  0.83900731  0.62928868  0.57574403  1
  Si  Si78  1  0.48463858  0.63029141  0.08245259  1
  Si  Si79  1  0.97552722  0.61986952  0.08291267  1
  Si  Si80  1  0.33895843  0.04365939  0.07544119  1
  Si  Si81  1  0.18204937  0.32643912  0.07944833  1
  Si  Si82  1  0.82001499  0.67086731  0.91931394  1
  Si  Si83  1  0.66343699  0.96569354  0.91579349  1
  Si  Si84  1  0.32019938  0.96972848  0.41983471  1
  Si  Si85  1  0.81581344  0.97265121  0.41400974  1
  Si  Si86  1  0.16663021  0.36584148  0.41606066  1
  S  S87  1  0.99920146  0.29038393  0.25158092  1
  S  S88  1  0.49844910  0.29045150  0.25251729  1
  S  S89  1  0.99967593  0.70729685  0.75344862  1
  S  S90  1  0.49824562  0.70647967  0.75347871  1
  S  S91  1  0.18615109  0.03860427  0.58383618  1
  S  S92  1  0.33299451  0.62580653  0.58291907  1
  S  S93  1  0.83309062  0.04171407  0.08123791  1
  S  S94  1  0.68566267  0.33355202  0.08252492  1
  S  S95  1  0.31165760  0.66212292  0.91507872  1
  S  S96  1  0.02382885  0.37964786  0.91553216  1
  S  S97  1  0.51917814  0.37758588  0.91535215  1
  S  S98  1  0.16719515  0.95586044  0.91423636  1
  S  S99  1  0.66461787  0.37425984  0.41365240  1
  S  S100  1  0.02125799  0.66360795  0.41482132  1
  S  S101  1  0.52221115  0.66653725  0.41563473  1
  O  O102  1  0.10849206  0.03789236  0.31171736  1
  O  O103  1  0.60825859  0.04375156  0.30911731  1
  O  O104  1  0.40655444  0.77971080  0.31124324  1
  O  O105  1  0.91093400  0.79392701  0.30958505  1
  O  O106  1  0.48636853  0.19268208  0.30721697  1
  O  O107  1  0.99099157  0.19579102  0.30624576  1
  O  O108  1  0.11056020  0.17502124  0.81236406  1
  O  O109  1  0.61344696  0.18740473  0.81274216  1
  O  O110  1  0.48884740  0.78389788  0.80866461  1
  O  O111  1  0.98899210  0.78169606  0.80859645  1
  O  O112  1  0.40770598  0.02029601  0.81437609  1
  O  O113  1  0.90616160  0.03469441  0.81271823  1
  O  O114  1  0.39778052  0.96575787  0.69680758  1
  O  O115  1  0.89855713  0.98670849  0.69378340  1
  O  O116  1  0.08934237  0.18720764  0.69481764  1
  O  O117  1  0.58852450  0.20436812  0.69531406  1
  O  O118  1  0.01010755  0.81537248  0.70078793  1
  O  O119  1  0.51301692  0.81935568  0.70126139  1
  O  O120  1  0.39611305  0.80865314  0.19205031  1
  O  O121  1  0.89687726  0.82353186  0.19272445  1
  O  O122  1  0.01425637  0.20800092  0.19876634  1
  O  O123  1  0.50734607  0.20105566  0.19939151  1
  O  O124  1  0.08968310  0.97354823  0.19325851  1
  O  O125  1  0.59033312  0.99157185  0.19149265  1
  O  O126  1  0.43903423  0.36006728  0.64426837  1
  O  O127  1  0.93978194  0.35837133  0.64488030  1
  O  O128  1  0.23819077  0.11655924  0.63739738  1
  O  O129  1  0.74299307  0.12646267  0.64028820  1
  O  O130  1  0.32003369  0.52453230  0.63707764  1
  O  O131  1  0.82210265  0.50354593  0.63277282  1
  O  O132  1  0.43462721  0.51551415  0.14051659  1
  O  O133  1  0.93681705  0.51574061  0.14328155  1
  O  O134  1  0.31868297  0.13601683  0.13050126  1
  O  O135  1  0.82024168  0.11731607  0.13489494  1
  O  O136  1  0.24470319  0.35936382  0.13715785  1
  O  O137  1  0.73786622  0.35971243  0.13561967  1
  O  O138  1  0.22068428  0.29002196  0.01984231  1
  O  O139  1  0.72291724  0.30403422  0.02802095  1
  O  O140  1  0.42906045  0.55741272  0.02214996  1
  O  O141  1  0.91997151  0.54197873  0.02309353  1
  O  O142  1  0.34984958  0.13933010  0.01320839  1
  O  O143  1  0.83938955  0.13414952  0.02625309  1
  O  O144  1  0.22380749  0.14361741  0.52984668  1
  O  O145  1  0.71770403  0.15223219  0.52310700  1
  O  O146  1  0.33920254  0.54406843  0.52839007  1
  O  O147  1  0.84785786  0.54830346  0.51474496  1
  O  O148  1  0.41865038  0.29690727  0.52458837  1
  O  O149  1  0.92931987  0.30409046  0.52529577  1
  O  O150  1  0.26824390  0.67800547  0.96964315  1
  O  O151  1  0.76952286  0.68790607  0.97885992  1
  O  O152  1  0.07861208  0.47597373  0.96747682  1
  O  O153  1  0.57312377  0.46835827  0.96860328  1
  O  O154  1  0.16320228  0.85763389  0.96922969  1
  O  O155  1  0.65171094  0.84019155  0.97387541  1
  O  O156  1  0.26995901  0.85248913  0.47957824  1
  O  O157  1  0.76522784  0.85041067  0.47334730  1
  O  O158  1  0.15532939  0.46740618  0.47461509  1
  O  O159  1  0.65660355  0.45985932  0.46875034  1
  O  O160  1  0.07569095  0.67979324  0.46804132  1
  O  O161  1  0.57567806  0.67819033  0.46751497  1
  O  O162  1  0.06408903  0.64713475  0.36083478  1
  O  O163  1  0.55756130  0.63886371  0.36030445  1
  O  O164  1  0.25598045  0.86251413  0.36372882  1
  O  O165  1  0.75637518  0.88675333  0.35619022  1
  O  O166  1  0.17491441  0.48514636  0.35796915  1
  O  O167  1  0.66776821  0.47259621  0.36054320  1
  O  O168  1  0.06176434  0.47942708  0.86097470  1
  O  O169  1  0.56199836  0.47625283  0.86126454  1
  O  O170  1  0.17229813  0.86539169  0.86137516  1
  O  O171  1  0.67134977  0.86159675  0.85816703  1
  O  O172  1  0.25996613  0.64551694  0.86200343  1
  O  O173  1  0.75588954  0.65036481  0.86330348  1
  O  O174  1  0.01788750  0.82220835  0.41419549  1
  O  O175  1  0.51904641  0.82648389  0.41482694  1
  O  O176  1  0.41215869  0.98109558  0.41611938  1
  O  O177  1  0.90718933  0.97863320  0.41405642  1
  O  O178  1  0.08302525  0.18095587  0.41586567  1
  O  O179  1  0.58803729  0.20262464  0.41411783  1
  O  O180  1  0.02083123  0.21405136  0.91542148  1
  O  O181  1  0.51182320  0.20859423  0.91528750  1
  O  O182  1  0.08929657  0.96889445  0.91558724  1
  O  O183  1  0.57732782  0.97900513  0.91540095  1
  O  O184  1  0.39641148  0.81641862  0.91368048  1
  O  O185  1  0.91217510  0.84302871  0.91575183  1
  O  O186  1  0.48647277  0.15815859  0.58887425  1
  O  O187  1  0.00021504  0.17529380  0.59085115  1
  O  O188  1  0.09999897  0.01454697  0.59049419  1
  O  O189  1  0.58649871  0.00738602  0.59348614  1
  O  O190  1  0.40689986  0.79951294  0.58742406  1
  O  O191  1  0.91792823  0.82250948  0.58770969  1
  O  O192  1  0.49874527  0.82522076  0.08933531  1
  O  O193  1  0.98679420  0.81546296  0.08815024  1
  O  O194  1  0.41778194  0.00995146  0.08686273  1
  O  O195  1  0.90714064  0.01472800  0.08540405  1
  O  O196  1  0.08832330  0.16375733  0.09052194  1
  O  O197  1  0.59924625  0.18563698  0.08854292  1
  O  O198  1  0.34316306  0.16755280  0.74782819  1
  O  O199  1  0.84336630  0.17967570  0.74715381  1
  O  O200  1  0.24658387  0.32937815  0.74245582  1
  O  O201  1  0.74421908  0.32611482  0.74319886  1
  O  O202  1  0.42185704  0.54065592  0.74611576  1
  O  O203  1  0.92560988  0.53498484  0.74641054  1
  O  O204  1  0.34291479  0.50730587  0.24554339  1
  O  O205  1  0.84143648  0.51302787  0.24705909  1
  O  O206  1  0.42405140  0.31455919  0.24454764  1
  O  O207  1  0.92265910  0.30312424  0.24392346  1
  O  O208  1  0.24231441  0.16269346  0.24323421  1
  O  O209  1  0.74623639  0.16067398  0.24114649  1
  O  O210  1  0.32032211  0.50886088  0.91818040  1
  O  O211  1  0.82468236  0.49785126  0.91797022  1
  O  O212  1  0.43571095  0.36623164  0.91916426  1
  O  O213  1  0.93809016  0.35533523  0.92309660  1
  O  O214  1  0.24395606  0.12651581  0.91518967  1
  O  O215  1  0.75130812  0.14511980  0.92067429  1
  O  O216  1  0.32481744  0.15179101  0.41859878  1
  O  O217  1  0.82717706  0.16241006  0.42063325  1
  O  O218  1  0.25554901  0.36512550  0.42061629  1
  O  O219  1  0.74255666  0.36258929  0.41540599  1
  O  O220  1  0.43535944  0.52079479  0.42342942  1
  O  O221  1  0.93798692  0.51356514  0.41860759  1
  O  O222  1  0.17885484  0.50380020  0.07595920  1
  O  O223  1  0.67880410  0.49013949  0.07606277  1
  O  O224  1  0.07666776  0.66764397  0.07501175  1
  O  O225  1  0.58177013  0.65743364  0.08106629  1
  O  O226  1  0.25316970  0.85042058  0.07447802  1
  O  O227  1  0.75475242  0.86385922  0.07804141  1
  O  O228  1  0.17967488  0.86918429  0.57755490  1
  O  O229  1  0.67740466  0.85140620  0.57859939  1
  O  O230  1  0.25487656  0.64721973  0.57982277  1
  O  O231  1  0.75215606  0.64809755  0.57635183  1
  O  O232  1  0.08349297  0.50874056  0.58264756  1
  O  O233  1  0.57745572  0.48655388  0.57389486  1
  O  O234  1  0.14697898  0.81673350  0.25619289  1
  O  O235  1  0.64694488  0.82246081  0.25112426  1
  O  O236  1  0.25360984  0.66403094  0.25217272  1
  O  O237  1  0.75437419  0.67591591  0.25300297  1
  O  O238  1  0.07533586  0.46493900  0.25389229  1
  O  O239  1  0.57579698  0.45855729  0.25456272  1
  O  O240  1  0.14991862  0.47386931  0.75398645  1
  O  O241  1  0.64730887  0.47941513  0.75566963  1
  O  O242  1  0.07756416  0.69276313  0.75575457  1
  O  O243  1  0.57406914  0.68403514  0.75632608  1
  O  O244  1  0.25424405  0.83044874  0.75474385  1
  O  O245  1  0.75430710  0.84504670  0.75284500  1
