# generated using pymatgen
data_Na7Y2Mg2P5SO24
_symmetry_space_group_name_H-M   'P 1'
_cell_length_a   9.16418919
_cell_length_b   9.18831573
_cell_length_c   22.93834318
_cell_angle_alpha   90.15711033
_cell_angle_beta   89.82474845
_cell_angle_gamma   119.91133093
_symmetry_Int_Tables_number   1
_chemical_formula_structural   Na7Y2Mg2P5SO24
_chemical_formula_sum   'Na21 Y6 Mg6 P15 S3 O72'
_cell_volume   1674.20069924
_cell_formula_units_Z   3
loop_
 _symmetry_equiv_pos_site_id
 _symmetry_equiv_pos_as_xyz
  1  'x, y, z'
loop_
 _atom_site_type_symbol
 _atom_site_label
 _atom_site_symmetry_multiplicity
 _atom_site_fract_x
 _atom_site_fract_y
 _atom_site_fract_z
 _atom_site_occupancy
  Na  Na0  1  0.64163608  0.99491835  0.25183734  1
  Na  Na1  1  0.00092925  0.62935702  0.25368933  1
  Na  Na2  1  0.63232574  0.63957141  0.74898703  1
  Na  Na3  1  0.00797453  0.36892988  0.75229198  1
  Na  Na4  1  0.36183415  0.99223834  0.75235636  1
  Na  Na5  1  0.29921169  0.33246224  0.58574309  1
  Na  Na6  1  0.03514576  0.70166796  0.58251260  1
  Na  Na7  1  0.66718881  0.96429243  0.58353758  1
  Na  Na8  1  0.29943229  0.96498155  0.08049645  1
  Na  Na9  1  0.66631109  0.69971999  0.08601351  1
  Na  Na10  1  0.03546348  0.33411039  0.08379526  1
  Na  Na11  1  0.98390195  0.66907289  0.91650352  1
  Na  Na12  1  0.32845132  0.29758251  0.91874554  1
  Na  Na13  1  0.96456787  0.30590485  0.41457410  1
  Na  Na14  1  0.70260482  0.67358838  0.41814626  1
  Na  Na15  1  0.00326998  0.99259897  0.50476494  1
  Na  Na16  1  0.99951903  0.00699158  0.00417324  1
  Na  Na17  1  0.66814999  0.31651197  0.83357734  1
  Na  Na18  1  0.66319104  0.33038052  0.33307580  1
  Na  Na19  1  0.33450699  0.64974723  0.16770234  1
  Na  Na20  1  0.33378533  0.66766181  0.66660479  1
  Y  Y21  1  -0.00005878  0.99748358  0.35087587  1
  Y  Y22  1  0.99758927  0.00472505  0.85061564  1
  Y  Y23  1  0.66703767  0.33334739  0.68040182  1
  Y  Y24  1  0.66554407  0.33755872  0.18137468  1
  Y  Y25  1  0.66831893  0.32147519  0.98362478  1
  Y  Y26  1  0.66388407  0.32508564  0.48379492  1
  Mg  Mg27  1  0.99938079  0.99954435  0.65239560  1
  Mg  Mg28  1  0.99339988  0.00491717  0.15121374  1
  Mg  Mg29  1  0.32647738  0.66787905  0.01617526  1
  Mg  Mg30  1  0.33464509  0.67899900  0.51578118  1
  Mg  Mg31  1  0.33350059  0.66234795  0.31719226  1
  Mg  Mg32  1  0.32756677  0.67127511  0.81654250  1
  P  P33  1  0.69904369  0.70562423  0.24897444  1
  P  P34  1  0.00732962  0.30247777  0.24915030  1
  P  P35  1  0.29563759  0.30142825  0.74910720  1
  P  P36  1  0.00415304  0.70584959  0.74918238  1
  P  P37  1  0.69905977  0.99347333  0.74748380  1
  P  P38  1  0.97693743  0.33332952  0.58272162  1
  P  P39  1  0.35759219  0.02600157  0.58448673  1
  P  P40  1  0.66549163  0.64053494  0.58218510  1
  P  P41  1  0.97322089  0.64163513  0.08275958  1
  P  P42  1  0.66529126  0.02349234  0.08533510  1
  P  P43  1  0.35963783  0.33352026  0.08129294  1
  P  P44  1  0.05050185  0.38405064  0.91650919  1
  P  P45  1  0.33325665  0.95471677  0.91620253  1
  P  P46  1  0.61878081  0.95290651  0.41538420  1
  P  P47  1  0.04629772  0.66626161  0.41665385  1
  S  S48  1  0.29438867  0.99480375  0.24810228  1
  S  S49  1  0.61922154  0.66588865  0.91722469  1
  S  S50  1  0.33412029  0.38402096  0.41720223  1
  O  O51  1  0.21734944  0.02069587  0.30060531  1
  O  O52  1  0.80994200  0.78371927  0.30444911  1
  O  O53  1  0.97921506  0.19510565  0.30496391  1
  O  O54  1  0.21951463  0.19264762  0.80461493  1
  O  O55  1  0.97166084  0.78105008  0.80508592  1
  O  O56  1  0.81226060  0.02695531  0.80115780  1
  O  O57  1  0.78302596  0.97011455  0.69286155  1
  O  O58  1  0.18506325  0.21465410  0.69558545  1
  O  O59  1  0.02629134  0.81567107  0.69579631  1
  O  O60  1  0.78907308  0.81564726  0.19531244  1
  O  O61  1  0.02348110  0.21308706  0.19493369  1
  O  O62  1  0.19227104  0.97604543  0.19575697  1
  O  O63  1  0.89490703  0.36682113  0.63672318  1
  O  O64  1  0.46953569  0.10384074  0.63928025  1
  O  O65  1  0.63377351  0.52707076  0.63649973  1
  O  O66  1  0.89064012  0.52601279  0.13648485  1
  O  O67  1  0.63025811  0.10191187  0.13986520  1
  O  O68  1  0.47942125  0.36594177  0.13316269  1
  O  O69  1  0.43971687  0.30107026  0.02627341  1
  O  O70  1  0.85697116  0.55881919  0.02898447  1
  O  O71  1  0.70124278  0.14543457  0.03365225  1
  O  O72  1  0.44530540  0.14743170  0.53293941  1
  O  O73  1  0.69590854  0.55493984  0.52846662  1
  O  O74  1  0.85978209  0.30089500  0.52931722  1
  O  O75  1  0.53938154  0.68253846  0.97012474  1
  O  O76  1  0.15363994  0.46554135  0.97168650  1
  O  O77  1  0.31426717  0.85321370  0.97155075  1
  O  O78  1  0.53981683  0.84905370  0.47080076  1
  O  O79  1  0.31275235  0.45934570  0.47142246  1
  O  O80  1  0.14285333  0.67903981  0.47251293  1
  O  O81  1  0.12755724  0.64316304  0.36121958  1
  O  O82  1  0.52097220  0.86908838  0.35975330  1
  O  O83  1  0.35443642  0.48491425  0.36555345  1
  O  O84  1  0.13251563  0.48500568  0.86069089  1
  O  O85  1  0.35061172  0.87280199  0.86031091  1
  O  O86  1  0.52176751  0.64758160  0.86366656  1
  O  O87  1  0.01625754  0.81963646  0.41399866  1
  O  O88  1  0.80287386  0.97607771  0.41336460  1
  O  O89  1  0.18105448  0.21332743  0.41274743  1
  O  O90  1  0.03161764  0.20542880  0.91397990  1
  O  O91  1  0.16862209  0.97041647  0.91421985  1
  O  O92  1  0.79472408  0.81170660  0.91406191  1
  O  O93  1  0.98964485  0.17273461  0.58974014  1
  O  O94  1  0.18243950  0.01039369  0.59085482  1
  O  O95  1  0.82628031  0.81377938  0.58918324  1
  O  O96  1  0.98951884  0.81649986  0.09108213  1
  O  O97  1  0.82618846  0.00961595  0.09098536  1
  O  O98  1  0.18583323  0.17304003  0.08993279  1
  O  O99  1  0.67890768  0.15303572  0.74446012  1
  O  O100  1  0.47485811  0.32029842  0.74492954  1
  O  O101  1  0.84497830  0.52628011  0.74492283  1
  O  O102  1  0.68778988  0.53066995  0.24524166  1
  O  O103  1  0.84035064  0.31364408  0.24600334  1
  O  O104  1  0.46835195  0.14202520  0.24468951  1
  O  O105  1  0.63652166  0.51012791  0.92006353  1
  O  O106  1  0.87317018  0.37129220  0.91959175  1
  O  O107  1  0.48360960  0.14021053  0.91860687  1
  O  O108  1  0.64999739  0.13678230  0.41851774  1
  O  O109  1  0.48843639  0.36700382  0.42039776  1
  O  O110  1  0.86259497  0.50544599  0.41918299  1
  O  O111  1  0.34442378  0.49303226  0.07535021  1
  O  O112  1  0.14755074  0.65564384  0.07606199  1
  O  O113  1  0.50766640  0.84980633  0.07574784  1
  O  O114  1  0.34443545  0.85281888  0.57634196  1
  O  O115  1  0.50529646  0.65486837  0.57541135  1
  O  O116  1  0.15129974  0.49197422  0.57516394  1
  O  O117  1  0.30759743  0.84011073  0.25375938  1
  O  O118  1  0.52687338  0.69592439  0.25589923  1
  O  O119  1  0.15760602  0.48291202  0.25508284  1
  O  O120  1  0.31519554  0.47848424  0.75596699  1
  O  O121  1  0.16303977  0.68741754  0.75471201  1
  O  O122  1  0.52329548  0.83448507  0.75526944  1
