# generated using pymatgen
data_Na3YZrSi2SO12
_symmetry_space_group_name_H-M   'P 1'
_cell_length_a   9.36478879
_cell_length_b   9.36478845
_cell_length_c   23.02242957
_cell_angle_alpha   89.37215261
_cell_angle_beta   90.62784745
_cell_angle_gamma   120.19002178
_symmetry_Int_Tables_number   1
_chemical_formula_structural   Na3YZrSi2SO12
_chemical_formula_sum   'Na18 Y6 Zr6 Si12 S6 O72'
_cell_volume   1745.05159714
_cell_formula_units_Z   6
loop_
 _symmetry_equiv_pos_site_id
 _symmetry_equiv_pos_as_xyz
  1  'x, y, z'
loop_
 _atom_site_type_symbol
 _atom_site_label
 _atom_site_symmetry_multiplicity
 _atom_site_fract_x
 _atom_site_fract_y
 _atom_site_fract_z
 _atom_site_occupancy
  Na  Na0  1  0.63110312  0.99604832  0.23990812  1
  Na  Na1  1  0.99360686  0.64543808  0.24393604  1
  Na  Na2  1  0.00395168  0.36889688  0.73990812  1
  Na  Na3  1  0.35456192  0.00639314  0.74393604  1
  Na  Na4  1  0.29777012  0.32938132  0.57324112  1
  Na  Na5  1  0.66027386  0.97877108  0.57726904  1
  Na  Na6  1  0.67061868  0.70222988  0.07324112  1
  Na  Na7  1  0.02122892  0.33972614  0.07726904  1
  Na  Na8  1  0.96443612  0.66271532  0.90657512  1
  Na  Na9  1  0.32693986  0.31210508  0.91060304  1
  Na  Na10  1  0.33728468  0.03556388  0.40657512  1
  Na  Na11  1  0.68789492  0.67306014  0.41060304  1
  Na  Na12  1  0.00547998  0.04009813  0.49493392  1
  Na  Na13  1  0.95990187  0.99452002  0.99493392  1
  Na  Na14  1  0.67214698  0.37343113  0.82826692  1
  Na  Na15  1  0.62656887  0.32785302  0.32826692  1
  Na  Na16  1  0.33881298  0.70676513  0.16160092  1
  Na  Na17  1  0.29323487  0.66118702  0.66160092  1
  Y  Y18  1  0.00782090  0.01346112  0.35110630  1
  Y  Y19  1  0.98653888  0.99217910  0.85110630  1
  Y  Y20  1  0.67448790  0.34679412  0.68443930  1
  Y  Y21  1  0.65320588  0.32551210  0.18443930  1
  Y  Y22  1  0.34115390  0.68012812  0.01777330  1
  Y  Y23  1  0.31987188  0.65884610  0.51777330  1
  Zr  Zr24  1  0.01945045  0.00260579  0.64791508  1
  Zr  Zr25  1  0.99739421  0.98054955  0.14791508  1
  Zr  Zr26  1  0.68611745  0.33593879  0.98124808  1
  Zr  Zr27  1  0.66406121  0.31388255  0.48124808  1
  Zr  Zr28  1  0.35278345  0.66927279  0.31458208  1
  Zr  Zr29  1  0.33072721  0.64721655  0.81458208  1
  Si  Si30  1  0.29685973  0.99024143  0.25544841  1
  Si  Si31  1  0.70367275  0.70153092  0.25289327  1
  Si  Si32  1  0.29846908  0.29632725  0.75289327  1
  Si  Si33  1  0.00975857  0.70314027  0.75544841  1
  Si  Si34  1  0.96352673  0.32357443  0.58878141  1
  Si  Si35  1  0.37033975  0.03486392  0.58622627  1
  Si  Si36  1  0.96513608  0.62966025  0.08622627  1
  Si  Si37  1  0.67642557  0.03647327  0.08878141  1
  Si  Si38  1  0.63019273  0.65690843  0.92211541  1
  Si  Si39  1  0.03700575  0.36819792  0.91956027  1
  Si  Si40  1  0.63180208  0.96299425  0.41956027  1
  Si  Si41  1  0.34309157  0.36980727  0.42211541  1
  S  S42  1  0.00855754  0.30552972  0.24637950  1
  S  S43  1  0.69447028  0.99144246  0.74637950  1
  S  S44  1  0.67522454  0.63886272  0.57971250  1
  S  S45  1  0.36113728  0.32477546  0.07971250  1
  S  S46  1  0.34189054  0.97219672  0.91304650  1
  S  S47  1  0.02780328  0.65810946  0.41304650  1
  O  O48  1  0.22090085  0.00928884  0.31567933  1
  O  O49  1  0.80875010  0.79225704  0.31063716  1
  O  O50  1  0.98846246  0.20189336  0.29798476  1
  O  O51  1  0.20774296  0.19124990  0.81063716  1
  O  O52  1  0.99071116  0.77909915  0.81567933  1
  O  O53  1  0.79810664  0.01153754  0.79798476  1
  O  O54  1  0.77295921  0.97354548  0.69315477  1
  O  O55  1  0.17655245  0.20045804  0.69512613  1
  O  O56  1  0.01955834  0.82746735  0.70052904  1
  O  O57  1  0.79954196  0.82344755  0.19512613  1
  O  O58  1  0.02645452  0.22704079  0.19315477  1
  O  O59  1  0.17253265  0.98044166  0.20052904  1
  O  O60  1  0.88756785  0.34262184  0.64901233  1
  O  O61  1  0.47541710  0.12559004  0.64397016  1
  O  O62  1  0.65512946  0.53522636  0.63131776  1
  O  O63  1  0.87440996  0.52458290  0.14397016  1
  O  O64  1  0.65737816  0.11243215  0.14901233  1
  O  O65  1  0.46477364  0.34487054  0.13131776  1
  O  O66  1  0.43962621  0.30687848  0.02648777  1
  O  O67  1  0.84321945  0.53379104  0.02845913  1
  O  O68  1  0.68622534  0.16080035  0.03386204  1
  O  O69  1  0.46620896  0.15678055  0.52845913  1
  O  O70  1  0.69312152  0.56037379  0.52648777  1
  O  O71  1  0.83919965  0.31377466  0.53386204  1
  O  O72  1  0.55423385  0.67595584  0.98234633  1
  O  O73  1  0.14208310  0.45892404  0.97730416  1
  O  O74  1  0.32179546  0.86856036  0.96465176  1
  O  O75  1  0.54107596  0.85791690  0.47730416  1
  O  O76  1  0.32404416  0.44576615  0.48234633  1
  O  O77  1  0.13143964  0.67820454  0.46465176  1
  O  O78  1  0.10629221  0.64021248  0.35982177  1
  O  O79  1  0.50988545  0.86712504  0.36179313  1
  O  O80  1  0.35289134  0.49413435  0.36719604  1
  O  O81  1  0.13287496  0.49011455  0.86179313  1
  O  O82  1  0.35978752  0.89370779  0.85982177  1
  O  O83  1  0.50586565  0.64710866  0.86719604  1
  O  O84  1  0.01115946  0.80773190  0.41108715  1
  O  O85  1  0.81123093  0.97707355  0.41512770  1
  O  O86  1  0.19529979  0.17811269  0.41680533  1
  O  O87  1  0.02292645  0.18876907  0.91512770  1
  O  O88  1  0.19226810  0.98884054  0.91108715  1
  O  O89  1  0.82188731  0.80470021  0.91680533  1
  O  O90  1  0.95742617  0.14165903  0.58772070  1
  O  O91  1  0.18907371  0.02874007  0.58779728  1
  O  O92  1  0.82200726  0.80675123  0.58583001  1
  O  O93  1  0.97125993  0.81092629  0.08779728  1
  O  O94  1  0.85834097  0.04257383  0.08772070  1
  O  O95  1  0.19324877  0.17799274  0.08583001  1
  O  O96  1  0.67782646  0.14106490  0.74442015  1
  O  O97  1  0.47789793  0.31040655  0.74846070  1
  O  O98  1  0.86196679  0.51144569  0.75013833  1
  O  O99  1  0.68959345  0.52210207  0.24846070  1
  O  O100  1  0.85893510  0.32217354  0.24442015  1
  O  O101  1  0.48855431  0.13803321  0.25013833  1
  O  O102  1  0.62409317  0.47499203  0.92105370  1
  O  O103  1  0.85574071  0.36207307  0.92113028  1
  O  O104  1  0.48867426  0.14008423  0.91916301  1
  O  O105  1  0.63792693  0.14425929  0.42113028  1
  O  O106  1  0.52500797  0.37590683  0.42105370  1
  O  O107  1  0.85991577  0.51132574  0.41916301  1
  O  O108  1  0.34449246  0.47439890  0.07775415  1
  O  O109  1  0.14456393  0.64374055  0.08179470  1
  O  O110  1  0.52863279  0.84477969  0.08347233  1
  O  O111  1  0.35625945  0.85543607  0.58179470  1
  O  O112  1  0.52560110  0.65550754  0.57775415  1
  O  O113  1  0.15522031  0.47136721  0.58347233  1
  O  O114  1  0.29075917  0.80832603  0.25438770  1
  O  O115  1  0.52240671  0.69540707  0.25446428  1
  O  O116  1  0.15534026  0.47341823  0.25249701  1
  O  O117  1  0.30459293  0.47759329  0.75446428  1
  O  O118  1  0.19167397  0.70924083  0.75438770  1
  O  O119  1  0.52658177  0.84465974  0.75249701  1
