# generated using pymatgen
data_Ce(IO3)4
_symmetry_space_group_name_H-M   'P 1'
_cell_length_a   9.93009537
_cell_length_b   9.93009537
_cell_length_c   5.31744050
_cell_angle_alpha   90.00000000
_cell_angle_beta   90.00000000
_cell_angle_gamma   90.00000000
_symmetry_Int_Tables_number   1
_chemical_formula_structural   Ce(IO3)4
_chemical_formula_sum   'Ce2 I8 O24'
_cell_volume   524.33576030
_cell_formula_units_Z   2
loop_
 _symmetry_equiv_pos_site_id
 _symmetry_equiv_pos_as_xyz
  1  'x, y, z'
loop_
 _atom_site_type_symbol
 _atom_site_label
 _atom_site_symmetry_multiplicity
 _atom_site_fract_x
 _atom_site_fract_y
 _atom_site_fract_z
 _atom_site_occupancy
  Ce  Ce0  1  -0.00000000  -0.00000000  0.00000000  1
  Ce  Ce1  1  0.50000000  0.50000000  0.50000000  1
  I  I2  1  0.00119880  0.27652202  0.53353637  1
  I  I3  1  0.77652202  0.49880120  0.03353637  1
  I  I4  1  0.22347798  0.50119880  0.03353637  1
  I  I5  1  -0.00119880  0.72347798  0.53353637  1
  I  I6  1  0.49880120  0.22347798  0.96646363  1
  I  I7  1  0.72347798  0.00119880  0.46646363  1
  I  I8  1  0.27652202  -0.00119880  0.46646363  1
  I  I9  1  0.50119880  0.77652202  0.96646363  1
  O  O10  1  0.07256922  0.15518340  0.30927403  1
  O  O11  1  0.65518340  0.42743078  0.80927403  1
  O  O12  1  0.34481660  0.57256922  0.80927403  1
  O  O13  1  0.92743078  0.84481660  0.30927403  1
  O  O14  1  0.42743078  0.34481660  0.19072597  1
  O  O15  1  0.84481660  0.07256922  0.69072597  1
  O  O16  1  0.15518340  0.92743078  0.69072597  1
  O  O17  1  0.57256922  0.65518340  0.19072597  1
  O  O18  1  0.08136650  0.19512721  0.80098611  1
  O  O19  1  0.69512721  0.41863350  0.30098611  1
  O  O20  1  0.62167001  0.90928333  0.00617468  1
  O  O21  1  0.40928333  0.87832999  0.50617468  1
  O  O22  1  0.59071667  0.12167001  0.50617468  1
  O  O23  1  0.37832999  0.09071667  0.00617468  1
  O  O24  1  0.87832999  0.59071667  0.49382532  1
  O  O25  1  0.09071667  0.62167001  0.99382532  1
  O  O26  1  0.90928333  0.37832999  0.99382532  1
  O  O27  1  0.12167001  0.40928333  0.49382532  1
  O  O28  1  0.58136650  0.69512721  0.69901389  1
  O  O29  1  0.19512721  0.91863350  0.19901389  1
  O  O30  1  0.80487279  0.08136650  0.19901389  1
  O  O31  1  0.41863350  0.30487279  0.69901389  1
  O  O32  1  0.91863350  0.80487279  0.80098611  1
  O  O33  1  0.30487279  0.58136650  0.30098611  1
