# generated using pymatgen
data_Na6CaTi7Si6(SO8)6
_symmetry_space_group_name_H-M   'P 1'
_cell_length_a   17.69493620
_cell_length_b   8.80076166
_cell_length_c   22.57413222
_cell_angle_alpha   89.92603106
_cell_angle_beta   90.05876946
_cell_angle_gamma   119.87658360
_symmetry_Int_Tables_number   1
_chemical_formula_structural   Na6CaTi7Si6(SO8)6
_chemical_formula_sum   'Na18 Ca3 Ti21 Si18 S18 O144'
_cell_volume   3048.24107052
_cell_formula_units_Z   3
loop_
 _symmetry_equiv_pos_site_id
 _symmetry_equiv_pos_as_xyz
  1  'x, y, z'
loop_
 _atom_site_type_symbol
 _atom_site_label
 _atom_site_symmetry_multiplicity
 _atom_site_fract_x
 _atom_site_fract_y
 _atom_site_fract_z
 _atom_site_occupancy
  Na  Na0  1  0.68875329  0.38309480  0.25221517  1
  Na  Na1  1  0.99681638  0.64691260  0.25199343  1
  Na  Na2  1  0.99564838  0.36386123  0.75432081  1
  Na  Na3  1  0.49202207  0.35848862  0.75115377  1
  Na  Na4  1  0.19336482  0.01155823  0.75324642  1
  Na  Na5  1  0.68829748  0.00995193  0.74976402  1
  Na  Na6  1  0.99796456  0.99815462  0.49385640  1
  Na  Na7  1  0.50461977  0.00045077  0.50031462  1
  Na  Na8  1  0.00631960  0.00891565  0.99975532  1
  Na  Na9  1  0.50145793  0.99489922  0.99739822  1
  Na  Na10  1  0.33229982  0.33891801  0.82940627  1
  Na  Na11  1  0.82772599  0.33603234  0.82975224  1
  Na  Na12  1  0.33350110  0.32878548  0.32693148  1
  Na  Na13  1  0.83335654  0.33205523  0.33476799  1
  Na  Na14  1  0.17599854  0.67066620  0.16429294  1
  Na  Na15  1  0.66402326  0.67032321  0.17146261  1
  Na  Na16  1  0.17827359  0.66752767  0.66757055  1
  Na  Na17  1  0.67170777  0.66141199  0.66251048  1
  Ca  Ca18  1  0.33266472  0.33991566  0.68520132  1
  Ca  Ca19  1  0.83049233  0.33505616  0.68294242  1
  Ca  Ca20  1  0.83271526  0.32917553  0.18391167  1
  Ti  Ti21  1  0.00387341  0.98966612  0.35913864  1
  Ti  Ti22  1  0.50049654  0.01177006  0.35827690  1
  Ti  Ti23  1  0.00786456  0.02053570  0.86007741  1
  Ti  Ti24  1  0.50406317  0.99954235  0.85252703  1
  Ti  Ti25  1  0.99675673  0.00815972  0.65041088  1
  Ti  Ti26  1  0.50096311  0.00488803  0.65585542  1
  Ti  Ti27  1  0.00665424  0.99367024  0.15060077  1
  Ti  Ti28  1  0.49769221  0.00014577  0.14532947  1
  Ti  Ti29  1  0.33402091  0.33936949  0.18754856  1
  Ti  Ti30  1  0.32354423  0.33119826  0.98394898  1
  Ti  Ti31  1  0.83176415  0.32179931  0.97297998  1
  Ti  Ti32  1  0.33586133  0.35060769  0.47488195  1
  Ti  Ti33  1  0.83001941  0.32743396  0.47110158  1
  Ti  Ti34  1  0.16162708  0.65454729  0.01722134  1
  Ti  Ti35  1  0.65463447  0.66855760  0.01960942  1
  Ti  Ti36  1  0.16201027  0.65764816  0.51363007  1
  Ti  Ti37  1  0.66606249  0.67061229  0.50907175  1
  Ti  Ti38  1  0.16282540  0.66150981  0.31556770  1
  Ti  Ti39  1  0.66714348  0.66247701  0.31566174  1
  Ti  Ti40  1  0.17083337  0.67123266  0.81594274  1
  Ti  Ti41  1  0.67086656  0.68190573  0.80788200  1
  Si  Si42  1  0.14925793  0.00479363  0.25319464  1
  Si  Si43  1  0.85494700  0.72465186  0.25199558  1
  Si  Si44  1  0.49749477  0.28751967  0.24968449  1
  Si  Si45  1  0.14188772  0.29359771  0.75299113  1
  Si  Si46  1  0.64419477  0.29471711  0.75437757  1
  Si  Si47  1  0.50114104  0.71512041  0.75354237  1
  Si  Si48  1  0.35446644  0.98471078  0.75474137  1
  Si  Si49  1  0.85903911  0.99251575  0.75509128  1
  Si  Si50  1  0.47284937  0.61852013  0.08370357  1
  Si  Si51  1  0.18625218  0.33567311  0.08637664  1
  Si  Si52  1  0.02193019  0.38127073  0.91575098  1
  Si  Si53  1  0.16961540  0.95787613  0.91781028  1
  Si  Si54  1  0.66201927  0.95309616  0.91583880  1
  Si  Si55  1  0.81205471  0.95132208  0.41387518  1
  Si  Si56  1  0.16665691  0.37702073  0.41470902  1
  Si  Si57  1  0.66548396  0.37897232  0.41574363  1
  Si  Si58  1  0.02086308  0.66134920  0.41679297  1
  Si  Si59  1  0.52326218  0.66996805  0.41339059  1
  S  S60  1  0.63549134  0.98828914  0.25145075  1
  S  S61  1  0.35691525  0.71624909  0.25044829  1
  S  S62  1  0.00658197  0.28888695  0.25281630  1
  S  S63  1  0.00356337  0.72387223  0.75248157  1
  S  S64  1  0.48526214  0.33407567  0.58051276  1
  S  S65  1  0.98537229  0.33436202  0.58174373  1
  S  S66  1  0.18181131  0.02780946  0.58082355  1
  S  S67  1  0.68128310  0.02771852  0.58066195  1
  S  S68  1  0.33346513  0.63952978  0.57876176  1
  S  S69  1  0.83347785  0.63934797  0.57959568  1
  S  S70  1  0.98305646  0.63289558  0.08062026  1
  S  S71  1  0.33348416  0.04588306  0.08418028  1
  S  S72  1  0.83206224  0.02876622  0.07777829  1
  S  S73  1  0.68266889  0.33408900  0.08016677  1
  S  S74  1  0.31079281  0.66635035  0.91857062  1
  S  S75  1  0.80853061  0.66289186  0.91871877  1
  S  S76  1  0.52118839  0.37974510  0.91690714  1
  S  S77  1  0.30941971  0.95631406  0.41690005  1
  O  O78  1  0.10093127  0.02759377  0.31049327  1
  O  O79  1  0.59112526  0.00714912  0.30409411  1
  O  O80  1  0.40790539  0.79596635  0.30418531  1
  O  O81  1  0.92156346  0.82884753  0.30656970  1
  O  O82  1  0.48771567  0.16051788  0.30715508  1
  O  O83  1  0.99833810  0.18974317  0.30592087  1
  O  O84  1  0.09177174  0.17069704  0.81090642  1
  O  O85  1  0.59374897  0.16749377  0.81071021  1
  O  O86  1  0.49332492  0.81487771  0.81149991  1
  O  O87  1  0.99472215  0.80508175  0.80574106  1
  O  O88  1  0.41523863  0.01075178  0.81201864  1
  O  O89  1  0.91858500  0.00403104  0.81057133  1
  O  O90  1  0.40229745  0.95967934  0.69421208  1
  O  O91  1  0.90274567  0.96775207  0.69204727  1
  O  O92  1  0.07759605  0.18869752  0.69356666  1
  O  O93  1  0.58136136  0.20387357  0.69411369  1
  O  O94  1  0.01212188  0.82611140  0.69699560  1
  O  O95  1  0.51975301  0.84259602  0.69421386  1
  O  O96  1  0.40027199  0.82185140  0.19602552  1
  O  O97  1  0.90625572  0.83894047  0.19102846  1
  O  O98  1  0.01518124  0.20818141  0.19736745  1
  O  O99  1  0.51053766  0.17931844  0.19267312  1
  O  O100  1  0.08215283  0.96060510  0.19454850  1
  O  O101  1  0.58707946  0.97633223  0.19554341  1
  O  O102  1  0.45289867  0.35779364  0.63780262  1
  O  O103  1  0.95546974  0.36302452  0.63907346  1
  O  O104  1  0.22687139  0.08870267  0.63796455  1
  O  O105  1  0.72574590  0.09028563  0.63834472  1
  O  O106  1  0.31517168  0.54241228  0.63387126  1
  O  O107  1  0.82015833  0.54642177  0.63609073  1
  O  O108  1  0.43012673  0.49679334  0.14201367  1
  O  O109  1  0.95279610  0.54301420  0.13814015  1
  O  O110  1  0.32099875  0.12585535  0.13767756  1
  O  O111  1  0.81358539  0.09029131  0.13348950  1
  O  O112  1  0.25142776  0.35913793  0.14138263  1
  O  O113  1  0.72746136  0.36398308  0.13770335  1
  O  O114  1  0.23177756  0.30157808  0.02651443  1
  O  O115  1  0.73196405  0.31058546  0.03173295  1
  O  O116  1  0.41277107  0.52232712  0.02548305  1
  O  O117  1  0.92477576  0.53216595  0.03154474  1
  O  O118  1  0.34849237  0.15415548  0.03043660  1
  O  O119  1  0.84040343  0.15000203  0.02794247  1
  O  O120  1  0.23111749  0.14743958  0.53123900  1
  O  O121  1  0.73344146  0.14758231  0.53179849  1
  O  O122  1  0.34161962  0.53676229  0.52812230  1
  O  O123  1  0.84313288  0.54143558  0.52945553  1
  O  O124  1  0.42552479  0.31910372  0.53107477  1
  O  O125  1  0.92783039  0.31741490  0.53258389  1
  O  O126  1  0.26752961  0.68485315  0.97168468  1
  O  O127  1  0.76517695  0.68337750  0.97104333  1
  O  O128  1  0.08415601  0.47264569  0.97373262  1
  O  O129  1  0.57775633  0.47028383  0.96979227  1
  O  O130  1  0.16073702  0.83034282  0.97351478  1
  O  O131  1  0.65268660  0.82923519  0.97308580  1
  O  O132  1  0.26876281  0.84815343  0.46998202  1
  O  O133  1  0.76373211  0.82980482  0.47193072  1
  O  O134  1  0.15866970  0.48255248  0.47225028  1
  O  O135  1  0.64922426  0.46930309  0.47277692  1
  O  O136  1  0.08449296  0.68899632  0.47305703  1
  O  O137  1  0.58336729  0.70421576  0.47211097  1
  O  O138  1  0.06740365  0.63339088  0.35712765  1
  O  O139  1  0.56628188  0.62767672  0.35697346  1
  O  O140  1  0.25616965  0.87784327  0.36300017  1
  O  O141  1  0.74656600  0.86148525  0.35743501  1
  O  O142  1  0.18624149  0.50951725  0.35800241  1
  O  O143  1  0.68441934  0.49264125  0.35498250  1
  O  O144  1  0.06543772  0.49696327  0.85617595  1
  O  O145  1  0.56350249  0.48282020  0.86278527  1
  O  O146  1  0.18349597  0.86543876  0.85709910  1
  O  O147  1  0.68156288  0.86855256  0.85736392  1
  O  O148  1  0.25699554  0.64105743  0.86410133  1
  O  O149  1  0.75614657  0.63238626  0.86418208  1
  O  O150  1  0.01399732  0.83655238  0.41321899  1
  O  O151  1  0.50500662  0.83289034  0.40444748  1
  O  O152  1  0.39636585  0.97030949  0.41133345  1
  O  O153  1  0.90872176  0.97933718  0.40767362  1
  O  O154  1  0.08076014  0.19023935  0.41020049  1
  O  O155  1  0.57867636  0.18228829  0.40892149  1
  O  O156  1  0.00883958  0.18426426  0.91337716  1
  O  O157  1  0.51380025  0.20462605  0.91593613  1
  O  O158  1  0.08002187  0.96773767  0.91194500  1
  O  O159  1  0.57719581  0.97607441  0.91531177  1
  O  O160  1  0.39690058  0.82439966  0.91473912  1
  O  O161  1  0.89717998  0.81474026  0.91390163  1
  O  O162  1  0.49120134  0.16983953  0.58105751  1
  O  O163  1  0.99342814  0.17131364  0.58400898  1
  O  O164  1  0.09287906  0.00828398  0.58363476  1
  O  O165  1  0.59429294  0.01643984  0.58184823  1
  O  O166  1  0.41478025  0.81142061  0.58040530  1
  O  O167  1  0.91546174  0.81591879  0.58261947  1
  O  O168  1  0.48703051  0.81693371  0.09406529  1
  O  O169  1  0.98993969  0.80947442  0.08260306  1
  O  O170  1  0.41346964  0.02622972  0.09026596  1
  O  O171  1  0.91224964  0.01892973  0.07976204  1
  O  O172  1  0.08877405  0.16370842  0.09487488  1
  O  O173  1  0.59426247  0.17090367  0.08328395  1
  O  O174  1  0.34354599  0.15410711  0.75027505  1
  O  O175  1  0.85095464  0.16655119  0.75248734  1
  O  O176  1  0.23244893  0.29952141  0.75122674  1
  O  O177  1  0.73644373  0.30477765  0.75252702  1
  O  O178  1  0.42390643  0.51952903  0.75305375  1
  O  O179  1  0.92992383  0.54400169  0.74803590  1
  O  O180  1  0.34799277  0.53956700  0.24502793  1
  O  O181  1  0.84482547  0.52858222  0.25177870  1
  O  O182  1  0.41094403  0.30371810  0.24244375  1
  O  O183  1  0.93133664  0.32020580  0.24951585  1
  O  O184  1  0.24298532  0.17560372  0.24159736  1
  O  O185  1  0.72232248  0.15035224  0.24965249  1
  O  O186  1  0.31855157  0.50569686  0.92230520  1
  O  O187  1  0.81726204  0.50036733  0.92632027  1
  O  O188  1  0.43520299  0.36590321  0.92356502  1
  O  O189  1  0.92539760  0.36542177  0.92683824  1
  O  O190  1  0.25666783  0.15207182  0.92679177  1
  O  O191  1  0.75101649  0.14830890  0.92705382  1
  O  O192  1  0.31993187  0.13339689  0.42432901  1
  O  O193  1  0.81907897  0.14417352  0.42756658  1
  O  O194  1  0.25425975  0.35796050  0.42758303  1
  O  O195  1  0.75049676  0.35306312  0.42656993  1
  O  O196  1  0.42592743  0.49235494  0.42789594  1
  O  O197  1  0.92584989  0.48706924  0.42624001  1
  O  O198  1  0.18032792  0.51440861  0.07667064  1
  O  O199  1  0.67090821  0.48687594  0.06927629  1
  O  O200  1  0.07246014  0.65836914  0.07239751  1
  O  O201  1  0.57220753  0.64332872  0.07392697  1
  O  O202  1  0.25715401  0.86846957  0.07791367  1
  O  O203  1  0.75591684  0.84937910  0.06720755  1
  O  O204  1  0.17246457  0.85052144  0.57109544  1
  O  O205  1  0.67021898  0.84982954  0.57276794  1
  O  O206  1  0.25834171  0.66868502  0.56808109  1
  O  O207  1  0.75693606  0.66485244  0.57191729  1
  O  O208  1  0.07578697  0.48840128  0.57319168  1
  O  O209  1  0.57365191  0.48904240  0.57229657  1
  O  O210  1  0.15358574  0.82051519  0.25910609  1
  O  O211  1  0.64256953  0.83005007  0.25408823  1
  O  O212  1  0.26992104  0.70290893  0.25351008  1
  O  O213  1  0.75808075  0.70476161  0.25402954  1
  O  O214  1  0.08798186  0.46975660  0.25496314  1
  O  O215  1  0.58831183  0.47358288  0.25406269  1
  O  O216  1  0.14137851  0.47768987  0.75523855  1
  O  O217  1  0.64319533  0.47769477  0.76085397  1
  O  O218  1  0.08713787  0.71667196  0.75346547  1
  O  O219  1  0.59410574  0.71190673  0.75816251  1
  O  O220  1  0.25695710  0.80876170  0.75811296  1
  O  O221  1  0.76199507  0.81727653  0.75689232  1
