# generated using pymatgen
data_Rb4Mg3H10
_symmetry_space_group_name_H-M   'P 1'
_cell_length_a   7.64768220
_cell_length_b   7.64768220
_cell_length_c   13.42250755
_cell_angle_alpha   90.00000000
_cell_angle_beta   90.00000000
_cell_angle_gamma   133.86905769
_symmetry_Int_Tables_number   1
_chemical_formula_structural   Rb4Mg3H10
_chemical_formula_sum   'Rb8 Mg6 H20'
_cell_volume   565.95733599
_cell_formula_units_Z   2
loop_
 _symmetry_equiv_pos_site_id
 _symmetry_equiv_pos_as_xyz
  1  'x, y, z'
loop_
 _atom_site_type_symbol
 _atom_site_label
 _atom_site_symmetry_multiplicity
 _atom_site_fract_x
 _atom_site_fract_y
 _atom_site_fract_z
 _atom_site_occupancy
  Rb  Rb0  1  0.04080171  0.95919829  0.63915700  1
  Rb  Rb1  1  0.95919829  0.04080171  0.36084300  1
  Rb  Rb2  1  0.45919829  0.54080171  0.13915700  1
  Rb  Rb3  1  0.54080171  0.45919829  0.86084300  1
  Rb  Rb4  1  0.24282781  0.75717219  0.89483862  1
  Rb  Rb5  1  0.75717219  0.24282781  0.10516138  1
  Rb  Rb6  1  0.25717219  0.74282781  0.39483862  1
  Rb  Rb7  1  0.74282781  0.25717219  0.60516138  1
  Mg  Mg8  1  0.50000000  0.50000000  0.50000000  1
  Mg  Mg9  1  0.00000000  -0.00000000  -0.00000000  1
  Mg  Mg10  1  0.37682101  0.62317899  0.65628437  1
  Mg  Mg11  1  0.62317899  0.37682101  0.34371563  1
  Mg  Mg12  1  0.12317899  0.87682101  0.15628437  1
  Mg  Mg13  1  0.87682101  0.12317899  0.84371563  1
  H  H14  1  0.24291749  0.75708251  0.64753975  1
  H  H15  1  0.75708251  0.24291749  0.35246025  1
  H  H16  1  0.25708251  0.74291749  0.14753975  1
  H  H17  1  0.74291749  0.25708251  0.85246025  1
  H  H18  1  0.02661730  0.97338270  0.85627029  1
  H  H19  1  0.97338270  0.02661730  0.14372971  1
  H  H20  1  0.47338270  0.52661730  0.35627029  1
  H  H21  1  0.52661730  0.47338270  0.64372971  1
  H  H22  1  0.13809209  0.36190791  0.75000000  1
  H  H23  1  0.36190791  0.13809209  0.25000000  1
  H  H24  1  0.86190791  0.63809209  0.25000000  1
  H  H25  1  0.63809209  0.86190791  0.75000000  1
  H  H26  1  0.38501235  0.18736583  0.46096496  1
  H  H27  1  0.18736583  0.38501235  0.53903504  1
  H  H28  1  0.68736583  0.88501235  0.96096496  1
  H  H29  1  0.88501235  0.68736583  0.03903504  1
  H  H30  1  0.81263417  0.61498765  0.46096496  1
  H  H31  1  0.61498765  0.81263417  0.53903504  1
  H  H32  1  0.31263417  0.11498765  0.03903504  1
  H  H33  1  0.11498765  0.31263417  0.96096496  1
