# generated using pymatgen
data_Na3Hf2In2P5SO24
_symmetry_space_group_name_H-M   'P 1'
_cell_length_a   8.93130892
_cell_length_b   8.92048096
_cell_length_c   23.11737978
_cell_angle_alpha   90.10718253
_cell_angle_beta   89.90809505
_cell_angle_gamma   119.89963181
_symmetry_Int_Tables_number   1
_chemical_formula_structural   Na3Hf2In2P5SO24
_chemical_formula_sum   'Na9 Hf6 In6 P15 S3 O72'
_cell_volume   1596.65129699
_cell_formula_units_Z   3
loop_
 _symmetry_equiv_pos_site_id
 _symmetry_equiv_pos_as_xyz
  1  'x, y, z'
loop_
 _atom_site_type_symbol
 _atom_site_label
 _atom_site_symmetry_multiplicity
 _atom_site_fract_x
 _atom_site_fract_y
 _atom_site_fract_z
 _atom_site_occupancy
  Na  Na0  1  0.00530128  0.36429499  0.75114735  1
  Na  Na1  1  0.66782674  0.96329181  0.58395952  1
  Na  Na2  1  0.03845823  0.33319107  0.08407689  1
  Na  Na3  1  0.00890675  0.99191158  0.50340046  1
  Na  Na4  1  0.00849481  0.99326445  0.00262091  1
  Na  Na5  1  0.65520829  0.32427538  0.83413713  1
  Na  Na6  1  0.68164407  0.33812461  0.33322952  1
  Na  Na7  1  0.34731566  0.67133453  0.16762993  1
  Na  Na8  1  0.33371998  0.66831122  0.66690745  1
  Hf  Hf9  1  0.98598017  0.99294759  0.35100731  1
  Hf  Hf10  1  0.00565909  0.00322697  0.85048412  1
  Hf  Hf11  1  0.66223433  0.33700700  0.68643071  1
  Hf  Hf12  1  0.66898196  0.33704462  0.18674420  1
  Hf  Hf13  1  0.66496967  0.32927215  0.98189242  1
  Hf  Hf14  1  0.67343269  0.33647832  0.48161351  1
  In  In15  1  0.00730302  0.99807390  0.64767065  1
  In  In16  1  0.99340143  0.99411347  0.14759548  1
  In  In17  1  0.33238127  0.67173859  0.01844449  1
  In  In18  1  0.32586032  0.66672864  0.51824600  1
  In  In19  1  0.33046333  0.66501222  0.31706934  1
  In  In20  1  0.33512660  0.67657202  0.81753361  1
  P  P21  1  0.70108774  0.70414753  0.24926244  1
  P  P22  1  0.00215392  0.29573004  0.24800746  1
  P  P23  1  0.29375797  0.29594483  0.74998422  1
  P  P24  1  0.99951550  0.70558326  0.74932888  1
  P  P25  1  0.70597640  0.99801126  0.74753223  1
  P  P26  1  0.96036914  0.33498930  0.58536834  1
  P  P27  1  0.37672545  0.04567346  0.58262231  1
  P  P28  1  0.66436570  0.62524801  0.58279738  1
  P  P29  1  0.95596935  0.62494865  0.08309745  1
  P  P30  1  0.66371634  0.04051110  0.08426974  1
  P  P31  1  0.37576680  0.33388333  0.08397107  1
  P  P32  1  0.03625968  0.36911465  0.91684960  1
  P  P33  1  0.33283856  0.96442388  0.91724244  1
  P  P34  1  0.62602893  0.96109872  0.41783515  1
  P  P35  1  0.03813573  0.66840956  0.41595554  1
  S  S36  1  0.29316558  0.00139063  0.24972969  1
  S  S37  1  0.63163544  0.66734994  0.91647861  1
  S  S38  1  0.33231620  0.36599236  0.41645760  1
  O  O39  1  0.20600055  0.02229436  0.30166927  1
  O  O40  1  0.81793696  0.79477828  0.30306056  1
  O  O41  1  0.98232165  0.17662372  0.30017868  1
  O  O42  1  0.20455955  0.17950460  0.80360025  1
  O  O43  1  0.97757975  0.79610627  0.80336010  1
  O  O44  1  0.82919909  0.02661895  0.79935996  1
  O  O45  1  0.78200161  0.97549434  0.69033989  1
  O  O46  1  0.17972714  0.22040985  0.69616471  1
  O  O47  1  0.02819405  0.80988658  0.69443999  1
  O  O48  1  0.78182817  0.80948749  0.19440927  1
  O  O49  1  0.02841293  0.22085149  0.19099615  1
  O  O50  1  0.19306364  0.97840843  0.19672823  1
  O  O51  1  0.87042147  0.35143815  0.64087447  1
  O  O52  1  0.48835300  0.13899640  0.63672587  1
  O  O53  1  0.64980671  0.51752374  0.63712415  1
  O  O54  1  0.86259979  0.51190086  0.13713106  1
  O  O55  1  0.64860653  0.13459992  0.13849871  1
  O  O56  1  0.48464656  0.34968389  0.13806412  1
  O  O57  1  0.46824011  0.31817842  0.02958348  1
  O  O58  1  0.84761184  0.53250289  0.02883429  1
  O  O59  1  0.68386562  0.15337333  0.03019834  1
  O  O60  1  0.47144847  0.15310108  0.52838976  1
  O  O61  1  0.68010874  0.53161536  0.52869889  1
  O  O62  1  0.84495560  0.31580866  0.53204904  1
  O  O63  1  0.55708253  0.69880522  0.96911954  1
  O  O64  1  0.14613099  0.44534175  0.97202233  1
  O  O65  1  0.29918727  0.85350775  0.97148321  1
  O  O66  1  0.55620301  0.85521609  0.47411824  1
  O  O67  1  0.29917701  0.44008857  0.46896062  1
  O  O68  1  0.14724052  0.70285912  0.47080059  1
  O  O69  1  0.11166760  0.62870731  0.36212081  1
  O  O70  1  0.51361077  0.87902037  0.36485550  1
  O  O71  1  0.36606700  0.47303294  0.36470752  1
  O  O72  1  0.11490012  0.47634290  0.86171977  1
  O  O73  1  0.37406978  0.89339321  0.86295887  1
  O  O74  1  0.52515598  0.63471143  0.86458627  1
  O  O75  1  0.01811145  0.83097339  0.40672515  1
  O  O76  1  0.81211431  0.98731267  0.40848351  1
  O  O77  1  0.17926280  0.19015720  0.40817595  1
  O  O78  1  0.00951758  0.18327557  0.90860120  1
  O  O79  1  0.16982571  0.98358962  0.90850051  1
  O  O80  1  0.80714490  0.82140068  0.90890143  1
  O  O81  1  0.96393222  0.16302978  0.58650317  1
  O  O82  1  0.19754183  0.02876318  0.58466469  1
  O  O83  1  0.82634572  0.80769846  0.58484957  1
  O  O84  1  0.97520430  0.80534856  0.08604952  1
  O  O85  1  0.83587763  0.03736091  0.08574494  1
  O  O86  1  0.19329247  0.17134544  0.08653515  1
  O  O87  1  0.69896420  0.17082800  0.74453216  1
  O  O88  1  0.47308528  0.30954232  0.74429818  1
  O  O89  1  0.83311616  0.52219225  0.74531130  1
  O  O90  1  0.68761328  0.52277893  0.24506806  1
  O  O91  1  0.83145649  0.30465500  0.24483422  1
  O  O92  1  0.46627346  0.16219054  0.24616376  1
  O  O93  1  0.65440969  0.51357079  0.92350777  1
  O  O94  1  0.85338715  0.34944367  0.92448203  1
  O  O95  1  0.49079024  0.15029964  0.92509080  1
  O  O96  1  0.65023197  0.14609744  0.42462376  1
  O  O97  1  0.48644840  0.34388474  0.42398708  1
  O  O98  1  0.85241208  0.50959162  0.42417076  1
  O  O99  1  0.35543923  0.49665759  0.08040917  1
  O  O100  1  0.13084379  0.62767591  0.08069316  1
  O  O101  1  0.50273080  0.86080704  0.08063624  1
  O  O102  1  0.37235872  0.86955044  0.58079969  1
  O  O103  1  0.50117268  0.64402798  0.57976690  1
  O  O104  1  0.13906470  0.49673416  0.58082173  1
  O  O105  1  0.31743514  0.85006655  0.25508189  1
  O  O106  1  0.52043882  0.68265528  0.25673667  1
  O  O107  1  0.15899816  0.47782268  0.25558308  1
  O  O108  1  0.31187925  0.47560862  0.75866733  1
  O  O109  1  0.15162686  0.66968058  0.75542491  1
  O  O110  1  0.52585027  0.84116942  0.75567687  1
