# generated using pymatgen
data_YMgSb(PbO3)2
_symmetry_space_group_name_H-M   'P 1'
_cell_length_a   6.42008128
_cell_length_b   7.43062412
_cell_length_c   6.27470936
_cell_angle_alpha   50.72560175
_cell_angle_beta   59.23059821
_cell_angle_gamma   64.40534508
_symmetry_Int_Tables_number   1
_chemical_formula_structural   YMgSb(PbO3)2
_chemical_formula_sum   'Y1 Mg1 Sb1 Pb2 O6'
_cell_volume   196.45473171
_cell_formula_units_Z   1
loop_
 _symmetry_equiv_pos_site_id
 _symmetry_equiv_pos_as_xyz
  1  'x, y, z'
loop_
 _atom_site_type_symbol
 _atom_site_label
 _atom_site_symmetry_multiplicity
 _atom_site_fract_x
 _atom_site_fract_y
 _atom_site_fract_z
 _atom_site_occupancy
  Y  Y0  1  0.97711773  0.07722774  0.96853680  1
  Mg  Mg1  1  0.05816728  0.55468738  0.32897806  1
  Sb  Sb2  1  0.57786384  0.44095623  0.40331608  1
  Pb  Pb3  1  0.30855141  0.98633271  0.39656347  1
  Pb  Pb4  1  0.74491851  0.79028560  0.71987838  1
  O  O5  1  0.11886201  0.79983363  0.36632664  1
  O  O6  1  0.71497773  0.79983363  0.36632664  1
  O  O7  1  0.84587716  0.27581882  0.58251776  1
  O  O8  1  0.29578626  0.27581882  0.58251776  1
  O  O9  1  0.77471877  0.35943027  0.09113420  1
  O  O10  1  0.16649231  0.77519217  0.89182122  1
