# generated using pymatgen
data_SiGe2(SO6)2
_symmetry_space_group_name_H-M   'P 1'
_cell_length_a   8.39324087
_cell_length_b   8.39572150
_cell_length_c   21.80781686
_cell_angle_alpha   89.96723801
_cell_angle_beta   90.00000000
_cell_angle_gamma   119.99022666
_symmetry_Int_Tables_number   1
_chemical_formula_structural   SiGe2(SO6)2
_chemical_formula_sum   'Si6 Ge12 S12 O72'
_cell_volume   1330.98512267
_cell_formula_units_Z   6
loop_
 _symmetry_equiv_pos_site_id
 _symmetry_equiv_pos_as_xyz
  1  'x, y, z'
loop_
 _atom_site_type_symbol
 _atom_site_label
 _atom_site_symmetry_multiplicity
 _atom_site_fract_x
 _atom_site_fract_y
 _atom_site_fract_z
 _atom_site_occupancy
  Si  Si0  1  0.99951648  0.29605494  0.25006144  1
  Si  Si1  1  0.29653846  0.29605494  0.75006144  1
  Si  Si2  1  0.95788403  0.33802011  0.58427830  1
  Si  Si3  1  0.38013708  0.33802011  0.08427830  1
  Si  Si4  1  0.33327782  0.94815774  0.91673377  1
  Si  Si5  1  0.61487892  0.94815774  0.41673377  1
  Ge  Ge6  1  0.98341989  0.00756303  0.35502177  1
  Ge  Ge7  1  0.02414314  0.00756303  0.85502177  1
  Ge  Ge8  1  0.00756761  0.02322340  0.64552062  1
  Ge  Ge9  1  0.01565578  0.02322340  0.14552062  1
  Ge  Ge10  1  0.67038532  0.33747389  0.68764143  1
  Ge  Ge11  1  0.66708957  0.33747389  0.18764143  1
  Ge  Ge12  1  0.64452671  0.31800643  0.97776397  1
  Ge  Ge13  1  0.67348072  0.31800643  0.47776397  1
  Ge  Ge14  1  0.33016779  0.66523146  0.02161914  1
  Ge  Ge15  1  0.33506266  0.66523146  0.52161914  1
  Ge  Ge16  1  0.33263917  0.66873886  0.31198735  1
  Ge  Ge17  1  0.33609869  0.66873886  0.81198735  1
  S  S18  1  0.28612872  0.99974984  0.25085968  1
  S  S19  1  0.71392003  0.71348006  0.24915540  1
  S  S20  1  0.99956003  0.71348006  0.74915540  1
  S  S21  1  0.71362112  0.99974984  0.75085968  1
  S  S22  1  0.37612666  0.04335848  0.58345967  1
  S  S23  1  0.66991654  0.62374615  0.58293583  1
  S  S24  1  0.95383061  0.62374615  0.08293583  1
  S  S25  1  0.66723282  0.04335848  0.08345967  1
  S  S26  1  0.62780081  0.66989232  0.91619924  1
  S  S27  1  0.03924960  0.37536695  0.91716910  1
  S  S28  1  0.33611635  0.37536695  0.41716910  1
  S  S29  1  0.04209051  0.66989232  0.41619924  1
  O  O30  1  0.20595270  0.03342402  0.30643784  1
  O  O31  1  0.83062034  0.78819293  0.30502033  1
  O  O32  1  0.96074239  0.16527905  0.30930870  1
  O  O33  1  0.20453666  0.16527905  0.80930870  1
  O  O34  1  0.95757259  0.78819293  0.80502033  1
  O  O35  1  0.82747132  0.03342402  0.80643784  1
  O  O36  1  0.78818858  0.95740081  0.69489663  1
  O  O37  1  0.16556621  0.20463895  0.69096794  1
  O  O38  1  0.03350884  0.82748385  0.69341437  1
  O  O39  1  0.79397501  0.82748385  0.19341437  1
  O  O40  1  0.03907274  0.20463895  0.19096794  1
  O  O41  1  0.16921223  0.95740081  0.19489663  1
  O  O42  1  0.86407128  0.37341494  0.64456934  1
  O  O43  1  0.49201157  0.12189513  0.63848931  1
  O  O44  1  0.62812945  0.50678135  0.63850603  1
  O  O45  1  0.87865289  0.50678135  0.13850603  1
  O  O46  1  0.62988457  0.12189513  0.13848931  1
  O  O47  1  0.50934466  0.37341494  0.14456934  1
  O  O48  1  0.46862613  0.29780689  0.02446190  1
  O  O49  1  0.84123868  0.54322348  0.02715184  1
  O  O50  1  0.71176522  0.16200649  0.02818449  1
  O  O51  1  0.45024227  0.16200649  0.52818449  1
  O  O52  1  0.70198579  0.54322348  0.52715184  1
  O  O53  1  0.82918177  0.29780689  0.52446190  1
  O  O54  1  0.54887560  0.70525912  0.97154328  1
  O  O55  1  0.15810160  0.44998041  0.97204012  1
  O  O56  1  0.29659030  0.82071868  0.97744103  1
  O  O57  1  0.52412737  0.82071868  0.47744103  1
  O  O58  1  0.29187781  0.44998041  0.47204012  1
  O  O59  1  0.15638252  0.70525912  0.47154328  1
  O  O60  1  0.11682966  0.62544196  0.36138843  1
  O  O61  1  0.48800867  0.85805317  0.35572990  1
  O  O62  1  0.37214437  0.48977912  0.36179495  1
  O  O63  1  0.11763376  0.48977912  0.86179495  1
  O  O64  1  0.37004350  0.85805317  0.85572990  1
  O  O65  1  0.50861129  0.62544196  0.86138843  1
  O  O66  1  0.03070430  0.83757232  0.40688016  1
  O  O67  1  0.81493063  0.96543232  0.40999918  1
  O  O68  1  0.17445339  0.19009305  0.40923845  1
  O  O69  1  0.01563966  0.19009305  0.90923845  1
  O  O70  1  0.15050169  0.96543232  0.90999918  1
  O  O71  1  0.80686802  0.83757232  0.90688016  1
  O  O72  1  0.96943833  0.15210849  0.59072627  1
  O  O73  1  0.19040339  0.01885941  0.59085497  1
  O  O74  1  0.83603504  0.80445482  0.59218899  1
  O  O75  1  0.96841979  0.80445482  0.09218899  1
  O  O76  1  0.82845602  0.01885941  0.09085497  1
  O  O77  1  0.18267015  0.15210849  0.09072627  1
  O  O78  1  0.69592649  0.16419181  0.74330908  1
  O  O79  1  0.49491144  0.31257065  0.73784999  1
  O  O80  1  0.83489171  0.53047312  0.74353699  1
  O  O81  1  0.69558242  0.53047312  0.24353699  1
  O  O82  1  0.81766021  0.31257065  0.23784999  1
  O  O83  1  0.46826632  0.16419181  0.24330908  1
  O  O84  1  0.65107022  0.50771301  0.92388786  1
  O  O85  1  0.85991010  0.36417047  0.92648901  1
  O  O86  1  0.51619756  0.14816946  0.92340247  1
  O  O87  1  0.63197291  0.14816946  0.42340247  1
  O  O88  1  0.50426138  0.36417047  0.42648901  1
  O  O89  1  0.85664379  0.50771301  0.42388786  1
  O  O90  1  0.35780648  0.51684961  0.07188170  1
  O  O91  1  0.13678282  0.64066923  0.07683835  1
  O  O92  1  0.50155047  0.86267465  0.07603659  1
  O  O93  1  0.36112318  0.86267465  0.57603659  1
  O  O94  1  0.50388541  0.64066923  0.57683835  1
  O  O95  1  0.15904212  0.51684961  0.57188170  1
  O  O96  1  0.30446359  0.83491579  0.25651702  1
  O  O97  1  0.53177620  0.69587916  0.25642297  1
  O  O98  1  0.18217853  0.49435865  0.26218681  1
  O  O99  1  0.31217912  0.49435865  0.76218681  1
  O  O100  1  0.16410196  0.69587916  0.75642297  1
  O  O101  1  0.53045120  0.83491579  0.75651702  1
