# generated using pymatgen
data_Hg2WO4
_symmetry_space_group_name_H-M   'P 1'
_cell_length_a   4.94823840
_cell_length_b   7.28536875
_cell_length_c   7.28536945
_cell_angle_alpha   105.81248166
_cell_angle_beta   104.49225679
_cell_angle_gamma   104.49224860
_symmetry_Int_Tables_number   1
_chemical_formula_structural   Hg2WO4
_chemical_formula_sum   'Hg4 W2 O8'
_cell_volume   229.91814275
_cell_formula_units_Z   2
loop_
 _symmetry_equiv_pos_site_id
 _symmetry_equiv_pos_as_xyz
  1  'x, y, z'
loop_
 _atom_site_type_symbol
 _atom_site_label
 _atom_site_symmetry_multiplicity
 _atom_site_fract_x
 _atom_site_fract_y
 _atom_site_fract_z
 _atom_site_occupancy
  Hg  Hg0  1  0.47938176  0.75178431  0.52976786  1
  Hg  Hg1  1  0.02061824  0.47023214  0.24821569  1
  Hg  Hg2  1  0.52061824  0.24821569  0.47023214  1
  Hg  Hg3  1  0.97938176  0.52976786  0.75178431  1
  W  W4  1  0.25000000  0.09775747  0.90224253  1
  W  W5  1  0.75000000  0.90224253  0.09775747  1
  O  O6  1  0.29779627  0.04956623  0.66272765  1
  O  O7  1  0.20220373  0.33727235  0.95043377  1
  O  O8  1  0.70220373  0.95043377  0.33727235  1
  O  O9  1  0.79779627  0.66272765  0.04956623  1
  O  O10  1  0.85053987  0.91635704  0.81900590  1
  O  O11  1  0.64946013  0.18099410  0.08364296  1
  O  O12  1  0.35053987  0.81900590  0.91635704  1
  O  O13  1  0.14946013  0.08364296  0.18099410  1
