# generated using pymatgen
data_Na10Zr5Zn3(PO4)12
_symmetry_space_group_name_H-M   'P 1'
_cell_length_a   18.04228323
_cell_length_b   9.02808126
_cell_length_c   22.72797392
_cell_angle_alpha   89.98968539
_cell_angle_beta   89.98033964
_cell_angle_gamma   120.04949200
_symmetry_Int_Tables_number   1
_chemical_formula_structural   Na10Zr5Zn3(PO4)12
_chemical_formula_sum   'Na30 Zr15 Zn9 P36 O144'
_cell_volume   3204.50861405
_cell_formula_units_Z   3
loop_
 _symmetry_equiv_pos_site_id
 _symmetry_equiv_pos_as_xyz
  1  'x, y, z'
loop_
 _atom_site_type_symbol
 _atom_site_label
 _atom_site_symmetry_multiplicity
 _atom_site_fract_x
 _atom_site_fract_y
 _atom_site_fract_z
 _atom_site_occupancy
  Na  Na0  1  0.32128218  0.01292557  0.24798479  1
  Na  Na1  1  0.68651977  0.35838556  0.24782168  1
  Na  Na2  1  0.31784237  0.62421566  0.74749867  1
  Na  Na3  1  0.81769267  0.62373171  0.74750760  1
  Na  Na4  1  0.15484640  0.35102046  0.57828447  1
  Na  Na5  1  0.65462435  0.34956255  0.57738247  1
  Na  Na6  1  0.01970486  0.69029326  0.57866550  1
  Na  Na7  1  0.51995899  0.69138751  0.57848625  1
  Na  Na8  1  0.32517814  0.95879832  0.57852675  1
  Na  Na9  1  0.82491233  0.96065179  0.57838059  1
  Na  Na10  1  0.15465885  0.95956480  0.07840928  1
  Na  Na11  1  0.65523241  0.96107143  0.07878176  1
  Na  Na12  1  0.32496354  0.68951179  0.07875377  1
  Na  Na13  1  0.82519622  0.69046567  0.07835953  1
  Na  Na14  1  0.01945325  0.34958745  0.07851456  1
  Na  Na15  1  0.51953224  0.34889595  0.07928522  1
  Na  Na16  1  0.65922653  0.02772151  0.41074158  1
  Na  Na17  1  0.35413350  0.67960712  0.40987560  1
  Na  Na18  1  0.00011893  0.99926962  0.49346529  1
  Na  Na19  1  0.49934625  0.01512474  0.48762728  1
  Na  Na20  1  0.99991922  0.99953045  0.99495698  1
  Na  Na21  1  0.49988346  0.99948097  0.99533521  1
  Na  Na22  1  0.33370963  0.31940411  0.82729577  1
  Na  Na23  1  0.83360173  0.31953513  0.82727488  1
  Na  Na24  1  0.33547481  0.33950310  0.32254754  1
  Na  Na25  1  0.84384454  0.34122071  0.32343471  1
  Na  Na26  1  0.16196002  0.65381477  0.16355687  1
  Na  Na27  1  0.66566657  0.67846382  0.16364324  1
  Na  Na28  1  0.16114585  0.66732567  0.66449748  1
  Na  Na29  1  0.66121875  0.66781376  0.66449569  1
  Zr  Zr30  1  0.00010693  0.99960562  0.35151056  1
  Zr  Zr31  1  0.00093072  0.00266902  0.85336066  1
  Zr  Zr32  1  0.50094047  0.00283223  0.85327639  1
  Zr  Zr33  1  0.00160280  0.00373393  0.65048392  1
  Zr  Zr34  1  0.50172435  0.00258814  0.64971747  1
  Zr  Zr35  1  0.99984007  0.99938772  0.15060094  1
  Zr  Zr36  1  0.50010635  0.99705323  0.15128430  1
  Zr  Zr37  1  0.33310451  0.33407314  0.97888542  1
  Zr  Zr38  1  0.83333325  0.33462541  0.97892451  1
  Zr  Zr39  1  0.33282523  0.32469799  0.47945610  1
  Zr  Zr40  1  0.83581297  0.34032195  0.47932903  1
  Zr  Zr41  1  0.16405473  0.66116892  0.31411937  1
  Zr  Zr42  1  0.66455374  0.66752947  0.31523767  1
  Zr  Zr43  1  0.16395096  0.66758001  0.81610080  1
  Zr  Zr44  1  0.66381373  0.66727253  0.81613967  1
  Zn  Zn45  1  0.49922531  0.00686362  0.34729274  1
  Zn  Zn46  1  0.33373557  0.32428033  0.68464461  1
  Zn  Zn47  1  0.83363201  0.32357209  0.68441983  1
  Zn  Zn48  1  0.33468398  0.34651787  0.18375630  1
  Zn  Zn49  1  0.83699810  0.32898425  0.18392571  1
  Zn  Zn50  1  0.16671191  0.66706884  0.00932047  1
  Zn  Zn51  1  0.66661281  0.66692071  0.00930800  1
  Zn  Zn52  1  0.16514215  0.66641538  0.50899281  1
  Zn  Zn53  1  0.66682476  0.66283767  0.50842240  1
  P  P54  1  0.15022219  0.00327093  0.24974616  1
  P  P55  1  0.65000846  0.00397798  0.25269206  1
  P  P56  1  0.35241838  0.70022505  0.25366258  1
  P  P57  1  0.85122303  0.69951561  0.25007426  1
  P  P58  1  0.99741963  0.29431494  0.24969741  1
  P  P59  1  0.49822290  0.29442755  0.25060951  1
  P  P60  1  0.15050591  0.29817433  0.75008163  1
  P  P61  1  0.65034166  0.29781192  0.74992664  1
  P  P62  1  0.99867312  0.70169919  0.74939574  1
  P  P63  1  0.49866174  0.70169027  0.74941472  1
  P  P64  1  0.35213051  0.00280104  0.75001170  1
  P  P65  1  0.85188828  0.00266985  0.75018222  1
  P  P66  1  0.48048962  0.33675211  0.58574493  1
  P  P67  1  0.98022736  0.33665243  0.58528014  1
  P  P68  1  0.18739503  0.03888975  0.58548375  1
  P  P69  1  0.68776142  0.03965278  0.58380569  1
  P  P70  1  0.33240426  0.62578241  0.58538400  1
  P  P71  1  0.83242147  0.62711795  0.58729482  1
  P  P72  1  0.48034025  0.62413826  0.08470155  1
  P  P73  1  0.97994519  0.62420126  0.08525733  1
  P  P74  1  0.33210849  0.03886445  0.08659676  1
  P  P75  1  0.83211876  0.03965780  0.08471081  1
  P  P76  1  0.18739386  0.33523531  0.08489738  1
  P  P77  1  0.68726936  0.33576980  0.08659288  1
  P  P78  1  0.31344659  0.66743861  0.91809499  1
  P  P79  1  0.81338708  0.66739966  0.91808933  1
  P  P80  1  0.01999550  0.37277879  0.92017917  1
  P  P81  1  0.52005056  0.37269196  0.92024712  1
  P  P82  1  0.16616061  0.95999050  0.92004296  1
  P  P83  1  0.66614147  0.96015420  0.92003837  1
  P  P84  1  0.31474259  0.95757686  0.41774115  1
  P  P85  1  0.81371825  0.95926863  0.42030422  1
  P  P86  1  0.16569008  0.37241430  0.42045778  1
  P  P87  1  0.66418628  0.36750197  0.41849849  1
  P  P88  1  0.02100573  0.67027616  0.41965304  1
  P  P89  1  0.51936972  0.66979895  0.42023586  1
  O  O90  1  0.09928520  0.01558834  0.30221291  1
  O  O91  1  0.60675372  0.02576878  0.30744030  1
  O  O92  1  0.40317148  0.78602766  0.30920636  1
  O  O93  1  0.90848701  0.80161739  0.30252284  1
  O  O94  1  0.48519180  0.17932379  0.30294066  1
  O  O95  1  0.99224334  0.18117088  0.30256489  1
  O  O96  1  0.09945830  0.18343132  0.80208897  1
  O  O97  1  0.59942378  0.18351326  0.80210916  1
  O  O98  1  0.49045064  0.80346815  0.80131055  1
  O  O99  1  0.99053666  0.80372090  0.80126905  1
  O  O100  1  0.40909300  0.01483519  0.80251821  1
  O  O101  1  0.90910758  0.01501868  0.80252309  1
  O  O102  1  0.39445314  0.97406682  0.69331564  1
  O  O103  1  0.89419111  0.97404182  0.69340152  1
  O  O104  1  0.09662978  0.21457213  0.69270194  1
  O  O105  1  0.59641277  0.21409499  0.69265301  1
  O  O106  1  0.01110866  0.81106730  0.69215260  1
  O  O107  1  0.51115324  0.81078614  0.69215331  1
  O  O108  1  0.39647047  0.81871488  0.19759326  1
  O  O109  1  0.89355526  0.80773263  0.19313529  1
  O  O110  1  0.00960832  0.20992232  0.19269233  1
  O  O111  1  0.51437352  0.21239536  0.19346309  1
  O  O112  1  0.09628504  0.98039987  0.19285955  1
  O  O113  1  0.59313368  0.97824116  0.19608510  1
  O  O114  1  0.43945984  0.36720718  0.63905126  1
  O  O115  1  0.93932570  0.36682190  0.63881527  1
  O  O116  1  0.24307072  0.12182512  0.63894320  1
  O  O117  1  0.74479389  0.12613490  0.63650553  1
  O  O118  1  0.31974533  0.51948676  0.64076400  1
  O  O119  1  0.81968298  0.52319840  0.64311909  1
  O  O120  1  0.43979006  0.51268604  0.13831093  1
  O  O121  1  0.93857286  0.51334294  0.13892050  1
  O  O122  1  0.31912073  0.11593920  0.14277476  1
  O  O123  1  0.81669442  0.11993823  0.13843432  1
  O  O124  1  0.24276330  0.36345641  0.13848958  1
  O  O125  1  0.73906079  0.36227737  0.14265939  1
  O  O126  1  0.22902774  0.30316190  0.02953368  1
  O  O127  1  0.73204625  0.30569274  0.03267114  1
  O  O128  1  0.42220361  0.54151913  0.02953836  1
  O  O129  1  0.92226161  0.54160956  0.02984280  1
  O  O130  1  0.34739616  0.15891985  0.03277908  1
  O  O131  1  0.84885681  0.15654209  0.02969198  1
  O  O132  1  0.22895975  0.15400806  0.52996173  1
  O  O133  1  0.72715294  0.15027368  0.52691687  1
  O  O134  1  0.34713227  0.54005744  0.53006474  1
  O  O135  1  0.84760963  0.53743313  0.53329097  1
  O  O136  1  0.42219368  0.30269959  0.53037332  1
  O  O137  1  0.92229137  0.30366362  0.52995447  1
  O  O138  1  0.27547865  0.69200863  0.97481830  1
  O  O139  1  0.77548560  0.69195019  0.97483018  1
  O  O140  1  0.06881627  0.44518079  0.97746916  1
  O  O141  1  0.56883467  0.44513476  0.97753426  1
  O  O142  1  0.15303393  0.86198080  0.97734406  1
  O  O143  1  0.65307185  0.86212748  0.97731629  1
  O  O144  1  0.27407632  0.85298195  0.47414921  1
  O  O145  1  0.77776161  0.86299704  0.47809033  1
  O  O146  1  0.15284326  0.44390744  0.47802452  1
  O  O147  1  0.65554957  0.44775359  0.47573088  1
  O  O148  1  0.06836471  0.69446336  0.47772148  1
  O  O149  1  0.57114397  0.69437448  0.47664981  1
  O  O150  1  0.06811347  0.64869006  0.36648748  1
  O  O151  1  0.56583876  0.64655791  0.36639347  1
  O  O152  1  0.25847595  0.86812036  0.36256095  1
  O  O153  1  0.75359536  0.86523672  0.36759488  1
  O  O154  1  0.17912490  0.49176102  0.36742196  1
  O  O155  1  0.67549032  0.48022410  0.36344464  1
  O  O156  1  0.06751870  0.48746757  0.86633444  1
  O  O157  1  0.56734348  0.48761436  0.86640351  1
  O  O158  1  0.17617698  0.86544223  0.86616802  1
  O  O159  1  0.67634052  0.86572957  0.86615931  1
  O  O160  1  0.25870973  0.64780903  0.86249381  1
  O  O161  1  0.75865990  0.64761072  0.86249940  1
  O  O162  1  0.00935703  0.82772005  0.41049778  1
  O  O163  1  0.50855632  0.82739058  0.41338559  1
  O  O164  1  0.40300369  0.97330865  0.41177690  1
  O  O165  1  0.90414280  0.98493509  0.41050159  1
  O  O166  1  0.08858972  0.19125469  0.41065733  1
  O  O167  1  0.58837040  0.18506888  0.41246043  1
  O  O168  1  0.00915857  0.19235702  0.91080328  1
  O  O169  1  0.50916285  0.19232496  0.91086257  1
  O  O170  1  0.08710379  0.98257205  0.91043842  1
  O  O171  1  0.58703449  0.98253270  0.91039610  1
  O  O172  1  0.40426716  0.82637663  0.91001136  1
  O  O173  1  0.90431502  0.82616300  0.90999780  1
  O  O174  1  0.48716465  0.16872534  0.58950829  1
  O  O175  1  0.98709170  0.16845694  0.58926024  1
  O  O176  1  0.09652851  0.02573400  0.58891029  1
  O  O177  1  0.59704499  0.02688465  0.58862827  1
  O  O178  1  0.41629286  0.80859618  0.58864761  1
  O  O179  1  0.91646065  0.80937494  0.58896984  1
  O  O180  1  0.48678649  0.80589178  0.08908658  1
  O  O181  1  0.98713539  0.80678383  0.08906134  1
  O  O182  1  0.41601661  0.02366165  0.08909171  1
  O  O183  1  0.91623634  0.02520893  0.08895118  1
  O  O184  1  0.09605434  0.16697736  0.08890903  1
  O  O185  1  0.59622710  0.16675323  0.08883808  1
  O  O186  1  0.34248310  0.15901666  0.74676507  1
  O  O187  1  0.84232712  0.15892149  0.74666268  1
  O  O188  1  0.24005666  0.32212636  0.74736312  1
  O  O189  1  0.73991365  0.32157038  0.74736964  1
  O  O190  1  0.41639192  0.52958534  0.74656610  1
  O  O191  1  0.91650823  0.52954585  0.74660747  1
  O  O192  1  0.33945803  0.52240987  0.24589849  1
  O  O193  1  0.83954176  0.52105847  0.24776091  1
  O  O194  1  0.41917750  0.31226333  0.24364735  1
  O  O195  1  0.91831307  0.31061069  0.24734102  1
  O  O196  1  0.24017648  0.15709160  0.24771776  1
  O  O197  1  0.73715217  0.16583473  0.24541174  1
  O  O198  1  0.32207169  0.50455574  0.92101108  1
  O  O199  1  0.82192622  0.50448740  0.92103926  1
  O  O200  1  0.42992187  0.35485337  0.92179836  1
  O  O201  1  0.93001424  0.35558149  0.92159995  1
  O  O202  1  0.24794021  0.13932644  0.92168983  1
  O  O203  1  0.74764202  0.13995210  0.92185694  1
  O  O204  1  0.32192791  0.13750123  0.42162210  1
  O  O205  1  0.81793148  0.13679905  0.42227605  1
  O  O206  1  0.25073088  0.36555058  0.42276653  1
  O  O207  1  0.74771905  0.35176462  0.42150965  1
  O  O208  1  0.42783051  0.50760934  0.42283759  1
  O  O209  1  0.93059451  0.50628627  0.42141835  1
  O  O210  1  0.17335991  0.48942525  0.07797500  1
  O  O211  1  0.67366574  0.49001830  0.07831712  1
  O  O212  1  0.07122115  0.65267339  0.07839421  1
  O  O213  1  0.57182268  0.65402297  0.07780122  1
  O  O214  1  0.25487018  0.85691092  0.07835453  1
  O  O215  1  0.75515623  0.85700603  0.07761020  1
  O  O216  1  0.17318041  0.85676558  0.57846742  1
  O  O217  1  0.67296320  0.85670548  0.57822262  1
  O  O218  1  0.25498176  0.65318198  0.57851596  1
  O  O219  1  0.75478025  0.65261459  0.57899612  1
  O  O220  1  0.07155337  0.49045928  0.57818082  1
  O  O221  1  0.57163425  0.49020430  0.57815776  1
  O  O222  1  0.15714733  0.83790139  0.25495857  1
  O  O223  1  0.65714296  0.83888860  0.25590539  1
  O  O224  1  0.26411248  0.69813906  0.25536720  1
  O  O225  1  0.76114924  0.68352492  0.25583540  1
  O  O226  1  0.08100277  0.47098371  0.25534413  1
  O  O227  1  0.58377515  0.47035430  0.25541712  1
  O  O228  1  0.15809718  0.47783542  0.75511813  1
  O  O229  1  0.65812025  0.47775259  0.75516635  1
  O  O230  1  0.08042286  0.68808208  0.75489404  1
  O  O231  1  0.58035051  0.68783879  0.75497779  1
  O  O232  1  0.26509432  0.83058458  0.75520762  1
  O  O233  1  0.76498447  0.83049324  0.75526785  1
