# generated using pymatgen
data_NaTaTiSi(PO6)2
_symmetry_space_group_name_H-M   'P 1'
_cell_length_a   8.73469023
_cell_length_b   8.72225251
_cell_length_c   22.68612839
_cell_angle_alpha   90.24106323
_cell_angle_beta   90.00000000
_cell_angle_gamma   120.04718216
_symmetry_Int_Tables_number   1
_chemical_formula_structural   NaTaTiSi(PO6)2
_chemical_formula_sum   'Na6 Ta6 Ti6 Si6 P12 O72'
_cell_volume   1496.08191565
_cell_formula_units_Z   6
loop_
 _symmetry_equiv_pos_site_id
 _symmetry_equiv_pos_as_xyz
  1  'x, y, z'
loop_
 _atom_site_type_symbol
 _atom_site_label
 _atom_site_symmetry_multiplicity
 _atom_site_fract_x
 _atom_site_fract_y
 _atom_site_fract_z
 _atom_site_occupancy
  Na  Na0  1  0.00052371  0.00160241  0.49740656  1
  Na  Na1  1  0.00107869  0.00160241  0.99740656  1
  Na  Na2  1  0.66726880  0.33388170  0.83087468  1
  Na  Na3  1  0.66661389  0.33388170  0.33087468  1
  Na  Na4  1  0.33464748  0.66788673  0.16413489  1
  Na  Na5  1  0.33323825  0.66788673  0.66413489  1
  Ta  Ta6  1  0.00237663  -0.00002005  0.64530828  1
  Ta  Ta7  1  0.99760332  -0.00002005  0.14530828  1
  Ta  Ta8  1  0.66542752  0.33110164  0.97867393  1
  Ta  Ta9  1  0.66567512  0.33110164  0.47867393  1
  Ta  Ta10  1  0.33666824  0.66470710  0.31198682  1
  Ta  Ta11  1  0.32803786  0.66470710  0.81198682  1
  Ti  Ti12  1  0.99933559  0.99796848  0.35344718  1
  Ti  Ti13  1  0.99863289  0.99796848  0.85344718  1
  Ti  Ti14  1  0.67898507  0.34013081  0.68689819  1
  Ti  Ti15  1  0.66114674  0.34013081  0.18689819  1
  Ti  Ti16  1  0.32944471  0.65477111  0.02017364  1
  Ti  Ti17  1  0.32532540  0.65477111  0.52017364  1
  Si  Si18  1  0.71501814  0.71092489  0.25070848  1
  Si  Si19  1  0.99590676  0.71092489  0.75070848  1
  Si  Si20  1  0.95753143  0.33637567  0.58339219  1
  Si  Si21  1  0.37884524  0.33637567  0.08339219  1
  Si  Si22  1  0.04490668  0.37296221  0.91697645  1
  Si  Si23  1  0.32805453  0.37296221  0.41697645  1
  P  P24  1  0.28796562  0.00281898  0.25062023  1
  P  P25  1  0.99411866  0.28464068  0.25086635  1
  P  P26  1  0.29052203  0.28464068  0.75086635  1
  P  P27  1  0.71485336  0.00281898  0.75062023  1
  P  P28  1  0.38281662  0.04472956  0.58433094  1
  P  P29  1  0.66283603  0.61860631  0.58408711  1
  P  P30  1  0.95577128  0.61860631  0.08408711  1
  P  P31  1  0.66191395  0.04472956  0.08433094  1
  P  P32  1  0.62202238  0.67003286  0.91727242  1
  P  P33  1  0.32918132  0.95046634  0.91794848  1
  P  P34  1  0.62128402  0.95046634  0.41794848  1
  P  P35  1  0.04800949  0.67003286  0.41727242  1
  O  O36  1  0.20295884  0.03178188  0.30542392  1
  O  O37  1  0.83661635  0.80683163  0.30821903  1
  O  O38  1  0.97210711  0.17209196  0.30527259  1
  O  O39  1  0.19998485  0.17209196  0.80527259  1
  O  O40  1  0.97021529  0.80683163  0.80821903  1
  O  O41  1  0.82882304  0.03178188  0.80542392  1
  O  O42  1  0.79990155  0.97093506  0.69497111  1
  O  O43  1  0.17080779  0.20316988  0.69509443  1
  O  O44  1  0.03083177  0.83396419  0.69255769  1
  O  O45  1  0.80313242  0.83396419  0.19255769  1
  O  O46  1  0.03236209  0.20316988  0.19509443  1
  O  O47  1  0.17103351  0.97093506  0.19497111  1
  O  O48  1  0.86125410  0.36419222  0.64116403  1
  O  O49  1  0.49468309  0.13399841  0.63904681  1
  O  O50  1  0.63530002  0.50494143  0.63883432  1
  O  O51  1  0.86964242  0.50494143  0.13883432  1
  O  O52  1  0.63931632  0.13399841  0.13904681  1
  O  O53  1  0.50293912  0.36419222  0.14116403  1
  O  O54  1  0.46990777  0.30241395  0.02576934  1
  O  O55  1  0.83815749  0.53461153  0.02846110  1
  O  O56  1  0.69827403  0.16287575  0.02834662  1
  O  O57  1  0.46460273  0.16287575  0.52834662  1
  O  O58  1  0.69645504  0.53461153  0.52846110  1
  O  O59  1  0.83250718  0.30241395  0.52576934  1
  O  O60  1  0.53560817  0.69745501  0.97218241  1
  O  O61  1  0.16963019  0.47229448  0.97441303  1
  O  O62  1  0.30478171  0.83917624  0.97221762  1
  O  O63  1  0.53439353  0.83917624  0.47221762  1
  O  O64  1  0.30266329  0.47229448  0.47441303  1
  O  O65  1  0.16184584  0.69745501  0.47218241  1
  O  O66  1  0.13093902  0.63688395  0.36147408  1
  O  O67  1  0.50365280  0.86917860  0.36150037  1
  O  O68  1  0.36366139  0.50169866  0.35954295  1
  O  O69  1  0.13803627  0.50169866  0.85954295  1
  O  O70  1  0.36552480  0.86917860  0.86150037  1
  O  O71  1  0.50594393  0.63688395  0.86147408  1
  O  O72  1  0.02540131  0.83188600  0.40972160  1
  O  O73  1  0.80575791  0.97475768  0.40897088  1
  O  O74  1  0.15597186  0.18006864  0.40805269  1
  O  O75  1  0.02409678  0.18006864  0.90805269  1
  O  O76  1  0.16899977  0.97475768  0.90897088  1
  O  O77  1  0.80648469  0.83188600  0.90972160  1
  O  O78  1  0.97654455  0.16075548  0.59149234  1
  O  O79  1  0.19612611  0.02781339  0.59072497  1
  O  O80  1  0.83216177  0.80458191  0.59099332  1
  O  O81  1  0.97242014  0.80458191  0.09099332  1
  O  O82  1  0.83168728  0.02781339  0.09072497  1
  O  O83  1  0.18421093  0.16075548  0.09149234  1
  O  O84  1  0.68962903  0.16329593  0.74240600  1
  O  O85  1  0.47216305  0.30560000  0.74236509  1
  O  O86  1  0.82287204  0.51535211  0.74246841  1
  O  O87  1  0.69248106  0.51535211  0.24246841  1
  O  O88  1  0.83343795  0.30560000  0.24236509  1
  O  O89  1  0.47366790  0.16329593  0.24240600  1
  O  O90  1  0.63983588  0.50156309  0.92453299  1
  O  O91  1  0.85190804  0.35793234  0.92469264  1
  O  O92  1  0.49835095  0.13783454  0.92388344  1
  O  O93  1  0.63948459  0.13783454  0.42388344  1
  O  O94  1  0.50602530  0.35793234  0.42469264  1
  O  O95  1  0.86172821  0.50156309  0.42453299  1
  O  O96  1  0.36002677  0.51163434  0.07586818  1
  O  O97  1  0.14111887  0.64459747  0.07590349  1
  O  O98  1  0.50121051  0.86145059  0.07527826  1
  O  O99  1  0.36023908  0.86145059  0.57527826  1
  O  O100  1  0.50347760  0.64459747  0.57590349  1
  O  O101  1  0.15160657  0.51163434  0.57586818  1
  O  O102  1  0.30343469  0.83356225  0.25770668  1
  O  O103  1  0.51855643  0.69277034  0.25748788  1
  O  O104  1  0.16301439  0.47246162  0.25785284  1
  O  O105  1  0.30944623  0.47246162  0.75785284  1
  O  O106  1  0.17421292  0.69277034  0.75748788  1
  O  O107  1  0.53012656  0.83356225  0.75770668  1
