# generated using pymatgen
data_MoBr2
_symmetry_space_group_name_H-M   'P 1'
_cell_length_a   9.73795912
_cell_length_b   9.73795916
_cell_length_c   11.96365287
_cell_angle_alpha   90.00000000
_cell_angle_beta   90.00000000
_cell_angle_gamma   104.27848756
_symmetry_Int_Tables_number   1
_chemical_formula_structural   MoBr2
_chemical_formula_sum   'Mo12 Br24'
_cell_volume   1099.44132790
_cell_formula_units_Z   12
loop_
 _symmetry_equiv_pos_site_id
 _symmetry_equiv_pos_as_xyz
  1  'x, y, z'
loop_
 _atom_site_type_symbol
 _atom_site_label
 _atom_site_symmetry_multiplicity
 _atom_site_fract_x
 _atom_site_fract_y
 _atom_site_fract_z
 _atom_site_occupancy
  Mo  Mo0  1  0.06812573  0.06812573  0.86082661  1
  Mo  Mo1  1  0.43187427  0.43187427  0.36082661  1
  Mo  Mo2  1  0.56812573  0.56812573  0.63917339  1
  Mo  Mo3  1  0.93187427  0.93187427  0.13917339  1
  Mo  Mo4  1  0.86071046  0.86071046  0.93206421  1
  Mo  Mo5  1  0.63928954  0.63928954  0.43206421  1
  Mo  Mo6  1  0.36071046  0.36071046  0.56793579  1
  Mo  Mo7  1  0.13928954  0.13928954  0.06793579  1
  Mo  Mo8  1  0.62091275  0.37908725  0.50000000  1
  Mo  Mo9  1  0.87908725  0.12091275  0.00000000  1
  Mo  Mo10  1  0.37908725  0.62091275  0.50000000  1
  Mo  Mo11  1  0.12091275  0.87908725  0.00000000  1
  Br  Br12  1  0.65306037  0.65306037  0.84702592  1
  Br  Br13  1  0.84693963  0.84693963  0.34702592  1
  Br  Br14  1  0.15306037  0.15306037  0.65297408  1
  Br  Br15  1  0.34693963  0.34693963  0.15297408  1
  Br  Br16  1  0.78748950  0.21251050  0.50000000  1
  Br  Br17  1  0.71251050  0.28748950  0.00000000  1
  Br  Br18  1  0.21251050  0.78748950  0.50000000  1
  Br  Br19  1  0.28748950  0.71251050  0.00000000  1
  Br  Br20  1  0.08758273  0.32770933  0.92830880  1
  Br  Br21  1  0.41241727  0.17229067  0.42830880  1
  Br  Br22  1  0.82770933  0.58758273  0.57169120  1
  Br  Br23  1  0.67229067  0.91241727  0.07169120  1
  Br  Br24  1  0.19158639  0.95182658  0.20748357  1
  Br  Br25  1  0.30841261  0.54817342  0.70748357  1
  Br  Br26  1  0.45182658  0.69158739  0.29251643  1
  Br  Br27  1  0.04817342  0.80841261  0.79251643  1
  Br  Br28  1  0.80841261  0.04817342  0.79251643  1
  Br  Br29  1  0.69158739  0.45182658  0.29251643  1
  Br  Br30  1  0.54817342  0.30841261  0.70748357  1
  Br  Br31  1  0.95182658  0.19158639  0.20748357  1
  Br  Br32  1  0.32770933  0.08758273  0.92830880  1
  Br  Br33  1  0.17229067  0.41241727  0.42830880  1
  Br  Br34  1  0.58758273  0.82770933  0.57169120  1
  Br  Br35  1  0.91241727  0.67229067  0.07169120  1
