# generated using pymatgen
data_Na6Ta3Ga(SiO4)6
_symmetry_space_group_name_H-M   'P 1'
_cell_length_a   9.00291023
_cell_length_b   9.00357498
_cell_length_c   22.43739159
_cell_angle_alpha   90.02874454
_cell_angle_beta   90.01205466
_cell_angle_gamma   119.96909232
_symmetry_Int_Tables_number   1
_chemical_formula_structural   Na6Ta3Ga(SiO4)6
_chemical_formula_sum   'Na18 Ta9 Ga3 Si18 O72'
_cell_volume   1575.56369046
_cell_formula_units_Z   3
loop_
 _symmetry_equiv_pos_site_id
 _symmetry_equiv_pos_as_xyz
  1  'x, y, z'
loop_
 _atom_site_type_symbol
 _atom_site_label
 _atom_site_symmetry_multiplicity
 _atom_site_fract_x
 _atom_site_fract_y
 _atom_site_fract_z
 _atom_site_occupancy
  Na  Na0  1  0.00591390  0.00038418  0.49855747  1
  Na  Na1  1  0.99306075  0.99356795  0.99729952  1
  Na  Na2  1  0.66661649  0.33288117  0.83271731  1
  Na  Na3  1  0.66669212  0.33302433  0.32737065  1
  Na  Na4  1  0.34071828  0.66712128  0.16384592  1
  Na  Na5  1  0.32630529  0.65983375  0.66551526  1
  Na  Na6  1  0.63801916  0.01230625  0.24664960  1
  Na  Na7  1  0.37386537  0.36153020  0.24611820  1
  Na  Na8  1  0.98809799  0.62585965  0.24654128  1
  Na  Na9  1  0.63531960  0.62506610  0.74700990  1
  Na  Na10  1  0.98913300  0.36416650  0.74715650  1
  Na  Na11  1  0.37541625  0.01025458  0.74758477  1
  Na  Na12  1  0.66614571  0.96997450  0.58572284  1
  Na  Na13  1  0.30535116  0.97259834  0.08359566  1
  Na  Na14  1  0.02922674  0.33606844  0.08361430  1
  Na  Na15  1  0.96694317  0.29043119  0.41332717  1
  Na  Na16  1  0.32368624  0.03239479  0.41345881  1
  Na  Na17  1  0.70930772  0.67696656  0.41356151  1
  Ta  Ta18  1  0.00071683  0.00058398  0.85554088  1
  Ta  Ta19  1  0.00427196  0.00015044  0.64460158  1
  Ta  Ta20  1  0.99596636  0.99632659  0.14556377  1
  Ta  Ta21  1  0.66723402  0.33418876  0.97753778  1
  Ta  Ta22  1  0.66634330  0.33402225  0.48171319  1
  Ta  Ta23  1  0.33746591  0.66683144  0.01972793  1
  Ta  Ta24  1  0.32948112  0.66278967  0.52236969  1
  Ta  Ta25  1  0.33288714  0.66651325  0.31221470  1
  Ta  Ta26  1  0.33374242  0.66691365  0.81433835  1
  Ga  Ga27  1  0.99970148  0.99991097  0.35024339  1
  Ga  Ga28  1  0.66683133  0.33410938  0.68507593  1
  Ga  Ga29  1  0.66636600  0.33374776  0.18391292  1
  Si  Si30  1  0.29120595  0.00461324  0.25163945  1
  Si  Si31  1  0.71295639  0.70842510  0.25214101  1
  Si  Si32  1  0.99561145  0.28642632  0.25143105  1
  Si  Si33  1  0.29234140  0.28948148  0.74963374  1
  Si  Si34  1  0.99676926  0.70714215  0.74991589  1
  Si  Si35  1  0.71076757  0.00294235  0.74924952  1
  Si  Si36  1  0.95569574  0.33600981  0.58658162  1
  Si  Si37  1  0.37785120  0.04658816  0.58569374  1
  Si  Si38  1  0.66649053  0.61976040  0.58642348  1
  Si  Si39  1  0.95077353  0.61939282  0.08482904  1
  Si  Si40  1  0.66561926  0.04616565  0.08496402  1
  Si  Si41  1  0.38368920  0.33718826  0.08550730  1
  Si  Si42  1  0.62567217  0.66656640  0.91627489  1
  Si  Si43  1  0.04167629  0.37545142  0.91686056  1
  Si  Si44  1  0.33345141  0.95802689  0.91718054  1
  Si  Si45  1  0.62673175  0.95730756  0.41692444  1
  Si  Si46  1  0.33070292  0.37303722  0.41617205  1
  Si  Si47  1  0.04266270  0.66956912  0.41649280  1
  O  O48  1  0.20696855  0.03667114  0.31059496  1
  O  O49  1  0.82880441  0.79143135  0.31125370  1
  O  O50  1  0.96306851  0.17031733  0.31045330  1
  O  O51  1  0.19522633  0.16343046  0.80647033  1
  O  O52  1  0.96870105  0.80525146  0.80662342  1
  O  O53  1  0.83761958  0.03106807  0.80580214  1
  O  O54  1  0.79709439  0.96315658  0.69060137  1
  O  O55  1  0.16039187  0.19773826  0.69269456  1
  O  O56  1  0.03616900  0.83874265  0.69286894  1
  O  O57  1  0.80381734  0.83947961  0.19468022  1
  O  O58  1  0.03611089  0.20080553  0.19245926  1
  O  O59  1  0.16510635  0.96456947  0.19263920  1
  O  O60  1  0.87339156  0.36616987  0.64495995  1
  O  O61  1  0.49952084  0.12342025  0.64307137  1
  O  O62  1  0.63189886  0.50599754  0.64467819  1
  O  O63  1  0.87797969  0.50233553  0.14416942  1
  O  O64  1  0.62550086  0.12169452  0.14454810  1
  O  O65  1  0.49102507  0.36648217  0.14601756  1
  O  O66  1  0.47045989  0.29794596  0.02795033  1
  O  O67  1  0.83109232  0.52750865  0.02674691  1
  O  O68  1  0.70172242  0.17131924  0.02748163  1
  O  O69  1  0.46895893  0.16380251  0.52483329  1
  O  O70  1  0.69473601  0.53078334  0.52530514  1
  O  O71  1  0.83354573  0.30174460  0.52589273  1
  O  O72  1  0.52698871  0.69390381  0.97320604  1
  O  O73  1  0.16214252  0.46893458  0.97549365  1
  O  O74  1  0.30558075  0.83705903  0.97567849  1
  O  O75  1  0.53176667  0.83479882  0.47446152  1
  O  O76  1  0.30381510  0.47351273  0.47220336  1
  O  O77  1  0.17075792  0.69753455  0.47234777  1
  O  O78  1  0.13173399  0.63070289  0.35813671  1
  O  O79  1  0.49796792  0.86656891  0.35882841  1
  O  O80  1  0.36911392  0.50096358  0.35799426  1
  O  O81  1  0.13598287  0.49670153  0.85805520  1
  O  O82  1  0.36086527  0.86412025  0.85821230  1
  O  O83  1  0.50462373  0.63874721  0.85730361  1
  O  O84  1  0.02419312  0.83813448  0.41190979  1
  O  O85  1  0.81430254  0.97637576  0.41191851  1
  O  O86  1  0.16209891  0.18605052  0.41187210  1
  O  O87  1  0.02595673  0.18814656  0.90967528  1
  O  O88  1  0.16214573  0.97408697  0.90970503  1
  O  O89  1  0.81230298  0.83813123  0.90963798  1
  O  O90  1  0.96706548  0.15851729  0.58933207  1
  O  O91  1  0.18677155  0.02557238  0.58910262  1
  O  O92  1  0.83405174  0.81585129  0.58929816  1
  O  O93  1  0.98202500  0.81653258  0.08992721  1
  O  O94  1  0.84125054  0.03143206  0.09023688  1
  O  O95  1  0.18784821  0.16318707  0.09031464  1
  O  O96  1  0.68995273  0.17055480  0.74536620  1
  O  O97  1  0.47960745  0.30825637  0.74488111  1
  O  O98  1  0.82908735  0.51961487  0.74546140  1
  O  O99  1  0.68809913  0.51843436  0.24476623  1
  O  O100  1  0.83066795  0.31233612  0.24462058  1
  O  O101  1  0.48229092  0.16880532  0.24520745  1
  O  O102  1  0.64004081  0.49482606  0.92348624  1
  O  O103  1  0.85412068  0.35885254  0.92317450  1
  O  O104  1  0.50488650  0.14495438  0.92371029  1
  O  O105  1  0.63932110  0.14623231  0.42265412  1
  O  O106  1  0.50688397  0.36106071  0.42263843  1
  O  O107  1  0.85478798  0.49318134  0.42307701  1
  O  O108  1  0.34764063  0.49879959  0.07683306  1
  O  O109  1  0.14628545  0.64525980  0.07632130  1
  O  O110  1  0.49404382  0.85560706  0.07619478  1
  O  O111  1  0.36264733  0.85763693  0.57484977  1
  O  O112  1  0.50145213  0.65055776  0.57559828  1
  O  O113  1  0.14686877  0.50269458  0.57564597  1
  O  O114  1  0.30470732  0.82602549  0.25655179  1
  O  O115  1  0.52144572  0.69535385  0.25648215  1
  O  O116  1  0.17379202  0.47846680  0.25653103  1
  O  O117  1  0.30555336  0.47885391  0.75595134  1
  O  O118  1  0.17329266  0.69422190  0.75592716  1
  O  O119  1  0.52076630  0.82676877  0.75602031  1
