# generated using pymatgen
data_AlGa(SO4)3
_symmetry_space_group_name_H-M   'P 1'
_cell_length_a   8.35252294
_cell_length_b   8.35252270
_cell_length_c   21.64453889
_cell_angle_alpha   90.00000000
_cell_angle_beta   90.00000000
_cell_angle_gamma   120.00000097
_symmetry_Int_Tables_number   1
_chemical_formula_structural   AlGa(SO4)3
_chemical_formula_sum   'Al6 Ga6 S18 O72'
_cell_volume   1307.71861882
_cell_formula_units_Z   6
loop_
 _symmetry_equiv_pos_site_id
 _symmetry_equiv_pos_as_xyz
  1  'x, y, z'
loop_
 _atom_site_type_symbol
 _atom_site_label
 _atom_site_symmetry_multiplicity
 _atom_site_fract_x
 _atom_site_fract_y
 _atom_site_fract_z
 _atom_site_occupancy
  Al  Al0  1  0.00000000  0.00000000  0.85429936  1
  Al  Al1  1  0.66666700  0.33333300  0.97903364  1
  Al  Al2  1  0.33333300  0.66666700  0.02004060  1
  Al  Al3  1  0.33333300  0.66666700  0.52034265  1
  Al  Al4  1  0.33333300  0.66666700  0.31299135  1
  Al  Al5  1  0.33333300  0.66666700  0.81329340  1
  Ga  Ga6  1  0.00000000  0.00000000  0.35388270  1
  Ga  Ga7  1  0.00000000  0.00000000  0.64687428  1
  Ga  Ga8  1  0.00000000  0.00000000  0.14630564  1
  Ga  Ga9  1  0.66666700  0.33333300  0.68702736  1
  Ga  Ga10  1  0.66666700  0.33333300  0.18645872  1
  Ga  Ga11  1  0.66666700  0.33333300  0.47945030  1
  S  S12  1  0.29136354  0.99791591  0.25041420  1
  S  S13  1  0.70655237  0.70863646  0.25041420  1
  S  S14  1  0.00208409  0.29344763  0.25041420  1
  S  S15  1  0.28913289  0.29122861  0.75123652  1
  S  S16  1  0.00209572  0.71086711  0.75123652  1
  S  S17  1  0.70877139  0.99790428  0.75123652  1
  S  S18  1  0.96011463  0.33541709  0.58291880  1
  S  S19  1  0.37530346  0.03988537  0.58291880  1
  S  S20  1  0.66458291  0.62469654  0.58291880  1
  S  S21  1  0.95789561  0.62246589  0.08209648  1
  S  S22  1  0.66457128  0.04210439  0.08209648  1
  S  S23  1  0.37753411  0.33542872  0.08209648  1
  S  S24  1  0.62252118  0.66666700  0.91666700  1
  S  S25  1  0.04414482  0.37747882  0.91666700  1
  S  S26  1  0.33333300  0.95585518  0.91666700  1
  S  S27  1  0.62013209  0.95346609  0.41666700  1
  S  S28  1  0.33333300  0.37986791  0.41666700  1
  S  S29  1  0.04653391  0.66666700  0.41666700  1
  O  O30  1  0.21135498  0.03631865  0.30545555  1
  O  O31  1  0.82496366  0.78864502  0.30545555  1
  O  O32  1  0.96368135  0.17503634  0.30545555  1
  O  O33  1  0.20347279  0.17088421  0.80564285  1
  O  O34  1  0.96741143  0.79652721  0.80564285  1
  O  O35  1  0.82911579  0.03258857  0.80564285  1
  O  O36  1  0.78633822  0.96157977  0.69498947  1
  O  O37  1  0.17524156  0.21366178  0.69498947  1
  O  O38  1  0.03842022  0.82475844  0.69498947  1
  O  O39  1  0.78620144  0.82493331  0.19473428  1
  O  O40  1  0.03873187  0.21379856  0.19473428  1
  O  O41  1  0.17506669  0.96126813  0.19473428  1
  O  O42  1  0.88046556  0.37206487  0.63859872  1
  O  O43  1  0.49160031  0.11953444  0.63859872  1
  O  O44  1  0.62793513  0.50839969  0.63859872  1
  O  O45  1  0.88032878  0.50857456  0.13834353  1
  O  O46  1  0.62824677  0.11967122  0.13834353  1
  O  O47  1  0.49142544  0.37175323  0.13834353  1
  O  O48  1  0.46319421  0.30074443  0.02769015  1
  O  O49  1  0.83755121  0.53680579  0.02769015  1
  O  O50  1  0.69925557  0.16244879  0.02769015  1
  O  O51  1  0.45531202  0.15829666  0.52787745  1
  O  O52  1  0.70298565  0.54468798  0.52787745  1
  O  O53  1  0.84170334  0.29701435  0.52787745  1
  O  O54  1  0.53901860  0.70116859  0.97180550  1
  O  O55  1  0.16214900  0.46098140  0.97180550  1
  O  O56  1  0.29883141  0.83785100  0.97180550  1
  O  O57  1  0.53665265  0.83740776  0.47212545  1
  O  O58  1  0.30075411  0.46334735  0.47212545  1
  O  O59  1  0.16259224  0.69924589  0.47212545  1
  O  O60  1  0.13001335  0.63408811  0.36120855  1
  O  O61  1  0.50407376  0.86998665  0.36120855  1
  O  O62  1  0.36591189  0.49592624  0.36120855  1
  O  O63  1  0.12764740  0.49548300  0.86152850  1
  O  O64  1  0.36783459  0.87235260  0.86152850  1
  O  O65  1  0.50451700  0.63216541  0.86152850  1
  O  O66  1  0.02773111  0.83140186  0.40942532  1
  O  O67  1  0.80367074  0.97226889  0.40942532  1
  O  O68  1  0.16859814  0.19632926  0.40942532  1
  O  O69  1  0.02537251  0.19410917  0.90721265  1
  O  O70  1  0.16873666  0.97462749  0.90721265  1
  O  O71  1  0.80589083  0.83126334  0.90721265  1
  O  O72  1  0.97683657  0.16995341  0.59099541  1
  O  O73  1  0.19311684  0.02316344  0.59099541  1
  O  O74  1  0.83004659  0.80688316  0.59099541  1
  O  O75  1  0.97460873  0.80499505  0.09002822  1
  O  O76  1  0.83038632  0.02539127  0.09002822  1
  O  O77  1  0.19500495  0.16961368  0.09002822  1
  O  O78  1  0.69205827  0.16371932  0.74330478  1
  O  O79  1  0.47166205  0.30794173  0.74330478  1
  O  O80  1  0.83628068  0.52833795  0.74330478  1
  O  O81  1  0.68983044  0.52644984  0.24233759  1
  O  O82  1  0.83662041  0.31016956  0.24233759  1
  O  O83  1  0.47355016  0.16337959  0.24233759  1
  O  O84  1  0.64129449  0.50206966  0.92612035  1
  O  O85  1  0.86077617  0.35870551  0.92612035  1
  O  O86  1  0.49793034  0.13922383  0.92612035  1
  O  O87  1  0.63893589  0.13700374  0.42390768  1
  O  O88  1  0.49806886  0.36106411  0.42390768  1
  O  O89  1  0.86299626  0.50193114  0.42390768  1
  O  O90  1  0.35846135  0.49957133  0.07286593  1
  O  O91  1  0.14110898  0.64153865  0.07286593  1
  O  O92  1  0.50042867  0.85889102  0.07286593  1
  O  O93  1  0.35786912  0.85767813  0.57354047  1
  O  O94  1  0.49980802  0.64213088  0.57354047  1
  O  O95  1  0.14232187  0.50019198  0.57354047  1
  O  O96  1  0.30879688  0.83314202  0.25979353  1
  O  O97  1  0.52434413  0.69120312  0.25979353  1
  O  O98  1  0.16685798  0.47565587  0.25979353  1
  O  O99  1  0.30820465  0.47444298  0.76046807  1
  O  O100  1  0.16623733  0.69179535  0.76046807  1
  O  O101  1  0.52555702  0.83376267  0.76046807  1
