# generated using pymatgen
data_CaIn2O4
_symmetry_space_group_name_H-M   'P 1'
_cell_length_a   6.56542184
_cell_length_b   6.56542179
_cell_length_c   6.58151234
_cell_angle_alpha   119.91916039
_cell_angle_beta   119.91915511
_cell_angle_gamma   89.99999735
_symmetry_Int_Tables_number   1
_chemical_formula_structural   CaIn2O4
_chemical_formula_sum   'Ca2 In4 O8'
_cell_volume   201.09158068
_cell_formula_units_Z   2
loop_
 _symmetry_equiv_pos_site_id
 _symmetry_equiv_pos_as_xyz
  1  'x, y, z'
loop_
 _atom_site_type_symbol
 _atom_site_label
 _atom_site_symmetry_multiplicity
 _atom_site_fract_x
 _atom_site_fract_y
 _atom_site_fract_z
 _atom_site_occupancy
  Ca  Ca0  1  0.37500000  0.62500000  0.75000000  1
  Ca  Ca1  1  0.62500000  0.37500000  0.25000000  1
  In  In2  1  0.50000000  0.00000000  0.50000000  1
  In  In3  1  0.00000000  0.00000000  -0.00000000  1
  In  In4  1  0.00000000  0.00000000  0.50000000  1
  In  In5  1  0.00000000  0.50000000  -0.00000000  1
  O  O6  1  0.76475656  0.79232377  0.52951112  1
  O  O7  1  0.76281165  0.23524344  0.97048888  1
  O  O8  1  0.20767623  0.23524344  0.97048888  1
  O  O9  1  0.23524344  0.20767623  0.47048888  1
  O  O10  1  0.23524344  0.76281165  0.47048888  1
  O  O11  1  0.23718835  0.76475656  0.02951112  1
  O  O12  1  0.76475656  0.23718835  0.52951112  1
  O  O13  1  0.79232377  0.76475656  0.02951112  1
