# generated using pymatgen
data_Na3Sc2Ta2SiP5O24
_symmetry_space_group_name_H-M   'P 1'
_cell_length_a   8.88931269
_cell_length_b   8.87289062
_cell_length_c   22.77578992
_cell_angle_alpha   89.98578841
_cell_angle_beta   90.03725248
_cell_angle_gamma   119.95534155
_symmetry_Int_Tables_number   1
_chemical_formula_structural   Na3Sc2Ta2SiP5O24
_chemical_formula_sum   'Na9 Sc6 Ta6 Si3 P15 O72'
_cell_volume   1556.44062373
_cell_formula_units_Z   3
loop_
 _symmetry_equiv_pos_site_id
 _symmetry_equiv_pos_as_xyz
  1  'x, y, z'
loop_
 _atom_site_type_symbol
 _atom_site_label
 _atom_site_symmetry_multiplicity
 _atom_site_fract_x
 _atom_site_fract_y
 _atom_site_fract_z
 _atom_site_occupancy
  Na  Na0  1  0.35992049  0.99229175  0.75147424  1
  Na  Na1  1  0.67298648  0.97376081  0.58648521  1
  Na  Na2  1  0.67684008  0.70004352  0.08337051  1
  Na  Na3  1  0.01427286  0.00065196  0.50405461  1
  Na  Na4  1  0.01022393  0.00509939  0.00378901  1
  Na  Na5  1  0.67485130  0.34193209  0.83858619  1
  Na  Na6  1  0.66561070  0.33259957  0.33779179  1
  Na  Na7  1  0.32457166  0.66608506  0.17207038  1
  Na  Na8  1  0.32927439  0.65323927  0.67122777  1
  Sc  Sc9  1  0.00266671  0.99899984  0.64726146  1
  Sc  Sc10  1  0.00647899  0.00295151  0.14738588  1
  Sc  Sc11  1  0.66943959  0.33594697  0.98044489  1
  Sc  Sc12  1  0.66094035  0.33093451  0.47958923  1
  Sc  Sc13  1  0.33365841  0.66699523  0.31342349  1
  Sc  Sc14  1  0.33725065  0.66484408  0.81404681  1
  Ta  Ta15  1  0.00039930  0.00008963  0.35370829  1
  Ta  Ta16  1  0.99479953  0.99980892  0.85415209  1
  Ta  Ta17  1  0.66892357  0.33321400  0.68658246  1
  Ta  Ta18  1  0.67090938  0.33418587  0.18781723  1
  Ta  Ta19  1  0.32668416  0.66655232  0.01982457  1
  Ta  Ta20  1  0.32985335  0.66604180  0.51950563  1
  Si  Si21  1  0.70856228  0.99889247  0.74742545  1
  Si  Si22  1  0.37092117  0.04326377  0.58180687  1
  Si  Si23  1  0.95768003  0.62415979  0.08265798  1
  P  P24  1  0.29093894  0.00118814  0.24954210  1
  P  P25  1  0.70988329  0.70948276  0.24852157  1
  P  P26  1  -0.00085598  0.28925981  0.24939897  1
  P  P27  1  0.28887975  0.29014664  0.74947996  1
  P  P28  1  0.99661394  0.70845013  0.75047690  1
  P  P29  1  0.95763750  0.33679826  0.58206606  1
  P  P30  1  0.66528733  0.62139699  0.58179529  1
  P  P31  1  0.66561754  0.04424747  0.08277699  1
  P  P32  1  0.37737267  0.33229594  0.08232998  1
  P  P33  1  0.62438430  0.66681174  0.91656185  1
  P  P34  1  0.04402893  0.37627835  0.91525586  1
  P  P35  1  0.33231101  0.95818564  0.91462823  1
  P  P36  1  0.62450952  0.95611507  0.41552331  1
  P  P37  1  0.33223947  0.37652558  0.41495526  1
  P  P38  1  0.04318368  0.66670153  0.41493821  1
  O  O39  1  0.19849094  0.02837671  0.30510978  1
  O  O40  1  0.83119183  0.80279167  0.30351472  1
  O  O41  1  0.97181002  0.17056337  0.30515152  1
  O  O42  1  0.20402208  0.16760778  0.80488776  1
  O  O43  1  0.97112022  0.80018327  0.80605144  1
  O  O44  1  0.83671553  0.02764295  0.80578438  1
  O  O45  1  0.78983964  0.97342525  0.68858107  1
  O  O46  1  0.18194858  0.20439757  0.69536741  1
  O  O47  1  0.03257664  0.82376402  0.69708035  1
  O  O48  1  0.79053137  0.81339124  0.19300411  1
  O  O49  1  0.02167548  0.20482929  0.19535522  1
  O  O50  1  0.18175332  0.97610154  0.19561329  1
  O  O51  1  0.87014151  0.36797325  0.63831495  1
  O  O52  1  0.50073965  0.13358058  0.64156048  1
  O  O53  1  0.63820856  0.50633873  0.63799702  1
  O  O54  1  0.86138215  0.49644375  0.14135793  1
  O  O55  1  0.63360165  0.13009601  0.13869154  1
  O  O56  1  0.49880441  0.36643657  0.13779393  1
  O  O57  1  0.45967146  0.30610672  0.02804482  1
  O  O58  1  0.83450479  0.53672524  0.02724872  1
  O  O59  1  0.69002705  0.15195911  0.02859222  1
  O  O60  1  0.46985807  0.15782692  0.52622033  1
  O  O61  1  0.69301172  0.53938099  0.52802843  1
  O  O62  1  0.84451617  0.30740036  0.52894139  1
  O  O63  1  0.54008499  0.69622072  0.97347240  1
  O  O64  1  0.16348299  0.46778854  0.97127688  1
  O  O65  1  0.30660636  0.83562661  0.96977660  1
  O  O66  1  0.53769330  0.83963780  0.47255688  1
  O  O67  1  0.30321354  0.46538876  0.47097481  1
  O  O68  1  0.16332182  0.69633173  0.47110204  1
  O  O69  1  0.13044761  0.64467927  0.36158244  1
  O  O70  1  0.51320465  0.86782769  0.36254218  1
  O  O71  1  0.35353744  0.48503261  0.36129246  1
  O  O72  1  0.12884997  0.48485949  0.86171994  1
  O  O73  1  0.35391414  0.87541891  0.85943666  1
  O  O74  1  0.51578572  0.64742530  0.86308223  1
  O  O75  1  0.03193703  0.83877694  0.40892134  1
  O  O76  1  0.80748144  0.96696915  0.40866407  1
  O  O77  1  0.16140243  0.19215318  0.40865073  1
  O  O78  1  0.03466874  0.19388592  0.91003991  1
  O  O79  1  0.16165401  0.96887390  0.91036189  1
  O  O80  1  0.80889931  0.83755508  0.91001487  1
  O  O81  1  0.97570707  0.17650940  0.59029630  1
  O  O82  1  0.17971260  0.01217632  0.58841028  1
  O  O83  1  0.81482563  0.80732925  0.58887131  1
  O  O84  1  0.97726725  0.81330195  0.09035926  1
  O  O85  1  0.81763463  0.01244750  0.09088004  1
  O  O86  1  0.19524568  0.18230959  0.09048018  1
  O  O87  1  0.69463530  0.18103743  0.74290153  1
  O  O88  1  0.47218663  0.30136453  0.74331365  1
  O  O89  1  0.82778148  0.52915734  0.74352500  1
  O  O90  1  0.69627429  0.52496999  0.24339799  1
  O  O91  1  0.82595083  0.29877260  0.24399249  1
  O  O92  1  0.47269017  0.17150394  0.24351850  1
  O  O93  1  0.64871465  0.50966553  0.92191876  1
  O  O94  1  0.86225964  0.34782626  0.92330463  1
  O  O95  1  0.48892980  0.13754900  0.92309373  1
  O  O96  1  0.65351901  0.13854624  0.42258234  1
  O  O97  1  0.48795585  0.35132927  0.42171797  1
  O  O98  1  0.86309690  0.51264000  0.42324536  1
  O  O99  1  0.37282464  0.50889607  0.07567262  1
  O  O100  1  0.15053238  0.63853652  0.07487302  1
  O  O101  1  0.49828876  0.85702918  0.07561282  1
  O  O102  1  0.36709959  0.85135341  0.57484642  1
  O  O103  1  0.49458273  0.63528209  0.57523774  1
  O  O104  1  0.14068356  0.50334792  0.57554771  1
  O  O105  1  0.31609123  0.84507670  0.25727429  1
  O  O106  1  0.52920683  0.68457754  0.25679577  1
  O  O107  1  0.15294240  0.47141172  0.25707370  1
  O  O108  1  0.31386433  0.47034316  0.75709889  1
  O  O109  1  0.15462221  0.68604871  0.75866029  1
  O  O110  1  0.51142834  0.84206418  0.75566970  1
