# generated using pymatgen
data_Nb2Si(PO6)2
_symmetry_space_group_name_H-M   'P 1'
_cell_length_a   8.85844553
_cell_length_b   8.85848925
_cell_length_c   22.81539020
_cell_angle_alpha   90.00072631
_cell_angle_beta   90.00000000
_cell_angle_gamma   119.99983671
_symmetry_Int_Tables_number   1
_chemical_formula_structural   Nb2Si(PO6)2
_chemical_formula_sum   'Nb12 Si6 P12 O72'
_cell_volume   1550.51662909
_cell_formula_units_Z   6
loop_
 _symmetry_equiv_pos_site_id
 _symmetry_equiv_pos_as_xyz
  1  'x, y, z'
loop_
 _atom_site_type_symbol
 _atom_site_label
 _atom_site_symmetry_multiplicity
 _atom_site_fract_x
 _atom_site_fract_y
 _atom_site_fract_z
 _atom_site_occupancy
  Nb  Nb0  1  0.99653505  0.99337158  0.35778693  1
  Nb  Nb1  1  0.99683653  0.99337158  0.85778693  1
  Nb  Nb2  1  0.00223213  0.99569992  0.64215894  1
  Nb  Nb3  1  0.99346779  0.99569992  0.14215894  1
  Nb  Nb4  1  0.66530141  0.33044306  0.69111901  1
  Nb  Nb5  1  0.66514265  0.33044306  0.19111901  1
  Nb  Nb6  1  0.66899955  0.33185613  0.97544735  1
  Nb  Nb7  1  0.66285758  0.33185613  0.47544735  1
  Nb  Nb8  1  0.33926079  0.66843242  0.02455088  1
  Nb  Nb9  1  0.32917064  0.66843242  0.52455088  1
  Nb  Nb10  1  0.32985112  0.66464364  0.30889103  1
  Nb  Nb11  1  0.33479153  0.66464364  0.80889103  1
  Si  Si12  1  0.71429770  0.71430501  0.25005597  1
  Si  Si13  1  0.00000731  0.71430501  0.75005597  1
  Si  Si14  1  0.38354944  0.05004677  0.58336287  1
  Si  Si15  1  0.66649833  0.05004677  0.08336287  1
  Si  Si16  1  0.61695977  0.66513958  0.91668858  1
  Si  Si17  1  0.04817881  0.66513958  0.41668858  1
  P  P18  1  0.28295364  0.00024106  0.25018044  1
  P  P19  1  0.00014837  0.28258723  0.24985037  1
  P  P20  1  0.28243886  0.28258723  0.74985037  1
  P  P21  1  0.71728742  0.00024106  0.75018044  1
  P  P22  1  0.94843848  0.33157792  0.58342496  1
  P  P23  1  0.66497579  0.61530254  0.58324681  1
  P  P24  1  0.95032775  0.61530254  0.08324681  1
  P  P25  1  0.38314044  0.33157792  0.08342496  1
  P  P26  1  0.05126560  0.38335537  0.91638347  1
  P  P27  1  0.33342751  0.94951435  0.91672170  1
  P  P28  1  0.61608585  0.94951435  0.41672170  1
  P  P29  1  0.33208876  0.38335537  0.41638347  1
  O  O30  1  0.20064137  0.03180450  0.30493153  1
  O  O31  1  0.83813336  0.80922917  0.30710001  1
  O  O32  1  0.97088530  0.17143630  0.30458692  1
  O  O33  1  0.20055100  0.17143630  0.80458692  1
  O  O34  1  0.97109581  0.80922917  0.80710001  1
  O  O35  1  0.83116314  0.03180450  0.80493153  1
  O  O36  1  0.79935024  0.97066928  0.69537790  1
  O  O37  1  0.16852518  0.20037854  0.69494900  1
  O  O38  1  0.02873005  0.83807453  0.69296139  1
  O  O39  1  0.80934448  0.83807453  0.19296139  1
  O  O40  1  0.03185336  0.20037854  0.19494900  1
  O  O41  1  0.17131905  0.97066928  0.19537790  1
  O  O42  1  0.86741368  0.36553584  0.63812859  1
  O  O43  1  0.50335511  0.14100352  0.64067571  1
  O  O44  1  0.63768966  0.50284615  0.63783158  1
  O  O45  1  0.86515750  0.50284615  0.13783158  1
  O  O46  1  0.63764941  0.14100352  0.14067571  1
  O  O47  1  0.49812316  0.36553584  0.13812859  1
  O  O48  1  0.46839028  0.30435023  0.02875947  1
  O  O49  1  0.83528580  0.53418868  0.02853486  1
  O  O50  1  0.69578993  0.17009453  0.02601169  1
  O  O51  1  0.47430560  0.17009453  0.52601169  1
  O  O52  1  0.69890388  0.53418868  0.52853486  1
  O  O53  1  0.83596095  0.30435023  0.52875947  1
  O  O54  1  0.52354896  0.69503940  0.97391825  1
  O  O55  1  0.16212899  0.46709358  0.97125366  1
  O  O56  1  0.30034604  0.83539207  0.97151334  1
  O  O57  1  0.53504502  0.83539207  0.47151334  1
  O  O58  1  0.30496359  0.46709358  0.47125366  1
  O  O59  1  0.17148944  0.69503940  0.47391825  1
  O  O60  1  0.14057240  0.63726691  0.35950980  1
  O  O61  1  0.50300668  0.86607006  0.36217285  1
  O  O62  1  0.36454533  0.49830481  0.36167682  1
  O  O63  1  0.13375848  0.49830481  0.86167682  1
  O  O64  1  0.36306238  0.86607006  0.86217285  1
  O  O65  1  0.49669351  0.63726691  0.85950980  1
  O  O66  1  0.02976503  0.83856837  0.40682142  1
  O  O67  1  0.80106891  0.97591396  0.40680965  1
  O  O68  1  0.17254491  0.20174261  0.40576824  1
  O  O69  1  0.02919769  0.20174261  0.90576824  1
  O  O70  1  0.17484505  0.97591396  0.90680965  1
  O  O71  1  0.80880334  0.83856837  0.90682142  1
  O  O72  1  0.96907172  0.17088173  0.59393371  1
  O  O73  1  0.19027220  0.02808140  0.59327610  1
  O  O74  1  0.82478503  0.80016448  0.59329174  1
  O  O75  1  0.97537944  0.80016448  0.09329174  1
  O  O76  1  0.83780920  0.02808140  0.09327610  1
  O  O77  1  0.20181001  0.17088173  0.09393371  1
  O  O78  1  0.69506122  0.16154066  0.74073111  1
  O  O79  1  0.46628260  0.30669139  0.73986860  1
  O  O80  1  0.83038395  0.52364990  0.73863523  1
  O  O81  1  0.69326695  0.52364990  0.23863523  1
  O  O82  1  0.84040979  0.30669139  0.23986860  1
  O  O83  1  0.46648044  0.16154066  0.24073111  1
  O  O84  1  0.64171310  0.49780680  0.92812629  1
  O  O85  1  0.86779354  0.36232078  0.92602849  1
  O  O86  1  0.49442025  0.13283418  0.92651301  1
  O  O87  1  0.63841493  0.13283418  0.42651301  1
  O  O88  1  0.49452824  0.36232078  0.42602849  1
  O  O89  1  0.85609471  0.49780680  0.42812629  1
  O  O90  1  0.35786287  0.49127418  0.07342550  1
  O  O91  1  0.13158123  0.63600779  0.07283956  1
  O  O92  1  0.49532778  0.85697259  0.07330765  1
  O  O93  1  0.36164380  0.85697259  0.57330765  1
  O  O94  1  0.50442556  0.63600779  0.57283956  1
  O  O95  1  0.13341031  0.49127418  0.57342550  1
  O  O96  1  0.30668319  0.84033886  0.26017784  1
  O  O97  1  0.52368919  0.69346236  0.26150149  1
  O  O98  1  0.16147712  0.46645325  0.25918170  1
  O  O99  1  0.30497513  0.46645325  0.75918170  1
  O  O100  1  0.16977217  0.69346236  0.76150149  1
  O  O101  1  0.53365468  0.84033886  0.76017784  1
