# generated using pymatgen
data_Na2Al4Ga4SiS11O48
_symmetry_space_group_name_H-M   'P 1'
_cell_length_a   16.80511457
_cell_length_b   8.39925883
_cell_length_c   21.87849813
_cell_angle_alpha   89.96897014
_cell_angle_beta   89.96060630
_cell_angle_gamma   120.01727098
_symmetry_Int_Tables_number   1
_chemical_formula_structural   Na2Al4Ga4SiS11O48
_chemical_formula_sum   'Na6 Al12 Ga12 Si3 S33 O144'
_cell_volume   2673.95837350
_cell_formula_units_Z   3
loop_
 _symmetry_equiv_pos_site_id
 _symmetry_equiv_pos_as_xyz
  1  'x, y, z'
loop_
 _atom_site_type_symbol
 _atom_site_label
 _atom_site_symmetry_multiplicity
 _atom_site_fract_x
 _atom_site_fract_y
 _atom_site_fract_z
 _atom_site_occupancy
  Na  Na0  1  0.00118606  0.99297395  0.50002910  1
  Na  Na1  1  0.50123303  0.01063097  0.99573945  1
  Na  Na2  1  0.33799305  0.33357710  0.83513760  1
  Na  Na3  1  0.83819764  0.34545676  0.82964209  1
  Na  Na4  1  0.33141631  0.33067564  0.33416272  1
  Na  Na5  1  0.84019812  0.34403000  0.33671093  1
  Al  Al6  1  0.99716045  0.98661329  0.85131328  1
  Al  Al7  1  0.50138462  0.01228162  0.85346040  1
  Al  Al8  1  0.00001570  0.99388941  0.65185971  1
  Al  Al9  1  0.50120808  0.00022912  0.64669516  1
  Al  Al10  1  0.33185945  0.33333564  0.68640522  1
  Al  Al11  1  0.83818852  0.34159523  0.68884154  1
  Al  Al12  1  0.33672421  0.33317718  0.97645522  1
  Al  Al13  1  0.83901564  0.34211482  0.48184782  1
  Al  Al14  1  0.66405037  0.65662812  0.01678526  1
  Al  Al15  1  0.16166986  0.66947426  0.52239445  1
  Al  Al16  1  0.16257436  0.66806799  0.80808178  1
  Al  Al17  1  0.66209471  0.65709221  0.81284104  1
  Ga  Ga18  1  0.00230643  0.99142757  0.35487039  1
  Ga  Ga19  1  0.49852952  0.99963049  0.35506511  1
  Ga  Ga20  1  0.00032300  0.00203045  0.14476218  1
  Ga  Ga21  1  0.49950760  0.99839812  0.14720540  1
  Ga  Ga22  1  0.33242563  0.33415827  0.18252833  1
  Ga  Ga23  1  0.83456009  0.33149925  0.18327452  1
  Ga  Ga24  1  0.83380981  0.33457696  0.97944511  1
  Ga  Ga25  1  0.33254995  0.33235078  0.48490479  1
  Ga  Ga26  1  0.16534868  0.66492805  0.01732542  1
  Ga  Ga27  1  0.66714857  0.66818324  0.52405635  1
  Ga  Ga28  1  0.15986467  0.66350296  0.31622127  1
  Ga  Ga29  1  0.66783368  0.66618198  0.31407059  1
  Si  Si30  1  0.99959172  0.71011591  0.74990943  1
  Si  Si31  1  0.52284308  0.37823109  0.91624334  1
  Si  Si32  1  0.02052080  0.66267968  0.41872627  1
  S  S33  1  0.14675069  0.00104629  0.24849338  1
  S  S34  1  0.64549163  0.99942504  0.25040377  1
  S  S35  1  0.35290024  0.70900995  0.25060431  1
  S  S36  1  0.85338649  0.70785439  0.24904234  1
  S  S37  1  0.00087593  0.28868141  0.24993403  1
  S  S38  1  0.50023041  0.29200362  0.25000020  1
  S  S39  1  0.14507197  0.29011305  0.75026692  1
  S  S40  1  0.64313535  0.28672706  0.74890808  1
  S  S41  1  0.50084042  0.71508550  0.74986338  1
  S  S42  1  0.35659045  -0.00034646  0.74911666  1
  S  S43  1  0.85324470  0.99534673  0.75085800  1
  S  S44  1  0.47755910  0.32999919  0.58522525  1
  S  S45  1  0.97819623  0.32985273  0.58427340  1
  S  S46  1  0.18774886  0.04230975  0.58485844  1
  S  S47  1  0.69054764  0.05166380  0.58420981  1
  S  S48  1  0.33317327  0.62670715  0.58426800  1
  S  S49  1  0.83351110  0.62182100  0.58394787  1
  S  S50  1  0.47972090  0.62298236  0.08224445  1
  S  S51  1  0.97993390  0.62585677  0.08298548  1
  S  S52  1  0.33194169  0.04192345  0.08259923  1
  S  S53  1  0.83095593  0.03654469  0.08203049  1
  S  S54  1  0.18938150  0.33430467  0.08116812  1
  S  S55  1  0.68833007  0.33789980  0.08333116  1
  S  S56  1  0.30954725  0.66595169  0.91490785  1
  S  S57  1  0.81202503  0.67286964  0.91660331  1
  S  S58  1  0.02267907  0.37157081  0.91503527  1
  S  S59  1  0.16469132  0.95567245  0.91626090  1
  S  S60  1  0.66687410  0.95196580  0.91572228  1
  S  S61  1  0.31179501  0.95560436  0.41795053  1
  S  S62  1  0.80988511  0.95825587  0.41761916  1
  S  S63  1  0.16907686  0.38280832  0.41798545  1
  S  S64  1  0.66596011  0.37454079  0.41765697  1
  S  S65  1  0.52146880  0.66630873  0.41693555  1
  O  O66  1  0.10866391  0.04222782  0.30371535  1
  O  O67  1  0.60572737  0.03679692  0.30549248  1
  O  O68  1  0.41281793  0.78775102  0.30530659  1
  O  O69  1  0.91005858  0.78608252  0.30444778  1
  O  O70  1  0.48151399  0.17594015  0.30532047  1
  O  O71  1  0.98225234  0.17254492  0.30536410  1
  O  O72  1  0.10505936  0.17454906  0.80529874  1
  O  O73  1  0.60278432  0.16873606  0.80395440  1
  O  O74  1  0.48224137  0.79552891  0.80475706  1
  O  O75  1  0.97876859  0.79717482  0.81006747  1
  O  O76  1  0.41553852  0.03818427  0.80384463  1
  O  O77  1  0.91315770  0.03949763  0.80543487  1
  O  O78  1  0.39818769  0.97015697  0.69380408  1
  O  O79  1  0.89480141  0.96737538  0.69489222  1
  O  O80  1  0.08853407  0.21324371  0.69457383  1
  O  O81  1  0.58418400  0.20394238  0.69437455  1
  O  O82  1  0.01756277  0.83616941  0.68956156  1
  O  O83  1  0.51421428  0.82750972  0.69438504  1
  O  O84  1  0.39358317  0.82209939  0.19484633  1
  O  O85  1  0.89324075  0.81969051  0.19373629  1
  O  O86  1  0.01417053  0.20587492  0.19401491  1
  O  O87  1  0.51671923  0.21188138  0.19462883  1
  O  O88  1  0.08968366  0.96888282  0.19365978  1
  O  O89  1  0.58917099  0.96623545  0.19483968  1
  O  O90  1  0.43373903  0.36496113  0.63830237  1
  O  O91  1  0.93583880  0.36259472  0.63784992  1
  O  O92  1  0.24740627  0.13197998  0.63818265  1
  O  O93  1  0.74890815  0.13446034  0.63817781  1
  O  O94  1  0.31569278  0.50448462  0.63779112  1
  O  O95  1  0.81703005  0.50560680  0.63774503  1
  O  O96  1  0.44165211  0.51365854  0.13951487  1
  O  O97  1  0.94055301  0.51047382  0.13895632  1
  O  O98  1  0.31673301  0.11825353  0.13988126  1
  O  O99  1  0.81230760  0.11422190  0.13843225  1
  O  O100  1  0.24477916  0.37118791  0.13844193  1
  O  O101  1  0.74346991  0.36610775  0.13953135  1
  O  O102  1  0.23383544  0.30235675  0.02824136  1
  O  O103  1  0.72703214  0.29583952  0.02878745  1
  O  O104  1  0.41779367  0.53800250  0.02959068  1
  O  O105  1  0.92101862  0.54565797  0.02862451  1
  O  O106  1  0.34847679  0.16082706  0.02918719  1
  O  O107  1  0.85144120  0.15935116  0.02846825  1
  O  O108  1  0.22588355  0.15584169  0.52782354  1
  O  O109  1  0.73133998  0.16434260  0.52814349  1
  O  O110  1  0.35456260  0.55162211  0.52831726  1
  O  O111  1  0.84919176  0.54025355  0.52801128  1
  O  O112  1  0.42216945  0.29317940  0.52828781  1
  O  O113  1  0.91953318  0.29286520  0.52867794  1
  O  O114  1  0.27442231  0.70690744  0.97207678  1
  O  O115  1  0.77124819  0.70044057  0.97292749  1
  O  O116  1  0.07590257  0.44639641  0.97278758  1
  O  O117  1  0.58399630  0.46385385  0.97763145  1
  O  O118  1  0.14721492  0.84350353  0.97299163  1
  O  O119  1  0.65334025  0.84607571  0.97272093  1
  O  O120  1  0.27144396  0.84235292  0.47235477  1
  O  O121  1  0.77056064  0.83848642  0.47175862  1
  O  O122  1  0.15646051  0.46678750  0.47299511  1
  O  O123  1  0.64803227  0.45698296  0.47152641  1
  O  O124  1  0.08652182  0.70247418  0.47687010  1
  O  O125  1  0.57808909  0.69923000  0.47163232  1
  O  O126  1  0.05767115  0.62092407  0.35525628  1
  O  O127  1  0.55993035  0.62919735  0.36073561  1
  O  O128  1  0.25827916  0.88290493  0.36053722  1
  O  O129  1  0.75444532  0.88082886  0.36095525  1
  O  O130  1  0.18900106  0.49117190  0.36073191  1
  O  O131  1  0.68566799  0.48921796  0.36106546  1
  O  O132  1  0.06617430  0.49473278  0.86271145  1
  O  O133  1  0.56724306  0.50537177  0.85624892  1
  O  O134  1  0.18624485  0.87404528  0.86352586  1
  O  O135  1  0.68592450  0.87609943  0.86092039  1
  O  O136  1  0.25149077  0.63496095  0.86135062  1
  O  O137  1  0.75442894  0.63671996  0.86171262  1
  O  O138  1  0.01104662  0.84740219  0.41270590  1
  O  O139  1  0.51278974  0.83132733  0.40929535  1
  O  O140  1  0.40420973  0.97557892  0.41092602  1
  O  O141  1  0.90254752  0.98207905  0.41028196  1
  O  O142  1  0.08409518  0.20136939  0.41165619  1
  O  O143  1  0.58255993  0.19342444  0.40919905  1
  O  O144  1  0.01180584  0.18916698  0.90592300  1
  O  O145  1  0.51098016  0.17349210  0.90847488  1
  O  O146  1  0.08450667  0.97799057  0.90806183  1
  O  O147  1  0.58293312  0.96693233  0.90838956  1
  O  O148  1  0.40338088  0.82553900  0.90685639  1
  O  O149  1  0.90268734  0.83742803  0.91055671  1
  O  O150  1  0.48732270  0.16701877  0.59432087  1
  O  O151  1  0.98747254  0.16304581  0.59212661  1
  O  O152  1  0.09675548  0.02850850  0.59049239  1
  O  O153  1  0.59780036  0.02951267  0.59265356  1
  O  O154  1  0.41541860  0.80850748  0.59424744  1
  O  O155  1  0.91513997  0.80904617  0.58939161  1
  O  O156  1  0.48664135  0.80816311  0.08877318  1
  O  O157  1  0.98787984  0.80741291  0.09085048  1
  O  O158  1  0.41692830  0.02673253  0.08859820  1
  O  O159  1  0.91440313  0.02247223  0.09035684  1
  O  O160  1  0.09834599  0.16794847  0.08873072  1
  O  O161  1  0.59537324  0.16873220  0.08986865  1
  O  O162  1  0.34683302  0.16734804  0.74088355  1
  O  O163  1  0.84082256  0.15732627  0.74162568  1
  O  O164  1  0.23820055  0.30555825  0.74145787  1
  O  O165  1  0.73342136  0.29908724  0.74042619  1
  O  O166  1  0.41683246  0.52766643  0.74161035  1
  O  O167  1  0.90824789  0.50677836  0.74183246  1
  O  O168  1  0.34570292  0.52486936  0.24392398  1
  O  O169  1  0.84386634  0.52160572  0.24302606  1
  O  O170  1  0.41666647  0.30970367  0.24371356  1
  O  O171  1  0.91636081  0.30628106  0.24415144  1
  O  O172  1  0.23950425  0.17086803  0.24271315  1
  O  O173  1  0.73787865  0.16668492  0.24409919  1
  O  O174  1  0.31523309  0.49624434  0.92436160  1
  O  O175  1  0.82053763  0.50237713  0.92298256  1
  O  O176  1  0.42098633  0.35670171  0.92476859  1
  O  O177  1  0.92999142  0.35724495  0.92188109  1
  O  O178  1  0.24773511  0.14086529  0.92547767  1
  O  O179  1  0.74938730  0.14142445  0.92220996  1
  O  O180  1  0.32230739  0.14348765  0.42373448  1
  O  O181  1  0.81501910  0.13716928  0.42588761  1
  O  O182  1  0.25108261  0.35704577  0.42356964  1
  O  O183  1  0.74682794  0.35231274  0.42558297  1
  O  O184  1  0.42872299  0.49937790  0.42284124  1
  O  O185  1  0.91882421  0.48294597  0.42606040  1
  O  O186  1  0.17983564  0.49868966  0.07436628  1
  O  O187  1  0.68169482  0.50361613  0.07674559  1
  O  O188  1  0.07087499  0.64234886  0.07606904  1
  O  O189  1  0.57148829  0.64766149  0.07485876  1
  O  O190  1  0.25085613  0.85846697  0.07596010  1
  O  O191  1  0.74916438  0.85588467  0.07262224  1
  O  O192  1  0.18299557  0.86363362  0.57773365  1
  O  O193  1  0.67993217  0.86570611  0.57648115  1
  O  O194  1  0.25076053  0.64212050  0.57394064  1
  O  O195  1  0.75013555  0.63860364  0.57682083  1
  O  O196  1  0.07014686  0.49217983  0.57548261  1
  O  O197  1  0.56854499  0.49693288  0.57769920  1
  O  O198  1  0.15798760  0.83989188  0.25475362  1
  O  O199  1  0.65405601  0.83444913  0.25758171  1
  O  O200  1  0.26263587  0.69141900  0.25843582  1
  O  O201  1  0.76167220  0.68937341  0.25615449  1
  O  O202  1  0.08420464  0.46912326  0.25438193  1
  O  O203  1  0.58260302  0.47405483  0.25720989  1
  O  O204  1  0.15911197  0.47452050  0.75973213  1
  O  O205  1  0.65467444  0.47096878  0.75697416  1
  O  O206  1  0.08904047  0.69006743  0.76015952  1
  O  O207  1  0.58354911  0.69982268  0.75646689  1
  O  O208  1  0.26704875  0.83652591  0.75875342  1
  O  O209  1  0.76268779  0.82949310  0.76075490  1
