# generated using pymatgen
data_Sr4Cl6O
_symmetry_space_group_name_H-M   'P 1'
_cell_length_a   9.50175624
_cell_length_b   9.50173389
_cell_length_c   7.23811139
_cell_angle_alpha   90.00021387
_cell_angle_beta   89.99987958
_cell_angle_gamma   120.00002252
_symmetry_Int_Tables_number   1
_chemical_formula_structural   Sr4Cl6O
_chemical_formula_sum   'Sr8 Cl12 O2'
_cell_volume   565.92977437
_cell_formula_units_Z   2
loop_
 _symmetry_equiv_pos_site_id
 _symmetry_equiv_pos_as_xyz
  1  'x, y, z'
loop_
 _atom_site_type_symbol
 _atom_site_label
 _atom_site_symmetry_multiplicity
 _atom_site_fract_x
 _atom_site_fract_y
 _atom_site_fract_z
 _atom_site_occupancy
  Sr  Sr0  1  0.19668170  0.39336391  0.89514625  1
  Sr  Sr1  1  0.80330816  0.60661609  0.39515979  1
  Sr  Sr2  1  0.39338452  0.19669283  0.39515950  1
  Sr  Sr3  1  0.19668098  0.80332071  0.89514596  1
  Sr  Sr4  1  0.60664124  0.80332190  0.89514462  1
  Sr  Sr5  1  0.80330819  0.19669250  0.39515892  1
  Sr  Sr6  1  0.33333250  0.66666723  0.32624248  1
  Sr  Sr7  1  0.66666636  0.33333337  0.82615039  1
  Cl  Cl8  1  0.85907229  0.71814475  0.78583742  1
  Cl  Cl9  1  0.14093462  0.28186991  0.28587269  1
  Cl  Cl10  1  0.71813070  0.85906512  0.28587404  1
  Cl  Cl11  1  0.85907378  0.14092776  0.78583677  1
  Cl  Cl12  1  0.53368413  0.46631559  0.10746105  1
  Cl  Cl13  1  0.06738136  0.53369026  0.60746920  1
  Cl  Cl14  1  0.46630939  0.93261926  0.60746865  1
  Cl  Cl15  1  0.53368511  0.06737084  0.10746221  1
  Cl  Cl16  1  0.93263137  0.46631093  0.10745407  1
  Cl  Cl17  1  0.46630889  0.53369027  0.60746940  1
  Cl  Cl18  1  0.14093459  0.85906516  0.28587403  1
  Cl  Cl19  1  0.28185379  0.14092759  0.78583719  1
  O  O20  1  0.66666656  0.33333370  0.49983095  1
  O  O21  1  0.33333080  0.66666132  -0.00016056  1
