# generated using pymatgen
data_Er2MgCr2O8
_symmetry_space_group_name_H-M   'P 1'
_cell_length_a   5.00792998
_cell_length_b   5.11338169
_cell_length_c   8.18604689
_cell_angle_alpha   111.90582982
_cell_angle_beta   111.43279204
_cell_angle_gamma   79.36379238
_symmetry_Int_Tables_number   1
_chemical_formula_structural   Er2MgCr2O8
_chemical_formula_sum   'Er2 Mg1 Cr2 O8'
_cell_volume   180.75644893
_cell_formula_units_Z   1
loop_
 _symmetry_equiv_pos_site_id
 _symmetry_equiv_pos_as_xyz
  1  'x, y, z'
loop_
 _atom_site_type_symbol
 _atom_site_label
 _atom_site_symmetry_multiplicity
 _atom_site_fract_x
 _atom_site_fract_y
 _atom_site_fract_z
 _atom_site_occupancy
  Er  Er0  1  0.57809272  0.82826187  0.15517019  1
  Er  Er1  1  0.40369745  0.15377609  0.80946359  1
  Mg  Mg2  1  0.73548989  0.48404068  0.46512170  1
  Cr  Cr3  1  0.06660894  0.31662945  0.13182497  1
  Cr  Cr4  1  0.92867856  0.67852344  0.85811745  1
  O  O5  1  0.40659012  0.23489312  0.30830567  1
  O  O6  1  0.90487797  0.57914216  0.30922481  1
  O  O7  1  0.72514336  0.47804330  0.92919974  1
  O  O8  1  0.20367358  0.95044585  0.92948863  1
  O  O9  1  0.63795144  0.79176850  0.67046501  1
  O  O10  1  0.03236851  0.37648579  0.66975443  1
  O  O11  1  0.25078568  0.51740770  0.05165296  1
  O  O12  1  0.80104178  0.03558105  0.05220886  1
