# generated using pymatgen
data_Mg(CrS2)2
_symmetry_space_group_name_H-M   'P 1'
_cell_length_a   3.50811207
_cell_length_b   12.07893600
_cell_length_c   3.50810424
_cell_angle_alpha   89.99998627
_cell_angle_beta   60.00661661
_cell_angle_gamma   89.99981448
_symmetry_Int_Tables_number   1
_chemical_formula_structural   Mg(CrS2)2
_chemical_formula_sum   'Mg1 Cr2 S4'
_cell_volume   128.74613892
_cell_formula_units_Z   1
loop_
 _symmetry_equiv_pos_site_id
 _symmetry_equiv_pos_as_xyz
  1  'x, y, z'
loop_
 _atom_site_type_symbol
 _atom_site_label
 _atom_site_symmetry_multiplicity
 _atom_site_fract_x
 _atom_site_fract_y
 _atom_site_fract_z
 _atom_site_occupancy
  Mg  Mg0  1  0.00000200  0.75000700  0.99999900  1
  Cr  Cr1  1  0.00004300  0.00969900  0.99998800  1
  Cr  Cr2  1  0.00004800  0.49028700  0.99994300  1
  S  S3  1  0.66666700  0.39161000  0.66659700  1
  S  S4  1  0.66665200  0.88112200  0.66660100  1
  S  S5  1  0.33339200  0.10837700  0.33332600  1
  S  S6  1  0.33339700  0.61889800  0.33334400  1
