# generated using pymatgen
data_Sb8(PbS5)3
_symmetry_space_group_name_H-M   'P 1'
_cell_length_a   8.98643290
_cell_length_b   8.98643290
_cell_length_c   17.68727186
_cell_angle_alpha   85.94868460
_cell_angle_beta   85.94868460
_cell_angle_gamma   82.25500785
_symmetry_Int_Tables_number   1
_chemical_formula_structural   Sb8(PbS5)3
_chemical_formula_sum   'Sb16 Pb6 S30'
_cell_volume   1409.08378066
_cell_formula_units_Z   2
loop_
 _symmetry_equiv_pos_site_id
 _symmetry_equiv_pos_as_xyz
  1  'x, y, z'
loop_
 _atom_site_type_symbol
 _atom_site_label
 _atom_site_symmetry_multiplicity
 _atom_site_fract_x
 _atom_site_fract_y
 _atom_site_fract_z
 _atom_site_occupancy
  Sb  Sb0  1  0.14080461  0.03512324  0.07677537  1
  Sb  Sb1  1  0.96487676  0.85919539  0.42322463  1
  Sb  Sb2  1  0.85919539  0.96487676  0.92322463  1
  Sb  Sb3  1  0.03512324  0.14080461  0.57677537  1
  Sb  Sb4  1  0.39376459  0.88366171  0.43654180  1
  Sb  Sb5  1  0.11633829  0.60623541  0.06345820  1
  Sb  Sb6  1  0.60623541  0.11633829  0.56345820  1
  Sb  Sb7  1  0.88366171  0.39376459  0.93654180  1
  Sb  Sb8  1  0.50539963  0.23608665  0.00158752  1
  Sb  Sb9  1  0.76391335  0.49460037  0.49841248  1
  Sb  Sb10  1  0.49460037  0.76391335  0.99841248  1
  Sb  Sb11  1  0.23608665  0.50539963  0.50158752  1
  Sb  Sb12  1  0.58903935  0.22306003  0.34215498  1
  Sb  Sb13  1  0.77693997  0.41096065  0.15784502  1
  Sb  Sb14  1  0.41096065  0.77693997  0.65784502  1
  Sb  Sb15  1  0.22306003  0.58903935  0.84215498  1
  Pb  Pb16  1  0.73741408  0.88107864  0.16363834  1
  Pb  Pb17  1  0.11892136  0.26258592  0.33636166  1
  Pb  Pb18  1  0.26258592  0.11892136  0.83636166  1
  Pb  Pb19  1  0.88107864  0.73741408  0.66363834  1
  Pb  Pb20  1  0.37841755  0.62158245  0.25000000  1
  Pb  Pb21  1  0.62158245  0.37841755  0.75000000  1
  S  S22  1  0.81551282  0.18448718  0.25000000  1
  S  S23  1  0.18448718  0.81551282  0.75000000  1
  S  S24  1  0.19794356  0.93578198  0.34122009  1
  S  S25  1  0.06421802  0.80205644  0.15877991  1
  S  S26  1  0.80205644  0.06421802  0.65877991  1
  S  S27  1  0.93578198  0.19794356  0.84122009  1
  S  S28  1  0.83263234  0.10514457  0.03741101  1
  S  S29  1  0.89485543  0.16736766  0.46258899  1
  S  S30  1  0.16736766  0.89485543  0.96258899  1
  S  S31  1  0.10514457  0.83263234  0.53741101  1
  S  S32  1  0.42709359  0.94526189  0.09899370  1
  S  S33  1  0.05473811  0.57290641  0.40100630  1
  S  S34  1  0.57290641  0.05473811  0.90100630  1
  S  S35  1  0.94526189  0.42709359  0.59899370  1
  S  S36  1  0.44658540  0.61049027  0.41381220  1
  S  S37  1  0.38950973  0.55341460  0.08618780  1
  S  S38  1  0.55341460  0.38950973  0.58618780  1
  S  S39  1  0.61049027  0.44658540  0.91381220  1
  S  S40  1  0.59005728  0.94784753  0.33670554  1
  S  S41  1  0.05215247  0.40994272  0.16329446  1
  S  S42  1  0.40994272  0.05215247  0.66329446  1
  S  S43  1  0.94784753  0.59005728  0.83670554  1
  S  S44  1  0.24115158  0.29116742  0.96374920  1
  S  S45  1  0.70883258  0.75884842  0.53625080  1
  S  S46  1  0.75884842  0.70883258  0.03625080  1
  S  S47  1  0.29116742  0.24115158  0.46374920  1
  S  S48  1  0.30767857  0.40381436  0.74937944  1
  S  S49  1  0.59618564  0.69232143  0.75062056  1
  S  S50  1  0.69232143  0.59618564  0.25062056  1
  S  S51  1  0.40381436  0.30767857  0.24937944  1
