# generated using pymatgen
data_MgVCl2O
_symmetry_space_group_name_H-M   'P 1'
_cell_length_a   3.95687879
_cell_length_b   3.70573995
_cell_length_c   7.17803270
_cell_angle_alpha   79.81902876
_cell_angle_beta   71.50170669
_cell_angle_gamma   93.74068874
_symmetry_Int_Tables_number   1
_chemical_formula_structural   MgVCl2O
_chemical_formula_sum   'Mg1 V1 Cl2 O1'
_cell_volume   97.40953335
_cell_formula_units_Z   1
loop_
 _symmetry_equiv_pos_site_id
 _symmetry_equiv_pos_as_xyz
  1  'x, y, z'
loop_
 _atom_site_type_symbol
 _atom_site_label
 _atom_site_symmetry_multiplicity
 _atom_site_fract_x
 _atom_site_fract_y
 _atom_site_fract_z
 _atom_site_occupancy
  Mg  Mg0  1  0.90081100  0.29271700  0.33134400  1
  V  V1  1  0.99856300  0.95871100  0.93213800  1
  Cl  Cl2  1  0.62433900  0.21349300  0.69555200  1
  Cl  Cl3  1  0.32434100  0.82340300  0.35052300  1
  O  O4  1  0.97337600  0.43014800  0.05044300  1
