# generated using pymatgen
data_Na2GaGe(PO4)3
_symmetry_space_group_name_H-M   'P 1'
_cell_length_a   8.55446302
_cell_length_b   8.55446276
_cell_length_c   21.85467310
_cell_angle_alpha   90.08931497
_cell_angle_beta   89.91068504
_cell_angle_gamma   120.34363823
_symmetry_Int_Tables_number   1
_chemical_formula_structural   Na2GaGe(PO4)3
_chemical_formula_sum   'Na12 Ga6 Ge6 P18 O72'
_cell_volume   1380.21091272
_cell_formula_units_Z   6
loop_
 _symmetry_equiv_pos_site_id
 _symmetry_equiv_pos_as_xyz
  1  'x, y, z'
loop_
 _atom_site_type_symbol
 _atom_site_label
 _atom_site_symmetry_multiplicity
 _atom_site_fract_x
 _atom_site_fract_y
 _atom_site_fract_z
 _atom_site_occupancy
  Na  Na0  1  0.36566294  0.36333127  0.24969706  1
  Na  Na1  1  0.63666873  0.63433706  0.74969706  1
  Na  Na2  1  0.03232994  0.69666427  0.58303006  1
  Na  Na3  1  0.30333573  0.96767006  0.08303006  1
  Na  Na4  1  0.69899594  0.02999827  0.91636406  1
  Na  Na5  1  0.97000173  0.30100406  0.41636406  1
  Na  Na6  1  0.99985976  0.99967069  0.49897105  1
  Na  Na7  1  0.00032931  0.00014024  0.99897105  1
  Na  Na8  1  0.66652676  0.33300369  0.83230405  1
  Na  Na9  1  0.66699631  0.33347324  0.33230405  1
  Na  Na10  1  0.33319276  0.66633769  0.16563805  1
  Na  Na11  1  0.33366231  0.66680724  0.66563805  1
  Ga  Ga12  1  0.99920694  0.99470657  0.35235217  1
  Ga  Ga13  1  0.00529343  0.00079306  0.85235217  1
  Ga  Ga14  1  0.66587394  0.32803957  0.68568517  1
  Ga  Ga15  1  0.67196043  0.33412606  0.18568517  1
  Ga  Ga16  1  0.33253994  0.66137357  0.01901917  1
  Ga  Ga17  1  0.33862643  0.66746006  0.51901917  1
  Ge  Ge18  1  0.00139354  0.00556145  0.64787298  1
  Ge  Ge19  1  0.99443855  0.99860646  0.14787298  1
  Ge  Ge20  1  0.66806054  0.33889445  0.98120598  1
  Ge  Ge21  1  0.66110555  0.33193946  0.48120598  1
  Ge  Ge22  1  0.33472654  0.67222845  0.31453998  1
  Ge  Ge23  1  0.32777155  0.66527346  0.81453998  1
  P  P24  1  0.28831635  0.99562204  0.25026388  1
  P  P25  1  0.71191964  0.71255114  0.25052364  1
  P  P26  1  0.99614267  0.28879222  0.25100317  1
  P  P27  1  0.28744886  0.28808036  0.75052364  1
  P  P28  1  0.00437796  0.71168365  0.75026388  1
  P  P29  1  0.71120778  0.00385733  0.75100317  1
  P  P30  1  0.95498335  0.32895504  0.58359688  1
  P  P31  1  0.37858664  0.04588414  0.58385664  1
  P  P32  1  0.66280967  0.62212522  0.58433617  1
  P  P33  1  0.95411586  0.62141336  0.08385664  1
  P  P34  1  0.67104496  0.04501665  0.08359688  1
  P  P35  1  0.37787478  0.33719033  0.08433617  1
  P  P36  1  0.62164935  0.66228904  0.91693088  1
  P  P37  1  0.04525264  0.37921814  0.91719064  1
  P  P38  1  0.32947567  0.95545922  0.91767017  1
  P  P39  1  0.62078186  0.95474736  0.41719064  1
  P  P40  1  0.33771096  0.37835065  0.41693088  1
  P  P41  1  0.04454078  0.67052433  0.41767017  1
  O  O42  1  0.20865483  0.03909668  0.30591602  1
  O  O43  1  0.82669913  0.79219907  0.30738660  1
  O  O44  1  0.96713885  0.17745730  0.30884074  1
  O  O45  1  0.20780093  0.17330087  0.80738660  1
  O  O46  1  0.96090332  0.79134517  0.80591602  1
  O  O47  1  0.82254270  0.03286115  0.80884074  1
  O  O48  1  0.79147080  0.95652879  0.69368205  1
  O  O49  1  0.16883201  0.20837052  0.69212732  1
  O  O50  1  0.03870825  0.82815997  0.69078134  1
  O  O51  1  0.79162948  0.83116799  0.19212732  1
  O  O52  1  0.04347121  0.20852920  0.19368205  1
  O  O53  1  0.17184003  0.96129175  0.19078134  1
  O  O54  1  0.87532183  0.37242968  0.63924902  1
  O  O55  1  0.49336613  0.12553207  0.64071960  1
  O  O56  1  0.63380585  0.51079030  0.64217374  1
  O  O57  1  0.87446793  0.50663387  0.14071960  1
  O  O58  1  0.62757032  0.12467817  0.13924902  1
  O  O59  1  0.48920970  0.36619415  0.14217374  1
  O  O60  1  0.45813780  0.28986179  0.02701505  1
  O  O61  1  0.83549901  0.54170352  0.02546032  1
  O  O62  1  0.70537525  0.16149297  0.02411434  1
  O  O63  1  0.45829648  0.16450099  0.52546032  1
  O  O64  1  0.71013821  0.54186220  0.52701505  1
  O  O65  1  0.83850703  0.29462475  0.52411434  1
  O  O66  1  0.54198783  0.70576368  0.97258302  1
  O  O67  1  0.16003213  0.45886607  0.97405360  1
  O  O68  1  0.30047185  0.84412430  0.97550774  1
  O  O69  1  0.54113393  0.83996787  0.47405360  1
  O  O70  1  0.29423632  0.45801217  0.47258302  1
  O  O71  1  0.15587570  0.69952815  0.47550774  1
  O  O72  1  0.12480380  0.62319579  0.36034905  1
  O  O73  1  0.50216501  0.87503752  0.35879432  1
  O  O74  1  0.37204125  0.49482697  0.35744834  1
  O  O75  1  0.12496248  0.49783499  0.85879432  1
  O  O76  1  0.37680421  0.87519620  0.86034905  1
  O  O77  1  0.50517303  0.62795875  0.85744834  1
  O  O78  1  0.02393364  0.83537003  0.41015425  1
  O  O79  1  0.81199638  0.98270809  0.40998040  1
  O  O80  1  0.16616721  0.19134604  0.40956847  1
  O  O81  1  0.01729191  0.18800362  0.90998040  1
  O  O82  1  0.16462997  0.97606636  0.91015425  1
  O  O83  1  0.80865396  0.83383279  0.90956847  1
  O  O84  1  0.97260177  0.15800375  0.59043943  1
  O  O85  1  0.18398023  0.02230592  0.59012509  1
  O  O86  1  0.84166190  0.81256531  0.59031436  1
  O  O87  1  0.97769408  0.81601977  0.09012509  1
  O  O88  1  0.84199625  0.02739823  0.09043943  1
  O  O89  1  0.18743469  0.15833810  0.09031436  1
  O  O90  1  0.69060064  0.16870303  0.74348725  1
  O  O91  1  0.47866338  0.31604109  0.74331340  1
  O  O92  1  0.83283421  0.52467904  0.74290147  1
  O  O93  1  0.68395891  0.52133662  0.24331340  1
  O  O94  1  0.83129697  0.30939936  0.24348725  1
  O  O95  1  0.47532096  0.16716579  0.24290147  1
  O  O96  1  0.63926877  0.49133675  0.92377243  1
  O  O97  1  0.85064723  0.35563892  0.92345809  1
  O  O98  1  0.50832890  0.14589831  0.92364736  1
  O  O99  1  0.64436108  0.14935277  0.42345809  1
  O  O100  1  0.50866325  0.36073123  0.42377243  1
  O  O101  1  0.85410169  0.49167110  0.42364736  1
  O  O102  1  0.35726664  0.50203703  0.07682125  1
  O  O103  1  0.14532938  0.64937509  0.07664740  1
  O  O104  1  0.49950021  0.85801304  0.07623547  1
  O  O105  1  0.35062491  0.85467062  0.57664740  1
  O  O106  1  0.49796297  0.64273336  0.57682125  1
  O  O107  1  0.14198696  0.50049979  0.57623547  1
  O  O108  1  0.30593477  0.82467075  0.25710643  1
  O  O109  1  0.51731323  0.68897292  0.25679209  1
  O  O110  1  0.17499490  0.47923231  0.25698136  1
  O  O111  1  0.31102708  0.48268677  0.75679209  1
  O  O112  1  0.17532925  0.69406523  0.75710643  1
  O  O113  1  0.52076769  0.82500510  0.75698136  1
