# generated using pymatgen
data_Na10Ca3Si6Sn5(SO8)6
_symmetry_space_group_name_H-M   'P 1'
_cell_length_a   18.32646703
_cell_length_b   9.19687936
_cell_length_c   22.88238897
_cell_angle_alpha   89.52629885
_cell_angle_beta   89.64307523
_cell_angle_gamma   120.02447008
_symmetry_Int_Tables_number   1
_chemical_formula_structural   Na10Ca3Si6Sn5(SO8)6
_chemical_formula_sum   'Na30 Ca9 Si18 Sn15 S18 O144'
_cell_volume   3338.85931248
_cell_formula_units_Z   3
loop_
 _symmetry_equiv_pos_site_id
 _symmetry_equiv_pos_as_xyz
  1  'x, y, z'
loop_
 _atom_site_type_symbol
 _atom_site_label
 _atom_site_symmetry_multiplicity
 _atom_site_fract_x
 _atom_site_fract_y
 _atom_site_fract_z
 _atom_site_occupancy
  Na  Na0  1  0.31793354  0.99936178  0.24518464  1
  Na  Na1  1  0.19219103  0.36353129  0.24485411  1
  Na  Na2  1  0.69367697  0.37938720  0.24286698  1
  Na  Na3  1  0.99707579  0.64291639  0.25190478  1
  Na  Na4  1  0.31539083  0.61242729  0.75953378  1
  Na  Na5  1  0.81690627  0.62267584  0.75132070  1
  Na  Na6  1  0.99043379  0.35432728  0.75521366  1
  Na  Na7  1  0.49774152  0.38145949  0.74104037  1
  Na  Na8  1  0.18183979  0.01553210  0.75124691  1
  Na  Na9  1  0.68758950  0.01753403  0.75307315  1
  Na  Na10  1  0.64816892  0.34147300  0.57391586  1
  Na  Na11  1  0.32166862  0.68109931  0.07563369  1
  Na  Na12  1  0.82313101  0.68081097  0.08887854  1
  Na  Na13  1  0.16281918  0.32101909  0.92367067  1
  Na  Na14  1  0.99864912  0.31373300  0.42060273  1
  Na  Na15  1  0.16106741  0.02085548  0.41985345  1
  Na  Na16  1  0.66727415  0.02616289  0.41237016  1
  Na  Na17  1  0.84267444  0.67402247  0.41889721  1
  Na  Na18  1  0.00113731  0.00076551  0.49935769  1
  Na  Na19  1  0.49327755  0.02179908  0.49630803  1
  Na  Na20  1  0.00687032  0.03144301  0.00078467  1
  Na  Na21  1  0.50235440  0.03282861  0.99413678  1
  Na  Na22  1  0.34631403  0.36513341  0.83621863  1
  Na  Na23  1  0.83753244  0.33333935  0.83048981  1
  Na  Na24  1  0.33804716  0.37253858  0.32737191  1
  Na  Na25  1  0.83340782  0.33991642  0.33415101  1
  Na  Na26  1  0.16859599  0.65657591  0.15841539  1
  Na  Na27  1  0.66267181  0.65979078  0.16009108  1
  Na  Na28  1  0.16055017  0.65608054  0.66470861  1
  Na  Na29  1  0.65195416  0.65568574  0.66252598  1
  Ca  Ca30  1  0.49792990  0.00058683  0.35332601  1
  Ca  Ca31  1  0.33623690  0.34228812  0.68305444  1
  Ca  Ca32  1  0.83589334  0.33729341  0.68892055  1
  Ca  Ca33  1  0.33253870  0.33576708  0.18479012  1
  Ca  Ca34  1  0.83277101  0.32714227  0.18430289  1
  Ca  Ca35  1  0.16261405  0.65239292  0.01274416  1
  Ca  Ca36  1  0.65857984  0.64576116  0.01406550  1
  Ca  Ca37  1  0.16232913  0.65576294  0.51653981  1
  Ca  Ca38  1  0.66823929  0.66578083  0.51727992  1
  Si  Si39  1  0.14708670  0.98799625  0.25437714  1
  Si  Si40  1  0.35095236  0.71046883  0.25058208  1
  Si  Si41  1  0.85332902  0.71541817  0.24998409  1
  Si  Si42  1  0.14395760  0.29736990  0.75250813  1
  Si  Si43  1  0.64206611  0.29351571  0.75130498  1
  Si  Si44  1  0.00789810  0.71919991  0.75477868  1
  Si  Si45  1  0.50179180  0.72171926  0.75023086  1
  Si  Si46  1  0.84984792  0.98493303  0.75227395  1
  Si  Si47  1  0.48149483  0.32431994  0.58871725  1
  Si  Si48  1  0.17998840  0.32287138  0.08619182  1
  Si  Si49  1  0.68185825  0.32487062  0.08897729  1
  Si  Si50  1  0.31842820  0.67109004  0.91782154  1
  Si  Si51  1  0.00624842  0.34693784  0.91686006  1
  Si  Si52  1  0.51106427  0.35893211  0.91533252  1
  Si  Si53  1  0.81828804  0.96997582  0.41623171  1
  Si  Si54  1  0.17048944  0.36624930  0.41580949  1
  Si  Si55  1  0.66752055  0.36288036  0.42138415  1
  Si  Si56  1  0.02205504  0.67018183  0.41534502  1
  Sn  Sn57  1  0.00165010  0.99677156  0.35179309  1
  Sn  Sn58  1  0.99721046  0.00373473  0.84984128  1
  Sn  Sn59  1  0.49900868  0.99875589  0.85378351  1
  Sn  Sn60  1  0.00093359  0.00020634  0.65603945  1
  Sn  Sn61  1  0.50152922  0.01144380  0.64900467  1
  Sn  Sn62  1  0.00677015  0.99410766  0.14925533  1
  Sn  Sn63  1  0.50038206  0.00149137  0.14807127  1
  Sn  Sn64  1  0.33351586  0.34331406  0.97964005  1
  Sn  Sn65  1  0.82770148  0.32119085  0.98304557  1
  Sn  Sn66  1  0.33655934  0.33779828  0.48607990  1
  Sn  Sn67  1  0.83723619  0.33901113  0.47907884  1
  Sn  Sn68  1  0.17154572  0.66343168  0.31774926  1
  Sn  Sn69  1  0.67796771  0.67621302  0.31972179  1
  Sn  Sn70  1  0.15411325  0.63975872  0.82203423  1
  Sn  Sn71  1  0.65652775  0.65628598  0.81372656  1
  S  S72  1  0.64561207  0.98109725  0.25211054  1
  S  S73  1  0.00432905  0.29415424  0.25153340  1
  S  S74  1  0.50964294  0.30842643  0.25051886  1
  S  S75  1  0.34954196  0.98741440  0.75145748  1
  S  S76  1  0.97920304  0.31323065  0.58427419  1
  S  S77  1  0.17631298  0.03584346  0.58585721  1
  S  S78  1  0.68466902  0.04580120  0.58338293  1
  S  S79  1  0.33897267  0.64505665  0.58430347  1
  S  S80  1  0.84346921  0.64334351  0.58354850  1
  S  S81  1  0.48145154  0.64177137  0.08361614  1
  S  S82  1  0.97965339  0.63654633  0.08342081  1
  S  S83  1  0.33850478  0.03994571  0.08438166  1
  S  S84  1  0.83925719  0.03590075  0.08301710  1
  S  S85  1  0.81897677  0.66398750  0.91629635  1
  S  S86  1  0.16510491  0.96653639  0.91367791  1
  S  S87  1  0.66973798  0.97042304  0.91492708  1
  S  S88  1  0.31435233  0.97510163  0.41849349  1
  S  S89  1  0.51664088  0.65227915  0.41477864  1
  O  O90  1  0.10498511  0.03115199  0.31015826  1
  O  O91  1  0.60925547  0.00521109  0.30581231  1
  O  O92  1  0.40117967  0.81184849  0.30531139  1
  O  O93  1  0.90792111  0.81341711  0.30685536  1
  O  O94  1  0.50083689  0.21379397  0.30317605  1
  O  O95  1  0.99530465  0.20183708  0.30692478  1
  O  O96  1  0.10320386  0.18560902  0.81208535  1
  O  O97  1  0.59547444  0.16300462  0.80486673  1
  O  O98  1  0.48285710  0.80866506  0.80468588  1
  O  O99  1  0.98778782  0.80527315  0.80959054  1
  O  O100  1  0.40363654  0.01847490  0.80246063  1
  O  O101  1  0.91317630  0.03402500  0.80689164  1
  O  O102  1  0.38747333  0.95782409  0.69751696  1
  O  O103  1  0.88943382  0.93489510  0.69467445  1
  O  O104  1  0.07893063  0.21661521  0.69616998  1
  O  O105  1  0.58677696  0.22133431  0.69012473  1
  O  O106  1  0.03232818  0.84367160  0.69577054  1
  O  O107  1  0.51784323  0.83801339  0.68979303  1
  O  O108  1  0.39392345  0.83346385  0.18814312  1
  O  O109  1  0.89639536  0.82393470  0.18817099  1
  O  O110  1  0.01166025  0.20475717  0.19990341  1
  O  O111  1  0.52649801  0.22927224  0.19754984  1
  O  O112  1  0.08156348  0.94378907  0.19846875  1
  O  O113  1  0.59342976  0.96551877  0.19942180  1
  O  O114  1  0.43970741  0.32078173  0.65022878  1
  O  O115  1  0.93477583  0.31900581  0.63611939  1
  O  O116  1  0.22230620  0.12176204  0.63828516  1
  O  O117  1  0.73034492  0.12828957  0.63610042  1
  O  O118  1  0.32811310  0.55091004  0.63854885  1
  O  O119  1  0.83672928  0.54374346  0.63553044  1
  O  O120  1  0.44456146  0.54266818  0.13664559  1
  O  O121  1  0.94601055  0.54824985  0.13943122  1
  O  O122  1  0.33769511  0.11518940  0.14044577  1
  O  O123  1  0.83373376  0.11705064  0.13523156  1
  O  O124  1  0.22681994  0.33055307  0.14549417  1
  O  O125  1  0.72985004  0.34171818  0.14909803  1
  O  O126  1  0.22901747  0.30299301  0.02450376  1
  O  O127  1  0.73200392  0.29829944  0.03002884  1
  O  O128  1  0.42830745  0.55718243  0.03072832  1
  O  O129  1  0.92332369  0.54102282  0.03348731  1
  O  O130  1  0.34726508  0.14923140  0.03306657  1
  O  O131  1  0.85101275  0.14085947  0.02869568  1
  O  O132  1  0.21922466  0.13715027  0.53053668  1
  O  O133  1  0.72964547  0.15366338  0.52898905  1
  O  O134  1  0.34620313  0.55407864  0.53135839  1
  O  O135  1  0.85111284  0.55780743  0.52842825  1
  O  O136  1  0.41906018  0.30399495  0.53020141  1
  O  O137  1  0.93135955  0.30376069  0.52860120  1
  O  O138  1  0.28325829  0.69589359  0.97800604  1
  O  O139  1  0.78232979  0.68714798  0.96957054  1
  O  O140  1  0.07315640  0.43281234  0.96690438  1
  O  O141  1  0.56630186  0.43516381  0.97113436  1
  O  O142  1  0.15571765  0.86733107  0.96517035  1
  O  O143  1  0.66475978  0.87536737  0.96594419  1
  O  O144  1  0.27202467  0.87187943  0.46972085  1
  O  O145  1  0.78483899  0.84210959  0.46964409  1
  O  O146  1  0.14202435  0.43930123  0.46812538  1
  O  O147  1  0.66008016  0.44244935  0.48058650  1
  O  O148  1  0.08644344  0.73248527  0.46755836  1
  O  O149  1  0.56593995  0.67231079  0.46652303  1
  O  O150  1  0.06012964  0.61899268  0.35688348  1
  O  O151  1  0.55721704  0.62926212  0.36040771  1
  O  O152  1  0.26343986  0.89896657  0.36333675  1
  O  O153  1  0.74959373  0.89531578  0.36059777  1
  O  O154  1  0.18776422  0.47687458  0.35334701  1
  O  O155  1  0.68366485  0.48601130  0.36066644  1
  O  O156  1  0.04173615  0.45488530  0.85337898  1
  O  O157  1  0.55110124  0.48027140  0.85414461  1
  O  O158  1  0.17466211  0.88654667  0.85873354  1
  O  O159  1  0.68067423  0.89431402  0.85922865  1
  O  O160  1  0.25359144  0.63950164  0.85972196  1
  O  O161  1  0.76822412  0.64731362  0.86292430  1
  O  O162  1  0.99576775  0.81673272  0.40718931  1
  O  O163  1  0.50738181  0.80136986  0.40887365  1
  O  O164  1  0.40017424  0.00696981  0.41413486  1
  O  O165  1  0.91604455  0.01461314  0.40359727  1
  O  O166  1  0.08836016  0.17312720  0.40788176  1
  O  O167  1  0.59580257  0.16846656  0.41643404  1
  O  O168  1  -0.00009626  0.15928045  0.91255825  1
  O  O169  1  0.49974561  0.17129412  0.90586974  1
  O  O170  1  0.08933284  0.98956221  0.91030061  1
  O  O171  1  0.59361232  0.98913272  0.91122268  1
  O  O172  1  0.41444987  0.82524008  0.90833756  1
  O  O173  1  0.90613882  0.81054364  0.91054625  1
  O  O174  1  0.48968826  0.14736391  0.58384761  1
  O  O175  1  0.98436949  0.15423289  0.58406683  1
  O  O176  1  0.09075289  0.02608570  0.58544721  1
  O  O177  1  0.60117875  0.04087679  0.58225744  1
  O  O178  1  0.42031654  0.81040541  0.58449856  1
  O  O179  1  0.92269525  0.81152614  0.58411981  1
  O  O180  1  0.47758683  0.80385052  0.08616524  1
  O  O181  1  0.97495940  0.79809282  0.08320875  1
  O  O182  1  0.41653393  0.01966206  0.08188124  1
  O  O183  1  0.91629904  0.01528840  0.08399085  1
  O  O184  1  0.08412356  0.14564572  0.08631103  1
  O  O185  1  0.58641637  0.14838170  0.08923044  1
  O  O186  1  0.33626334  0.13222492  0.74619519  1
  O  O187  1  0.83533050  0.14310182  0.74617728  1
  O  O188  1  0.23585257  0.31509185  0.74788047  1
  O  O189  1  0.73647737  0.32228506  0.74903074  1
  O  O190  1  0.42309387  0.53156771  0.74952498  1
  O  O191  1  0.92891147  0.53151007  0.74961953  1
  O  O192  1  0.33530130  0.52308859  0.24709789  1
  O  O193  1  0.84613387  0.53056111  0.25149060  1
  O  O194  1  0.43318771  0.31988578  0.24237142  1
  O  O195  1  0.93307171  0.32477322  0.24831240  1
  O  O196  1  0.24292844  0.14012198  0.25139562  1
  O  O197  1  0.73162304  0.12648906  0.24614680  1
  O  O198  1  0.31589255  0.48520466  0.91742811  1
  O  O199  1  0.82537655  0.50585624  0.91949950  1
  O  O200  1  0.41408565  0.33572317  0.92164874  1
  O  O201  1  0.91247694  0.33371103  0.92523740  1
  O  O202  1  0.24111383  0.13940466  0.91496217  1
  O  O203  1  0.74661079  0.14536933  0.91584089  1
  O  O204  1  0.31531180  0.14143434  0.42161061  1
  O  O205  1  0.82509694  0.15579982  0.42454207  1
  O  O206  1  0.25439150  0.34072097  0.42690363  1
  O  O207  1  0.76206820  0.36766991  0.42044061  1
  O  O208  1  0.42983705  0.49632745  0.41840365  1
  O  O209  1  0.93109016  0.49215777  0.42410421  1
  O  O210  1  0.17386877  0.49206337  0.08184395  1
  O  O211  1  0.67897797  0.49724733  0.08209473  1
  O  O212  1  0.06640400  0.67629520  0.07547523  1
  O  O213  1  0.56879568  0.68285948  0.07694078  1
  O  O214  1  0.26338650  0.87160368  0.08057475  1
  O  O215  1  0.76449643  0.86632320  0.07768759  1
  O  O216  1  0.16639192  0.86757341  0.58319063  1
  O  O217  1  0.67338716  0.87811459  0.57843530  1
  O  O218  1  0.26727489  0.67354353  0.57842186  1
  O  O219  1  0.76776499  0.65865149  0.58085827  1
  O  O220  1  0.06377372  0.46266571  0.58215027  1
  O  O221  1  0.57597575  0.48369098  0.58426651  1
  O  O222  1  0.14508018  0.80624355  0.26109493  1
  O  O223  1  0.64808739  0.81941215  0.25416307  1
  O  O224  1  0.25476613  0.69904596  0.25046701  1
  O  O225  1  0.75612062  0.68845920  0.25322709  1
  O  O226  1  0.08506931  0.46026892  0.25169098  1
  O  O227  1  0.58734686  0.48108442  0.25253870  1
  O  O228  1  0.15359078  0.48766463  0.75568489  1
  O  O229  1  0.64762286  0.47882610  0.75620807  1
  O  O230  1  0.09782621  0.71520090  0.76101353  1
  O  O231  1  0.59239553  0.72044942  0.75432404  1
  O  O232  1  0.26607019  0.83059900  0.75770403  1
  O  O233  1  0.75843868  0.80934187  0.76205594  1
