# generated using pymatgen
data_RbInI4
_symmetry_space_group_name_H-M   'P 1'
_cell_length_a   14.75622459
_cell_length_b   14.75622459
_cell_length_c   14.75622438
_cell_angle_alpha   115.16539673
_cell_angle_beta   115.16539673
_cell_angle_gamma   115.16540856
_symmetry_Int_Tables_number   1
_chemical_formula_structural   RbInI4
_chemical_formula_sum   'Rb6 In6 I24'
_cell_volume   1770.85128779
_cell_formula_units_Z   6
loop_
 _symmetry_equiv_pos_site_id
 _symmetry_equiv_pos_as_xyz
  1  'x, y, z'
loop_
 _atom_site_type_symbol
 _atom_site_label
 _atom_site_symmetry_multiplicity
 _atom_site_fract_x
 _atom_site_fract_y
 _atom_site_fract_z
 _atom_site_occupancy
  Rb  Rb0  1  0.87680824  0.68933429  0.09442437  1
  Rb  Rb1  1  0.09442437  0.87680824  0.68933429  1
  Rb  Rb2  1  0.68933429  0.09442437  0.87680824  1
  Rb  Rb3  1  0.18933429  0.37680824  0.59442437  1
  Rb  Rb4  1  0.59442437  0.18933429  0.37680824  1
  Rb  Rb5  1  0.37680824  0.59442437  0.18933429  1
  In  In6  1  0.86355971  0.07521981  0.68119971  1
  In  In7  1  0.68119971  0.86355971  0.07521981  1
  In  In8  1  0.07521981  0.68119971  0.86355971  1
  In  In9  1  0.57521981  0.36355971  0.18119971  1
  In  In10  1  0.18119971  0.57521981  0.36355971  1
  In  In11  1  0.36355971  0.18119971  0.57521981  1
  I  I12  1  0.96821745  0.11778816  0.91501267  1
  I  I13  1  0.91501267  0.96821745  0.11778816  1
  I  I14  1  0.11778816  0.91501267  0.96821745  1
  I  I15  1  0.61778816  0.46821745  0.41501267  1
  I  I16  1  0.41501267  0.61778816  0.46821745  1
  I  I17  1  0.46821745  0.41501267  0.61778816  1
  I  I18  1  0.07484674  0.33245926  0.78138582  1
  I  I19  1  0.78138582  0.07484674  0.33245926  1
  I  I20  1  0.33245926  0.78138582  0.07484674  1
  I  I21  1  0.83245926  0.57484674  0.28138582  1
  I  I22  1  0.28138582  0.83245926  0.57484674  1
  I  I23  1  0.57484674  0.28138582  0.83245926  1
  I  I24  1  0.61287718  0.00722812  0.54685046  1
  I  I25  1  0.54685046  0.61287718  0.00722812  1
  I  I26  1  0.00722812  0.54685046  0.61287718  1
  I  I27  1  0.50722812  0.11287718  0.04685046  1
  I  I28  1  0.04685046  0.50722812  0.11287718  1
  I  I29  1  0.11287718  0.04685046  0.50722812  1
  I  I30  1  0.78990506  0.84120681  0.47207414  1
  I  I31  1  0.47207414  0.78990506  0.84120681  1
  I  I32  1  0.84120681  0.47207414  0.78990506  1
  I  I33  1  0.34120681  0.28990506  0.97207414  1
  I  I34  1  0.97207414  0.34120681  0.28990506  1
  I  I35  1  0.28990506  0.97207414  0.34120681  1
