# generated using pymatgen
data_NbBiO4
_symmetry_space_group_name_H-M   'P 1'
_cell_length_a   5.04015131
_cell_length_b   5.74061842
_cell_length_c   11.73111082
_cell_angle_alpha   90.00000000
_cell_angle_beta   90.00000000
_cell_angle_gamma   90.00000000
_symmetry_Int_Tables_number   1
_chemical_formula_structural   NbBiO4
_chemical_formula_sum   'Nb4 Bi4 O16'
_cell_volume   339.42309733
_cell_formula_units_Z   4
loop_
 _symmetry_equiv_pos_site_id
 _symmetry_equiv_pos_as_xyz
  1  'x, y, z'
loop_
 _atom_site_type_symbol
 _atom_site_label
 _atom_site_symmetry_multiplicity
 _atom_site_fract_x
 _atom_site_fract_y
 _atom_site_fract_z
 _atom_site_occupancy
  Nb  Nb0  1  0.75000000  0.84861938  0.25000000  1
  Nb  Nb1  1  0.75000000  0.65138062  0.75000000  1
  Nb  Nb2  1  0.25000000  0.15138062  0.75000000  1
  Nb  Nb3  1  0.25000000  0.34861938  0.25000000  1
  Bi  Bi4  1  0.27976639  0.75000000  0.00000000  1
  Bi  Bi5  1  0.22023361  0.75000000  0.50000000  1
  Bi  Bi6  1  0.72023361  0.25000000  0.00000000  1
  Bi  Bi7  1  0.77976639  0.25000000  0.50000000  1
  O  O8  1  0.91653897  0.92050028  0.40153822  1
  O  O9  1  0.91653897  0.57949972  0.59846178  1
  O  O10  1  0.58346103  0.92050028  0.09846178  1
  O  O11  1  0.58346103  0.57949972  0.90153822  1
  O  O12  1  0.08346103  0.07949972  0.59846178  1
  O  O13  1  0.08346103  0.42050028  0.40153822  1
  O  O14  1  0.41653897  0.07949972  0.90153822  1
  O  O15  1  0.41653897  0.42050028  0.09846178  1
  O  O16  1  0.50538058  0.14232694  0.30839889  1
  O  O17  1  0.50538058  0.35767306  0.69160111  1
  O  O18  1  0.99461942  0.14232694  0.19160111  1
  O  O19  1  0.99461942  0.35767306  0.80839889  1
  O  O20  1  0.49461942  0.85767306  0.69160111  1
  O  O21  1  0.49461942  0.64232694  0.30839889  1
  O  O22  1  0.00538058  0.85767306  0.80839889  1
  O  O23  1  0.00538058  0.64232694  0.19160111  1
