# generated using pymatgen
data_TaGaSi(SO6)2
_symmetry_space_group_name_H-M   'P 1'
_cell_length_a   8.67938270
_cell_length_b   8.72360341
_cell_length_c   22.49272866
_cell_angle_alpha   89.30741470
_cell_angle_beta   90.00000000
_cell_angle_gamma   119.83245713
_symmetry_Int_Tables_number   1
_chemical_formula_structural   TaGaSi(SO6)2
_chemical_formula_sum   'Ta6 Ga6 Si6 S12 O72'
_cell_volume   1477.22312315
_cell_formula_units_Z   6
loop_
 _symmetry_equiv_pos_site_id
 _symmetry_equiv_pos_as_xyz
  1  'x, y, z'
loop_
 _atom_site_type_symbol
 _atom_site_label
 _atom_site_symmetry_multiplicity
 _atom_site_fract_x
 _atom_site_fract_y
 _atom_site_fract_z
 _atom_site_occupancy
  Ta  Ta0  1  0.00651578  0.01695693  0.64185748  1
  Ta  Ta1  1  0.01044116  0.01695693  0.14185748  1
  Ta  Ta2  1  0.65473315  0.32607121  0.97434455  1
  Ta  Ta3  1  0.67133907  0.32607121  0.47434455  1
  Ta  Ta4  1  0.33355486  0.66832260  0.30847028  1
  Ta  Ta5  1  0.33476674  0.66832260  0.80847028  1
  Ga  Ga6  1  0.97763792  0.01091796  0.35592030  1
  Ga  Ga7  1  0.03328004  0.01091796  0.85592030  1
  Ga  Ga8  1  0.67312062  0.34138149  0.68687270  1
  Ga  Ga9  1  0.66826186  0.34138149  0.18687270  1
  Ga  Ga10  1  0.32670623  0.66228850  0.02241827  1
  Ga  Ga11  1  0.33558127  0.66228850  0.52241827  1
  Si  Si12  1  0.98441410  0.28614011  0.24977706  1
  Si  Si13  1  0.30172601  0.28614011  0.74977706  1
  Si  Si14  1  0.96070131  0.35460308  0.58523285  1
  Si  Si15  1  0.39390276  0.35460308  0.08523285  1
  Si  Si16  1  0.31998322  0.93678982  0.91959792  1
  Si  Si17  1  0.61680560  0.93678982  0.41959792  1
  S  S18  1  0.28343726  0.00407963  0.25190302  1
  S  S19  1  0.71853199  0.71077227  0.25101560  1
  S  S20  1  0.99224028  0.71077227  0.75101560  1
  S  S21  1  0.72064237  0.00407963  0.75190302  1
  S  S22  1  0.38225129  0.04318517  0.58370316  1
  S  S23  1  0.66518014  0.62016569  0.58375737  1
  S  S24  1  0.95498655  0.62016569  0.08375737  1
  S  S25  1  0.66093488  0.04318517  0.08370316  1
  S  S26  1  0.62875618  0.67726720  0.91555539  1
  S  S27  1  0.04734644  0.37470300  0.91715751  1
  S  S28  1  0.32735556  0.37470300  0.41715751  1
  S  S29  1  0.04851002  0.67726720  0.41555539  1
  O  O30  1  0.19842662  0.02263777  0.30486520  1
  O  O31  1  0.82625318  0.78834725  0.30406109  1
  O  O32  1  0.96211103  0.16667519  0.30677404  1
  O  O33  1  0.20456416  0.16667519  0.80677404  1
  O  O34  1  0.96209407  0.78834725  0.80406109  1
  O  O35  1  0.82421115  0.02263777  0.80486520  1
  O  O36  1  0.79909319  0.96723638  0.69760853  1
  O  O37  1  0.16711454  0.19234690  0.69123118  1
  O  O38  1  0.02644716  0.82291299  0.69691158  1
  O  O39  1  0.79646583  0.82291299  0.19691158  1
  O  O40  1  0.02523236  0.19234690  0.19123118  1
  O  O41  1  0.16814319  0.96723638  0.19760853  1
  O  O42  1  0.86514838  0.37162205  0.64338406  1
  O  O43  1  0.48798645  0.12302443  0.63629030  1
  O  O44  1  0.63303411  0.50995965  0.63725685  1
  O  O45  1  0.87692654  0.50995965  0.13725685  1
  O  O46  1  0.63503897  0.12302443  0.13629030  1
  O  O47  1  0.50647467  0.37162205  0.14338406  1
  O  O48  1  0.48383932  0.31352830  0.02634445  1
  O  O49  1  0.84414654  0.53969890  0.03010196  1
  O  O50  1  0.70436242  0.16275774  0.02967227  1
  O  O51  1  0.45839632  0.16275774  0.52967227  1
  O  O52  1  0.69555337  0.53969890  0.53010196  1
  O  O53  1  0.82968999  0.31352830  0.52634445  1
  O  O54  1  0.54998121  0.70021989  0.96906585  1
  O  O55  1  0.15747040  0.44693753  0.96969563  1
  O  O56  1  0.30576368  0.82332684  0.97736391  1
  O  O57  1  0.51756216  0.82332684  0.47736391  1
  O  O58  1  0.28946613  0.44693753  0.46969563  1
  O  O59  1  0.15023768  0.70021989  0.46906585  1
  O  O60  1  0.12480320  0.63236423  0.36264209  1
  O  O61  1  0.49151943  0.85138307  0.36012439  1
  O  O62  1  0.36019489  0.49118856  0.36322359  1
  O  O63  1  0.13099267  0.49118856  0.86322359  1
  O  O64  1  0.35986264  0.85138307  0.86012439  1
  O  O65  1  0.50756002  0.63236423  0.86264209  1
  O  O66  1  0.03086229  0.83157431  0.40269705  1
  O  O67  1  0.81118694  0.96262399  0.41258135  1
  O  O68  1  0.18499901  0.19504741  0.40661644  1
  O  O69  1  0.01004840  0.19504741  0.90661644  1
  O  O70  1  0.15143705  0.96262399  0.91258135  1
  O  O71  1  0.80071202  0.83157431  0.90269705  1
  O  O72  1  0.96792343  0.16675307  0.59339784  1
  O  O73  1  0.19894534  0.02401499  0.59034131  1
  O  O74  1  0.83043893  0.79609943  0.59249767  1
  O  O75  1  0.96566051  0.79609943  0.09249767  1
  O  O76  1  0.82506965  0.02401499  0.09034131  1
  O  O77  1  0.19882963  0.16675307  0.09339784  1
  O  O78  1  0.69420009  0.15368367  0.74235202  1
  O  O79  1  0.49175867  0.31047100  0.73530925  1
  O  O80  1  0.84393882  0.53267374  0.74408219  1
  O  O81  1  0.68873592  0.53267374  0.24408219  1
  O  O82  1  0.81871333  0.31047100  0.23530925  1
  O  O83  1  0.45948458  0.15368367  0.24235202  1
  O  O84  1  0.65148913  0.51549441  0.92297483  1
  O  O85  1  0.87439319  0.37219642  0.92533243  1
  O  O86  1  0.50442523  0.13703484  0.92781548  1
  O  O87  1  0.63261061  0.13703484  0.42781548  1
  O  O88  1  0.49780423  0.37219642  0.42533243  1
  O  O89  1  0.86400628  0.51549441  0.42297483  1
  O  O90  1  0.35901684  0.51341967  0.07097211  1
  O  O91  1  0.13318030  0.64577063  0.07669169  1
  O  O92  1  0.51047861  0.86866543  0.07466013  1
  O  O93  1  0.35818583  0.86866543  0.57466013  1
  O  O94  1  0.51258933  0.64577063  0.57669169  1
  O  O95  1  0.15440183  0.51341967  0.57097211  1
  O  O96  1  0.29715563  0.83712709  0.25765183  1
  O  O97  1  0.53744309  0.69772157  0.25854881  1
  O  O98  1  0.16555106  0.47981600  0.26127714  1
  O  O99  1  0.31426394  0.47981600  0.76127714  1
  O  O100  1  0.16027748  0.69772157  0.75854881  1
  O  O101  1  0.53997047  0.83712709  0.75765183  1
