# generated using pymatgen
data_Lu2S3
_symmetry_space_group_name_H-M   'P 1'
_cell_length_a   7.17234745
_cell_length_b   7.17234834
_cell_length_c   7.17234772
_cell_angle_alpha   55.68816012
_cell_angle_beta   55.68815697
_cell_angle_gamma   55.68816075
_symmetry_Int_Tables_number   1
_chemical_formula_structural   Lu2S3
_chemical_formula_sum   'Lu4 S6'
_cell_volume   234.79907692
_cell_formula_units_Z   2
loop_
 _symmetry_equiv_pos_site_id
 _symmetry_equiv_pos_as_xyz
  1  'x, y, z'
loop_
 _atom_site_type_symbol
 _atom_site_label
 _atom_site_symmetry_multiplicity
 _atom_site_fract_x
 _atom_site_fract_y
 _atom_site_fract_z
 _atom_site_occupancy
  Lu  Lu0  1  0.84897460  0.84897460  0.84897460  1
  Lu  Lu1  1  0.65102540  0.65102540  0.65102540  1
  Lu  Lu2  1  0.15102540  0.15102540  0.15102540  1
  Lu  Lu3  1  0.34897460  0.34897460  0.34897460  1
  S  S4  1  0.05414325  0.75000000  0.44585675  1
  S  S5  1  0.75000000  0.44585675  0.05414325  1
  S  S6  1  0.44585675  0.05414325  0.75000000  1
  S  S7  1  0.94585675  0.25000000  0.55414325  1
  S  S8  1  0.55414325  0.94585675  0.25000000  1
  S  S9  1  0.25000000  0.55414325  0.94585675  1
