# generated using pymatgen
data_Na14Al4Ga4Si7S5O48
_symmetry_space_group_name_H-M   'P 1'
_cell_length_a   17.64498540
_cell_length_b   8.83332219
_cell_length_c   21.81262278
_cell_angle_alpha   89.73725615
_cell_angle_beta   89.71425197
_cell_angle_gamma   119.99888109
_symmetry_Int_Tables_number   1
_chemical_formula_structural   Na14Al4Ga4Si7S5O48
_chemical_formula_sum   'Na42 Al12 Ga12 Si21 S15 O144'
_cell_volume   2944.21065592
_cell_formula_units_Z   3
loop_
 _symmetry_equiv_pos_site_id
 _symmetry_equiv_pos_as_xyz
  1  'x, y, z'
loop_
 _atom_site_type_symbol
 _atom_site_label
 _atom_site_symmetry_multiplicity
 _atom_site_fract_x
 _atom_site_fract_y
 _atom_site_fract_z
 _atom_site_occupancy
  Na  Na0  1  0.81385488  0.99557740  0.24466784  1
  Na  Na1  1  0.18536478  0.36503767  0.25423439  1
  Na  Na2  1  0.68633842  0.36710091  0.25303191  1
  Na  Na3  1  0.99920145  0.64084836  0.24486722  1
  Na  Na4  1  0.49920494  0.64112050  0.24605979  1
  Na  Na5  1  0.31323808  0.63260831  0.75202853  1
  Na  Na6  1  0.99832662  0.35616526  0.74921375  1
  Na  Na7  1  0.50106057  0.35929705  0.74977345  1
  Na  Na8  1  0.18405323  0.00286259  0.75623543  1
  Na  Na9  1  0.68657493  0.00698829  0.75715526  1
  Na  Na10  1  0.14586321  0.33415438  0.58275859  1
  Na  Na11  1  0.64781023  0.33517406  0.58406394  1
  Na  Na12  1  0.33632894  0.97368618  0.58103417  1
  Na  Na13  1  0.83662187  0.97397101  0.58305692  1
  Na  Na14  1  0.14577753  0.95846796  0.08484217  1
  Na  Na15  1  0.65221270  0.96230300  0.08451407  1
  Na  Na16  1  0.33678281  0.69920807  0.08306709  1
  Na  Na17  1  0.83640881  0.70597229  0.08081799  1
  Na  Na18  1  0.48537761  0.67524975  0.92237410  1
  Na  Na19  1  0.98055428  0.67338555  0.92258893  1
  Na  Na20  1  0.34760163  0.02766592  0.91477855  1
  Na  Na21  1  0.84538203  0.02508244  0.91885267  1
  Na  Na22  1  0.16886875  0.29769659  0.91211163  1
  Na  Na23  1  0.67128820  0.30091148  0.91228730  1
  Na  Na24  1  0.48263515  0.28966728  0.41863412  1
  Na  Na25  1  0.98328364  0.29075822  0.41906330  1
  Na  Na26  1  0.16920279  0.03909242  0.40846047  1
  Na  Na27  1  0.66938913  0.04010289  0.40933331  1
  Na  Na28  1  0.34599205  0.66744487  0.41117816  1
  Na  Na29  1  0.84712707  0.66776851  0.41217568  1
  Na  Na30  1  0.99898558  0.00480199  0.49857074  1
  Na  Na31  1  0.49935326  0.00478796  0.49846541  1
  Na  Na32  1  0.99430806  0.99333732  0.00215088  1
  Na  Na33  1  0.50119294  0.99505543  0.99981438  1
  Na  Na34  1  0.32820205  0.32714859  0.83467417  1
  Na  Na35  1  0.82571136  0.33330773  0.83374149  1
  Na  Na36  1  0.32585409  0.31807848  0.32970276  1
  Na  Na37  1  0.82756298  0.32836594  0.33084165  1
  Na  Na38  1  0.16559029  0.67293495  0.16874111  1
  Na  Na39  1  0.66609274  0.67187788  0.16423477  1
  Na  Na40  1  0.16110861  0.65987817  0.66764790  1
  Na  Na41  1  0.66794082  0.66039378  0.67012804  1
  Al  Al42  1  0.99645246  0.02237975  0.65178603  1
  Al  Al43  1  0.49992583  0.02804239  0.65195332  1
  Al  Al44  1  0.99269760  0.97225039  0.14581523  1
  Al  Al45  1  0.49814044  0.97112741  0.15048382  1
  Al  Al46  1  0.83701189  0.33300738  0.68997604  1
  Al  Al47  1  0.33565820  0.34090485  0.18886966  1
  Al  Al48  1  0.16198046  0.67223814  0.01512434  1
  Al  Al49  1  0.67249174  0.69641691  0.02088880  1
  Al  Al50  1  0.16131190  0.64967114  0.51406824  1
  Al  Al51  1  0.66266278  0.65050586  0.51479342  1
  Al  Al52  1  0.18520153  0.69387195  0.31094041  1
  Al  Al53  1  0.68654810  0.67751898  0.81332606  1
  Ga  Ga54  1  0.00280328  0.00201181  0.34866030  1
  Ga  Ga55  1  0.49860711  0.00135676  0.34882745  1
  Ga  Ga56  1  0.99839092  0.99647569  0.85089353  1
  Ga  Ga57  1  0.50384696  0.00594537  0.85157950  1
  Ga  Ga58  1  0.33593912  0.32648236  0.68698264  1
  Ga  Ga59  1  0.83462210  0.33241538  0.18267519  1
  Ga  Ga60  1  0.33303360  0.34378976  0.98121626  1
  Ga  Ga61  1  0.83347173  0.33262379  0.98390946  1
  Ga  Ga62  1  0.33133978  0.31891084  0.47916207  1
  Ga  Ga63  1  0.83209365  0.32057227  0.48072125  1
  Ga  Ga64  1  0.68137766  0.68430833  0.31404165  1
  Ga  Ga65  1  0.17945686  0.67706684  0.81594880  1
  Si  Si66  1  0.14737631  0.99948263  0.24752833  1
  Si  Si67  1  0.64560436  0.99908110  0.25070418  1
  Si  Si68  1  0.35418768  0.71045266  0.24920673  1
  Si  Si69  1  0.85587531  0.70709600  0.25011058  1
  Si  Si70  1  0.14577254  0.29219250  0.74909347  1
  Si  Si71  1  0.65019397  0.30142761  0.74920827  1
  Si  Si72  1  0.35576924  0.99943868  0.74989620  1
  Si  Si73  1  0.85397521  0.99758859  0.74942036  1
  Si  Si74  1  0.48191874  0.34397645  0.58292524  1
  Si  Si75  1  0.98037097  0.34379070  0.58425283  1
  Si  Si76  1  0.47985369  0.61671310  0.08408273  1
  Si  Si77  1  0.98280704  0.61962547  0.08270100  1
  Si  Si78  1  0.83927561  0.04755983  0.08393837  1
  Si  Si79  1  0.31161088  0.66751846  0.91946039  1
  Si  Si80  1  0.81038560  0.66366430  0.91931970  1
  Si  Si81  1  0.16661269  0.95923514  0.91673483  1
  Si  Si82  1  0.66618456  0.95376803  0.91424702  1
  Si  Si83  1  0.30933502  0.95100502  0.41898461  1
  Si  Si84  1  0.81152888  0.95516584  0.41961458  1
  Si  Si85  1  0.16675615  0.37842328  0.41547201  1
  Si  Si86  1  0.66646010  0.37399346  0.41715126  1
  S  S87  1  0.00157087  0.29085919  0.24954482  1
  S  S88  1  0.49607232  0.28390525  0.24733145  1
  S  S89  1  0.99623502  0.70990070  0.74713408  1
  S  S90  1  0.49943445  0.71384515  0.74800926  1
  S  S91  1  0.18244172  0.03206488  0.58396337  1
  S  S92  1  0.68365457  0.03527530  0.58473743  1
  S  S93  1  0.33687511  0.62847538  0.58354929  1
  S  S94  1  0.83736257  0.62529495  0.58403817  1
  S  S95  1  0.33717180  0.04942894  0.08433508  1
  S  S96  1  0.18578389  0.33451651  0.08425811  1
  S  S97  1  0.68088549  0.33134470  0.08395793  1
  S  S98  1  0.02460569  0.38267040  0.91654517  1
  S  S99  1  0.52494929  0.38335585  0.91750295  1
  S  S100  1  0.02449815  0.66569269  0.41687262  1
  S  S101  1  0.52327109  0.66502158  0.41774277  1
  O  O102  1  0.10931387  0.04801179  0.30990460  1
  O  O103  1  0.60429214  0.04103315  0.31166456  1
  O  O104  1  0.41576100  0.78906641  0.31073806  1
  O  O105  1  0.91515823  0.78917341  0.31231769  1
  O  O106  1  0.48219948  0.18610365  0.30667723  1
  O  O107  1  0.98378742  0.18361010  0.30756390  1
  O  O108  1  0.10645163  0.16638813  0.80954889  1
  O  O109  1  0.60885313  0.16997292  0.80875061  1
  O  O110  1  0.48222226  0.78362202  0.80481743  1
  O  O111  1  0.98323438  0.77989825  0.80534963  1
  O  O112  1  0.41665914  0.03763317  0.81011570  1
  O  O113  1  0.91804902  0.04513778  0.80915687  1
  O  O114  1  0.39851435  0.95971982  0.68968074  1
  O  O115  1  0.89711567  0.96415815  0.68845064  1
  O  O116  1  0.08633917  0.20020616  0.68862108  1
  O  O117  1  0.58624760  0.20817938  0.68937836  1
  O  O118  1  0.01268813  0.82867221  0.69450209  1
  O  O119  1  0.51371310  0.82883301  0.69437761  1
  O  O120  1  0.39881976  0.83269353  0.18910635  1
  O  O121  1  0.89945503  0.83586223  0.19197962  1
  O  O122  1  0.01641631  0.20732165  0.19715352  1
  O  O123  1  0.51237089  0.19756976  0.19565025  1
  O  O124  1  0.08266437  0.97009180  0.18948685  1
  O  O125  1  0.58493240  0.96986509  0.19083521  1
  O  O126  1  0.43664771  0.37036124  0.64414150  1
  O  O127  1  0.93075761  0.36534918  0.64362519  1
  O  O128  1  0.23924401  0.11315205  0.63819956  1
  O  O129  1  0.74206929  0.12153385  0.63782510  1
  O  O130  1  0.31851931  0.51451259  0.63846356  1
  O  O131  1  0.81956773  0.50591163  0.63693837  1
  O  O132  1  0.42928155  0.49620347  0.14375093  1
  O  O133  1  0.93876617  0.50709323  0.14510215  1
  O  O134  1  0.31933572  0.13266204  0.13678206  1
  O  O135  1  0.81238753  0.12525108  0.14342605  1
  O  O136  1  0.24453084  0.36597603  0.13756566  1
  O  O137  1  0.73774170  0.36565734  0.13876710  1
  O  O138  1  0.22277203  0.29525121  0.02806729  1
  O  O139  1  0.71904131  0.29196783  0.02913210  1
  O  O140  1  0.41561593  0.53873015  0.02379008  1
  O  O141  1  0.91880398  0.54093288  0.02315675  1
  O  O142  1  0.34787909  0.14817537  0.02643870  1
  O  O143  1  0.85084363  0.16060884  0.02143286  1
  O  O144  1  0.22094515  0.14939433  0.52894000  1
  O  O145  1  0.72022603  0.14874704  0.52863018  1
  O  O146  1  0.34740877  0.54603477  0.52779535  1
  O  O147  1  0.84800039  0.54839906  0.52673482  1
  O  O148  1  0.41642904  0.29688064  0.52388298  1
  O  O149  1  0.91744690  0.29744342  0.52368238  1
  O  O150  1  0.26161996  0.69430815  0.97842616  1
  O  O151  1  0.76398283  0.69490630  0.97897357  1
  O  O152  1  0.08042041  0.46692101  0.97002228  1
  O  O153  1  0.57906777  0.46557315  0.97094385  1
  O  O154  1  0.14860219  0.83430616  0.97601690  1
  O  O155  1  0.64581900  0.83299735  0.97548013  1
  O  O156  1  0.26312987  0.83094612  0.48096321  1
  O  O157  1  0.76204554  0.82935840  0.47971076  1
  O  O158  1  0.14803236  0.45922546  0.47744577  1
  O  O159  1  0.64772231  0.45993359  0.47729338  1
  O  O160  1  0.07948037  0.69260787  0.47184099  1
  O  O161  1  0.57986539  0.69240473  0.47191999  1
  O  O162  1  0.06140329  0.63418957  0.36177719  1
  O  O163  1  0.55901037  0.63211043  0.36205713  1
  O  O164  1  0.24581828  0.86782125  0.36146374  1
  O  O165  1  0.75053228  0.88291524  0.35897092  1
  O  O166  1  0.18199630  0.50384633  0.35642371  1
  O  O167  1  0.68351583  0.49525228  0.35613088  1
  O  O168  1  0.06270791  0.48853741  0.85962641  1
  O  O169  1  0.56087439  0.48747191  0.86003825  1
  O  O170  1  0.18478672  0.87547530  0.85477008  1
  O  O171  1  0.67914185  0.85618865  0.85434054  1
  O  O172  1  0.25191161  0.61872612  0.85731029  1
  O  O173  1  0.74804348  0.61994474  0.86007268  1
  O  O174  1  0.01562750  0.82436829  0.41494745  1
  O  O175  1  0.51465089  0.82358299  0.41565070  1
  O  O176  1  0.40743341  0.97084719  0.41286863  1
  O  O177  1  0.90831511  0.97167340  0.41341367  1
  O  O178  1  0.08097534  0.17955855  0.41154847  1
  O  O179  1  0.57978227  0.17776463  0.41253185  1
  O  O180  1  0.01622077  0.20740384  0.91380994  1
  O  O181  1  0.51462525  0.20516883  0.91371677  1
  O  O182  1  0.07994348  0.98209518  0.91173217  1
  O  O183  1  0.57884044  0.97862109  0.91051912  1
  O  O184  1  0.40776566  0.84502030  0.91295499  1
  O  O185  1  0.90800621  0.84288788  0.91160358  1
  O  O186  1  0.49039328  0.16183502  0.58882174  1
  O  O187  1  0.99063303  0.16287823  0.58930370  1
  O  O188  1  0.09439961  0.01420924  0.59123041  1
  O  O189  1  0.59539493  0.01594721  0.59236312  1
  O  O190  1  0.41573495  0.80372196  0.58905903  1
  O  O191  1  0.91542663  0.80144375  0.58989745  1
  O  O192  1  0.48975990  0.81781547  0.08920461  1
  O  O193  1  0.99408087  0.81852693  0.08802154  1
  O  O194  1  0.41557846  0.03032315  0.09010706  1
  O  O195  1  0.92537965  0.02480306  0.09184428  1
  O  O196  1  0.09897552  0.17878240  0.09202592  1
  O  O197  1  0.59319785  0.17074770  0.09235523  1
  O  O198  1  0.34531379  0.17461237  0.74531632  1
  O  O199  1  0.84503360  0.17620443  0.74224081  1
  O  O200  1  0.24604847  0.32146048  0.74043353  1
  O  O201  1  0.74558288  0.31590337  0.73688141  1
  O  O202  1  0.41913459  0.53731391  0.74328905  1
  O  O203  1  0.91867155  0.53329153  0.74118791  1
  O  O204  1  0.34502990  0.51391629  0.24311787  1
  O  O205  1  0.84497396  0.51185379  0.24431607  1
  O  O206  1  0.41838319  0.30438352  0.24190081  1
  O  O207  1  0.92135449  0.30699539  0.24623117  1
  O  O208  1  0.24436162  0.17487197  0.23678205  1
  O  O209  1  0.74371952  0.17151208  0.24543375  1
  O  O210  1  0.32342705  0.49377366  0.92209063  1
  O  O211  1  0.82386036  0.49145845  0.92390673  1
  O  O212  1  0.43387831  0.35777238  0.92220689  1
  O  O213  1  0.93623984  0.36310572  0.92041176  1
  O  O214  1  0.25661043  0.15207933  0.92482607  1
  O  O215  1  0.75407208  0.14908298  0.92023208  1
  O  O216  1  0.32277118  0.15068482  0.42178689  1
  O  O217  1  0.82368562  0.15290761  0.42279597  1
  O  O218  1  0.25712132  0.36377325  0.42437809  1
  O  O219  1  0.75686657  0.36188071  0.42552701  1
  O  O220  1  0.43372999  0.50984262  0.42453833  1
  O  O221  1  0.93444835  0.51017789  0.42358977  1
  O  O222  1  0.18110987  0.49553140  0.07687147  1
  O  O223  1  0.67413010  0.48813679  0.07592870  1
  O  O224  1  0.08262643  0.64583166  0.07554068  1
  O  O225  1  0.57787248  0.64332600  0.07639403  1
  O  O226  1  0.25723512  0.86877696  0.08036745  1
  O  O227  1  0.75034286  0.84913681  0.07858964  1
  O  O228  1  0.17751262  0.86233964  0.57640759  1
  O  O229  1  0.67873901  0.86449626  0.57748124  1
  O  O230  1  0.25676180  0.64844333  0.57977481  1
  O  O231  1  0.75679167  0.64541977  0.58042252  1
  O  O232  1  0.08046479  0.51467250  0.57635591  1
  O  O233  1  0.58140311  0.51480737  0.57573953  1
  O  O234  1  0.14868455  0.81535955  0.25790601  1
  O  O235  1  0.64929213  0.81588793  0.25649882  1
  O  O236  1  0.25487646  0.67868881  0.25369810  1
  O  O237  1  0.75676609  0.68336269  0.25220442  1
  O  O238  1  0.07845115  0.46704452  0.25619949  1
  O  O239  1  0.57521637  0.46163592  0.25245803  1
  O  O240  1  0.15041052  0.48274967  0.75478970  1
  O  O241  1  0.64990982  0.48586416  0.75822332  1
  O  O242  1  0.07537008  0.68898443  0.75131143  1
  O  O243  1  0.57630189  0.69005047  0.75279063  1
  O  O244  1  0.25654537  0.82768895  0.75156884  1
  O  O245  1  0.75468241  0.83114514  0.75388350  1
