# generated using pymatgen
data_SnGeP2SO12
_symmetry_space_group_name_H-M   'P 1'
_cell_length_a   8.51631987
_cell_length_b   8.54994215
_cell_length_c   22.17139583
_cell_angle_alpha   89.68370854
_cell_angle_beta   90.04398174
_cell_angle_gamma   119.86961632
_symmetry_Int_Tables_number   1
_chemical_formula_structural   SnGeP2SO12
_chemical_formula_sum   'Sn6 Ge6 P12 S6 O72'
_cell_volume   1399.91010829
_cell_formula_units_Z   6
loop_
 _symmetry_equiv_pos_site_id
 _symmetry_equiv_pos_as_xyz
  1  'x, y, z'
loop_
 _atom_site_type_symbol
 _atom_site_label
 _atom_site_symmetry_multiplicity
 _atom_site_fract_x
 _atom_site_fract_y
 _atom_site_fract_z
 _atom_site_occupancy
  Sn  Sn0  1  0.99984218  0.00148118  0.35409256  1
  Sn  Sn1  1  0.99260309  0.00345414  0.64796976  1
  Sn  Sn2  1  0.00924927  0.00255535  0.14097247  1
  Sn  Sn3  1  0.66675802  0.33566680  0.68961500  1
  Sn  Sn4  1  0.67553444  0.33547036  0.47927718  1
  Sn  Sn5  1  0.32648881  0.66996113  0.30997517  1
  Ge  Ge6  1  0.00240381  0.00199259  0.85683388  1
  Ge  Ge7  1  0.66913014  0.33528632  0.18406670  1
  Ge  Ge8  1  0.65585710  0.33842396  0.97677587  1
  Ge  Ge9  1  0.33251190  0.66782863  0.01976735  1
  Ge  Ge10  1  0.33519119  0.66865122  0.52076433  1
  Ge  Ge11  1  0.34905784  0.67149591  0.81609418  1
  P  P12  1  0.30210132  0.01325513  0.24730114  1
  P  P13  1  0.99029521  0.28846678  0.24694907  1
  P  P14  1  0.28404356  0.29353228  0.75541135  1
  P  P15  1  0.70833719  0.99496836  0.75537740  1
  P  P16  1  0.96944504  0.34419923  0.58314078  1
  P  P17  1  0.65858003  0.62472049  0.58252103  1
  P  P18  1  0.95132317  0.60885742  0.07973662  1
  P  P19  1  0.38959189  0.34666420  0.08058163  1
  P  P20  1  0.62445100  0.67108206  0.91776186  1
  P  P21  1  0.33402698  0.95327518  0.91728723  1
  P  P22  1  0.61713062  0.94902481  0.41855545  1
  P  P23  1  0.05044234  0.67109950  0.41878469  1
  S  S24  1  0.70892480  0.70052349  0.24732442  1
  S  S25  1  0.00992747  0.71463555  0.75456411  1
  S  S26  1  0.37299414  0.03401775  0.58290770  1
  S  S27  1  0.65832128  0.04460896  0.08030812  1
  S  S28  1  0.04300878  0.37787649  0.91722728  1
  S  S29  1  0.33279233  0.38025747  0.41799736  1
  O  O30  1  0.22219349  0.04848181  0.30489434  1
  O  O31  1  0.81910060  0.77538040  0.30247975  1
  O  O32  1  0.94993926  0.17161460  0.30465814  1
  O  O33  1  0.19688105  0.16507605  0.81030453  1
  O  O34  1  0.97148436  0.79706498  0.80698386  1
  O  O35  1  0.83444925  0.03027081  0.80999410  1
  O  O36  1  0.77650065  0.94948443  0.69754237  1
  O  O37  1  0.17337369  0.21739777  0.69727708  1
  O  O38  1  0.04640276  0.82179251  0.69815656  1
  O  O39  1  0.78514331  0.81800660  0.19387780  1
  O  O40  1  0.02570937  0.20419917  0.19137562  1
  O  O41  1  0.17516847  0.96346307  0.19288766  1
  O  O42  1  0.88675061  0.37961363  0.63998671  1
  O  O43  1  0.48643198  0.11141185  0.63719917  1
  O  O44  1  0.61776039  0.50457846  0.63946762  1
  O  O45  1  0.87110588  0.49223509  0.13751859  1
  O  O46  1  0.62500767  0.12019229  0.13603150  1
  O  O47  1  0.50668607  0.37888826  0.13762222  1
  O  O48  1  0.46784687  0.30059346  0.02476001  1
  O  O49  1  0.83177123  0.52320070  0.02367525  1
  O  O50  1  0.69636025  0.16052158  0.02641893  1
  O  O51  1  0.44697702  0.14914900  0.52890590  1
  O  O52  1  0.69386411  0.54217731  0.52653773  1
  O  O53  1  0.84484750  0.29465792  0.52813901  1
  O  O54  1  0.53860276  0.70952002  0.97326294  1
  O  O55  1  0.16030392  0.45420006  0.97139340  1
  O  O56  1  0.29190842  0.82920603  0.97373147  1
  O  O57  1  0.53056409  0.82927629  0.47483154  1
  O  O58  1  0.30342191  0.46309824  0.47209643  1
  O  O59  1  0.16888249  0.69906789  0.47492435  1
  O  O60  1  0.12149820  0.62867176  0.36131046  1
  O  O61  1  0.51077941  0.87058979  0.36015563  1
  O  O62  1  0.36693159  0.48648136  0.36208245  1
  O  O63  1  0.12061072  0.49454256  0.86312343  1
  O  O64  1  0.37137131  0.86821215  0.86151795  1
  O  O65  1  0.49962012  0.62420295  0.86193395  1
  O  O66  1  0.04196357  0.84577332  0.41230811  1
  O  O67  1  0.80603972  0.96793589  0.41342946  1
  O  O68  1  0.16757840  0.20340323  0.41368373  1
  O  O69  1  0.02607251  0.19681855  0.91007405  1
  O  O70  1  0.16446834  0.97328578  0.90743125  1
  O  O71  1  0.81236975  0.83884794  0.90738897  1
  O  O72  1  0.99587285  0.18063466  0.58963952  1
  O  O73  1  0.19164991  0.01168567  0.59097015  1
  O  O74  1  0.83061129  0.80801330  0.59066090  1
  O  O75  1  0.96483462  0.79426916  0.08707930  1
  O  O76  1  0.81868368  0.02176082  0.08668413  1
  O  O77  1  0.19995894  0.18050809  0.08595663  1
  O  O78  1  0.69349278  0.16560050  0.74687342  1
  O  O79  1  0.47290425  0.31289049  0.74796261  1
  O  O80  1  0.84618457  0.53574442  0.74839701  1
  O  O81  1  0.69635287  0.52392923  0.23928096  1
  O  O82  1  0.82201026  0.30883285  0.23724806  1
  O  O83  1  0.48511646  0.18539574  0.23576420  1
  O  O84  1  0.64469184  0.50174079  0.92541074  1
  O  O85  1  0.86044191  0.35660542  0.92531960  1
  O  O86  1  0.50524346  0.14074693  0.92706208  1
  O  O87  1  0.62699951  0.13206713  0.42472857  1
  O  O88  1  0.49154361  0.35739127  0.42388428  1
  O  O89  1  0.86054176  0.50755461  0.42319196  1
  O  O90  1  0.37502386  0.51804139  0.07095643  1
  O  O91  1  0.14115933  0.62887280  0.07114517  1
  O  O92  1  0.49346372  0.86515109  0.07385835  1
  O  O93  1  0.35968412  0.85693491  0.57531714  1
  O  O94  1  0.49023886  0.64426209  0.57324598  1
  O  O95  1  0.15280699  0.51552271  0.57225953  1
  O  O96  1  0.33023796  0.85064216  0.25335784  1
  O  O97  1  0.52683837  0.67685443  0.25475598  1
  O  O98  1  0.16191685  0.47233084  0.25449681  1
  O  O99  1  0.29636877  0.47775354  0.76574176  1
  O  O100  1  0.17073674  0.69484477  0.76366290  1
  O  O101  1  0.51928184  0.82749986  0.76377227  1
