# generated using pymatgen
data_MgZn2(FeO2)4
_symmetry_space_group_name_H-M   'P 1'
_cell_length_a   6.02106120
_cell_length_b   5.98300898
_cell_length_c   6.31038495
_cell_angle_alpha   90.00194851
_cell_angle_beta   118.49040441
_cell_angle_gamma   119.79050275
_symmetry_Int_Tables_number   1
_chemical_formula_structural   MgZn2(FeO2)4
_chemical_formula_sum   'Mg1 Zn2 Fe4 O8'
_cell_volume   164.80779375
_cell_formula_units_Z   1
loop_
 _symmetry_equiv_pos_site_id
 _symmetry_equiv_pos_as_xyz
  1  'x, y, z'
loop_
 _atom_site_type_symbol
 _atom_site_label
 _atom_site_symmetry_multiplicity
 _atom_site_fract_x
 _atom_site_fract_y
 _atom_site_fract_z
 _atom_site_occupancy
  Mg  Mg0  1  0.00000300  0.00000000  0.50000100  1
  Zn  Zn1  1  0.33003300  0.16503300  0.96573900  1
  Zn  Zn2  1  0.66996000  0.83496600  0.03426000  1
  Fe  Fe3  1  0.49999900  0.99999900  0.50000300  1
  Fe  Fe4  1  0.50000200  0.50000100  0.50000100  1
  Fe  Fe5  1  0.99999800  0.49999900  0.99999700  1
  Fe  Fe6  1  0.00000300  0.50000200  0.50000000  1
  O  O7  1  0.98788800  0.73765400  0.25144900  1
  O  O8  1  0.44606700  0.72304200  0.68084400  1
  O  O9  1  0.47615100  0.73807100  0.23491500  1
  O  O10  1  0.01211600  0.74977500  0.74852400  1
  O  O11  1  0.52384700  0.26192700  0.76508500  1
  O  O12  1  0.55393600  0.27695900  0.31915900  1
  O  O13  1  0.98788600  0.25022500  0.25147500  1
  O  O14  1  0.01211200  0.26234600  0.74854900  1
