# generated using pymatgen
data_Na2TaNb(SiO4)3
_symmetry_space_group_name_H-M   'P 1'
_cell_length_a   9.00159599
_cell_length_b   9.00174313
_cell_length_c   22.78604283
_cell_angle_alpha   90.30610789
_cell_angle_beta   89.69723319
_cell_angle_gamma   120.40200657
_symmetry_Int_Tables_number   1
_chemical_formula_structural   Na2TaNb(SiO4)3
_chemical_formula_sum   'Na12 Ta6 Nb6 Si18 O72'
_cell_volume   1592.44324553
_cell_formula_units_Z   6
loop_
 _symmetry_equiv_pos_site_id
 _symmetry_equiv_pos_as_xyz
  1  'x, y, z'
loop_
 _atom_site_type_symbol
 _atom_site_label
 _atom_site_symmetry_multiplicity
 _atom_site_fract_x
 _atom_site_fract_y
 _atom_site_fract_z
 _atom_site_occupancy
  Na  Na0  1  0.36449652  0.36515920  0.25009797  1
  Na  Na1  1  0.63523018  0.63465961  0.74992258  1
  Na  Na2  1  0.03112498  0.69852966  0.58344986  1
  Na  Na3  1  0.30107488  0.96835280  0.08341788  1
  Na  Na4  1  0.69814751  0.03152896  0.91672511  1
  Na  Na5  1  0.96780192  0.30115955  0.41663523  1
  Na  Na6  1  0.99993299  0.00002032  0.50000014  1
  Na  Na7  1  0.00009633  0.00000454  0.00025648  1
  Na  Na8  1  0.66670073  0.33346485  0.83319471  1
  Na  Na9  1  0.66674179  0.33327834  0.33350206  1
  Na  Na10  1  0.33322524  0.66654867  0.16682433  1
  Na  Na11  1  0.33329213  0.66664105  0.66674895  1
  Ta  Ta12  1  0.00449395  0.00012148  0.85463122  1
  Ta  Ta13  1  0.67124733  0.33365184  0.18731517  1
  Ta  Ta14  1  0.66697614  0.33794986  0.97887807  1
  Ta  Ta15  1  0.33298752  0.66207047  0.02095469  1
  Ta  Ta16  1  0.33785992  0.66678931  0.52092546  1
  Ta  Ta17  1  0.32869321  0.66632829  0.81267838  1
  Nb  Nb18  1  -0.00015988  0.99509632  0.35424208  1
  Nb  Nb19  1  0.00031582  0.00501912  0.64600457  1
  Nb  Nb20  1  0.99503424  -0.00013018  0.14541951  1
  Nb  Nb21  1  0.66655735  0.32847400  0.68769309  1
  Nb  Nb22  1  0.66157066  0.33314608  0.47900717  1
  Nb  Nb23  1  0.33364100  0.67176732  0.31242353  1
  Si  Si24  1  0.28793456  0.99724106  0.24878834  1
  Si  Si25  1  0.71080746  0.71005046  0.24981203  1
  Si  Si26  1  0.99569549  0.28727859  0.25084499  1
  Si  Si27  1  0.28864609  0.28927224  0.75056407  1
  Si  Si28  1  0.00426867  0.71340777  0.74948051  1
  Si  Si29  1  0.71261130  0.00282875  0.75145302  1
  Si  Si30  1  0.95447207  0.33030680  0.58220803  1
  Si  Si31  1  0.37733203  0.04340227  0.58326320  1
  Si  Si32  1  0.66258981  0.62078602  0.58427709  1
  Si  Si33  1  0.95543390  0.62130376  0.08311752  1
  Si  Si34  1  0.66935334  0.04657065  0.08215622  1
  Si  Si35  1  0.38066921  0.33769507  0.08406235  1
  Si  Si36  1  0.61993611  0.66296850  0.91580799  1
  Si  Si37  1  0.04467835  0.37804671  0.91675337  1
  Si  Si38  1  0.32978105  0.95339760  0.91769090  1
  Si  Si39  1  0.62227566  0.95543685  0.41696635  1
  Si  Si40  1  0.33660772  0.37989208  0.41585382  1
  Si  Si41  1  0.04652931  0.67022957  0.41788042  1
  O  O42  1  0.19768562  0.03507296  0.30575109  1
  O  O43  1  0.83386823  0.80370328  0.30698169  1
  O  O44  1  0.96975019  0.17053555  0.30924997  1
  O  O45  1  0.19430751  0.16584570  0.80721617  1
  O  O46  1  0.96647237  0.80452991  0.80595307  1
  O  O47  1  0.83008967  0.02870085  0.80945614  1
  O  O48  1  0.80243417  0.96498611  0.69438381  1
  O  O49  1  0.16623963  0.19627169  0.69313944  1
  O  O50  1  0.03023048  0.82947180  0.69084921  1
  O  O51  1  0.80463826  0.83360329  0.19288301  1
  O  O52  1  0.03385610  0.19658986  0.19414113  1
  O  O53  1  0.17079635  0.97069471  0.19059683  1
  O  O54  1  0.86425454  0.36839772  0.63911710  1
  O  O55  1  0.50064182  0.13714719  0.64035757  1
  O  O56  1  0.63640045  0.50380086  0.64262291  1
  O  O57  1  0.86183861  0.49896290  0.14029809  1
  O  O58  1  0.63202960  0.13695477  0.13903919  1
  O  O59  1  0.49709906  0.36292987  0.14253924  1
  O  O60  1  0.47152052  0.29995733  0.02744591  1
  O  O61  1  0.83246613  0.52749311  0.02616120  1
  O  O62  1  0.69528148  0.16356782  0.02391062  1
  O  O63  1  0.47103447  0.16671928  0.52632187  1
  O  O64  1  0.70063992  0.53019570  0.52756844  1
  O  O65  1  0.83761806  0.30395623  0.52400693  1
  O  O66  1  0.52943895  0.70102272  0.97241035  1
  O  O67  1  0.16757251  0.47170968  0.97369928  1
  O  O68  1  0.30406800  0.83641558  0.97593364  1
  O  O69  1  0.52785759  0.83234527  0.47382817  1
  O  O70  1  0.29953918  0.47096983  0.47258921  1
  O  O71  1  0.16365183  0.69570681  0.47608309  1
  O  O72  1  0.13667421  0.63254050  0.36096058  1
  O  O73  1  0.49959649  0.86219674  0.35971102  1
  O  O74  1  0.36296727  0.49618852  0.35739514  1
  O  O75  1  0.13830543  0.50078964  0.85965397  1
  O  O76  1  0.36767507  0.86287082  0.86092957  1
  O  O77  1  0.50314767  0.63741986  0.85740919  1
  O  O78  1  0.02628608  0.83874231  0.40984915  1
  O  O79  1  0.81538239  0.98192022  0.41023714  1
  O  O80  1  0.15927254  0.19215529  0.41006971  1
  O  O81  1  0.01748243  0.18434191  0.90947942  1
  O  O82  1  0.16159782  0.97436376  0.90912788  1
  O  O83  1  0.80814685  0.84037935  0.90926499  1
  O  O84  1  0.97503240  0.16202208  0.59042838  1
  O  O85  1  0.18428457  0.01684158  0.58991956  1
  O  O86  1  0.84012957  0.80826992  0.59016364  1
  O  O87  1  0.98264085  0.81497262  0.08980897  1
  O  O88  1  0.83775177  0.02569062  0.09019879  1
  O  O89  1  0.19269750  0.16021428  0.09003911  1
  O  O90  1  0.69218790  0.17135236  0.74315757  1
  O  O91  1  0.48194600  0.31599098  0.74354642  1
  O  O92  1  0.82660754  0.52557521  0.74336695  1
  O  O93  1  0.68445802  0.51698290  0.24277569  1
  O  O94  1  0.82740398  0.30767537  0.24232456  1
  O  O95  1  0.47574239  0.17460236  0.24257605  1
  O  O96  1  0.64107310  0.49491455  0.92418356  1
  O  O97  1  0.85093050  0.35070994  0.92383098  1
  O  O98  1  0.50710319  0.14160545  0.92404667  1
  O  O99  1  0.64897819  0.14870846  0.42325347  1
  O  O100  1  0.50493063  0.35914152  0.42374746  1
  O  O101  1  0.85892781  0.49298749  0.42352192  1
  O  O102  1  0.35971939  0.50582762  0.07568966  1
  O  O103  1  0.14907677  0.64840644  0.07606173  1
  O  O104  1  0.49228110  0.85837346  0.07585878  1
  O  O105  1  0.35104031  0.85034514  0.57624056  1
  O  O106  1  0.49420188  0.64107823  0.57581356  1
  O  O107  1  0.14228404  0.50780678  0.57604220  1
  O  O108  1  0.30840233  0.82886140  0.25695000  1
  O  O109  1  0.51775491  0.68349633  0.25646336  1
  O  O110  1  0.17330691  0.47476692  0.25671436  1
  O  O111  1  0.31555353  0.48281141  0.75733633  1
  O  O112  1  0.17240837  0.69242208  0.75781087  1
  O  O113  1  0.52458439  0.82563300  0.75757825  1
