# generated using pymatgen
data_Cs2PtCl4
_symmetry_space_group_name_H-M   'P 1'
_cell_length_a   7.42608667
_cell_length_b   7.42608759
_cell_length_c   9.50254960
_cell_angle_alpha   90.00000000
_cell_angle_beta   90.00000000
_cell_angle_gamma   89.92348961
_symmetry_Int_Tables_number   1
_chemical_formula_structural   Cs2PtCl4
_chemical_formula_sum   'Cs4 Pt2 Cl8'
_cell_volume   524.03445053
_cell_formula_units_Z   2
loop_
 _symmetry_equiv_pos_site_id
 _symmetry_equiv_pos_as_xyz
  1  'x, y, z'
loop_
 _atom_site_type_symbol
 _atom_site_label
 _atom_site_symmetry_multiplicity
 _atom_site_fract_x
 _atom_site_fract_y
 _atom_site_fract_z
 _atom_site_occupancy
  Cs  Cs0  1  0.50472497  0.99483700  0.75000000  1
  Cs  Cs1  1  0.00516300  0.49527503  0.25000000  1
  Cs  Cs2  1  0.49527503  0.00516300  0.25000000  1
  Cs  Cs3  1  0.99483700  0.50472497  0.75000000  1
  Pt  Pt4  1  0.00000000  -0.00000000  0.50000000  1
  Pt  Pt5  1  0.00000000  -0.00000000  0.00000000  1
  Cl  Cl6  1  0.77948922  0.77948922  0.49342935  1
  Cl  Cl7  1  0.77948922  0.77948922  0.00657065  1
  Cl  Cl8  1  0.22075084  0.77924916  0.00000000  1
  Cl  Cl9  1  0.77924916  0.22075084  0.50000000  1
  Cl  Cl10  1  0.77924916  0.22075084  0.00000000  1
  Cl  Cl11  1  0.22051078  0.22051078  0.50657065  1
  Cl  Cl12  1  0.22051078  0.22051078  0.99342935  1
  Cl  Cl13  1  0.22075084  0.77924916  0.50000000  1
