# generated using pymatgen
data_MgMn2(FeO2)4
_symmetry_space_group_name_H-M   'P 1'
_cell_length_a   6.55143436
_cell_length_b   6.10313167
_cell_length_c   6.84320286
_cell_angle_alpha   55.32328163
_cell_angle_beta   53.35930659
_cell_angle_gamma   57.37099313
_symmetry_Int_Tables_number   1
_chemical_formula_structural   MgMn2(FeO2)4
_chemical_formula_sum   'Mg1 Mn2 Fe4 O8'
_cell_volume   172.09081269
_cell_formula_units_Z   1
loop_
 _symmetry_equiv_pos_site_id
 _symmetry_equiv_pos_as_xyz
  1  'x, y, z'
loop_
 _atom_site_type_symbol
 _atom_site_label
 _atom_site_symmetry_multiplicity
 _atom_site_fract_x
 _atom_site_fract_y
 _atom_site_fract_z
 _atom_site_occupancy
  Mg  Mg0  1  0.00009306  0.99988074  -0.00002818  1
  Mn  Mn1  1  0.15258684  0.20814584  0.11370231  1
  Mn  Mn2  1  0.84719783  0.79218135  0.88630392  1
  Fe  Fe3  1  0.49975984  0.50033888  0.49984823  1
  Fe  Fe4  1  0.50006402  0.49984163  0.00001573  1
  Fe  Fe5  1  0.00000806  0.49983443  0.50004954  1
  Fe  Fe6  1  0.50001806  0.00005833  0.49994837  1
  O  O7  1  0.72662471  0.75327417  0.70172610  1
  O  O8  1  0.22534126  0.28554859  0.72084787  1
  O  O9  1  0.23499282  0.76671897  0.21022491  1
  O  O10  1  0.74268135  0.30505491  0.19577833  1
  O  O11  1  0.76518288  0.23315655  0.78991493  1
  O  O12  1  0.25730821  0.69490206  0.80423773  1
  O  O13  1  0.27343258  0.24668137  0.29826396  1
  O  O14  1  0.77470548  0.71438418  0.27916125  1
