# generated using pymatgen
data_Na6MgSi2Sn3(PO6)4
_symmetry_space_group_name_H-M   'P 1'
_cell_length_a   9.01408298
_cell_length_b   9.00677827
_cell_length_c   22.24822433
_cell_angle_alpha   90.21593291
_cell_angle_beta   89.96340336
_cell_angle_gamma   120.02393622
_symmetry_Int_Tables_number   1
_chemical_formula_structural   Na6MgSi2Sn3(PO6)4
_chemical_formula_sum   'Na18 Mg3 Si6 Sn9 P12 O72'
_cell_volume   1563.89889976
_cell_formula_units_Z   3
loop_
 _symmetry_equiv_pos_site_id
 _symmetry_equiv_pos_as_xyz
  1  'x, y, z'
loop_
 _atom_site_type_symbol
 _atom_site_label
 _atom_site_symmetry_multiplicity
 _atom_site_fract_x
 _atom_site_fract_y
 _atom_site_fract_z
 _atom_site_occupancy
  Na  Na0  1  0.00110696  0.99456907  0.50032950  1
  Na  Na1  1  0.00091417  0.99652000  0.99796408  1
  Na  Na2  1  0.65061650  0.30270948  0.83307979  1
  Na  Na3  1  0.65068592  0.33171907  0.32351239  1
  Na  Na4  1  0.32836702  0.66709273  0.16302796  1
  Na  Na5  1  0.32629543  0.66588453  0.66523338  1
  Na  Na6  1  0.64064871  0.01241824  0.24334920  1
  Na  Na7  1  0.98882087  0.62563276  0.23841359  1
  Na  Na8  1  0.63268901  0.61692610  0.74243883  1
  Na  Na9  1  0.98984709  0.36557378  0.74784323  1
  Na  Na10  1  0.66597678  0.97038026  0.58675601  1
  Na  Na11  1  0.66785091  0.68849972  0.07917515  1
  Na  Na12  1  0.02418609  0.33689761  0.08390952  1
  Na  Na13  1  0.96870169  0.66881774  0.92082460  1
  Na  Na14  1  0.33516644  0.30409639  0.91868325  1
  Na  Na15  1  0.96293874  0.28320488  0.41202917  1
  Na  Na16  1  0.32837174  0.03143001  0.41024778  1
  Na  Na17  1  0.71346306  0.68474616  0.41709625  1
  Mg  Mg18  1  0.99928319  0.99950006  0.35090269  1
  Mg  Mg19  1  0.65888244  0.33055932  0.68353537  1
  Mg  Mg20  1  0.66316699  0.33503488  0.18321108  1
  Si  Si21  1  0.66786028  0.63061106  0.58663282  1
  Si  Si22  1  0.96522213  0.63078034  0.08669576  1
  Si  Si23  1  0.62581830  0.66723363  0.91690183  1
  Si  Si24  1  0.03913109  0.37346073  0.91623170  1
  Si  Si25  1  0.33623150  0.96294985  0.91541491  1
  Si  Si26  1  0.62919730  0.96594237  0.41821796  1
  Sn  Sn27  1  0.99645281  -0.00029456  0.85360837  1
  Sn  Sn28  1  0.00448175  0.99594535  0.64655615  1
  Sn  Sn29  1  0.00803838  0.00216815  0.15032158  1
  Sn  Sn30  1  0.66733699  0.33235936  0.98194581  1
  Sn  Sn31  1  0.66652229  0.33571937  0.48666192  1
  Sn  Sn32  1  0.33253341  0.67399294  0.01731153  1
  Sn  Sn33  1  0.33515005  0.66284997  0.52158081  1
  Sn  Sn34  1  0.33690310  0.66784659  0.31491938  1
  Sn  Sn35  1  0.33577319  0.67381338  0.81628141  1
  P  P36  1  0.29633281  0.99869185  0.25472518  1
  P  P37  1  0.70363003  0.70493798  0.25229669  1
  P  P38  1  0.00358984  0.29740977  0.25288728  1
  P  P39  1  0.29143596  0.29304244  0.75104385  1
  P  P40  1  0.00469248  0.70540883  0.75038788  1
  P  P41  1  0.70422131  0.99771192  0.74799307  1
  P  P42  1  0.96395869  0.33413079  0.58598208  1
  P  P43  1  0.37122084  0.03971086  0.58253839  1
  P  P44  1  0.66690460  0.03936100  0.08834765  1
  P  P45  1  0.37235338  0.33352616  0.08408581  1
  P  P46  1  0.33508043  0.37395976  0.41696509  1
  P  P47  1  0.04074539  0.66196138  0.41703886  1
  O  O48  1  0.21281285  0.01203236  0.31258450  1
  O  O49  1  0.80920976  0.79115184  0.30873610  1
  O  O50  1  0.98943932  0.19159476  0.30822211  1
  O  O51  1  0.20848599  0.19267759  0.80944063  1
  O  O52  1  0.97819447  0.78846745  0.80777735  1
  O  O53  1  0.82354715  0.02870508  0.80248680  1
  O  O54  1  0.78511095  0.96588094  0.69026872  1
  O  O55  1  0.16829621  0.20535386  0.69684178  1
  O  O56  1  0.03359206  0.82041641  0.69514618  1
  O  O57  1  0.78595591  0.82217336  0.19509290  1
  O  O58  1  0.02760920  0.21655695  0.19336271  1
  O  O59  1  0.17610569  0.96280105  0.19898719  1
  O  O60  1  0.87655586  0.35089267  0.64159034  1
  O  O61  1  0.49586014  0.12977009  0.63324567  1
  O  O62  1  0.64973385  0.52398942  0.64537124  1
  O  O63  1  0.88176842  0.51527166  0.14524043  1
  O  O64  1  0.64541072  0.11664217  0.14590016  1
  O  O65  1  0.48648688  0.35534067  0.13654313  1
  O  O66  1  0.44048022  0.30390998  0.02338505  1
  O  O67  1  0.84395349  0.54855604  0.02587454  1
  O  O68  1  0.69733834  0.15312351  0.03222976  1
  O  O69  1  0.44140385  0.13417228  0.52058340  1
  O  O70  1  0.69250880  0.55126323  0.52181970  1
  O  O71  1  0.85249778  0.29791372  0.52678860  1
  O  O72  1  0.54488633  0.69858862  0.97804406  1
  O  O73  1  0.16190643  0.45395414  0.97561480  1
  O  O74  1  0.28268054  0.83361880  0.97247757  1
  O  O75  1  0.54030971  0.84129026  0.47619367  1
  O  O76  1  0.29173146  0.45073560  0.47183889  1
  O  O77  1  0.15904230  0.69172451  0.47098184  1
  O  O78  1  0.11354363  0.62068931  0.35928324  1
  O  O79  1  0.50266639  0.88654624  0.35842058  1
  O  O80  1  0.37638928  0.49408040  0.36154640  1
  O  O81  1  0.11802343  0.49275393  0.85573945  1
  O  O82  1  0.37794062  0.88893566  0.85508288  1
  O  O83  1  0.50673009  0.62642765  0.85662236  1
  O  O84  1  0.02207777  0.82129118  0.41183077  1
  O  O85  1  0.81795374  0.98687085  0.41285289  1
  O  O86  1  0.18136841  0.19291994  0.40948984  1
  O  O87  1  0.02785018  0.18781013  0.91126176  1
  O  O88  1  0.16450227  0.98183572  0.91000803  1
  O  O89  1  0.82014420  0.82992244  0.91189858  1
  O  O90  1  0.98511345  0.17220060  0.58774517  1
  O  O91  1  0.19263730  0.02419042  0.58751307  1
  O  O92  1  0.83540021  0.83007013  0.58536062  1
  O  O93  1  0.97651971  0.82085833  0.08942641  1
  O  O94  1  0.83545326  0.02529233  0.09001407  1
  O  O95  1  0.18245489  0.18098018  0.08908310  1
  O  O96  1  0.68754322  0.15756795  0.74328509  1
  O  O97  1  0.47062998  0.31657146  0.74581742  1
  O  O98  1  0.84497575  0.52572167  0.74612059  1
  O  O99  1  0.68490180  0.52824499  0.24467006  1
  O  O100  1  0.84245241  0.31491507  0.24887702  1
  O  O101  1  0.47721969  0.14938689  0.24697527  1
  O  O102  1  0.64124486  0.49372944  0.92166227  1
  O  O103  1  0.85370318  0.36161702  0.92256549  1
  O  O104  1  0.49830498  0.15526528  0.92375680  1
  O  O105  1  0.64423540  0.15748583  0.42316140  1
  O  O106  1  0.50279335  0.36463734  0.42271208  1
  O  O107  1  0.86014104  0.49832864  0.42289620  1
  O  O108  1  0.35814172  0.50044871  0.08055005  1
  O  O109  1  0.15345338  0.64266021  0.08033417  1
  O  O110  1  0.51490347  0.85239515  0.08121229  1
  O  O111  1  0.34760351  0.85593211  0.57820462  1
  O  O112  1  0.49901124  0.65957371  0.58279418  1
  O  O113  1  0.14116214  0.49790845  0.57890104  1
  O  O114  1  0.30508583  0.82561896  0.25329391  1
  O  O115  1  0.52427175  0.69685671  0.25373145  1
  O  O116  1  0.16493284  0.48398368  0.25397493  1
  O  O117  1  0.30320085  0.47433708  0.75232000  1
  O  O118  1  0.16708460  0.68468261  0.75199457  1
  O  O119  1  0.53058744  0.82517657  0.75253749  1
