# generated using pymatgen
data_NaNb2In2P5SO24
_symmetry_space_group_name_H-M   'P 1'
_cell_length_a   8.85882744
_cell_length_b   8.85008360
_cell_length_c   22.99830704
_cell_angle_alpha   89.82654453
_cell_angle_beta   90.10559804
_cell_angle_gamma   119.92411747
_symmetry_Int_Tables_number   1
_chemical_formula_structural   NaNb2In2P5SO24
_chemical_formula_sum   'Na3 Nb6 In6 P15 S3 O72'
_cell_volume   1562.71458251
_cell_formula_units_Z   3
loop_
 _symmetry_equiv_pos_site_id
 _symmetry_equiv_pos_as_xyz
  1  'x, y, z'
loop_
 _atom_site_type_symbol
 _atom_site_label
 _atom_site_symmetry_multiplicity
 _atom_site_fract_x
 _atom_site_fract_y
 _atom_site_fract_z
 _atom_site_occupancy
  Na  Na0  1  0.00077668  0.99996623  0.00470797  1
  Na  Na1  1  0.66637915  0.33325096  0.83308775  1
  Na  Na2  1  0.66818097  0.33296216  0.33850240  1
  Nb  Nb3  1  0.00722540  0.00901288  0.35936540  1
  Nb  Nb4  1  0.99940407  0.00011951  0.85440545  1
  Nb  Nb5  1  0.66539863  0.32597197  0.18683858  1
  Nb  Nb6  1  0.33159758  0.66573842  0.02578508  1
  Nb  Nb7  1  0.33948132  0.66790377  0.51937577  1
  Nb  Nb8  1  0.33402308  0.66624727  0.81018941  1
  In  In9  1  0.99459406  0.99418581  0.64826595  1
  In  In10  1  0.00456880  0.00328521  0.14842105  1
  In  In11  1  0.66468337  0.33896587  0.68748380  1
  In  In12  1  0.66739942  0.33406257  0.97775283  1
  In  In13  1  0.66860384  0.33803475  0.48160214  1
  In  In14  1  0.32903528  0.66748351  0.31266297  1
  P  P15  1  0.28902404  0.00232670  0.25050005  1
  P  P16  1  0.99881756  0.28744412  0.25036353  1
  P  P17  1  0.28734919  0.28704977  0.75060403  1
  P  P18  1  -0.00016529  0.71065934  0.75148921  1
  P  P19  1  0.71072091  0.00260666  0.75100884  1
  P  P20  1  0.66836562  0.62661263  0.58313086  1
  P  P21  1  0.95240121  0.62243741  0.08238130  1
  P  P22  1  0.66898309  0.04400898  0.08162438  1
  P  P23  1  0.37846049  0.33115797  0.08170664  1
  P  P24  1  0.61797578  0.66848035  0.91656770  1
  P  P25  1  0.05013523  0.38200279  0.91632087  1
  P  P26  1  0.33213756  0.94989960  0.91614159  1
  P  P27  1  0.62257110  0.95748287  0.41515933  1
  P  P28  1  0.33824207  0.38232689  0.41534396  1
  P  P29  1  0.04329144  0.66533386  0.41588100  1
  S  S30  1  0.71173088  0.70777106  0.25060795  1
  S  S31  1  0.96390595  0.33618371  0.58274495  1
  S  S32  1  0.37341554  0.03736947  0.58270851  1
  O  O33  1  0.19838053  0.03353339  0.30453433  1
  O  O34  1  0.82474172  0.78996848  0.30237036  1
  O  O35  1  0.96559750  0.16586508  0.30479273  1
  O  O36  1  0.18864876  0.16899247  0.80511306  1
  O  O37  1  0.97844264  0.80894955  0.80546764  1
  O  O38  1  0.82924348  0.02277586  0.80543579  1
  O  O39  1  0.77883968  0.96268670  0.69666564  1
  O  O40  1  0.17958558  0.21695789  0.69598989  1
  O  O41  1  0.04094313  0.81868823  0.69680407  1
  O  O42  1  0.78484270  0.80731752  0.19708425  1
  O  O43  1  0.01977921  0.20820066  0.19525492  1
  O  O44  1  0.18516386  0.97333741  0.19557472  1
  O  O45  1  0.89200822  0.37316086  0.63530703  1
  O  O46  1  0.48337779  0.10649076  0.63525963  1
  O  O47  1  0.62039922  0.51144739  0.63779178  1
  O  O48  1  0.86343925  0.50263786  0.13707468  1
  O  O49  1  0.63895113  0.13350259  0.13690687  1
  O  O50  1  0.49600835  0.35961010  0.13662086  1
  O  O51  1  0.45601093  0.30264057  0.02709456  1
  O  O52  1  0.84757037  0.54624679  0.02737425  1
  O  O53  1  0.70003198  0.15307360  0.02755956  1
  O  O54  1  0.45232930  0.14327870  0.53051615  1
  O  O55  1  0.69588080  0.54577927  0.52897389  1
  O  O56  1  0.85510662  0.30399360  0.53092072  1
  O  O57  1  0.53186203  0.69519682  0.97125930  1
  O  O58  1  0.16284386  0.46789253  0.97127602  1
  O  O59  1  0.30492957  0.83681544  0.97118743  1
  O  O60  1  0.53296499  0.83849249  0.46990630  1
  O  O61  1  0.30686312  0.46876792  0.46981483  1
  O  O62  1  0.16126068  0.69569676  0.47019716  1
  O  O63  1  0.11851885  0.63471733  0.36142766  1
  O  O64  1  0.51546174  0.88001299  0.36116326  1
  O  O65  1  0.36749921  0.48821360  0.36098416  1
  O  O66  1  0.14416101  0.49314531  0.86242162  1
  O  O67  1  0.34904227  0.85567160  0.86238817  1
  O  O68  1  0.50692070  0.65111327  0.86245302  1
  O  O69  1  0.03133988  0.83685771  0.40612385  1
  O  O70  1  0.80386471  0.96672346  0.40640563  1
  O  O71  1  0.16391539  0.19986875  0.40812791  1
  O  O72  1  0.03605119  0.19883731  0.90863512  1
  O  O73  1  0.16309118  0.96424321  0.90832749  1
  O  O74  1  0.80091818  0.83721061  0.90853583  1
  O  O75  1  0.99243496  0.18735789  0.58966146  1
  O  O76  1  0.19873918  0.01465380  0.58955032  1
  O  O77  1  0.82057925  0.81128608  0.58973284  1
  O  O78  1  0.98423055  0.80636605  0.09041111  1
  O  O79  1  0.81896528  0.00981501  0.09055227  1
  O  O80  1  0.19329501  0.18061165  0.08843339  1
  O  O81  1  0.69135405  0.16497244  0.74881999  1
  O  O82  1  0.46790851  0.30424184  0.75035937  1
  O  O83  1  0.83816648  0.52916859  0.75033784  1
  O  O84  1  0.69863967  0.53017123  0.24404552  1
  O  O85  1  0.82557407  0.30077750  0.24236919  1
  O  O86  1  0.47354522  0.17686988  0.24215937  1
  O  O87  1  0.63955980  0.50818681  0.91818214  1
  O  O88  1  0.86867187  0.36075982  0.91833599  1
  O  O89  1  0.49220505  0.13133116  0.91831815  1
  O  O90  1  0.65393988  0.14099566  0.42495776  1
  O  O91  1  0.48607588  0.34376582  0.42301755  1
  O  O92  1  0.85890623  0.51224844  0.42304132  1
  O  O93  1  0.36814435  0.50381023  0.07347965  1
  O  O94  1  0.13532130  0.63322828  0.07371065  1
  O  O95  1  0.49620650  0.86366430  0.07373080  1
  O  O96  1  0.35496183  0.85996697  0.57225792  1
  O  O97  1  0.49932840  0.64369404  0.56926452  1
  O  O98  1  0.13893671  0.49690414  0.57185611  1
  O  O99  1  0.32566991  0.85523512  0.25923512  1
  O  O100  1  0.53683493  0.68126040  0.25803386  1
  O  O101  1  0.15062764  0.46804668  0.25893757  1
  O  O102  1  0.30703695  0.46912982  0.76417428  1
  O  O103  1  0.16236664  0.69167384  0.76505539  1
  O  O104  1  0.52956260  0.83951499  0.76479119  1
