# generated using pymatgen
data_Na3Ca3Al(SO4)6
_symmetry_space_group_name_H-M   'P 1'
_cell_length_a   9.04985780
_cell_length_b   9.04649719
_cell_length_c   23.24762217
_cell_angle_alpha   89.95243755
_cell_angle_beta   90.17759254
_cell_angle_gamma   120.24980777
_symmetry_Int_Tables_number   1
_chemical_formula_structural   Na3Ca3Al(SO4)6
_chemical_formula_sum   'Na9 Ca9 Al3 S18 O72'
_cell_volume   1644.10823532
_cell_formula_units_Z   3
loop_
 _symmetry_equiv_pos_site_id
 _symmetry_equiv_pos_as_xyz
  1  'x, y, z'
loop_
 _atom_site_type_symbol
 _atom_site_label
 _atom_site_symmetry_multiplicity
 _atom_site_fract_x
 _atom_site_fract_y
 _atom_site_fract_z
 _atom_site_occupancy
  Na  Na0  1  0.64030454  0.00014905  0.24962000  1
  Na  Na1  1  0.35830603  0.35747609  0.24943549  1
  Na  Na2  1  0.04325192  0.70370591  0.58644152  1
  Na  Na3  1  0.99943700  0.01528700  0.50013608  1
  Na  Na4  1  -0.00017679  0.99998127  0.99610631  1
  Na  Na5  1  0.66638445  0.33272322  0.83616538  1
  Na  Na6  1  0.68350105  0.34994375  0.34280374  1
  Na  Na7  1  0.31288670  0.66610899  0.15624817  1
  Na  Na8  1  0.35341411  0.66606706  0.67931393  1
  Ca  Ca9  1  0.00020813  0.99329973  0.35555833  1
  Ca  Ca10  1  0.00023067  0.99872173  0.85207189  1
  Ca  Ca11  1  0.99794690  0.01290459  0.65535445  1
  Ca  Ca12  1  0.99942085  0.99384213  0.13927456  1
  Ca  Ca13  1  0.66089148  0.32750698  0.69070393  1
  Ca  Ca14  1  0.67618298  0.34301097  0.18001856  1
  Ca  Ca15  1  0.33585723  0.66653931  0.01500847  1
  Ca  Ca16  1  0.34115721  0.66550721  0.51583410  1
  Ca  Ca17  1  0.32532954  0.66674866  0.32850800  1
  Al  Al18  1  0.66585113  0.33296994  0.97960162  1
  Al  Al19  1  0.66181667  0.32882884  0.48528867  1
  Al  Al20  1  0.33155825  0.66618718  0.82193378  1
  S  S21  1  0.30234388  0.99787839  0.24948599  1
  S  S22  1  0.69263000  0.69908720  0.25073094  1
  S  S23  1  0.00397632  0.29855750  0.25032291  1
  S  S24  1  0.30303017  0.32713847  0.75677468  1
  S  S25  1  0.02370256  0.69709321  0.75311490  1
  S  S26  1  0.67366362  0.97651260  0.75670642  1
  S  S27  1  0.94466503  0.32762212  0.57828698  1
  S  S28  1  0.37484577  0.04860071  0.57815296  1
  S  S29  1  0.67354551  0.61779149  0.57915118  1
  S  S30  1  0.95132342  0.62185113  0.07373926  1
  S  S31  1  0.67019036  0.05063560  0.07777296  1
  S  S32  1  0.38004507  0.32985638  0.07735270  1
  S  S33  1  0.61833345  0.64373919  0.91635230  1
  S  S34  1  0.02570423  0.38137667  0.91605666  1
  S  S35  1  0.35606560  0.97369111  0.91660809  1
  S  S36  1  0.64292391  0.99687717  0.41920757  1
  S  S37  1  0.35304399  0.35684524  0.41925295  1
  S  S38  1  0.00404810  0.64691187  0.42533095  1
  O  O39  1  0.21662194  0.01322830  0.30132367  1
  O  O40  1  0.79119219  0.78288052  0.30331933  1
  O  O41  1  0.98707844  0.19538959  0.30203453  1
  O  O42  1  0.21556864  0.21177135  0.80476380  1
  O  O43  1  0.99820368  0.79243994  0.79915810  1
  O  O44  1  0.78981334  0.00514414  0.80467455  1
  O  O45  1  0.74027745  0.94777793  0.70189413  1
  O  O46  1  0.20647682  0.26001475  0.70193872  1
  O  O47  1  0.05092185  0.78719968  0.69658439  1
  O  O48  1  0.77848641  0.79983765  0.19905976  1
  O  O49  1  0.02125000  0.21452985  0.19819444  1
  O  O50  1  0.20546666  0.98489118  0.19709229  1
  O  O51  1  0.86689262  0.34356106  0.63118576  1
  O  O52  1  0.46580342  0.12707479  0.63132865  1
  O  O53  1  0.66310254  0.52899394  0.63275997  1
  O  O54  1  0.87730545  0.54176847  0.12950284  1
  O  O55  1  0.66501617  0.12160107  0.13490588  1
  O  O56  1  0.45618000  0.33490769  0.13453603  1
  O  O57  1  0.49098702  0.33076011  0.02944097  1
  O  O58  1  0.84402837  0.51435410  0.02450485  1
  O  O59  1  0.67111600  0.16162645  0.02969706  1
  O  O60  1  0.47409649  0.15233896  0.52666478  1
  O  O61  1  0.67908921  0.51649941  0.52834309  1
  O  O62  1  0.83780413  0.31754531  0.52683928  1
  O  O63  1  0.55080550  0.67288416  0.96972933  1
  O  O64  1  0.12368473  0.45069062  0.96944204  1
  O  O65  1  0.32778950  0.87611207  0.96971337  1
  O  O66  1  0.54664106  0.87785821  0.46553580  1
  O  O67  1  0.32974342  0.45219653  0.46571947  1
  O  O68  1  0.11125732  0.67105157  0.47601110  1
  O  O69  1  0.07965010  0.62126637  0.37241074  1
  O  O70  1  0.55349730  0.93171947  0.36286521  1
  O  O71  1  0.37833279  0.44702621  0.36315674  1
  O  O72  1  0.12116560  0.49766347  0.86608655  1
  O  O73  1  0.37696813  0.88003526  0.86638345  1
  O  O74  1  0.50276727  0.62378848  0.86645672  1
  O  O75  1  0.97973160  0.79566038  0.42006904  1
  O  O76  1  0.81758505  0.02325951  0.41755472  1
  O  O77  1  0.20358266  0.18234989  0.41744411  1
  O  O78  1  -0.00320558  0.20781850  0.90766642  1
  O  O79  1  0.21151836  0.00231402  0.90796910  1
  O  O80  1  0.79276092  0.78809840  0.90797814  1
  O  O81  1  0.96160089  0.17359216  0.57820657  1
  O  O82  1  0.20240472  0.03222292  0.57714553  1
  O  O83  1  0.83767095  0.78622814  0.57783093  1
  O  O84  1  0.96107299  0.78989684  0.07002762  1
  O  O85  1  0.82802636  0.04050955  0.07337656  1
  O  O86  1  0.21147960  0.17133031  0.07250525  1
  O  O87  1  0.64571051  0.12347400  0.75203611  1
  O  O88  1  0.47816384  0.35550309  0.75196065  1
  O  O89  1  0.87516526  0.52171216  0.75036837  1
  O  O90  1  0.66381470  0.52193371  0.24883628  1
  O  O91  1  0.84678948  0.31217552  0.24803280  1
  O  O92  1  0.47647969  0.15736558  0.24819496  1
  O  O93  1  0.62534547  0.47996333  0.92173181  1
  O  O94  1  0.85429458  0.37224112  0.92109955  1
  O  O95  1  0.51942819  0.14632867  0.92243359  1
  O  O96  1  0.65360388  0.16618963  0.42883995  1
  O  O97  1  0.51102199  0.34557977  0.42930143  1
  O  O98  1  0.83188432  0.48846582  0.43149158  1
  O  O99  1  0.36141425  0.48283428  0.07529233  1
  O  O100  1  0.12389334  0.64261641  0.07282949  1
  O  O101  1  0.51635882  0.87865078  0.07554501  1
  O  O102  1  0.34928044  0.87279585  0.57446063  1
  O  O103  1  0.52603245  0.64342731  0.57495580  1
  O  O104  1  0.11554184  0.48551256  0.57381887  1
  O  O105  1  0.32890750  0.84823826  0.25314474  1
  O  O106  1  0.52006269  0.68573249  0.25387442  1
  O  O107  1  0.16139554  0.47046095  0.25454526  1
  O  O108  1  0.31349511  0.49669097  0.76716720  1
  O  O109  1  0.18269628  0.68798820  0.76527087  1
  O  O110  1  0.50403570  0.81676763  0.76724258  1
