# generated using pymatgen
data_Ca2Se3O8
_symmetry_space_group_name_H-M   'P 1'
_cell_length_a   5.52447697
_cell_length_b   8.23968812
_cell_length_c   8.72755108
_cell_angle_alpha   92.60643704
_cell_angle_beta   95.99909062
_cell_angle_gamma   97.21121254
_symmetry_Int_Tables_number   1
_chemical_formula_structural   Ca2Se3O8
_chemical_formula_sum   'Ca4 Se6 O16'
_cell_volume   391.28515071
_cell_formula_units_Z   2
loop_
 _symmetry_equiv_pos_site_id
 _symmetry_equiv_pos_as_xyz
  1  'x, y, z'
loop_
 _atom_site_type_symbol
 _atom_site_label
 _atom_site_symmetry_multiplicity
 _atom_site_fract_x
 _atom_site_fract_y
 _atom_site_fract_z
 _atom_site_occupancy
  Ca  Ca0  1  0.29180770  0.16061923  0.96134078  1
  Ca  Ca1  1  0.70819035  0.83938258  0.03865853  1
  Ca  Ca2  1  0.24207379  0.95575934  0.34737197  1
  Ca  Ca3  1  0.75792802  0.04424087  0.65262699  1
  Se  Se4  1  0.82335397  0.19161265  0.23885556  1
  Se  Se5  1  0.17664502  0.80838850  0.76114416  1
  Se  Se6  1  0.22627021  0.55626929  0.18311814  1
  Se  Se7  1  0.77373034  0.44372462  0.81688874  1
  Se  Se8  1  0.27425976  0.32377407  0.57769810  1
  Se  Se9  1  0.72574512  0.67622680  0.42229948  1
  O  O10  1  0.54849017  0.81443325  0.47939836  1
  O  O11  1  0.45151210  0.18556548  0.52060062  1
  O  O12  1  0.86786985  0.76603160  0.28060136  1
  O  O13  1  0.13213324  0.23397134  0.71939740  1
  O  O14  1  0.49509249  0.47842681  0.68780649  1
  O  O15  1  0.50491443  0.52157265  0.31219118  1
  O  O16  1  0.68252257  0.25359070  0.86942678  1
  O  O17  1  0.31747026  0.74640641  0.13057785  1
  O  O18  1  0.74808869  0.57264012  0.96300830  1
  O  O19  1  0.25190406  0.42735973  0.03699154  1
  O  O20  1  0.08732164  0.87109273  0.58384778  1
  O  O21  1  0.91267918  0.12890762  0.41615162  1
  O  O22  1  0.45230004  0.92640656  0.82090619  1
  O  O23  1  0.54769959  0.07359447  0.17909367  1
  O  O24  1  0.99098120  0.91719109  0.86037077  1
  O  O25  1  0.00901822  0.08281050  0.13962864  1
