# generated using pymatgen
data_Na5Ta2Al2Si3(PO8)3
_symmetry_space_group_name_H-M   'P 1'
_cell_length_a   8.79051386
_cell_length_b   8.78574609
_cell_length_c   22.17106314
_cell_angle_alpha   89.59204398
_cell_angle_beta   90.40055478
_cell_angle_gamma   119.88623634
_symmetry_Int_Tables_number   1
_chemical_formula_structural   Na5Ta2Al2Si3(PO8)3
_chemical_formula_sum   'Na15 Ta6 Al6 Si9 P9 O72'
_cell_volume   1484.54150619
_cell_formula_units_Z   3
loop_
 _symmetry_equiv_pos_site_id
 _symmetry_equiv_pos_as_xyz
  1  'x, y, z'
loop_
 _atom_site_type_symbol
 _atom_site_label
 _atom_site_symmetry_multiplicity
 _atom_site_fract_x
 _atom_site_fract_y
 _atom_site_fract_z
 _atom_site_occupancy
  Na  Na0  1  0.99237185  0.62726947  0.24750165  1
  Na  Na1  1  0.37191802  0.00804194  0.74770518  1
  Na  Na2  1  0.03568613  0.69780213  0.58025005  1
  Na  Na3  1  0.65335893  0.95928550  0.58159917  1
  Na  Na4  1  0.30164105  0.96408827  0.08022600  1
  Na  Na5  1  0.03878128  0.34558907  0.08260378  1
  Na  Na6  1  0.97331574  0.67324289  0.91637566  1
  Na  Na7  1  0.96861736  0.29579787  0.41270403  1
  Na  Na8  1  0.33029249  0.02666114  0.41593302  1
  Na  Na9  1  0.99621802  0.99367797  0.49504834  1
  Na  Na10  1  0.99690928  0.00096739  0.99411174  1
  Na  Na11  1  0.66822542  0.32976428  0.82839471  1
  Na  Na12  1  0.66337912  0.33118989  0.32752435  1
  Na  Na13  1  0.34474927  0.66211528  0.16273980  1
  Na  Na14  1  0.33713190  0.65405397  0.66237359  1
  Ta  Ta15  1  0.99760054  0.99988251  0.64648285  1
  Ta  Ta16  1  -0.00002195  0.00164875  0.14596944  1
  Ta  Ta17  1  0.65734090  0.32935884  0.97854543  1
  Ta  Ta18  1  0.66669635  0.33963916  0.47920307  1
  Ta  Ta19  1  0.33296239  0.66613380  0.31201287  1
  Ta  Ta20  1  0.33999159  0.67072420  0.81186504  1
  Al  Al21  1  0.98547701  0.99102318  0.35295285  1
  Al  Al22  1  0.00371403  0.01004827  0.85331180  1
  Al  Al23  1  0.66617641  0.33146711  0.68624649  1
  Al  Al24  1  0.66889422  0.33357346  0.18589537  1
  Al  Al25  1  0.33065644  0.66429855  0.01932595  1
  Al  Al26  1  0.34078502  0.67463172  0.51973833  1
  Si  Si27  1  0.98780707  0.28238082  0.25250805  1
  Si  Si28  1  0.72108005  0.01462835  0.75286093  1
  Si  Si29  1  0.37957357  0.04377010  0.58579765  1
  Si  Si30  1  0.65106855  0.61141731  0.58726380  1
  Si  Si31  1  0.95567844  0.61856550  0.08473875  1
  Si  Si32  1  0.38848155  0.34912135  0.08687937  1
  Si  Si33  1  0.32578248  0.95428640  0.91810793  1
  Si  Si34  1  0.62875897  0.94992657  0.41887640  1
  Si  Si35  1  0.04686523  0.67589305  0.41823471  1
  P  P36  1  0.29648224  0.01251470  0.25225994  1
  P  P37  1  0.71222661  0.70859009  0.25143235  1
  P  P38  1  0.28994621  0.28663530  0.75217549  1
  P  P39  1  0.98784635  0.70249129  0.75251423  1
  P  P40  1  0.95930523  0.34039137  0.58498845  1
  P  P41  1  0.65973839  0.04163172  0.08495416  1
  P  P42  1  0.62310770  0.67519048  0.91916570  1
  P  P43  1  0.04886879  0.37297929  0.91801122  1
  P  P44  1  0.33057132  0.38097138  0.41878771  1
  O  O45  1  0.20401044  0.02852469  0.30805735  1
  O  O46  1  0.83309687  0.79638785  0.30583296  1
  O  O47  1  0.97377222  0.16710761  0.31110561  1
  O  O48  1  0.20240204  0.16555667  0.80642967  1
  O  O49  1  0.97148652  0.79453856  0.80827538  1
  O  O50  1  0.84089225  0.02882150  0.80919981  1
  O  O51  1  0.79937451  0.97237329  0.69084719  1
  O  O52  1  0.17205800  0.20095040  0.69480887  1
  O  O53  1  0.03399901  0.82772015  0.69515575  1
  O  O54  1  0.79900314  0.82735109  0.19445537  1
  O  O55  1  0.02625632  0.19815299  0.19134427  1
  O  O56  1  0.17195229  0.96755568  0.19487096  1
  O  O57  1  0.87140428  0.36891948  0.63889893  1
  O  O58  1  0.50406006  0.13186667  0.64350649  1
  O  O59  1  0.64058779  0.49502430  0.64367561  1
  O  O60  1  0.86872000  0.49583788  0.14313914  1
  O  O61  1  0.62984163  0.12701099  0.13948776  1
  O  O62  1  0.50497795  0.36099129  0.14346338  1
  O  O63  1  0.46590970  0.29423395  0.02680067  1
  O  O64  1  0.83598810  0.53249960  0.02323582  1
  O  O65  1  0.70292671  0.16434098  0.02806425  1
  O  O66  1  0.46612902  0.16436666  0.52408904  1
  O  O67  1  0.70592069  0.53542996  0.52689031  1
  O  O68  1  0.84011032  0.29768191  0.52668994  1
  O  O69  1  0.53038486  0.69481200  0.97349544  1
  O  O70  1  0.15651785  0.45882270  0.97502588  1
  O  O71  1  0.29710290  0.83043587  0.97626071  1
  O  O72  1  0.53556646  0.83741230  0.47825641  1
  O  O73  1  0.29827953  0.46685038  0.47286174  1
  O  O74  1  0.16707192  0.70021823  0.47683990  1
  O  O75  1  0.13147807  0.63057905  0.35816951  1
  O  O76  1  0.49608570  0.86361398  0.35996120  1
  O  O77  1  0.36529517  0.49605594  0.36099666  1
  O  O78  1  0.13405890  0.49648046  0.86227788  1
  O  O79  1  0.35974553  0.86256916  0.85794773  1
  O  O80  1  0.50498393  0.63656642  0.86157908  1
  O  O81  1  0.03466501  0.85109516  0.40663034  1
  O  O82  1  0.82602622  0.98525056  0.41024370  1
  O  O83  1  0.17306993  0.19552912  0.41062491  1
  O  O84  1  0.02677749  0.19042945  0.90959155  1
  O  O85  1  0.15073652  0.96952833  0.90714835  1
  O  O86  1  0.80879772  0.83017911  0.91047921  1
  O  O87  1  0.97101263  0.16844492  0.58990528  1
  O  O88  1  0.18122003  0.02029012  0.59013636  1
  O  O89  1  0.83456192  0.81213244  0.59131258  1
  O  O90  1  0.98025244  0.81769801  0.09008845  1
  O  O91  1  0.83118100  0.02890462  0.08987041  1
  O  O92  1  0.18810835  0.16569154  0.09104384  1
  O  O93  1  0.68403359  0.17601959  0.74326466  1
  O  O94  1  0.47065864  0.30507086  0.74403208  1
  O  O95  1  0.83112947  0.52257558  0.74257130  1
  O  O96  1  0.69529911  0.52826643  0.24382065  1
  O  O97  1  0.82294489  0.31465959  0.24330749  1
  O  O98  1  0.47648173  0.16848655  0.24257908  1
  O  O99  1  0.64443806  0.50628706  0.92288596  1
  O  O100  1  0.86515647  0.36338176  0.92248675  1
  O  O101  1  0.50663605  0.14712666  0.92151402  1
  O  O102  1  0.64316191  0.14769754  0.42293819  1
  O  O103  1  0.49706372  0.35957690  0.42240410  1
  O  O104  1  0.85567045  0.49289273  0.42203983  1
  O  O105  1  0.35202011  0.50870191  0.07428247  1
  O  O106  1  0.15273695  0.64659962  0.07634052  1
  O  O107  1  0.49944854  0.86078801  0.07511319  1
  O  O108  1  0.35078592  0.84659746  0.57783457  1
  O  O109  1  0.48866221  0.64420051  0.57637150  1
  O  O110  1  0.13977756  0.50071799  0.57536048  1
  O  O111  1  0.30429180  0.83607201  0.25586793  1
  O  O112  1  0.52972489  0.69470808  0.25630238  1
  O  O113  1  0.16781906  0.48278383  0.25562654  1
  O  O114  1  0.30310054  0.46917806  0.75739031  1
  O  O115  1  0.16253136  0.69170264  0.75691786  1
  O  O116  1  0.51917642  0.83244587  0.75681213  1
