# generated using pymatgen
data_K3BS3
_symmetry_space_group_name_H-M   'P 1'
_cell_length_a   6.21693733
_cell_length_b   10.18748977
_cell_length_c   12.62533069
_cell_angle_alpha   67.99708332
_cell_angle_beta   90.00000000
_cell_angle_gamma   90.00000000
_symmetry_Int_Tables_number   1
_chemical_formula_structural   K3BS3
_chemical_formula_sum   'K12 B4 S12'
_cell_volume   741.38426624
_cell_formula_units_Z   4
loop_
 _symmetry_equiv_pos_site_id
 _symmetry_equiv_pos_as_xyz
  1  'x, y, z'
loop_
 _atom_site_type_symbol
 _atom_site_label
 _atom_site_symmetry_multiplicity
 _atom_site_fract_x
 _atom_site_fract_y
 _atom_site_fract_z
 _atom_site_occupancy
  K  K0  1  0.72556686  0.46809417  0.40796782  1
  K  K1  1  0.22556686  0.53190583  0.09203218  1
  K  K2  1  0.27443314  0.53190583  0.59203218  1
  K  K3  1  0.77443314  0.46809417  0.90796782  1
  K  K4  1  0.83258666  0.76406938  0.11087660  1
  K  K5  1  0.33258666  0.23593062  0.38912340  1
  K  K6  1  0.16741334  0.23593062  0.88912340  1
  K  K7  1  0.66741334  0.76406938  0.61087660  1
  K  K8  1  0.55713289  0.09971660  0.14967479  1
  K  K9  1  0.05713289  0.90028340  0.35032521  1
  K  K10  1  0.44286711  0.90028340  0.85032521  1
  K  K11  1  0.94286711  0.09971660  0.64967479  1
  B  B12  1  0.87199163  0.26861645  0.24041031  1
  B  B13  1  0.37199163  0.73138355  0.25958969  1
  B  B14  1  0.12800837  0.73138355  0.75958969  1
  B  B15  1  0.62800837  0.26861645  0.74041031  1
  S  S16  1  0.70265152  0.42308938  0.16830833  1
  S  S17  1  0.20265152  0.57691062  0.33169167  1
  S  S18  1  0.29734848  0.57691062  0.83169167  1
  S  S19  1  0.79734848  0.42308938  0.66830833  1
  S  S20  1  0.82882990  0.16170643  0.39169412  1
  S  S21  1  0.32882990  0.83829357  0.10830588  1
  S  S22  1  0.17117010  0.83829357  0.60830588  1
  S  S23  1  0.67117010  0.16170643  0.89169412  1
  S  S24  1  0.42385498  0.21295075  0.66045605  1
  S  S25  1  0.92385498  0.78704925  0.83954395  1
  S  S26  1  0.57614502  0.78704925  0.33954395  1
  S  S27  1  0.07614502  0.21295075  0.16045605  1
