# generated using pymatgen
data_RbMgCl3
_symmetry_space_group_name_H-M   'P 1'
_cell_length_a   7.09539857
_cell_length_b   7.09539909
_cell_length_c   11.86949791
_cell_angle_alpha   90.00000000
_cell_angle_beta   90.00000000
_cell_angle_gamma   120.00000229
_symmetry_Int_Tables_number   1
_chemical_formula_structural   RbMgCl3
_chemical_formula_sum   'Rb4 Mg4 Cl12'
_cell_volume   517.50743545
_cell_formula_units_Z   4
loop_
 _symmetry_equiv_pos_site_id
 _symmetry_equiv_pos_as_xyz
  1  'x, y, z'
loop_
 _atom_site_type_symbol
 _atom_site_label
 _atom_site_symmetry_multiplicity
 _atom_site_fract_x
 _atom_site_fract_y
 _atom_site_fract_z
 _atom_site_occupancy
  Rb  Rb0  1  0.00000000  0.00000000  -0.00000000  1
  Rb  Rb1  1  0.00000000  0.00000000  0.50000000  1
  Rb  Rb2  1  0.33333300  0.66666700  0.75000000  1
  Rb  Rb3  1  0.66666700  0.33333300  0.25000000  1
  Mg  Mg4  1  0.33333300  0.66666700  0.11820975  1
  Mg  Mg5  1  0.66666700  0.33333300  0.61820975  1
  Mg  Mg6  1  0.66666700  0.33333300  0.88179025  1
  Mg  Mg7  1  0.33333300  0.66666700  0.38179025  1
  Cl  Cl8  1  0.50000000  0.00000000  -0.00000000  1
  Cl  Cl9  1  0.50000000  0.50000000  0.50000000  1
  Cl  Cl10  1  0.00000000  0.50000000  0.50000000  1
  Cl  Cl11  1  0.00000000  0.50000000  -0.00000000  1
  Cl  Cl12  1  0.50000000  0.50000000  -0.00000000  1
  Cl  Cl13  1  0.50000000  0.00000000  0.50000000  1
  Cl  Cl14  1  0.17406579  0.34813358  0.25000000  1
  Cl  Cl15  1  0.82593421  0.17406579  0.75000000  1
  Cl  Cl16  1  0.34813358  0.17406579  0.75000000  1
  Cl  Cl17  1  0.65186642  0.82593421  0.25000000  1
  Cl  Cl18  1  0.17406579  0.82593421  0.25000000  1
  Cl  Cl19  1  0.82593421  0.65186642  0.75000000  1
