# generated using pymatgen
data_Na2Nb4In4Si5S7O48
_symmetry_space_group_name_H-M   'P 1'
_cell_length_a   17.86608511
_cell_length_b   8.93366411
_cell_length_c   23.21447228
_cell_angle_alpha   89.99457077
_cell_angle_beta   89.89302661
_cell_angle_gamma   120.08254870
_symmetry_Int_Tables_number   1
_chemical_formula_structural   Na2Nb4In4Si5S7O48
_chemical_formula_sum   'Na6 Nb12 In12 Si15 S21 O144'
_cell_volume   3206.16262168
_cell_formula_units_Z   3
loop_
 _symmetry_equiv_pos_site_id
 _symmetry_equiv_pos_as_xyz
  1  'x, y, z'
loop_
 _atom_site_type_symbol
 _atom_site_label
 _atom_site_symmetry_multiplicity
 _atom_site_fract_x
 _atom_site_fract_y
 _atom_site_fract_z
 _atom_site_occupancy
  Na  Na0  1  0.00119900  0.99134243  0.49673223  1
  Na  Na1  1  0.49733411  0.00613229  0.99499110  1
  Na  Na2  1  0.33305270  0.31872822  0.84399996  1
  Na  Na3  1  0.83296748  0.33747244  0.83781163  1
  Na  Na4  1  0.32958777  0.32441648  0.33380035  1
  Na  Na5  1  0.84292276  0.34817828  0.33663618  1
  Nb  Nb6  1  0.50362428  0.01479552  0.35110187  1
  Nb  Nb7  1  0.00919733  0.99187889  0.85493775  1
  Nb  Nb8  1  0.50467910  0.01120169  0.64071180  1
  Nb  Nb9  1  0.00629270  0.00185895  0.14004783  1
  Nb  Nb10  1  0.33378688  0.34778451  0.68744330  1
  Nb  Nb11  1  0.83021798  0.32826582  0.69183385  1
  Nb  Nb12  1  0.33040513  0.32826678  0.18828046  1
  Nb  Nb13  1  0.83284429  0.32028231  0.18550030  1
  Nb  Nb14  1  0.16088400  0.66540328  0.02373717  1
  Nb  Nb15  1  0.66622486  0.66283239  0.02192644  1
  Nb  Nb16  1  0.16572023  0.66933599  0.52277646  1
  Nb  Nb17  1  0.66345775  0.66904761  0.52638261  1
  In  In18  1  0.00647745  0.98898957  0.35428772  1
  In  In19  1  0.50357071  0.02116619  0.85514097  1
  In  In20  1  0.00367292  0.00807428  0.65511455  1
  In  In21  1  0.50276061  0.00103171  0.15174498  1
  In  In22  1  0.32856789  0.32335887  0.97831946  1
  In  In23  1  0.83886654  0.33215069  0.98513885  1
  In  In24  1  0.33789977  0.34456324  0.48576747  1
  In  In25  1  0.83344038  0.33356075  0.48175568  1
  In  In26  1  0.15691647  0.67237483  0.31078817  1
  In  In27  1  0.66888513  0.67058138  0.30758402  1
  In  In28  1  0.16757091  0.67185009  0.80792217  1
  In  In29  1  0.65865906  0.64362671  0.81014719  1
  Si  Si30  1  0.14192826  0.99817475  0.25009557  1
  Si  Si31  1  0.64891517  0.00828341  0.24843927  1
  Si  Si32  1  0.49849015  0.29252933  0.24739190  1
  Si  Si33  1  0.14777406  0.29368546  0.74998759  1
  Si  Si34  1  0.64059187  0.28439708  0.75052324  1
  Si  Si35  1  0.99924585  0.70877899  0.74749384  1
  Si  Si36  1  0.47316120  0.32954869  0.58209963  1
  Si  Si37  1  0.69384435  0.05530789  0.58217254  1
  Si  Si38  1  0.33236306  0.62612550  0.58337419  1
  Si  Si39  1  0.97419998  0.61836924  0.08221493  1
  Si  Si40  1  0.83228336  0.03670000  0.08310078  1
  Si  Si41  1  0.19450339  0.34295207  0.08181811  1
  Si  Si42  1  0.51876923  0.37466896  0.91765008  1
  Si  Si43  1  0.17115044  0.95264899  0.91423789  1
  Si  Si44  1  0.01637723  0.66044371  0.41815133  1
  S  S45  1  0.35332631  0.70435597  0.25284136  1
  S  S46  1  0.85783399  0.70691169  0.24801375  1
  S  S47  1  0.99746367  0.28133041  0.25028227  1
  S  S48  1  0.49825343  0.71535576  0.74977109  1
  S  S49  1  0.35819252  0.00880257  0.74606787  1
  S  S50  1  0.85217372  0.00000825  0.75255694  1
  S  S51  1  0.98070584  0.33039357  0.58338417  1
  S  S52  1  0.18580127  0.04076591  0.58153198  1
  S  S53  1  0.83440803  0.63073353  0.58292712  1
  S  S54  1  0.47960926  0.62781424  0.08249133  1
  S  S55  1  0.33488564  0.03949723  0.08367961  1
  S  S56  1  0.68652640  0.33170004  0.08133527  1
  S  S57  1  0.31268379  0.67337203  0.91712348  1
  S  S58  1  0.81201812  0.66711211  0.91657329  1
  S  S59  1  0.02019943  0.37107427  0.91583847  1
  S  S60  1  0.66855410  0.95421386  0.91717922  1
  S  S61  1  0.31251624  0.95803166  0.41665157  1
  S  S62  1  0.81093268  0.95009523  0.41716953  1
  S  S63  1  0.16848735  0.38294924  0.41735959  1
  S  S64  1  0.66506062  0.37905523  0.41550419  1
  S  S65  1  0.52252361  0.66908717  0.41628551  1
  O  O66  1  0.11614627  0.06000227  0.30831341  1
  O  O67  1  0.59345640  0.03417425  0.30555483  1
  O  O68  1  0.41290442  0.79451452  0.30346933  1
  O  O69  1  0.90781476  0.77288787  0.30252490  1
  O  O70  1  0.47919416  0.15586544  0.30586982  1
  O  O71  1  0.97811188  0.17820810  0.30372990  1
  O  O72  1  0.09493266  0.15633067  0.80570648  1
  O  O73  1  0.61276202  0.16832511  0.80795196  1
  O  O74  1  0.47929590  0.78001509  0.80313211  1
  O  O75  1  0.97949011  0.80188651  0.80482407  1
  O  O76  1  0.40836440  0.04519303  0.80037658  1
  O  O77  1  0.90943032  0.03076990  0.80190174  1
  O  O78  1  0.40521306  0.99208389  0.69653840  1
  O  O79  1  0.88512094  0.97258887  0.69748494  1
  O  O80  1  0.09409291  0.22676039  0.69128659  1
  O  O81  1  0.58143735  0.17738478  0.69554241  1
  O  O82  1  0.00518091  0.80535072  0.68827104  1
  O  O83  1  0.50272798  0.81433874  0.69844932  1
  O  O84  1  0.38731644  0.80210709  0.19924393  1
  O  O85  1  0.90166058  0.81779412  0.19829215  1
  O  O86  1  0.00210294  0.19040032  0.19912215  1
  O  O87  1  0.50679489  0.20503338  0.19021028  1
  O  O88  1  0.08006228  0.98373634  0.19651288  1
  O  O89  1  0.59228783  0.96689189  0.19177756  1
  O  O90  1  0.42687741  0.36367264  0.63715485  1
  O  O91  1  0.94244976  0.36201994  0.63486146  1
  O  O92  1  0.23873310  0.12215444  0.63271164  1
  O  O93  1  0.75953137  0.14699112  0.63623004  1
  O  O94  1  0.31271991  0.49188151  0.63902299  1
  O  O95  1  0.82018546  0.52103631  0.63392060  1
  O  O96  1  0.44225950  0.52213557  0.13544161  1
  O  O97  1  0.92480108  0.49148908  0.13814059  1
  O  O98  1  0.32431282  0.12831295  0.13596279  1
  O  O99  1  0.81262896  0.13187704  0.13966389  1
  O  O100  1  0.25879907  0.37384346  0.13830147  1
  O  O101  1  0.73928570  0.35374945  0.13345844  1
  O  O102  1  0.22947853  0.28861679  0.02853321  1
  O  O103  1  0.72427763  0.30635211  0.02862642  1
  O  O104  1  0.42760339  0.54867362  0.03138004  1
  O  O105  1  0.91974367  0.55662473  0.02469152  1
  O  O106  1  0.35335020  0.14637946  0.03253148  1
  O  O107  1  0.85461490  0.15224759  0.02705070  1
  O  O108  1  0.22300518  0.13996300  0.52791741  1
  O  O109  1  0.72713493  0.16501436  0.52465539  1
  O  O110  1  0.35478359  0.55858305  0.52612387  1
  O  O111  1  0.85169567  0.56056987  0.53049815  1
  O  O112  1  0.42170508  0.28634875  0.52313100  1
  O  O113  1  0.92947930  0.30366455  0.53079705  1
  O  O114  1  0.26647329  0.68907454  0.96926408  1
  O  O115  1  0.76791041  0.68381400  0.97020167  1
  O  O116  1  0.07075496  0.45308766  0.97039246  1
  O  O117  1  0.58417690  0.48655759  0.97425085  1
  O  O118  1  0.15803758  0.83193671  0.97311006  1
  O  O119  1  0.66608218  0.84937636  0.96989412  1
  O  O120  1  0.26960106  0.85323438  0.46989173  1
  O  O121  1  0.76437718  0.84054773  0.46936296  1
  O  O122  1  0.16571789  0.48217690  0.46975323  1
  O  O123  1  0.65392830  0.46090580  0.46849961  1
  O  O124  1  0.08099790  0.67653309  0.47461090  1
  O  O125  1  0.57452531  0.68757460  0.47019237  1
  O  O126  1  0.05609662  0.62787581  0.36079499  1
  O  O127  1  0.56467850  0.64417063  0.36651704  1
  O  O128  1  0.26124600  0.87595519  0.36482257  1
  O  O129  1  0.76257991  0.86698416  0.36504235  1
  O  O130  1  0.18140558  0.48275585  0.36461555  1
  O  O131  1  0.67802867  0.48372389  0.36431421  1
  O  O132  1  0.06143762  0.47670620  0.86575787  1
  O  O133  1  0.55922737  0.48477263  0.86008800  1
  O  O134  1  0.18320424  0.86691395  0.85840340  1
  O  O135  1  0.68174847  0.88091816  0.86462907  1
  O  O136  1  0.26568109  0.65496459  0.86424199  1
  O  O137  1  0.76006132  0.64336679  0.86493301  1
  O  O138  1  0.01359663  0.84066552  0.42085595  1
  O  O139  1  0.51625103  0.82896783  0.41037777  1
  O  O140  1  0.39866585  0.96854826  0.41093709  1
  O  O141  1  0.89841004  0.96848520  0.41636445  1
  O  O142  1  0.08533928  0.21673389  0.41860178  1
  O  O143  1  0.58172012  0.20478126  0.40873762  1
  O  O144  1  0.01111489  0.19636029  0.91030178  1
  O  O145  1  0.51629987  0.18940647  0.92093270  1
  O  O146  1  0.07718325  0.95616440  0.90707392  1
  O  O147  1  0.58559247  0.95357539  0.91873833  1
  O  O148  1  0.40042363  0.83545000  0.91619177  1
  O  O149  1  0.89638567  0.82756547  0.91193760  1
  O  O150  1  0.49349328  0.17533341  0.59652933  1
  O  O151  1  0.99198086  0.17753815  0.58877499  1
  O  O152  1  0.09652114  0.00793429  0.58597120  1
  O  O153  1  0.59613015  0.01070983  0.59790847  1
  O  O154  1  0.41053492  0.81127816  0.60366499  1
  O  O155  1  0.90511858  0.81132994  0.58968692  1
  O  O156  1  0.49120046  0.80373050  0.08835307  1
  O  O157  1  0.99306479  0.81233852  0.09736649  1
  O  O158  1  0.40731918  0.00508910  0.09132120  1
  O  O159  1  0.91111860  0.01084150  0.10430688  1
  O  O160  1  0.09694272  0.18510155  0.09913826  1
  O  O161  1  0.59761452  0.18503352  0.08606512  1
  O  O162  1  0.34878260  0.16582433  0.73637968  1
  O  O163  1  0.84864139  0.16861254  0.74624701  1
  O  O164  1  0.24122321  0.29130118  0.74076331  1
  O  O165  1  0.73805739  0.30221694  0.73493549  1
  O  O166  1  0.41961733  0.53125409  0.74202217  1
  O  O167  1  0.90809907  0.51499856  0.73954586  1
  O  O168  1  0.35141791  0.53313418  0.24792135  1
  O  O169  1  0.84856340  0.53124359  0.23905867  1
  O  O170  1  0.41040059  0.30891267  0.24152973  1
  O  O171  1  0.91904485  0.30835414  0.24241401  1
  O  O172  1  0.23974951  0.17380167  0.23410547  1
  O  O173  1  0.74136186  0.19603911  0.24280485  1
  O  O174  1  0.32413225  0.52212593  0.92292155  1
  O  O175  1  0.82171361  0.51145937  0.92205853  1
  O  O176  1  0.42652000  0.36150282  0.92502849  1
  O  O177  1  0.93158894  0.35028091  0.91972775  1
  O  O178  1  0.24636406  0.14909603  0.91810068  1
  O  O179  1  0.74339050  0.13384950  0.92333165  1
  O  O180  1  0.32335456  0.13331932  0.42151036  1
  O  O181  1  0.81726351  0.12100199  0.42171106  1
  O  O182  1  0.24325302  0.35293723  0.42309969  1
  O  O183  1  0.73755912  0.34681392  0.42024778  1
  O  O184  1  0.43451473  0.51572673  0.42027872  1
  O  O185  1  0.92007677  0.49079522  0.42313855  1
  O  O186  1  0.18482142  0.51286262  0.06949005  1
  O  O187  1  0.68304010  0.49680925  0.07540476  1
  O  O188  1  0.06986849  0.63301888  0.07288147  1
  O  O189  1  0.56889256  0.64826060  0.07455093  1
  O  O190  1  0.25285577  0.86976281  0.07768359  1
  O  O191  1  0.74651103  0.84657593  0.07142329  1
  O  O192  1  0.18185649  0.86727693  0.57428963  1
  O  O193  1  0.68291614  0.85920285  0.56949563  1
  O  O194  1  0.24641124  0.64543643  0.57025912  1
  O  O195  1  0.75117911  0.63603029  0.57278391  1
  O  O196  1  0.06948505  0.48861954  0.57463819  1
  O  O197  1  0.57168782  0.50483140  0.56968339  1
  O  O198  1  0.15937827  0.83978897  0.25048724  1
  O  O199  1  0.67127126  0.86555029  0.26467075  1
  O  O200  1  0.26720399  0.67364233  0.26459279  1
  O  O201  1  0.77162199  0.68548085  0.25296992  1
  O  O202  1  0.07577257  0.45042701  0.25336592  1
  O  O203  1  0.57969400  0.46818072  0.26367238  1
  O  O204  1  0.17337163  0.48322487  0.76552086  1
  O  O205  1  0.65913434  0.47831107  0.74975719  1
  O  O206  1  0.07534040  0.67343143  0.75763520  1
  O  O207  1  0.57619069  0.70135314  0.75264220  1
  O  O208  1  0.27348550  0.85559598  0.74854000  1
  O  O209  1  0.76385427  0.85949529  0.76171500  1
