# generated using pymatgen
data_Na10Hf8Si9(SO16)3
_symmetry_space_group_name_H-M   'P 1'
_cell_length_a   18.17079378
_cell_length_b   9.10796482
_cell_length_c   22.98516684
_cell_angle_alpha   90.03494051
_cell_angle_beta   89.85838156
_cell_angle_gamma   119.97857449
_symmetry_Int_Tables_number   1
_chemical_formula_structural   Na10Hf8Si9(SO16)3
_chemical_formula_sum   'Na30 Hf24 Si27 S9 O144'
_cell_volume   3295.07890627
_cell_formula_units_Z   3
loop_
 _symmetry_equiv_pos_site_id
 _symmetry_equiv_pos_as_xyz
  1  'x, y, z'
loop_
 _atom_site_type_symbol
 _atom_site_label
 _atom_site_symmetry_multiplicity
 _atom_site_fract_x
 _atom_site_fract_y
 _atom_site_fract_z
 _atom_site_occupancy
  Na  Na0  1  0.32228036  0.99943265  0.24922083  1
  Na  Na1  1  0.82236455  0.00004783  0.24951101  1
  Na  Na2  1  0.18355584  0.98871053  0.74724384  1
  Na  Na3  1  0.68338084  0.99477069  0.74650332  1
  Na  Na4  1  0.01791860  0.70603714  0.58025294  1
  Na  Na5  1  0.51773209  0.70621386  0.57997346  1
  Na  Na6  1  0.01834841  0.33078444  0.08001362  1
  Na  Na7  1  0.51589918  0.32570579  0.08055579  1
  Na  Na8  1  0.48446992  0.66503760  0.91360215  1
  Na  Na9  1  0.34849330  0.03001160  0.91591726  1
  Na  Na10  1  0.85183143  0.04321641  0.91341361  1
  Na  Na11  1  0.16472782  0.30635631  0.92019788  1
  Na  Na12  1  0.48538020  0.30618746  0.41410642  1
  Na  Na13  1  0.98554030  0.30652399  0.41412286  1
  Na  Na14  1  0.16564073  0.02752511  0.41933964  1
  Na  Na15  1  0.66562878  0.02769427  0.41931648  1
  Na  Na16  1  0.34907621  0.66681759  0.41616869  1
  Na  Na17  1  0.84921254  0.66675634  0.41616448  1
  Na  Na18  1  0.00219165  0.00190458  0.50117870  1
  Na  Na19  1  0.50211825  0.00171578  0.50112395  1
  Na  Na20  1  0.00733559  0.00172572  0.00178645  1
  Na  Na21  1  0.50673590  0.01198628  0.99863775  1
  Na  Na22  1  0.34318210  0.34253206  0.83187563  1
  Na  Na23  1  0.84610124  0.34660858  0.83214667  1
  Na  Na24  1  0.34030408  0.35235399  0.33124604  1
  Na  Na25  1  0.84026660  0.35222753  0.33118973  1
  Na  Na26  1  0.17326978  0.65909172  0.16583396  1
  Na  Na27  1  0.67331479  0.65765325  0.16798685  1
  Na  Na28  1  0.17752834  0.67765543  0.66703502  1
  Na  Na29  1  0.67821924  0.67636330  0.66480464  1
  Hf  Hf30  1  0.99513121  0.99606485  0.35197842  1
  Hf  Hf31  1  0.49510236  0.99597422  0.35194023  1
  Hf  Hf32  1  0.99731656  0.99489311  0.85132565  1
  Hf  Hf33  1  0.49596090  0.99782737  0.85393146  1
  Hf  Hf34  1  0.99403180  0.98202019  0.64721868  1
  Hf  Hf35  1  0.49424657  0.98415389  0.64717643  1
  Hf  Hf36  1  0.99613002  0.00804256  0.14698259  1
  Hf  Hf37  1  0.49596439  0.00875980  0.14691481  1
  Hf  Hf38  1  0.33301672  0.33265759  0.68632285  1
  Hf  Hf39  1  0.83334943  0.33393436  0.68645194  1
  Hf  Hf40  1  0.33023288  0.33678448  0.18609651  1
  Hf  Hf41  1  0.83074887  0.33831565  0.18607795  1
  Hf  Hf42  1  0.32724589  0.31955135  0.97966950  1
  Hf  Hf43  1  0.82868070  0.31921648  0.98127020  1
  Hf  Hf44  1  0.32841004  0.33373136  0.48099884  1
  Hf  Hf45  1  0.82850894  0.33369116  0.48099755  1
  Hf  Hf46  1  0.17321819  0.67257622  0.01831673  1
  Hf  Hf47  1  0.66768369  0.66757639  0.02060806  1
  Hf  Hf48  1  0.17398477  0.67643102  0.51892384  1
  Hf  Hf49  1  0.67390741  0.67642572  0.51873807  1
  Hf  Hf50  1  0.16545167  0.65277164  0.31419963  1
  Hf  Hf51  1  0.66550089  0.65305806  0.31440134  1
  Hf  Hf52  1  0.16618955  0.67044575  0.81582368  1
  Hf  Hf53  1  0.66248370  0.67277193  0.81234507  1
  Si  Si54  1  0.35317588  0.70457097  0.25021370  1
  Si  Si55  1  0.85305725  0.70453354  0.25023274  1
  Si  Si56  1  0.00011567  0.29801347  0.24970952  1
  Si  Si57  1  0.50016551  0.29842532  0.24980791  1
  Si  Si58  1  0.99887412  0.70192835  0.74991937  1
  Si  Si59  1  0.49709072  0.70412311  0.75061223  1
  Si  Si60  1  0.35262946  0.99952574  0.75069975  1
  Si  Si61  1  0.85308627  0.00010512  0.75110637  1
  Si  Si62  1  0.18520955  0.03920302  0.58455376  1
  Si  Si63  1  0.68542678  0.03931170  0.58473583  1
  Si  Si64  1  0.33042414  0.62216068  0.58372109  1
  Si  Si65  1  0.83033656  0.62197644  0.58354486  1
  Si  Si66  1  0.32977099  0.03753364  0.08477292  1
  Si  Si67  1  0.83057785  0.03843175  0.08494143  1
  Si  Si68  1  0.18550527  0.33278038  0.08293503  1
  Si  Si69  1  0.68640064  0.33220200  0.08322391  1
  Si  Si70  1  0.31242513  0.66420160  0.91527196  1
  Si  Si71  1  0.02002707  0.37774375  0.91768971  1
  Si  Si72  1  0.52257058  0.37555973  0.91831723  1
  Si  Si73  1  0.16243181  0.95257229  0.91711441  1
  Si  Si74  1  0.66610461  0.95872577  0.91661380  1
  Si  Si75  1  0.31207247  0.96021454  0.41391678  1
  Si  Si76  1  0.81214739  0.96030820  0.41393598  1
  Si  Si77  1  0.16514108  0.37455868  0.41800510  1
  Si  Si78  1  0.66516660  0.37448387  0.41801965  1
  Si  Si79  1  0.02216828  0.66643891  0.41802466  1
  Si  Si80  1  0.52209926  0.66644295  0.41803580  1
  S  S81  1  0.14474502  0.99920065  0.24947586  1
  S  S82  1  0.64485313  -0.00052038  0.24937161  1
  S  S83  1  0.14380383  0.29079641  0.74898916  1
  S  S84  1  0.64438659  0.29075045  0.74955924  1
  S  S85  1  0.47875942  0.33138329  0.58309746  1
  S  S86  1  0.97872813  0.33089595  0.58317731  1
  S  S87  1  0.47849463  0.62543086  0.08301913  1
  S  S88  1  0.97757065  0.62386974  0.08313440  1
  S  S89  1  0.81095773  0.66403106  0.91601099  1
  O  O90  1  0.10657537  0.02300445  0.30347931  1
  O  O91  1  0.60663858  0.02291924  0.30343839  1
  O  O92  1  0.40936152  0.79165442  0.30954408  1
  O  O93  1  0.90926256  0.79178555  0.30950697  1
  O  O94  1  0.48621798  0.17660878  0.30701790  1
  O  O95  1  0.98597107  0.17619798  0.30697797  1
  O  O96  1  0.10501575  0.18539130  0.80292555  1
  O  O97  1  0.60518501  0.18312192  0.80153600  1
  O  O98  1  0.48944905  0.79977556  0.80829774  1
  O  O99  1  0.98874789  0.80510146  0.80533420  1
  O  O100  1  0.41025825  0.02847601  0.80905079  1
  O  O101  1  0.90884309  0.02584662  0.81048228  1
  O  O102  1  0.40435447  0.98462466  0.69483554  1
  O  O103  1  0.90409333  0.98389035  0.69543062  1
  O  O104  1  0.09198243  0.20604821  0.69794182  1
  O  O105  1  0.59333990  0.21385336  0.69720797  1
  O  O106  1  0.01635664  0.82501467  0.69234493  1
  O  O107  1  0.51722688  0.82822982  0.69333593  1
  O  O108  1  0.40424316  0.83063480  0.19566134  1
  O  O109  1  0.90373275  0.83038763  0.19559250  1
  O  O110  1  0.01260588  0.20439002  0.19218550  1
  O  O111  1  0.51297521  0.20561223  0.19214526  1
  O  O112  1  0.09268481  0.97931495  0.19836943  1
  O  O113  1  0.59288790  0.97940535  0.19829518  1
  O  O114  1  0.43587959  0.35618549  0.63434629  1
  O  O115  1  0.93566200  0.35613207  0.63436276  1
  O  O116  1  0.24362487  0.13003740  0.64200295  1
  O  O117  1  0.74351213  0.12946529  0.64233782  1
  O  O118  1  0.32378853  0.50433850  0.63890428  1
  O  O119  1  0.82358827  0.50398398  0.63870926  1
  O  O120  1  0.43751160  0.51437781  0.13423898  1
  O  O121  1  0.93618589  0.51454085  0.13516981  1
  O  O122  1  0.32335669  0.13624801  0.14236955  1
  O  O123  1  0.82122966  0.13246642  0.14248653  1
  O  O124  1  0.24749754  0.35953795  0.13807876  1
  O  O125  1  0.74662057  0.36063797  0.13948983  1
  O  O126  1  0.23104189  0.31260529  0.02391063  1
  O  O127  1  0.73559398  0.31529518  0.02631115  1
  O  O128  1  0.42862952  0.54972021  0.02955898  1
  O  O129  1  0.92525833  0.54541546  0.03071004  1
  O  O130  1  0.35028304  0.16181708  0.02731545  1
  O  O131  1  0.84975315  0.16154853  0.02728825  1
  O  O132  1  0.23236291  0.15146955  0.52593120  1
  O  O133  1  0.73250054  0.15141239  0.52607172  1
  O  O134  1  0.35057150  0.54190434  0.52533342  1
  O  O135  1  0.85029540  0.54167897  0.52518940  1
  O  O136  1  0.42816856  0.30681351  0.52957884  1
  O  O137  1  0.92794641  0.30662956  0.52957756  1
  O  O138  1  0.27018983  0.70345354  0.97176266  1
  O  O139  1  0.77155061  0.69393306  0.96836284  1
  O  O140  1  0.07868536  0.45745514  0.97596006  1
  O  O141  1  0.57787002  0.46390836  0.97703860  1
  O  O142  1  0.14989415  0.83540105  0.97315273  1
  O  O143  1  0.65265859  0.83258304  0.97124684  1
  O  O144  1  0.26892742  0.83428622  0.46984804  1
  O  O145  1  0.76890329  0.83431255  0.46984776  1
  O  O146  1  0.14543747  0.46094481  0.47323284  1
  O  O147  1  0.64552636  0.46108196  0.47324175  1
  O  O148  1  0.07907647  0.69942206  0.47674913  1
  O  O149  1  0.57909474  0.69949750  0.47675445  1
  O  O150  1  0.06788994  0.63320375  0.36256737  1
  O  O151  1  0.56788390  0.63317502  0.36261065  1
  O  O152  1  0.25279349  0.88002798  0.35656092  1
  O  O153  1  0.75284012  0.88001134  0.35656496  1
  O  O154  1  0.18645908  0.49826343  0.36135186  1
  O  O155  1  0.68645168  0.49831468  0.36138426  1
  O  O156  1  0.06759072  0.49200156  0.86079606  1
  O  O157  1  0.57068203  0.50094572  0.86293852  1
  O  O158  1  0.18308787  0.87568567  0.85867591  1
  O  O159  1  0.68542972  0.87479963  0.85868798  1
  O  O160  1  0.25035248  0.62605797  0.85993230  1
  O  O161  1  0.75981595  0.63990244  0.86394953  1
  O  O162  1  0.01308159  0.83632323  0.40988930  1
  O  O163  1  0.51317706  0.83646727  0.40993726  1
  O  O164  1  0.40711385  0.97895739  0.41009750  1
  O  O165  1  0.90708752  0.97892683  0.41012897  1
  O  O166  1  0.08378338  0.18394659  0.40912565  1
  O  O167  1  0.58378851  0.18394997  0.40916666  1
  O  O168  1  0.00829675  0.18432692  0.91033475  1
  O  O169  1  0.50764559  0.18449221  0.91120177  1
  O  O170  1  0.08386153  0.99163900  0.90971324  1
  O  O171  1  0.58064376  0.97087521  0.90969645  1
  O  O172  1  0.40668728  0.83451476  0.91015490  1
  O  O173  1  0.89589311  0.82407539  0.91113558  1
  O  O174  1  0.48972951  0.18343707  0.59012023  1
  O  O175  1  0.98948409  0.18343766  0.59026228  1
  O  O176  1  0.09081659  0.02262943  0.58928419  1
  O  O177  1  0.59098556  0.02265995  0.58934739  1
  O  O178  1  0.41818748  0.80972174  0.58942729  1
  O  O179  1  0.91775636  0.80948875  0.58907912  1
  O  O180  1  0.49053984  0.79578210  0.09081135  1
  O  O181  1  0.98826590  0.79417755  0.09058760  1
  O  O182  1  0.41810196  0.02557394  0.08930067  1
  O  O183  1  0.91862403  0.02648148  0.08874149  1
  O  O184  1  0.09166139  0.16009616  0.08911908  1
  O  O185  1  0.59197194  0.16169463  0.08900142  1
  O  O186  1  0.33689398  0.16285259  0.74461677  1
  O  O187  1  0.83599326  0.16102744  0.74509367  1
  O  O188  1  0.22872221  0.30016141  0.74468153  1
  O  O189  1  0.72958678  0.30271974  0.74415853  1
  O  O190  1  0.41465237  0.51641915  0.74338004  1
  O  O191  1  0.91429991  0.51606169  0.74347741  1
  O  O192  1  0.34211397  0.51649936  0.24404245  1
  O  O193  1  0.84193943  0.51631676  0.24430812  1
  O  O194  1  0.41043611  0.30015246  0.24405633  1
  O  O195  1  0.91031586  0.29946877  0.24377421  1
  O  O196  1  0.23161472  0.15274170  0.24464338  1
  O  O197  1  0.73173953  0.15267965  0.24467048  1
  O  O198  1  0.32583228  0.50060814  0.92366510  1
  O  O199  1  0.82388080  0.51866459  0.92354965  1
  O  O200  1  0.42876649  0.36256225  0.92342184  1
  O  O201  1  0.92431774  0.35323415  0.92325425  1
  O  O202  1  0.24986441  0.14248100  0.92276396  1
  O  O203  1  0.75308890  0.14397313  0.92299762  1
  O  O204  1  0.32558463  0.15014396  0.42375606  1
  O  O205  1  0.82548184  0.15005143  0.42371492  1
  O  O206  1  0.25061227  0.35597916  0.42376218  1
  O  O207  1  0.75058425  0.35587958  0.42379545  1
  O  O208  1  0.42765519  0.49651060  0.42389681  1
  O  O209  1  0.92762788  0.49647081  0.42389903  1
  O  O210  1  0.16819934  0.49330195  0.07898213  1
  O  O211  1  0.66992060  0.49439416  0.07766514  1
  O  O212  1  0.06090579  0.63304095  0.07824193  1
  O  O213  1  0.56320598  0.63526473  0.07827262  1
  O  O214  1  0.24553048  0.85185617  0.07942649  1
  O  O215  1  0.74787850  0.85097334  0.07646550  1
  O  O216  1  0.16907389  0.84450012  0.57905064  1
  O  O217  1  0.66906246  0.84420159  0.57926102  1
  O  O218  1  0.24598568  0.63921954  0.57890108  1
  O  O219  1  0.74583386  0.63913034  0.57895819  1
  O  O220  1  0.06196600  0.48987547  0.57868462  1
  O  O221  1  0.56209536  0.48992904  0.57874942  1
  O  O222  1  0.15638909  0.85009786  0.25428917  1
  O  O223  1  0.65652144  0.85000432  0.25419353  1
  O  O224  1  0.26300136  0.70562637  0.25465034  1
  O  O225  1  0.76282125  0.70569874  0.25455749  1
  O  O226  1  0.08353296  0.48567412  0.25462329  1
  O  O227  1  0.58367887  0.48629587  0.25455019  1
  O  O228  1  0.15449934  0.45958092  0.75471921  1
  O  O229  1  0.65676179  0.46270050  0.75727769  1
  O  O230  1  0.08612872  0.69229212  0.75533100  1
  O  O231  1  0.58564161  0.69345664  0.75546237  1
  O  O232  1  0.25795581  0.83021221  0.75458788  1
  O  O233  1  0.75886321  0.82778402  0.75593811  1
