# generated using pymatgen
data_MgV2P2(O4F)2
_symmetry_space_group_name_H-M   'P 1'
_cell_length_a   5.17328066
_cell_length_b   5.47168029
_cell_length_c   7.40314154
_cell_angle_alpha   69.09851985
_cell_angle_beta   71.18602466
_cell_angle_gamma   90.01378441
_symmetry_Int_Tables_number   1
_chemical_formula_structural   MgV2P2(O4F)2
_chemical_formula_sum   'Mg1 V2 P2 O8 F2'
_cell_volume   183.72587232
_cell_formula_units_Z   1
loop_
 _symmetry_equiv_pos_site_id
 _symmetry_equiv_pos_as_xyz
  1  'x, y, z'
loop_
 _atom_site_type_symbol
 _atom_site_label
 _atom_site_symmetry_multiplicity
 _atom_site_fract_x
 _atom_site_fract_y
 _atom_site_fract_z
 _atom_site_occupancy
  Mg  Mg0  1  0.00000000  0.00000000  0.00000000  1
  V  V1  1  0.50000000  0.00000000  0.50000000  1
  V  V2  1  0.00000000  0.50000000  0.00000000  1
  P  P3  1  0.38786100  0.62073800  0.25398800  1
  P  P4  1  0.61213900  0.37926200  0.74601200  1
  O  O5  1  0.33777900  0.32730900  0.38626600  1
  O  O6  1  0.69337700  0.69689200  0.09523700  1
  O  O7  1  0.66222100  0.67269100  0.61373400  1
  O  O8  1  0.30662300  0.30310800  0.90476300  1
  O  O9  1  0.19290500  0.67991000  0.12342600  1
  O  O10  1  0.33725200  0.80617600  0.37058100  1
  O  O11  1  0.80709500  0.32009000  0.87657400  1
  O  O12  1  0.66274800  0.19382400  0.62941900  1
  F  F13  1  0.14281500  0.86422700  0.76526000  1
  F  F14  1  0.85718500  0.13577300  0.23474000  1
