# generated using pymatgen
data_Na2Sc2P2SO12
_symmetry_space_group_name_H-M   'P 1'
_cell_length_a   8.92079844
_cell_length_b   8.92079814
_cell_length_c   22.91106932
_cell_angle_alpha   90.14491371
_cell_angle_beta   89.85508629
_cell_angle_gamma   119.74521821
_symmetry_Int_Tables_number   1
_chemical_formula_structural   Na2Sc2P2SO12
_chemical_formula_sum   'Na12 Sc12 P12 S6 O72'
_cell_volume   1583.03619039
_cell_formula_units_Z   6
loop_
 _symmetry_equiv_pos_site_id
 _symmetry_equiv_pos_as_xyz
  1  'x, y, z'
loop_
 _atom_site_type_symbol
 _atom_site_label
 _atom_site_symmetry_multiplicity
 _atom_site_fract_x
 _atom_site_fract_y
 _atom_site_fract_z
 _atom_site_occupancy
  Na  Na0  1  0.99641035  0.63051880  0.25137146  1
  Na  Na1  1  0.36948120  0.00358965  0.75137146  1
  Na  Na2  1  0.66307735  0.96385180  0.58470446  1
  Na  Na3  1  0.03614820  0.33692265  0.08470446  1
  Na  Na4  1  0.32974335  0.29718580  0.91803846  1
  Na  Na5  1  0.70281420  0.67025665  0.41803846  1
  Na  Na6  1  0.01286383  0.99805408  0.50024451  1
  Na  Na7  1  0.00194592  0.98713617  0.00024451  1
  Na  Na8  1  0.67953083  0.33138708  0.83357751  1
  Na  Na9  1  0.66861292  0.32046917  0.33357751  1
  Na  Na10  1  0.34619683  0.66472108  0.16691151  1
  Na  Na11  1  0.33527892  0.65380317  0.66691151  1
  Sc  Sc12  1  0.99158586  0.00154559  0.35110135  1
  Sc  Sc13  1  0.99845441  0.00841414  0.85110135  1
  Sc  Sc14  1  0.00289128  0.00086808  0.64874838  1
  Sc  Sc15  1  0.99913192  0.99710872  0.14874838  1
  Sc  Sc16  1  0.65825286  0.33487859  0.68443435  1
  Sc  Sc17  1  0.66512141  0.34174714  0.18443435  1
  Sc  Sc18  1  0.66955828  0.33420108  0.98208138  1
  Sc  Sc19  1  0.66579892  0.33044172  0.48208138  1
  Sc  Sc20  1  0.32491886  0.66821259  0.01776835  1
  Sc  Sc21  1  0.33178741  0.67508114  0.51776835  1
  Sc  Sc22  1  0.33622428  0.66753508  0.31541538  1
  Sc  Sc23  1  0.33246492  0.66377572  0.81541538  1
  P  P24  1  0.70565508  0.70911038  0.25022043  1
  P  P25  1  0.99959032  0.29293828  0.24903354  1
  P  P26  1  0.29088962  0.29434492  0.75022043  1
  P  P27  1  0.70706172  0.00040968  0.74903354  1
  P  P28  1  0.37232208  0.04244338  0.58355343  1
  P  P29  1  0.66625732  0.62627128  0.58236654  1
  P  P30  1  0.95755662  0.62767792  0.08355343  1
  P  P31  1  0.37372872  0.33374268  0.08236654  1
  P  P32  1  0.03898808  0.37577738  0.91688743  1
  P  P33  1  0.33292332  0.95960528  0.91570054  1
  P  P34  1  0.62422262  0.96101192  0.41688743  1
  P  P35  1  0.04039472  0.66707668  0.41570054  1
  S  S36  1  0.29370426  0.00293583  0.25057968  1
  S  S37  1  0.99706417  0.70629574  0.75057968  1
  S  S38  1  0.96037126  0.33626883  0.58391268  1
  S  S39  1  0.66373117  0.03962874  0.08391268  1
  S  S40  1  0.62703726  0.66960283  0.91724668  1
  S  S41  1  0.33039717  0.37296274  0.41724668  1
  O  O42  1  0.21213592  0.02677683  0.30292418  1
  O  O43  1  0.81939961  0.78702314  0.30550876  1
  O  O44  1  0.97747652  0.18044417  0.30277317  1
  O  O45  1  0.21297686  0.18060039  0.80550876  1
  O  O46  1  0.97322317  0.78786408  0.80292418  1
  O  O47  1  0.81955583  0.02252348  0.80277317  1
  O  O48  1  0.78846436  0.97371580  0.69304116  1
  O  O49  1  0.17815173  0.20240155  0.69677126  1
  O  O50  1  0.02873147  0.81631848  0.69813668  1
  O  O51  1  0.79759845  0.82184827  0.19677126  1
  O  O52  1  0.02628420  0.21153564  0.19304116  1
  O  O53  1  0.18368152  0.97126853  0.19813668  1
  O  O54  1  0.87880292  0.36010983  0.63625718  1
  O  O55  1  0.48606661  0.12035614  0.63884176  1
  O  O56  1  0.64414352  0.51377717  0.63610617  1
  O  O57  1  0.87964386  0.51393339  0.13884176  1
  O  O58  1  0.63989017  0.12119708  0.13625718  1
  O  O59  1  0.48622283  0.35585648  0.13610617  1
  O  O60  1  0.45513136  0.30704880  0.02637416  1
  O  O61  1  0.84481873  0.53573455  0.03010426  1
  O  O62  1  0.69539847  0.14965148  0.03146968  1
  O  O63  1  0.46426545  0.15518127  0.53010426  1
  O  O64  1  0.69295120  0.54486864  0.52637416  1
  O  O65  1  0.85034852  0.30460153  0.53146968  1
  O  O66  1  0.54546892  0.69344383  0.96959118  1
  O  O67  1  0.15273261  0.45369014  0.97217576  1
  O  O68  1  0.31080952  0.84711117  0.96944017  1
  O  O69  1  0.54630986  0.84726739  0.47217576  1
  O  O70  1  0.30655617  0.45453108  0.46959118  1
  O  O71  1  0.15288883  0.68919048  0.46944017  1
  O  O72  1  0.12179736  0.64038280  0.35970816  1
  O  O73  1  0.51148473  0.86906855  0.36343826  1
  O  O74  1  0.36206447  0.48298548  0.36480368  1
  O  O75  1  0.13093145  0.48851527  0.86343826  1
  O  O76  1  0.35961720  0.87820264  0.85970816  1
  O  O77  1  0.51701452  0.63793553  0.86480368  1
  O  O78  1  0.01794433  0.82876144  0.41041271  1
  O  O79  1  0.80387165  0.97248736  0.41075064  1
  O  O80  1  0.17962575  0.19984489  0.41026939  1
  O  O81  1  0.02751264  0.19612835  0.91075064  1
  O  O82  1  0.17123856  0.98205567  0.91041271  1
  O  O83  1  0.80015511  0.82037425  0.91026939  1
  O  O84  1  0.97197226  0.17470671  0.58905591  1
  O  O85  1  0.19159325  0.02176383  0.59012368  1
  O  O86  1  0.82497072  0.81152334  0.58893311  1
  O  O87  1  0.97823617  0.80840675  0.09012368  1
  O  O88  1  0.82529329  0.02802774  0.08905591  1
  O  O89  1  0.18847666  0.17502928  0.08893311  1
  O  O90  1  0.68461133  0.16209444  0.74374571  1
  O  O91  1  0.47053865  0.30582036  0.74408364  1
  O  O92  1  0.84629275  0.53317789  0.74360239  1
  O  O93  1  0.69417964  0.52946135  0.24408364  1
  O  O94  1  0.83790556  0.31538867  0.24374571  1
  O  O95  1  0.46682211  0.15370725  0.24360239  1
  O  O96  1  0.63863926  0.50803971  0.92238891  1
  O  O97  1  0.85826025  0.35509683  0.92345668  1
  O  O98  1  0.49163772  0.14485634  0.92226611  1
  O  O99  1  0.64490317  0.14173975  0.42345668  1
  O  O100  1  0.49196029  0.36136074  0.42238891  1
  O  O101  1  0.85514366  0.50836228  0.42226611  1
  O  O102  1  0.35127733  0.49542844  0.07707971  1
  O  O103  1  0.13720465  0.63915436  0.07741764  1
  O  O104  1  0.51295875  0.86651189  0.07693639  1
  O  O105  1  0.36084564  0.86279535  0.57741764  1
  O  O106  1  0.50457156  0.64872267  0.57707971  1
  O  O107  1  0.13348811  0.48704125  0.57693639  1
  O  O108  1  0.30530526  0.84137371  0.25572291  1
  O  O109  1  0.52492625  0.68843083  0.25679068  1
  O  O110  1  0.15830372  0.47819034  0.25560011  1
  O  O111  1  0.31156917  0.47507375  0.75679068  1
  O  O112  1  0.15862629  0.69469474  0.75572291  1
  O  O113  1  0.52180966  0.84169628  0.75560011  1
