# generated using pymatgen
data_Na10Nb2In6Si7S5O48
_symmetry_space_group_name_H-M   'P 1'
_cell_length_a   18.27742070
_cell_length_b   9.11153196
_cell_length_c   23.00835953
_cell_angle_alpha   89.99915368
_cell_angle_beta   90.13398636
_cell_angle_gamma   119.90230358
_symmetry_Int_Tables_number   1
_chemical_formula_structural   Na10Nb2In6Si7S5O48
_chemical_formula_sum   'Na30 Nb6 In18 Si21 S15 O144'
_cell_volume   3321.60303968
_cell_formula_units_Z   3
loop_
 _symmetry_equiv_pos_site_id
 _symmetry_equiv_pos_as_xyz
  1  'x, y, z'
loop_
 _atom_site_type_symbol
 _atom_site_label
 _atom_site_symmetry_multiplicity
 _atom_site_fract_x
 _atom_site_fract_y
 _atom_site_fract_z
 _atom_site_occupancy
  Na  Na0  1  0.31590048  0.00065359  0.24580068  1
  Na  Na1  1  0.81644562  0.01153594  0.24609478  1
  Na  Na2  1  0.18736579  0.36724561  0.24690666  1
  Na  Na3  1  0.31690550  0.62130787  0.74652692  1
  Na  Na4  1  0.81525390  0.63055244  0.74577296  1
  Na  Na5  1  0.68645597  0.00641532  0.74728447  1
  Na  Na6  1  0.16212548  0.33870277  0.58481583  1
  Na  Na7  1  0.65614567  0.33707664  0.57990668  1
  Na  Na8  1  0.01548488  0.70036522  0.57552430  1
  Na  Na9  1  0.15832725  0.98045540  0.08351710  1
  Na  Na10  1  0.66130407  0.98413917  0.08456968  1
  Na  Na11  1  0.51480571  0.32991205  0.07476793  1
  Na  Na12  1  0.85021150  0.02278857  0.91986694  1
  Na  Na13  1  0.66455661  0.30672118  0.91864647  1
  Na  Na14  1  0.48492818  0.29310649  0.42026368  1
  Na  Na15  1  0.16648774  0.02520600  0.41953939  1
  Na  Na16  1  0.66622169  0.05103725  0.41541142  1
  Na  Na17  1  0.84879468  0.65455167  0.41626497  1
  Na  Na18  1  0.99827461  0.99247469  0.49861560  1
  Na  Na19  1  0.48717444  0.98228918  0.49562839  1
  Na  Na20  1  0.99486231  0.99375754  0.99721142  1
  Na  Na21  1  0.49057405  0.00288845  0.99595356  1
  Na  Na22  1  0.33545893  0.33200610  0.83150190  1
  Na  Na23  1  0.83789360  0.33870834  0.83130283  1
  Na  Na24  1  0.33364150  0.34755855  0.33164641  1
  Na  Na25  1  0.83484396  0.34047841  0.33053964  1
  Na  Na26  1  0.16794598  0.65410330  0.16175532  1
  Na  Na27  1  0.67532783  0.66845716  0.16342182  1
  Na  Na28  1  0.17646499  0.68306406  0.66343659  1
  Na  Na29  1  0.66793215  0.68122200  0.66154398  1
  Nb  Nb30  1  0.99916175  0.00696880  0.65040475  1
  Nb  Nb31  1  0.50533460  0.98663430  0.64567524  1
  Nb  Nb32  1  0.00547978  0.02413584  0.14563417  1
  Nb  Nb33  1  0.49823798  0.98963976  0.14986062  1
  Nb  Nb34  1  0.16357055  0.67908385  0.31080975  1
  Nb  Nb35  1  0.66176307  0.64459166  0.81087461  1
  In  In36  1  0.00277702  0.00237847  0.34791704  1
  In  In37  1  0.50006417  0.99581923  0.35054327  1
  In  In38  1  0.00161034  0.00563155  0.84925487  1
  In  In39  1  0.49820601  0.00328042  0.84937861  1
  In  In40  1  0.32811243  0.33310016  0.68470809  1
  In  In41  1  0.82648645  0.31932510  0.68225553  1
  In  In42  1  0.32698283  0.33217553  0.18177052  1
  In  In43  1  0.82817335  0.32343493  0.18451377  1
  In  In44  1  0.33347912  0.31979862  0.98105136  1
  In  In45  1  0.83088695  0.33745678  0.98756778  1
  In  In46  1  0.32714565  0.33016123  0.48751289  1
  In  In47  1  0.83274299  0.34675350  0.48253981  1
  In  In48  1  0.17200698  0.66548218  0.01947334  1
  In  In49  1  0.67728870  0.65639188  0.01686890  1
  In  In50  1  0.17763616  0.69584967  0.51730661  1
  In  In51  1  0.66985422  0.66697050  0.51998086  1
  In  In52  1  0.66354695  0.66298365  0.31309934  1
  In  In53  1  0.16396004  0.65682303  0.81440900  1
  Si  Si54  1  0.14566792  0.00133567  0.24949364  1
  Si  Si55  1  0.64740785  0.99594217  0.25389959  1
  Si  Si56  1  0.35386823  0.70197177  0.25242837  1
  Si  Si57  1  0.99821602  0.29624320  0.25309643  1
  Si  Si58  1  0.14777048  0.29636058  0.75309177  1
  Si  Si59  1  0.64449156  0.28682455  0.75000650  1
  Si  Si60  1  0.49817224  0.70147908  0.75367440  1
  Si  Si61  1  0.85309963  0.00495740  0.75357274  1
  Si  Si62  1  0.18404318  0.03391107  0.58571412  1
  Si  Si63  1  0.68645606  0.03072839  0.58128161  1
  Si  Si64  1  0.33222217  0.62957610  0.58369460  1
  Si  Si65  1  0.83546298  0.63370310  0.58643416  1
  Si  Si66  1  0.33475451  0.03860730  0.08599935  1
  Si  Si67  1  0.83236930  0.03464388  0.08178195  1
  Si  Si68  1  0.18801466  0.33922198  0.08175279  1
  Si  Si69  1  0.68431300  0.33324852  0.08576572  1
  Si  Si70  1  0.81971491  0.66926536  0.91359548  1
  Si  Si71  1  0.51555186  0.37003099  0.91832690  1
  Si  Si72  1  0.31719835  0.96931834  0.41419736  1
  Si  Si73  1  0.66533134  0.37480150  0.41629670  1
  Si  Si74  1  0.01823046  0.66363621  0.41779146  1
  S  S75  1  0.85529169  0.70902890  0.24896441  1
  S  S76  1  0.50068940  0.29453178  0.24764852  1
  S  S77  1  0.00194304  0.70892239  0.74859182  1
  S  S78  1  0.35375313  0.00056774  0.74883843  1
  S  S79  1  0.48002813  0.32797017  0.58506848  1
  S  S80  1  0.97945966  0.32901883  0.58340983  1
  S  S81  1  0.47959564  0.62995649  0.08334154  1
  S  S82  1  0.98169876  0.63413697  0.08482958  1
  S  S83  1  0.31529338  0.66634172  0.91576521  1
  S  S84  1  0.01885522  0.37593152  0.91794861  1
  S  S85  1  0.16512617  0.95358402  0.91604675  1
  S  S86  1  0.66560979  0.95453066  0.91624758  1
  S  S87  1  0.81591063  0.96392587  0.41580570  1
  S  S88  1  0.16585354  0.37659709  0.41606137  1
  S  S89  1  0.51855284  0.66196362  0.41809960  1
  O  O90  1  0.11076695  0.03920136  0.30854356  1
  O  O91  1  0.60769709  0.02024008  0.31300154  1
  O  O92  1  0.40890147  0.79032291  0.30843233  1
  O  O93  1  0.89907149  0.77817129  0.30556282  1
  O  O94  1  0.48771905  0.19688435  0.30153683  1
  O  O95  1  0.97484269  0.16609939  0.30646213  1
  O  O96  1  0.10483066  0.18062656  0.80890655  1
  O  O97  1  0.60858550  0.17693321  0.80836981  1
  O  O98  1  0.47654692  0.78771969  0.80684966  1
  O  O99  1  0.98592498  0.78192304  0.80083122  1
  O  O100  1  0.40013698  0.02263101  0.80405649  1
  O  O101  1  0.90390869  0.02810350  0.81281492  1
  O  O102  1  0.39731256  0.97258659  0.69868687  1
  O  O103  1  0.90390876  0.97243791  0.69799047  1
  O  O104  1  0.08453419  0.19237533  0.69486781  1
  O  O105  1  0.58502586  0.19401230  0.69229363  1
  O  O106  1  0.01219479  0.81572268  0.69561131  1
  O  O107  1  0.51531500  0.83352527  0.69535849  1
  O  O108  1  0.40193556  0.83195479  0.19533298  1
  O  O109  1  0.90232261  0.82530024  0.19975021  1
  O  O110  1  0.01511800  0.19709315  0.19521695  1
  O  O111  1  0.50973675  0.20317694  0.19592703  1
  O  O112  1  0.08567007  0.97658260  0.19222140  1
  O  O113  1  0.58338226  0.97634055  0.19651442  1
  O  O114  1  0.43879650  0.35053705  0.63506617  1
  O  O115  1  0.94231948  0.35975084  0.63578742  1
  O  O116  1  0.24640111  0.12314918  0.63888524  1
  O  O117  1  0.73521766  0.10313709  0.64233928  1
  O  O118  1  0.31609541  0.52303871  0.64325996  1
  O  O119  1  0.82300040  0.52146482  0.64444748  1
  O  O120  1  0.44256712  0.52477475  0.13592362  1
  O  O121  1  0.94393978  0.53026054  0.13610643  1
  O  O122  1  0.31941618  0.11548829  0.14586508  1
  O  O123  1  0.81731830  0.11402860  0.14040700  1
  O  O124  1  0.23440980  0.36540706  0.14395768  1
  O  O125  1  0.74704757  0.37119558  0.13909473  1
  O  O126  1  0.22699313  0.28649866  0.02767023  1
  O  O127  1  0.71465703  0.28278039  0.02485922  1
  O  O128  1  0.42814434  0.56039832  0.03126102  1
  O  O129  1  0.93175786  0.56303010  0.03057791  1
  O  O130  1  0.36429531  0.16726056  0.03098598  1
  O  O131  1  0.85416377  0.14891540  0.02216014  1
  O  O132  1  0.21246150  0.14374471  0.52445163  1
  O  O133  1  0.72370796  0.15311109  0.52445868  1
  O  O134  1  0.35642655  0.55659894  0.52664393  1
  O  O135  1  0.86309539  0.57098846  0.52773174  1
  O  O136  1  0.43331290  0.30359586  0.52898955  1
  O  O137  1  0.92739579  0.29664766  0.53102643  1
  O  O138  1  0.27405770  0.69303830  0.96693639  1
  O  O139  1  0.78174075  0.71954639  0.96855218  1
  O  O140  1  0.07001589  0.46244659  0.96976458  1
  O  O141  1  0.57363649  0.45201322  0.97622814  1
  O  O142  1  0.15606582  0.85583857  0.97050815  1
  O  O143  1  0.65571124  0.85942985  0.97030128  1
  O  O144  1  0.27911664  0.85810092  0.47128884  1
  O  O145  1  0.77497973  0.85376214  0.46678921  1
  O  O146  1  0.15590614  0.45160476  0.47013580  1
  O  O147  1  0.64689148  0.45212171  0.47553663  1
  O  O148  1  0.07516854  0.69977613  0.47592623  1
  O  O149  1  0.57279306  0.68864069  0.46924556  1
  O  O150  1  0.07429606  0.65235761  0.36071064  1
  O  O151  1  0.55617514  0.63630343  0.36426321  1
  O  O152  1  0.25184744  0.86359515  0.35703850  1
  O  O153  1  0.76527356  0.89149233  0.36159544  1
  O  O154  1  0.17292243  0.47820474  0.36332320  1
  O  O155  1  0.68497038  0.50348982  0.36116124  1
  O  O156  1  0.05715831  0.47460477  0.86412169  1
  O  O157  1  0.57354218  0.49602509  0.86099490  1
  O  O158  1  0.17438991  0.86626409  0.86387716  1
  O  O159  1  0.67479504  0.86771320  0.86396093  1
  O  O160  1  0.26633295  0.64760916  0.86111518  1
  O  O161  1  0.75337402  0.64313742  0.85657916  1
  O  O162  1  0.00832053  0.83533395  0.41101173  1
  O  O163  1  0.51101783  0.81620901  0.41484813  1
  O  O164  1  0.41267102  0.00452399  0.40787837  1
  O  O165  1  0.89957495  0.97234664  0.41196075  1
  O  O166  1  0.09053661  0.20142249  0.41278205  1
  O  O167  1  0.58168613  0.18491182  0.41295915  1
  O  O168  1  0.01055422  0.20478001  0.91600795  1
  O  O169  1  0.51398429  0.18780672  0.91151520  1
  O  O170  1  0.08824004  0.96818557  0.91255460  1
  O  O171  1  0.59247364  0.98297646  0.91223089  1
  O  O172  1  0.40038714  0.82113134  0.91304028  1
  O  O173  1  0.91251700  0.83926691  0.90838482  1
  O  O174  1  0.49036353  0.17384632  0.59076910  1
  O  O175  1  0.98906369  0.17312022  0.59081945  1
  O  O176  1  0.08872459  0.02387734  0.59648309  1
  O  O177  1  0.59174710  0.02696723  0.59075429  1
  O  O178  1  0.41582034  0.82532835  0.59575160  1
  O  O179  1  0.92168344  0.82356228  0.59630945  1
  O  O180  1  0.48994618  0.80573410  0.09132999  1
  O  O181  1  0.99166436  0.80839266  0.09102628  1
  O  O182  1  0.42056270  0.01872726  0.09590546  1
  O  O183  1  0.91626752  0.00754179  0.09493974  1
  O  O184  1  0.09181525  0.15510148  0.09063945  1
  O  O185  1  0.58919979  0.15380340  0.09645813  1
  O  O186  1  0.34419357  0.14906332  0.74233509  1
  O  O187  1  0.83943898  0.16626462  0.74515808  1
  O  O188  1  0.24224732  0.32431460  0.74872649  1
  O  O189  1  0.74173701  0.32559760  0.74647500  1
  O  O190  1  0.41871617  0.51676751  0.74322320  1
  O  O191  1  0.92622150  0.53936907  0.74166009  1
  O  O192  1  0.33888207  0.51223345  0.24486611  1
  O  O193  1  0.84599275  0.54143224  0.24292597  1
  O  O194  1  0.42432039  0.30982696  0.24107148  1
  O  O195  1  0.91832478  0.32092431  0.24269456  1
  O  O196  1  0.24221148  0.15792471  0.24625034  1
  O  O197  1  0.74181491  0.15851364  0.24843883  1
  O  O198  1  0.32130485  0.51194519  0.92133313  1
  O  O199  1  0.81671360  0.48534632  0.91762394  1
  O  O200  1  0.42463850  0.36127339  0.91672970  1
  O  O201  1  0.93196841  0.35322092  0.92094668  1
  O  O202  1  0.24213331  0.12272909  0.91798128  1
  O  O203  1  0.74560374  0.12454602  0.91728560  1
  O  O204  1  0.32038169  0.15619878  0.41696871  1
  O  O205  1  0.82375927  0.13213364  0.42276265  1
  O  O206  1  0.24282172  0.35821592  0.41670056  1
  O  O207  1  0.75028347  0.35488742  0.41812913  1
  O  O208  1  0.43491921  0.50401850  0.42294311  1
  O  O209  1  0.92512022  0.49576388  0.41708560  1
  O  O210  1  0.16653832  0.49057715  0.07715585  1
  O  O211  1  0.65972533  0.48240548  0.08367432  1
  O  O212  1  0.06927845  0.66308067  0.07807799  1
  O  O213  1  0.56618254  0.65737154  0.07785660  1
  O  O214  1  0.24584634  0.85984197  0.07840268  1
  O  O215  1  0.74300367  0.85430029  0.07693249  1
  O  O216  1  0.15899839  0.83542929  0.58408484  1
  O  O217  1  0.66603595  0.83771792  0.57608730  1
  O  O218  1  0.24270094  0.63053766  0.57782911  1
  O  O219  1  0.74751402  0.63695648  0.58179595  1
  O  O220  1  0.06555426  0.47433813  0.57741411  1
  O  O221  1  0.56718817  0.47661718  0.58153858  1
  O  O222  1  0.15309230  0.82501899  0.25423416  1
  O  O223  1  0.65815219  0.82446498  0.25196163  1
  O  O224  1  0.25929029  0.69012049  0.25716783  1
  O  O225  1  0.77174759  0.70387715  0.24996738  1
  O  O226  1  0.09044275  0.47182742  0.25930637  1
  O  O227  1  0.57823089  0.46228303  0.24890230  1
  O  O228  1  0.15683509  0.48763824  0.75155119  1
  O  O229  1  0.65255892  0.47880272  0.75470110  1
  O  O230  1  0.08007971  0.69888264  0.75246463  1
  O  O231  1  0.59041673  0.70873823  0.75978309  1
  O  O232  1  0.26900198  0.83942220  0.75251716  1
  O  O233  1  0.75893277  0.82769175  0.75685576  1
