# generated using pymatgen
data_DySBr
_symmetry_space_group_name_H-M   'P 1'
_cell_length_a   4.06812908
_cell_length_b   5.34324643
_cell_length_c   8.59354258
_cell_angle_alpha   90.00000000
_cell_angle_beta   90.00000000
_cell_angle_gamma   90.00000000
_symmetry_Int_Tables_number   1
_chemical_formula_structural   DySBr
_chemical_formula_sum   'Dy2 S2 Br2'
_cell_volume   186.79797413
_cell_formula_units_Z   2
loop_
 _symmetry_equiv_pos_site_id
 _symmetry_equiv_pos_as_xyz
  1  'x, y, z'
loop_
 _atom_site_type_symbol
 _atom_site_label
 _atom_site_symmetry_multiplicity
 _atom_site_fract_x
 _atom_site_fract_y
 _atom_site_fract_z
 _atom_site_occupancy
  Dy  Dy0  1  0.25000000  0.25000000  0.13377739  1
  Dy  Dy1  1  0.75000000  0.75000000  0.86622261  1
  S  S2  1  0.75000000  0.25000000  0.92037337  1
  S  S3  1  0.25000000  0.75000000  0.07962663  1
  Br  Br4  1  0.25000000  0.75000000  0.64032081  1
  Br  Br5  1  0.75000000  0.25000000  0.35967919  1
