# generated using pymatgen
data_Na3Ca8Nb4P3(S5O24)3
_symmetry_space_group_name_H-M   'P 1'
_cell_length_a   9.10591458
_cell_length_b   9.09513706
_cell_length_c   23.70380359
_cell_angle_alpha   90.07563540
_cell_angle_beta   89.80077100
_cell_angle_gamma   120.03382227
_symmetry_Int_Tables_number   1
_chemical_formula_structural   Na3Ca8Nb4P3(S5O24)3
_chemical_formula_sum   'Na3 Ca8 Nb4 P3 S15 O72'
_cell_volume   1699.53729589
_cell_formula_units_Z   1
loop_
 _symmetry_equiv_pos_site_id
 _symmetry_equiv_pos_as_xyz
  1  'x, y, z'
loop_
 _atom_site_type_symbol
 _atom_site_label
 _atom_site_symmetry_multiplicity
 _atom_site_fract_x
 _atom_site_fract_y
 _atom_site_fract_z
 _atom_site_occupancy
  Na  Na0  1  0.99227971  0.99448881  0.00266062  1
  Na  Na1  1  0.66835396  0.33308046  0.83369470  1
  Na  Na2  1  0.66272132  0.33406382  0.33594789  1
  Ca  Ca3  1  0.00205550  0.99963868  0.35572501  1
  Ca  Ca4  1  0.99765213  0.00018681  0.85731645  1
  Ca  Ca5  1  0.99860191  0.99692849  0.14860153  1
  Ca  Ca6  1  0.66246851  0.32637500  0.67934855  1
  Ca  Ca7  1  0.66866990  0.33468292  0.98068186  1
  Ca  Ca8  1  0.65971715  0.32951711  0.48740110  1
  Ca  Ca9  1  0.33492994  0.66763716  0.30975413  1
  Ca  Ca10  1  0.33438142  0.66693036  0.80714683  1
  Nb  Nb11  1  0.00497875  0.99970046  0.64799422  1
  Nb  Nb12  1  0.67540431  0.33174038  0.18141404  1
  Nb  Nb13  1  0.33260878  0.67128461  0.02438929  1
  Nb  Nb14  1  0.33309426  0.67161144  0.51809083  1
  P  P15  1  0.36267663  0.02885719  0.58335541  1
  P  P16  1  0.96063544  0.62311524  0.08099612  1
  P  P17  1  0.66338061  0.03974195  0.08096944  1
  S  S18  1  0.30692576  0.01230080  0.24755426  1
  S  S19  1  0.70505695  0.69248393  0.24772767  1
  S  S20  1  0.99159065  0.29449881  0.24796983  1
  S  S21  1  0.28740122  0.28359204  0.74885167  1
  S  S22  1  0.99537573  0.71162508  0.74880480  1
  S  S23  1  0.71770224  0.00438208  0.74858607  1
  S  S24  1  0.97445310  0.33329993  0.58326397  1
  S  S25  1  0.66635187  0.64126853  0.58348773  1
  S  S26  1  0.37896554  0.34131788  0.08217399  1
  S  S27  1  0.61578582  0.66658054  0.91906715  1
  S  S28  1  0.05094102  0.38350949  0.91888752  1
  S  S29  1  0.33204465  0.95001216  0.91894821  1
  S  S30  1  0.61925911  0.95509017  0.41756075  1
  S  S31  1  0.33630264  0.38289447  0.41788605  1
  S  S32  1  0.04486531  0.66294797  0.41785132  1
  O  O33  1  0.24152618  0.05149787  0.29893245  1
  O  O34  1  0.80924203  0.75684557  0.29901688  1
  O  O35  1  0.95024491  0.18994414  0.29908541  1
  O  O36  1  0.20819057  0.18249131  0.79922662  1
  O  O37  1  0.97410672  0.79104839  0.79924777  1
  O  O38  1  0.81667380  0.02483255  0.79940103  1
  O  O39  1  0.81860832  0.99483749  0.69699770  1
  O  O40  1  0.17630557  0.18200100  0.69685937  1
  O  O41  1  0.00549467  0.82355108  0.69680853  1
  O  O42  1  0.78473229  0.79654262  0.19820037  1
  O  O43  1  0.01353195  0.21597867  0.19792439  1
  O  O44  1  0.20424692  0.98898563  0.19797015  1
  O  O45  1  0.90890477  0.37604541  0.63292030  1
  O  O46  1  0.47096293  0.09102764  0.63518265  1
  O  O47  1  0.62524247  0.53306900  0.63302037  1
  O  O48  1  0.86417214  0.49993093  0.13467739  1
  O  O49  1  0.63775371  0.13592702  0.13502803  1
  O  O50  1  0.48979370  0.36827758  0.13315445  1
  O  O51  1  0.45227915  0.31433463  0.03178712  1
  O  O52  1  0.85536393  0.54285736  0.03016114  1
  O  O53  1  0.68329428  0.14313225  0.02996290  1
  O  O54  1  0.42464882  0.13809708  0.53150743  1
  O  O55  1  0.71011551  0.57623309  0.53386826  1
  O  O56  1  0.86643832  0.29195156  0.53379675  1
  O  O57  1  0.51786698  0.67658045  0.97087447  1
  O  O58  1  0.15787173  0.48163801  0.97043328  1
  O  O59  1  0.32220176  0.84162305  0.97115576  1
  O  O60  1  0.51697692  0.84317942  0.46989163  1
  O  O61  1  0.32670902  0.48400415  0.46977467  1
  O  O62  1  0.15708164  0.67323555  0.46997815  1
  O  O63  1  0.12437298  0.64144223  0.36769559  1
  O  O64  1  0.51767943  0.87586454  0.36771741  1
  O  O65  1  0.35746987  0.48298306  0.36742807  1
  O  O66  1  0.13122978  0.47751337  0.86732470  1
  O  O67  1  0.34762701  0.86958136  0.86796498  1
  O  O68  1  0.52265371  0.65314805  0.86761113  1
  O  O69  1  0.04096533  0.82126501  0.41813081  1
  O  O70  1  0.78081831  0.95811622  0.41777848  1
  O  O71  1  0.17895374  0.21925352  0.41777641  1
  O  O72  1  0.04101848  0.21592296  0.92095505  1
  O  O73  1  0.17410130  0.95812451  0.92122130  1
  O  O74  1  0.78365062  0.82370432  0.92098399  1
  O  O75  1  -0.00015404  0.18396960  0.59692876  1
  O  O76  1  0.17752134  0.99857188  0.60041665  1
  O  O77  1  0.81551457  0.81646302  0.59729540  1
  O  O78  1  0.99848456  0.80130645  0.09207663  1
  O  O79  1  0.80652348  0.00631068  0.09180486  1
  O  O80  1  0.20691880  0.20009978  0.09132397  1
  O  O81  1  0.70121975  0.15634137  0.74158973  1
  O  O82  1  0.45588011  0.30228984  0.74098311  1
  O  O83  1  0.84462541  0.54412952  0.74025655  1
  O  O84  1  0.68617823  0.51388750  0.23581202  1
  O  O85  1  0.82845562  0.31205535  0.23710248  1
  O  O86  1  0.48491127  0.17319132  0.23585246  1
  O  O87  1  0.63366672  0.51514327  0.92365178  1
  O  O88  1  0.88063784  0.36352808  0.92301770  1
  O  O89  1  0.48206031  0.11964380  0.92402522  1
  O  O90  1  0.63747302  0.12345730  0.42575630  1
  O  O91  1  0.48817612  0.36663430  0.42524297  1
  O  O92  1  0.87772553  0.51216548  0.42689004  1
  O  O93  1  0.36743934  0.50259629  0.07405038  1
  O  O94  1  0.14073706  0.63109278  0.07161458  1
  O  O95  1  0.49184748  0.85845133  0.07193283  1
  O  O96  1  0.33181286  0.84376765  0.56633975  1
  O  O97  1  0.51762976  0.66670255  0.56987948  1
  O  O98  1  0.14936924  0.48196717  0.56946371  1
  O  O99  1  0.33723794  0.87092931  0.25512940  1
  O  O100  1  0.53367368  0.66258421  0.25530557  1
  O  O101  1  0.13039604  0.46713717  0.25518779  1
  O  O102  1  0.29095614  0.44537838  0.74787592  1
  O  O103  1  0.15320275  0.70759278  0.74799215  1
  O  O104  1  0.55445895  0.84727343  0.74832549  1
