# generated using pymatgen
data_As2SO6
_symmetry_space_group_name_H-M   'P 1'
_cell_length_a   4.80798214
_cell_length_b   4.70161341
_cell_length_c   11.44959892
_cell_angle_alpha   90.00000000
_cell_angle_beta   90.00000000
_cell_angle_gamma   90.00000000
_symmetry_Int_Tables_number   1
_chemical_formula_structural   As2SO6
_chemical_formula_sum   'As4 S2 O12'
_cell_volume   258.82131281
_cell_formula_units_Z   2
loop_
 _symmetry_equiv_pos_site_id
 _symmetry_equiv_pos_as_xyz
  1  'x, y, z'
loop_
 _atom_site_type_symbol
 _atom_site_label
 _atom_site_symmetry_multiplicity
 _atom_site_fract_x
 _atom_site_fract_y
 _atom_site_fract_z
 _atom_site_occupancy
  As  As0  1  0.81789320  0.23093503  0.69219517  1
  As  As1  1  0.81789320  0.76906497  0.30780483  1
  As  As2  1  0.18210680  0.73093503  0.80780483  1
  As  As3  1  0.18210680  0.26906497  0.19219517  1
  S  S4  1  0.80065078  -0.00000000  -0.00000000  1
  S  S5  1  0.19934922  0.50000000  0.50000000  1
  O  O6  1  0.63924916  0.11933260  0.90597749  1
  O  O7  1  0.63924916  0.88066740  0.09402251  1
  O  O8  1  0.36075084  0.61933260  0.59402251  1
  O  O9  1  0.36075084  0.38066740  0.40597749  1
  O  O10  1  0.87489748  0.58256030  0.74143343  1
  O  O11  1  0.87489748  0.41743970  0.25856657  1
  O  O12  1  0.00390691  0.73026113  0.45500275  1
  O  O13  1  0.00390691  0.26973887  0.54499725  1
  O  O14  1  0.99609309  0.23026113  0.04499725  1
  O  O15  1  0.99609309  0.76973887  0.95500275  1
  O  O16  1  0.12510252  0.91743970  0.24143343  1
  O  O17  1  0.12510252  0.08256030  0.75856657  1
