# generated using pymatgen
data_Na3MgAlSi(SO6)2
_symmetry_space_group_name_H-M   'P 1'
_cell_length_a   8.83470650
_cell_length_b   8.83976564
_cell_length_c   21.73092638
_cell_angle_alpha   90.49306294
_cell_angle_beta   90.00000000
_cell_angle_gamma   119.98106976
_symmetry_Int_Tables_number   1
_chemical_formula_structural   Na3MgAlSi(SO6)2
_chemical_formula_sum   'Na18 Mg6 Al6 Si6 S12 O72'
_cell_volume   1469.95191148
_cell_formula_units_Z   6
loop_
 _symmetry_equiv_pos_site_id
 _symmetry_equiv_pos_as_xyz
  1  'x, y, z'
loop_
 _atom_site_type_symbol
 _atom_site_label
 _atom_site_symmetry_multiplicity
 _atom_site_fract_x
 _atom_site_fract_y
 _atom_site_fract_z
 _atom_site_occupancy
  Na  Na0  1  0.63407084  0.00469761  0.25437695  1
  Na  Na1  1  0.00390587  0.64033485  0.23716396  1
  Na  Na2  1  0.63642898  0.64033485  0.73716396  1
  Na  Na3  1  0.37062676  0.00469761  0.75437695  1
  Na  Na4  1  0.31980037  0.34771177  0.58657195  1
  Na  Na5  1  0.66118032  0.95107211  0.58002599  1
  Na  Na6  1  0.28989279  0.95107211  0.08002599  1
  Na  Na7  1  0.02791241  0.34771177  0.08657195  1
  Na  Na8  1  0.98882885  0.68258652  0.92669202  1
  Na  Na9  1  0.69189602  0.03002407  0.90621472  1
  Na  Na10  1  0.33812704  0.03002407  0.40621472  1
  Na  Na11  1  0.69375667  0.68258652  0.42669202  1
  Na  Na12  1  0.97988004  0.99444472  0.49800353  1
  Na  Na13  1  0.01456468  0.99444472  0.99800353  1
  Na  Na14  1  0.66495343  0.31262090  0.83224037  1
  Na  Na15  1  0.64766847  0.31262090  0.33224037  1
  Na  Na16  1  0.32953316  0.66174515  0.16514479  1
  Na  Na17  1  0.33221099  0.66174515  0.66514479  1
  Mg  Mg18  1  0.00597689  0.01006874  0.35160803  1
  Mg  Mg19  1  0.00409184  0.01006874  0.85160803  1
  Mg  Mg20  1  0.67279131  0.32995053  0.68494880  1
  Mg  Mg21  1  0.65716022  0.32995053  0.18494880  1
  Mg  Mg22  1  0.32730788  0.67398540  0.01816601  1
  Mg  Mg23  1  0.34667652  0.67398540  0.51816601  1
  Al  Al24  1  0.97507107  0.97074961  0.64975162  1
  Al  Al25  1  0.99567854  0.97074961  0.14975162  1
  Al  Al26  1  0.65153933  0.33861062  0.98297163  1
  Al  Al27  1  0.68707229  0.33861062  0.48297163  1
  Al  Al28  1  0.33849878  0.69220165  0.31775079  1
  Al  Al29  1  0.35370188  0.69220165  0.81775079  1
  Si  Si30  1  0.29443196  0.99782833  0.25251421  1
  Si  Si31  1  0.70339637  0.99782833  0.75251421  1
  Si  Si32  1  0.67401530  0.62226256  0.58392806  1
  Si  Si33  1  0.94824826  0.62226256  0.08392806  1
  Si  Si34  1  0.34003454  0.97675619  0.91989546  1
  Si  Si35  1  0.63672066  0.97675619  0.41989546  1
  S  S36  1  0.70315779  0.70952406  0.25166781  1
  S  S37  1  0.01193518  0.29386435  0.24846687  1
  S  S38  1  0.28192917  0.29386435  0.74846687  1
  S  S39  1  0.00636628  0.70952406  0.75166781  1
  S  S40  1  0.96082228  0.33214402  0.58339176  1
  S  S41  1  0.36216560  0.03922704  0.58390897  1
  S  S42  1  0.67706244  0.03922704  0.08390897  1
  S  S43  1  0.37132274  0.33214402  0.08339176  1
  S  S44  1  0.61487391  0.65436395  0.91632981  1
  S  S45  1  0.05023736  0.38369851  0.91541670  1
  S  S46  1  0.33346015  0.38369851  0.41541670  1
  S  S47  1  0.03948904  0.65436395  0.41632981  1
  O  O48  1  0.20776560  0.01361921  0.31499228  1
  O  O49  1  0.80538286  0.78879026  0.30783860  1
  O  O50  1  0.97892941  0.18091249  0.30095572  1
  O  O51  1  0.20198307  0.18091249  0.80095572  1
  O  O52  1  0.98340739  0.78879026  0.80783860  1
  O  O53  1  0.80585362  0.01361921  0.81499228  1
  O  O54  1  0.79955717  0.96283816  0.69235268  1
  O  O55  1  0.18256024  0.20826550  0.69019476  1
  O  O56  1  0.03941065  0.82802277  0.69747825  1
  O  O57  1  0.78861213  0.82802277  0.19747825  1
  O  O58  1  0.02570526  0.20826550  0.19019476  1
  O  O59  1  0.16328099  0.96283816  0.19235268  1
  O  O60  1  0.88182818  0.35122867  0.63944024  1
  O  O61  1  0.47350201  0.11460228  0.63919994  1
  O  O62  1  0.64343625  0.50776127  0.64446789  1
  O  O63  1  0.86432602  0.50776127  0.14446789  1
  O  O64  1  0.64110126  0.11460228  0.13919994  1
  O  O65  1  0.46940149  0.35122867  0.13944024  1
  O  O66  1  0.45466734  0.29799591  0.02873522  1
  O  O67  1  0.82955079  0.51945831  0.02133184  1
  O  O68  1  0.70145966  0.14945136  0.02885075  1
  O  O69  1  0.44799270  0.14945136  0.52885075  1
  O  O70  1  0.68990853  0.51945831  0.52133184  1
  O  O71  1  0.84332957  0.29799591  0.52873522  1
  O  O72  1  0.52554333  0.67295608  0.96935414  1
  O  O73  1  0.13984525  0.45680903  0.97429535  1
  O  O74  1  0.30689854  0.85896683  0.97999320  1
  O  O75  1  0.55206729  0.85896683  0.47999320  1
  O  O76  1  0.31696277  0.45680903  0.47429535  1
  O  O77  1  0.14741174  0.67295608  0.46935414  1
  O  O78  1  0.11975480  0.63564691  0.35784487  1
  O  O79  1  0.50210468  0.87934755  0.35943057  1
  O  O80  1  0.34694759  0.49878938  0.36301619  1
  O  O81  1  0.15184078  0.49878938  0.86301619  1
  O  O82  1  0.37724187  0.87934755  0.85943057  1
  O  O83  1  0.51589111  0.63564691  0.85784487  1
  O  O84  1  0.01691499  0.81017396  0.41383646  1
  O  O85  1  0.82468568  0.98973501  0.41039270  1
  O  O86  1  0.18544789  0.20426524  0.41092848  1
  O  O87  1  0.01881735  0.20426524  0.91092848  1
  O  O88  1  0.16504934  0.98973501  0.91039270  1
  O  O89  1  0.79325896  0.81017396  0.91383646  1
  O  O90  1  0.98163911  0.17307907  0.58601241  1
  O  O91  1  0.19223584  0.03780154  0.59136099  1
  O  O92  1  0.85038631  0.82141549  0.58775955  1
  O  O93  1  0.97102917  0.82141549  0.08775955  1
  O  O94  1  0.84556570  0.03780154  0.09136099  1
  O  O95  1  0.19143997  0.17307907  0.08601241  1
  O  O96  1  0.66586295  0.15897398  0.74497035  1
  O  O97  1  0.46359294  0.32264156  0.74517975  1
  O  O98  1  0.84942376  0.53778629  0.74328936  1
  O  O99  1  0.68836353  0.53778629  0.24328936  1
  O  O100  1  0.85904963  0.32264156  0.24517975  1
  O  O101  1  0.49311203  0.15897398  0.24497035  1
  O  O102  1  0.63490968  0.49604689  0.91936567  1
  O  O103  1  0.87540575  0.37452897  0.91453851  1
  O  O104  1  0.52779165  0.16662030  0.92724527  1
  O  O105  1  0.63882966  0.16662030  0.42724527  1
  O  O106  1  0.49912422  0.37452897  0.41453851  1
  O  O107  1  0.86113821  0.49604689  0.41936567  1
  O  O108  1  0.35192580  0.48648526  0.07525863  1
  O  O109  1  0.14700621  0.64811047  0.08078015  1
  O  O110  1  0.53024964  0.85967559  0.07681001  1
  O  O111  1  0.32942495  0.85967559  0.57681001  1
  O  O112  1  0.50110325  0.64811047  0.58078015  1
  O  O113  1  0.13455846  0.48648526  0.57525863  1
  O  O114  1  0.30623059  0.81083254  0.25490825  1
  O  O115  1  0.52640840  0.69251561  0.25573320  1
  O  O116  1  0.17371769  0.46807699  0.25470697  1
  O  O117  1  0.29435830  0.46807699  0.75470697  1
  O  O118  1  0.16610621  0.69251561  0.75573320  1
  O  O119  1  0.50460095  0.81083254  0.75490825  1
