# generated using pymatgen
data_Bi2W2O9
_symmetry_space_group_name_H-M   'P 1'
_cell_length_a   5.42493033
_cell_length_b   5.43991765
_cell_length_c   23.86668193
_cell_angle_alpha   90.00000000
_cell_angle_beta   90.00000000
_cell_angle_gamma   90.00000000
_symmetry_Int_Tables_number   1
_chemical_formula_structural   Bi2W2O9
_chemical_formula_sum   'Bi8 W8 O36'
_cell_volume   704.33380926
_cell_formula_units_Z   4
loop_
 _symmetry_equiv_pos_site_id
 _symmetry_equiv_pos_as_xyz
  1  'x, y, z'
loop_
 _atom_site_type_symbol
 _atom_site_label
 _atom_site_symmetry_multiplicity
 _atom_site_fract_x
 _atom_site_fract_y
 _atom_site_fract_z
 _atom_site_occupancy
  Bi  Bi0  1  0.27069355  0.64225511  0.69642285  1
  Bi  Bi1  1  0.22930645  0.35774489  0.19642285  1
  Bi  Bi2  1  0.72930645  0.14225511  0.69642285  1
  Bi  Bi3  1  0.77069355  0.85774489  0.19642285  1
  Bi  Bi4  1  0.77069355  0.64225511  0.80357715  1
  Bi  Bi5  1  0.72930645  0.35774489  0.30357715  1
  Bi  Bi6  1  0.22930645  0.14225511  0.80357715  1
  Bi  Bi7  1  0.27069355  0.85774489  0.30357715  1
  W  W8  1  0.74579153  0.32784359  0.07682716  1
  W  W9  1  0.75420847  0.67215641  0.57682716  1
  W  W10  1  0.25420847  0.82784359  0.07682716  1
  W  W11  1  0.24579153  0.17215641  0.57682716  1
  W  W12  1  0.25420847  0.67215641  0.92317284  1
  W  W13  1  0.24579153  0.32784359  0.42317284  1
  W  W14  1  0.74579153  0.17215641  0.92317284  1
  W  W15  1  0.75420847  0.82784359  0.42317284  1
  O  O16  1  0.18055829  0.72790856  0.84767705  1
  O  O17  1  0.31944171  0.27209144  0.34767705  1
  O  O18  1  0.81944171  0.22790856  0.84767705  1
  O  O19  1  0.68055829  0.77209144  0.34767705  1
  O  O20  1  0.46721125  0.50405641  0.08861010  1
  O  O21  1  0.03278875  0.49594359  0.58861010  1
  O  O22  1  0.53278875  0.00405641  0.08861010  1
  O  O23  1  0.96721125  0.99594359  0.58861010  1
  O  O24  1  0.53278875  0.49594359  0.91138990  1
  O  O25  1  0.96721125  0.50405641  0.41138990  1
  O  O26  1  0.46721125  0.99594359  0.91138990  1
  O  O27  1  0.03278875  0.00405641  0.41138990  1
  O  O28  1  0.81944171  0.27209144  0.15232295  1
  O  O29  1  0.68055829  0.72790856  0.65232295  1
  O  O30  1  0.18055829  0.77209144  0.15232295  1
  O  O31  1  0.31944171  0.22790856  0.65232295  1
  O  O32  1  0.00921172  0.08321497  0.25051750  1
  O  O33  1  0.49078828  0.91678503  0.75051750  1
  O  O34  1  0.99078828  0.58321497  0.25051750  1
  O  O35  1  0.50921172  0.41678503  0.75051750  1
  O  O36  1  0.50921172  0.08321497  0.24948250  1
  O  O37  1  0.99078828  0.91678503  0.74948250  1
  O  O38  1  0.49078828  0.58321497  0.24948250  1
  O  O39  1  0.00921172  0.41678503  0.74948250  1
  O  O40  1  0.18784020  0.25000000  0.50000000  1
  O  O41  1  0.31215980  0.75000000  0.00000000  1
  O  O42  1  0.95858239  0.57324550  0.06576831  1
  O  O43  1  0.68784020  0.25000000  0.00000000  1
  O  O44  1  0.54141761  0.07324550  0.43423169  1
  O  O45  1  0.95858239  0.92675450  0.93423169  1
  O  O46  1  0.45858239  0.57324550  0.43423169  1
  O  O47  1  0.04141761  0.42675450  0.93423169  1
  O  O48  1  0.45858239  0.92675450  0.56576831  1
  O  O49  1  0.04141761  0.07324550  0.06576831  1
  O  O50  1  0.54141761  0.42675450  0.56576831  1
  O  O51  1  0.81215980  0.75000000  0.50000000  1
