# generated using pymatgen
data_MgMn2FeWO6
_symmetry_space_group_name_H-M   'P 1'
_cell_length_a   5.39344003
_cell_length_b   5.37807041
_cell_length_c   6.10551225
_cell_angle_alpha   61.94271504
_cell_angle_beta   64.89276984
_cell_angle_gamma   59.54908228
_symmetry_Int_Tables_number   1
_chemical_formula_structural   MgMn2FeWO6
_chemical_formula_sum   'Mg1 Mn2 Fe1 W1 O6'
_cell_volume   130.64174380
_cell_formula_units_Z   1
loop_
 _symmetry_equiv_pos_site_id
 _symmetry_equiv_pos_as_xyz
  1  'x, y, z'
loop_
 _atom_site_type_symbol
 _atom_site_label
 _atom_site_symmetry_multiplicity
 _atom_site_fract_x
 _atom_site_fract_y
 _atom_site_fract_z
 _atom_site_occupancy
  Mg  Mg0  1  0.64553800  0.64646400  0.06331200  1
  Mn  Mn1  1  0.81250700  0.81429600  0.55702700  1
  Mn  Mn2  1  0.27816000  0.27335500  0.16442400  1
  Fe  Fe3  1  0.46691300  0.48038200  0.58955700  1
  W  W4  1  0.00322400  0.99265000  0.00612500  1
  O  O5  1  0.24854000  0.84872100  0.28943300  1
  O  O6  1  0.87673500  0.62133900  0.27208400  1
  O  O7  1  0.63265200  0.22049600  0.26182300  1
  O  O8  1  0.04903200  0.40521400  0.83310100  1
  O  O9  1  0.39238500  0.73064200  0.82070900  1
  O  O10  1  0.70816400  0.06779300  0.81038100  1
