# generated using pymatgen
data_SnBr2
_symmetry_space_group_name_H-M   'P 1'
_cell_length_a   4.23954006
_cell_length_b   8.76486682
_cell_length_c   10.70067946
_cell_angle_alpha   90.00000000
_cell_angle_beta   90.00000000
_cell_angle_gamma   90.00000000
_symmetry_Int_Tables_number   1
_chemical_formula_structural   SnBr2
_chemical_formula_sum   'Sn4 Br8'
_cell_volume   397.62659090
_cell_formula_units_Z   4
loop_
 _symmetry_equiv_pos_site_id
 _symmetry_equiv_pos_as_xyz
  1  'x, y, z'
loop_
 _atom_site_type_symbol
 _atom_site_label
 _atom_site_symmetry_multiplicity
 _atom_site_fract_x
 _atom_site_fract_y
 _atom_site_fract_z
 _atom_site_occupancy
  Sn  Sn0  1  0.25000000  0.88477940  0.16550883  1
  Sn  Sn1  1  0.75000000  0.11522060  0.83449117  1
  Sn  Sn2  1  0.25000000  0.38477940  0.33449117  1
  Sn  Sn3  1  0.75000000  0.61522060  0.66550883  1
  Br  Br4  1  0.25000000  0.16577670  0.04981055  1
  Br  Br5  1  0.75000000  0.83422330  0.95018945  1
  Br  Br6  1  0.25000000  0.66577670  0.45018945  1
  Br  Br7  1  0.75000000  0.33422330  0.54981055  1
  Br  Br8  1  0.25000000  0.48778415  0.81348536  1
  Br  Br9  1  0.75000000  0.51221585  0.18651464  1
  Br  Br10  1  0.25000000  0.98778415  0.68651464  1
  Br  Br11  1  0.75000000  0.01221585  0.31348536  1
