# generated using pymatgen
data_MgFe6(OF)6
_symmetry_space_group_name_H-M   'P 1'
_cell_length_a   6.93682881
_cell_length_b   15.10297566
_cell_length_c   3.10243694
_cell_angle_alpha   90.08972542
_cell_angle_beta   90.08295703
_cell_angle_gamma   135.01619084
_symmetry_Int_Tables_number   1
_chemical_formula_structural   MgFe6(OF)6
_chemical_formula_sum   'Mg1 Fe6 O6 F6'
_cell_volume   229.76577337
_cell_formula_units_Z   1
loop_
 _symmetry_equiv_pos_site_id
 _symmetry_equiv_pos_as_xyz
  1  'x, y, z'
loop_
 _atom_site_type_symbol
 _atom_site_label
 _atom_site_symmetry_multiplicity
 _atom_site_fract_x
 _atom_site_fract_y
 _atom_site_fract_z
 _atom_site_occupancy
  Mg  Mg0  1  0.96438800  0.49426300  0.54555400  1
  Fe  Fe1  1  0.98962100  0.00360900  0.99560800  1
  Fe  Fe2  1  0.06085000  0.35150900  0.02920800  1
  Fe  Fe3  1  0.07964400  0.71093500  0.02410400  1
  Fe  Fe4  1  0.35561600  0.27059100  0.49541500  1
  Fe  Fe5  1  0.50518500  0.67180800  0.49411500  1
  Fe  Fe6  1  0.52013200  0.99735300  0.50715900  1
  O  O7  1  0.21275300  0.34608700  0.52888000  1
  O  O8  1  0.19602400  0.67919700  0.52522300  1
  O  O9  1  0.29454100  0.17879300  0.99452700  1
  O  O10  1  0.22623100  0.52523200  0.03621200  1
  O  O11  1  0.31536400  0.88573600  0.00667400  1
  O  O12  1  0.79460600  0.99409500  0.49655900  1
  F  F13  1  0.18081800  0.99099200  0.49705700  1
  F  F14  1  0.74410700  0.46789000  0.04302900  1
  F  F15  1  0.71726400  0.80324100  0.98253800  1
  F  F16  1  0.70533300  0.13195000  0.01209400  1
  F  F17  1  0.80442800  0.32238800  0.52667800  1
  F  F18  1  0.81309300  0.66970300  0.50936500  1
