# generated using pymatgen
data_Na4ScNb(SiO4)3
_symmetry_space_group_name_H-M   'P 1'
_cell_length_a   9.21669041
_cell_length_b   9.21669009
_cell_length_c   22.44199746
_cell_angle_alpha   90.00000000
_cell_angle_beta   90.00000000
_cell_angle_gamma   120.00000119
_symmetry_Int_Tables_number   1
_chemical_formula_structural   Na4ScNb(SiO4)3
_chemical_formula_sum   'Na24 Sc6 Nb6 Si18 O72'
_cell_volume   1650.98116869
_cell_formula_units_Z   6
loop_
 _symmetry_equiv_pos_site_id
 _symmetry_equiv_pos_as_xyz
  1  'x, y, z'
loop_
 _atom_site_type_symbol
 _atom_site_label
 _atom_site_symmetry_multiplicity
 _atom_site_fract_x
 _atom_site_fract_y
 _atom_site_fract_z
 _atom_site_occupancy
  Na  Na0  1  0.63813698  0.01269088  0.24697528  1
  Na  Na1  1  0.37455389  0.36186302  0.24697528  1
  Na  Na2  1  0.98730912  0.62544611  0.24697528  1
  Na  Na3  1  0.63813698  0.62544611  0.74697528  1
  Na  Na4  1  0.98730912  0.36186302  0.74697528  1
  Na  Na5  1  0.37455389  0.01269088  0.74697528  1
  Na  Na6  1  0.30480398  0.34602388  0.58030828  1
  Na  Na7  1  0.04122089  0.69519602  0.58030828  1
  Na  Na8  1  0.65397612  0.95877911  0.58030828  1
  Na  Na9  1  0.30480398  0.95877911  0.08030828  1
  Na  Na10  1  0.65397612  0.69519602  0.08030828  1
  Na  Na11  1  0.04122089  0.34602388  0.08030828  1
  Na  Na12  1  0.97146998  0.67935788  0.91364228  1
  Na  Na13  1  0.70788689  0.02853002  0.91364228  1
  Na  Na14  1  0.32064212  0.29211311  0.91364228  1
  Na  Na15  1  0.97146998  0.29211311  0.41364228  1
  Na  Na16  1  0.32064212  0.02853002  0.41364228  1
  Na  Na17  1  0.70788689  0.67935788  0.41364228  1
  Na  Na18  1  0.00000000  -0.00000000  0.49491061  1
  Na  Na19  1  0.00000000  -0.00000000  0.99491061  1
  Na  Na20  1  0.66666700  0.33333300  0.82824361  1
  Na  Na21  1  0.66666700  0.33333300  0.32824361  1
  Na  Na22  1  0.33333300  0.66666700  0.16157761  1
  Na  Na23  1  0.33333300  0.66666700  0.66157761  1
  Sc  Sc24  1  0.00000000  -0.00000000  0.35154704  1
  Sc  Sc25  1  0.00000000  -0.00000000  0.85154704  1
  Sc  Sc26  1  0.66666700  0.33333300  0.68488004  1
  Sc  Sc27  1  0.66666700  0.33333300  0.18488004  1
  Sc  Sc28  1  0.33333300  0.66666700  0.01821404  1
  Sc  Sc29  1  0.33333300  0.66666700  0.51821404  1
  Nb  Nb30  1  0.00000000  -0.00000000  0.64668200  1
  Nb  Nb31  1  0.00000000  -0.00000000  0.14668200  1
  Nb  Nb32  1  0.66666700  0.33333300  0.98001500  1
  Nb  Nb33  1  0.66666700  0.33333300  0.48001500  1
  Nb  Nb34  1  0.33333300  0.66666700  0.31334900  1
  Nb  Nb35  1  0.33333300  0.66666700  0.81334900  1
  Si  Si36  1  0.29265938  0.99840733  0.25180699  1
  Si  Si37  1  0.70574795  0.70734062  0.25180699  1
  Si  Si38  1  0.00159267  0.29425205  0.25180699  1
  Si  Si39  1  0.29265938  0.29425205  0.75180699  1
  Si  Si40  1  0.00159267  0.70734062  0.75180699  1
  Si  Si41  1  0.70574795  0.99840733  0.75180699  1
  Si  Si42  1  0.95932638  0.33174033  0.58513999  1
  Si  Si43  1  0.37241495  0.04067362  0.58513999  1
  Si  Si44  1  0.66825967  0.62758505  0.58513999  1
  Si  Si45  1  0.95932638  0.62758505  0.08513999  1
  Si  Si46  1  0.66825967  0.04067362  0.08513999  1
  Si  Si47  1  0.37241495  0.33174033  0.08513999  1
  Si  Si48  1  0.62599238  0.66507433  0.91847399  1
  Si  Si49  1  0.03908095  0.37400762  0.91847399  1
  Si  Si50  1  0.33492567  0.96091905  0.91847399  1
  Si  Si51  1  0.62599238  0.96091905  0.41847399  1
  Si  Si52  1  0.33492567  0.37400762  0.41847399  1
  Si  Si53  1  0.03908095  0.66507433  0.41847399  1
  O  O54  1  0.20814382  0.02673243  0.31012648  1
  O  O55  1  0.81858860  0.79185618  0.31012648  1
  O  O56  1  0.97326757  0.18141140  0.31012648  1
  O  O57  1  0.20814382  0.18141140  0.81012648  1
  O  O58  1  0.97326757  0.79185618  0.81012648  1
  O  O59  1  0.81858860  0.02673243  0.81012648  1
  O  O60  1  0.80325589  0.97012121  0.69272501  1
  O  O61  1  0.16686532  0.19674411  0.69272501  1
  O  O62  1  0.02987879  0.83313468  0.69272501  1
  O  O63  1  0.80325589  0.83313468  0.19272501  1
  O  O64  1  0.02987879  0.19674411  0.19272501  1
  O  O65  1  0.16686532  0.97012121  0.19272501  1
  O  O66  1  0.87481082  0.36006543  0.64345948  1
  O  O67  1  0.48525560  0.12518918  0.64345948  1
  O  O68  1  0.63993457  0.51474440  0.64345948  1
  O  O69  1  0.87481082  0.51474440  0.14345948  1
  O  O70  1  0.63993457  0.12518918  0.14345948  1
  O  O71  1  0.48525560  0.36006543  0.14345948  1
  O  O72  1  0.46992289  0.30345421  0.02605801  1
  O  O73  1  0.83353232  0.53007711  0.02605801  1
  O  O74  1  0.69654579  0.16646768  0.02605801  1
  O  O75  1  0.46992289  0.16646768  0.52605801  1
  O  O76  1  0.69654579  0.53007711  0.52605801  1
  O  O77  1  0.83353232  0.30345421  0.52605801  1
  O  O78  1  0.54147682  0.69339943  0.97679348  1
  O  O79  1  0.15192160  0.45852318  0.97679348  1
  O  O80  1  0.30660057  0.84807840  0.97679348  1
  O  O81  1  0.54147682  0.84807840  0.47679348  1
  O  O82  1  0.30660057  0.45852318  0.47679348  1
  O  O83  1  0.15192160  0.69339943  0.47679348  1
  O  O84  1  0.13658889  0.63678821  0.35939201  1
  O  O85  1  0.50019832  0.86341111  0.35939201  1
  O  O86  1  0.36321179  0.49980168  0.35939201  1
  O  O87  1  0.13658889  0.49980168  0.85939201  1
  O  O88  1  0.36321179  0.86341111  0.85939201  1
  O  O89  1  0.50019832  0.63678821  0.85939201  1
  O  O90  1  0.01226138  0.82545537  0.41263129  1
  O  O91  1  0.81319399  0.98773862  0.41263129  1
  O  O92  1  0.17454463  0.18680601  0.41263129  1
  O  O93  1  0.01226138  0.18680601  0.91263129  1
  O  O94  1  0.17454463  0.98773862  0.91263129  1
  O  O95  1  0.81319399  0.82545537  0.91263129  1
  O  O96  1  0.96747621  0.15494896  0.58802173  1
  O  O97  1  0.18747275  0.03252379  0.58802173  1
  O  O98  1  0.84505104  0.81252725  0.58802173  1
  O  O99  1  0.96747621  0.81252725  0.08802173  1
  O  O100  1  0.84505104  0.03252379  0.08802173  1
  O  O101  1  0.18747275  0.15494896  0.08802173  1
  O  O102  1  0.67892838  0.15878837  0.74596429  1
  O  O103  1  0.47986099  0.32107162  0.74596429  1
  O  O104  1  0.84121163  0.52013901  0.74596429  1
  O  O105  1  0.67892838  0.52013901  0.24596429  1
  O  O106  1  0.84121163  0.32107162  0.24596429  1
  O  O107  1  0.47986099  0.15878837  0.24596429  1
  O  O108  1  0.63414321  0.48828196  0.92135473  1
  O  O109  1  0.85413975  0.36585679  0.92135473  1
  O  O110  1  0.51171804  0.14586025  0.92135473  1
  O  O111  1  0.63414321  0.14586025  0.42135473  1
  O  O112  1  0.51171804  0.36585679  0.42135473  1
  O  O113  1  0.85413975  0.48828196  0.42135473  1
  O  O114  1  0.34559438  0.49212237  0.07929829  1
  O  O115  1  0.14652699  0.65440562  0.07929829  1
  O  O116  1  0.50787763  0.85347301  0.07929829  1
  O  O117  1  0.34559438  0.85347301  0.57929829  1
  O  O118  1  0.50787763  0.65440562  0.57929829  1
  O  O119  1  0.14652699  0.49212237  0.57929829  1
  O  O120  1  0.30080921  0.82161596  0.25468873  1
  O  O121  1  0.52080575  0.69919079  0.25468873  1
  O  O122  1  0.17838404  0.47919425  0.25468873  1
  O  O123  1  0.30080921  0.47919425  0.75468873  1
  O  O124  1  0.17838404  0.69919079  0.75468873  1
  O  O125  1  0.52080575  0.82161596  0.75468873  1
