# generated using pymatgen
data_Na5TiGa3Si3(SO8)3
_symmetry_space_group_name_H-M   'P 1'
_cell_length_a   8.82403093
_cell_length_b   8.84331486
_cell_length_c   22.13056544
_cell_angle_alpha   90.47817114
_cell_angle_beta   90.61455635
_cell_angle_gamma   120.05981724
_symmetry_Int_Tables_number   1
_chemical_formula_structural   Na5TiGa3Si3(SO8)3
_chemical_formula_sum   'Na15 Ti3 Ga9 Si9 S9 O72'
_cell_volume   1494.38883282
_cell_formula_units_Z   3
loop_
 _symmetry_equiv_pos_site_id
 _symmetry_equiv_pos_as_xyz
  1  'x, y, z'
loop_
 _atom_site_type_symbol
 _atom_site_label
 _atom_site_symmetry_multiplicity
 _atom_site_fract_x
 _atom_site_fract_y
 _atom_site_fract_z
 _atom_site_occupancy
  Na  Na0  1  0.63921487  0.00190665  0.25395053  1
  Na  Na1  1  0.00169182  0.62592213  0.24835814  1
  Na  Na2  1  0.63091280  0.63407824  0.74547988  1
  Na  Na3  1  0.36687214  0.00883999  0.75469063  1
  Na  Na4  1  0.66684082  0.95971086  0.58485747  1
  Na  Na5  1  0.97416127  0.67859228  0.91998016  1
  Na  Na6  1  0.69688467  0.02573163  0.91332981  1
  Na  Na7  1  0.96384617  0.30098558  0.41135012  1
  Na  Na8  1  0.70449604  0.68061954  0.42096790  1
  Na  Na9  1  0.00806685  0.98802761  0.50202695  1
  Na  Na10  1  0.01085045  0.99599321  0.00011467  1
  Na  Na11  1  0.65264834  0.32336048  0.83167479  1
  Na  Na12  1  0.65817387  0.32143838  0.33195519  1
  Na  Na13  1  0.31795724  0.64436084  0.16165452  1
  Na  Na14  1  0.32261180  0.64175555  0.66502181  1
  Ti  Ti15  1  0.65955480  0.34850954  0.98007113  1
  Ti  Ti16  1  0.68005682  0.34662288  0.47938719  1
  Ti  Ti17  1  0.35524043  0.67387362  0.81202772  1
  Ga  Ga18  1  0.98856845  0.99717986  0.35333010  1
  Ga  Ga19  1  0.00908090  0.01280710  0.85147416  1
  Ga  Ga20  1  0.98624514  0.99355756  0.65176885  1
  Ga  Ga21  1  0.00715132  0.00497165  0.14447345  1
  Ga  Ga22  1  0.64963051  0.33148695  0.68765933  1
  Ga  Ga23  1  0.69480115  0.34070093  0.17935169  1
  Ga  Ga24  1  0.32865263  0.68559698  0.01634950  1
  Ga  Ga25  1  0.34677147  0.67984311  0.51643234  1
  Ga  Ga26  1  0.31584488  0.65708784  0.31853687  1
  Si  Si27  1  0.00843157  0.28902691  0.24915419  1
  Si  Si28  1  0.27838270  0.28503742  0.74842846  1
  Si  Si29  1  0.71724495  0.01253244  0.74972241  1
  Si  Si30  1  0.66592156  0.62705952  0.58580740  1
  Si  Si31  1  0.97087943  0.63648903  0.08486426  1
  Si  Si32  1  0.62134217  0.67120664  0.92037003  1
  Si  Si33  1  0.32986902  0.96190682  0.91588927  1
  Si  Si34  1  0.61806206  0.95663862  0.41515511  1
  Si  Si35  1  0.05287554  0.67891387  0.41710475  1
  S  S36  1  0.29175748  0.00570860  0.24949182  1
  S  S37  1  0.70289822  0.70214719  0.24902754  1
  S  S38  1  -0.00033884  0.70516035  0.74991120  1
  S  S39  1  0.96154352  0.33930865  0.58361778  1
  S  S40  1  0.37338493  0.04352596  0.58246220  1
  S  S41  1  0.66695436  0.04110541  0.08359620  1
  S  S42  1  0.38091115  0.33467308  0.08553944  1
  S  S43  1  0.04786613  0.37915345  0.91799687  1
  S  S44  1  0.33392233  0.37484596  0.41683868  1
  O  O45  1  0.21195094  0.02797908  0.30461204  1
  O  O46  1  0.81389016  0.77609442  0.30581188  1
  O  O47  1  0.96701510  0.16988521  0.31037067  1
  O  O48  1  0.20353029  0.15740016  0.80581877  1
  O  O49  1  0.96448056  0.77907695  0.80509114  1
  O  O50  1  0.82583041  0.03234089  0.81171947  1
  O  O51  1  0.78160225  0.95265487  0.68991509  1
  O  O52  1  0.16437555  0.19373894  0.68709849  1
  O  O53  1  0.03321176  0.81753279  0.69653830  1
  O  O54  1  0.78838277  0.81521791  0.19710140  1
  O  O55  1  0.02818806  0.18946743  0.19062370  1
  O  O56  1  0.17792948  0.96842534  0.19514708  1
  O  O57  1  0.87411590  0.35824654  0.63669856  1
  O  O58  1  0.48173918  0.11826476  0.63927310  1
  O  O59  1  0.64325813  0.51115959  0.64495686  1
  O  O60  1  0.88631982  0.52389830  0.14625702  1
  O  O61  1  0.63911113  0.11916402  0.14060076  1
  O  O62  1  0.48973231  0.35278535  0.14001913  1
  O  O63  1  0.46421380  0.30939813  0.02994490  1
  O  O64  1  0.83538659  0.52814003  0.02637297  1
  O  O65  1  0.68469741  0.14864717  0.03051311  1
  O  O66  1  0.46610321  0.15141641  0.52992719  1
  O  O67  1  0.68720146  0.52484733  0.52533689  1
  O  O68  1  0.84987805  0.31180151  0.52680838  1
  O  O69  1  0.52440188  0.70095715  0.97656379  1
  O  O70  1  0.15205020  0.45619719  0.97383280  1
  O  O71  1  0.28063795  0.83248744  0.97267595  1
  O  O72  1  0.54676221  0.83424599  0.47448140  1
  O  O73  1  0.30058363  0.45188795  0.47104947  1
  O  O74  1  0.16804638  0.69437049  0.47610535  1
  O  O75  1  0.11109431  0.61671344  0.35624466  1
  O  O76  1  0.50239876  0.86330722  0.35352989  1
  O  O77  1  0.37045971  0.48585216  0.36299189  1
  O  O78  1  0.12458118  0.48751851  0.86448968  1
  O  O79  1  0.36614539  0.86765808  0.85682668  1
  O  O80  1  0.50626404  0.63559286  0.85700795  1
  O  O81  1  0.01894765  0.84280176  0.40815386  1
  O  O82  1  0.81888205  0.98643928  0.41063264  1
  O  O83  1  0.17822115  0.19913629  0.40957520  1
  O  O84  1  0.01994736  0.20004270  0.91312751  1
  O  O85  1  0.15639759  0.97954371  0.90802978  1
  O  O86  1  0.81634677  0.83971417  0.91241743  1
  O  O87  1  0.97014566  0.17564545  0.58438901  1
  O  O88  1  0.20023649  0.02685690  0.58625352  1
  O  O89  1  0.84402900  0.82425594  0.58821068  1
  O  O90  1  0.98006525  0.82725614  0.09036972  1
  O  O91  1  0.82849030  0.03012170  0.08810302  1
  O  O92  1  0.20631147  0.17421484  0.08702583  1
  O  O93  1  0.68380310  0.17688013  0.74075441  1
  O  O94  1  0.48219488  0.31984877  0.74492583  1
  O  O95  1  0.84294448  0.52947791  0.74267488  1
  O  O96  1  0.68310004  0.52528121  0.24334070  1
  O  O97  1  0.82534864  0.30702842  0.24421997  1
  O  O98  1  0.46910982  0.16137972  0.24335710  1
  O  O99  1  0.64609350  0.49660544  0.92464576  1
  O  O100  1  0.86751638  0.35981054  0.92303145  1
  O  O101  1  0.51605665  0.14857624  0.92608779  1
  O  O102  1  0.64404669  0.15410620  0.42442306  1
  O  O103  1  0.49293058  0.35829342  0.42352412  1
  O  O104  1  0.84910926  0.50150204  0.42579541  1
  O  O105  1  0.36547806  0.49083546  0.08018002  1
  O  O106  1  0.15856549  0.64453272  0.07651368  1
  O  O107  1  0.51086005  0.86495943  0.08019424  1
  O  O108  1  0.35958250  0.86788917  0.57842766  1
  O  O109  1  0.49140210  0.64999886  0.57735569  1
  O  O110  1  0.13538080  0.49414875  0.57754848  1
  O  O111  1  0.31342696  0.84727911  0.25312842  1
  O  O112  1  0.53093410  0.69092692  0.25520680  1
  O  O113  1  0.17771898  0.49027958  0.25557650  1
  O  O114  1  0.30335745  0.48295427  0.75653254  1
  O  O115  1  0.15808674  0.69004939  0.75654449  1
  O  O116  1  0.51532506  0.83305589  0.75611490  1
