# generated using pymatgen
data_K2In3AgSe6
_symmetry_space_group_name_H-M   'P 1'
_cell_length_a   8.29834724
_cell_length_b   8.29834746
_cell_length_c   21.38390285
_cell_angle_alpha   84.27447969
_cell_angle_beta   84.27447803
_cell_angle_gamma   89.88291636
_symmetry_Int_Tables_number   1
_chemical_formula_structural   K2In3AgSe6
_chemical_formula_sum   'K8 In12 Ag4 Se24'
_cell_volume   1457.84818089
_cell_formula_units_Z   4
loop_
 _symmetry_equiv_pos_site_id
 _symmetry_equiv_pos_as_xyz
  1  'x, y, z'
loop_
 _atom_site_type_symbol
 _atom_site_label
 _atom_site_symmetry_multiplicity
 _atom_site_fract_x
 _atom_site_fract_y
 _atom_site_fract_z
 _atom_site_occupancy
  K  K0  1  0.89530543  0.79497781  0.91684736  1
  K  K1  1  0.20502219  0.10469457  0.58315264  1
  K  K2  1  0.10469457  0.20502219  0.08315264  1
  K  K3  1  0.79497781  0.89530543  0.41684736  1
  K  K4  1  0.39263567  0.74714086  0.91687071  1
  K  K5  1  0.25285914  0.60736433  0.58312929  1
  K  K6  1  0.60736433  0.25285914  0.08312929  1
  K  K7  1  0.74714086  0.39263567  0.41687071  1
  In  In8  1  0.27767496  0.15150725  0.38831051  1
  In  In9  1  0.84849275  0.72232504  0.11168949  1
  In  In10  1  0.72232504  0.84849275  0.61168949  1
  In  In11  1  0.15150725  0.27767496  0.88831051  1
  In  In12  1  0.27876151  0.65106878  0.38855165  1
  In  In13  1  0.34893122  0.72123849  0.11144835  1
  In  In14  1  0.72123849  0.34893122  0.61144835  1
  In  In15  1  0.65106878  0.27876151  0.88855165  1
  In  In16  1  0.06683518  0.43891054  0.24997193  1
  In  In17  1  0.56108946  0.93316482  0.25002807  1
  In  In18  1  0.93316482  0.56108946  0.75002807  1
  In  In19  1  0.43891054  0.06683518  0.74997193  1
  Ag  Ag20  1  0.56247339  0.43752661  0.25000000  1
  Ag  Ag21  1  0.43752661  0.56247339  0.75000000  1
  Ag  Ag22  1  0.06525349  0.93474651  0.25000000  1
  Ag  Ag23  1  0.93474651  0.06525349  0.75000000  1
  Se  Se24  1  0.30514405  0.38207450  0.46088137  1
  Se  Se25  1  0.61792550  0.69485595  0.03911863  1
  Se  Se26  1  0.69485595  0.61792550  0.53911863  1
  Se  Se27  1  0.38207450  0.30514405  0.96088137  1
  Se  Se28  1  0.21426870  0.88232214  0.46067532  1
  Se  Se29  1  0.11767786  0.78573130  0.03932468  1
  Se  Se30  1  0.78573130  0.11767786  0.53932468  1
  Se  Se31  1  0.88232214  0.21426870  0.96067532  1
  Se  Se32  1  0.17455657  0.02667184  0.82522033  1
  Se  Se33  1  0.97332816  0.82544343  0.67477967  1
  Se  Se34  1  0.82544343  0.97332816  0.17477967  1
  Se  Se35  1  0.02667184  0.17455657  0.32522033  1
  Se  Se36  1  0.43871032  0.84077543  0.67463323  1
  Se  Se37  1  0.15922457  0.56128968  0.82536677  1
  Se  Se38  1  0.56128968  0.15922457  0.32536677  1
  Se  Se39  1  0.84077543  0.43871032  0.17463323  1
  Se  Se40  1  0.66190810  0.02694600  0.82568005  1
  Se  Se41  1  0.97305400  0.33809190  0.67431995  1
  Se  Se42  1  0.33809190  0.97305400  0.17431995  1
  Se  Se43  1  0.02694600  0.66190810  0.32568005  1
  Se  Se44  1  0.43723859  0.32851452  0.67438763  1
  Se  Se45  1  0.67148548  0.56276141  0.82561237  1
  Se  Se46  1  0.56276141  0.67148548  0.32561237  1
  Se  Se47  1  0.32851452  0.43723859  0.17438763  1
