# generated using pymatgen
data_Na4CaHfSi(PO6)2
_symmetry_space_group_name_H-M   'P 1'
_cell_length_a   9.33303580
_cell_length_b   9.37026444
_cell_length_c   22.35193253
_cell_angle_alpha   89.98235030
_cell_angle_beta   90.00000000
_cell_angle_gamma   119.86865898
_symmetry_Int_Tables_number   1
_chemical_formula_structural   Na4CaHfSi(PO6)2
_chemical_formula_sum   'Na24 Ca6 Hf6 Si6 P12 O72'
_cell_volume   1695.09374297
_cell_formula_units_Z   6
loop_
 _symmetry_equiv_pos_site_id
 _symmetry_equiv_pos_as_xyz
  1  'x, y, z'
loop_
 _atom_site_type_symbol
 _atom_site_label
 _atom_site_symmetry_multiplicity
 _atom_site_fract_x
 _atom_site_fract_y
 _atom_site_fract_z
 _atom_site_occupancy
  Na  Na0  1  0.64532846  0.01584392  0.24667711  1
  Na  Na1  1  0.36793421  0.34493323  0.24863062  1
  Na  Na2  1  0.98894780  0.63114456  0.23994311  1
  Na  Na3  1  0.64219676  0.63114456  0.73994311  1
  Na  Na4  1  0.97699902  0.34493323  0.74863062  1
  Na  Na5  1  0.37051546  0.01584392  0.74667711  1
  Na  Na6  1  0.31988727  0.35665542  0.58178715  1
  Na  Na7  1  0.02950925  0.68643892  0.57752634  1
  Na  Na8  1  0.64988084  0.95833140  0.57528829  1
  Na  Na9  1  0.30845155  0.95833140  0.07528829  1
  Na  Na10  1  0.65693067  0.68643892  0.07752634  1
  Na  Na11  1  0.03676915  0.35665542  0.08178715  1
  Na  Na12  1  0.99065635  0.69172773  0.91683634  1
  Na  Na13  1  0.69934383  0.02411075  0.90707496  1
  Na  Na14  1  0.31871836  0.29374492  0.91146929  1
  Na  Na15  1  0.97502556  0.29374492  0.41146929  1
  Na  Na16  1  0.32476592  0.02411075  0.40707496  1
  Na  Na17  1  0.70107038  0.69172773  0.41683634  1
  Na  Na18  1  0.98895896  0.99730251  0.49487077  1
  Na  Na19  1  0.00834355  0.99730251  0.99487077  1
  Na  Na20  1  0.66246420  0.31949418  0.82847461  1
  Na  Na21  1  0.65703098  0.31949418  0.32847461  1
  Na  Na22  1  0.32111927  0.66780911  0.16204395  1
  Na  Na23  1  0.34668884  0.66780911  0.66204395  1
  Ca  Ca24  1  0.00113109  0.99825413  0.34802098  1
  Ca  Ca25  1  0.99712304  0.99825413  0.84802098  1
  Ca  Ca26  1  0.66504271  0.33141416  0.68134466  1
  Ca  Ca27  1  0.66637245  0.33141416  0.18134466  1
  Ca  Ca28  1  0.33328966  0.67024397  0.01472499  1
  Ca  Ca29  1  0.33695330  0.67024397  0.51472499  1
  Hf  Hf30  1  0.99232132  0.99634885  0.64886283  1
  Hf  Hf31  1  0.00402754  0.99634885  0.14886283  1
  Hf  Hf32  1  0.66865845  0.33501518  0.98226385  1
  Hf  Hf33  1  0.66635773  0.33501518  0.48226385  1
  Hf  Hf34  1  0.33785555  0.67482957  0.31570137  1
  Hf  Hf35  1  0.33697302  0.67482957  0.81570137  1
  Si  Si36  1  0.30022370  0.99174066  0.25303720  1
  Si  Si37  1  0.69151695  0.99174066  0.75303720  1
  Si  Si38  1  0.67454142  0.64015016  0.58623481  1
  Si  Si39  1  0.96560974  0.64015016  0.08623481  1
  Si  Si40  1  0.34164447  0.97640257  0.91938477  1
  Si  Si41  1  0.63475710  0.97640257  0.41938477  1
  P  P42  1  0.69289667  0.70382405  0.25124729  1
  P  P43  1  0.01176904  0.30538949  0.25120443  1
  P  P44  1  0.29362045  0.30538949  0.75120443  1
  P  P45  1  0.01092738  0.70382405  0.75124729  1
  P  P46  1  0.96161661  0.32270077  0.58502207  1
  P  P47  1  0.35904084  0.03904736  0.58449059  1
  P  P48  1  0.68000751  0.03904736  0.08449059  1
  P  P49  1  0.36108516  0.32270077  0.08502207  1
  P  P50  1  0.62795753  0.65391573  0.91808408  1
  P  P51  1  0.02832570  0.37191595  0.91803744  1
  P  P52  1  0.34358925  0.37191595  0.41803744  1
  P  P53  1  0.02595720  0.65391573  0.41808408  1
  O  O54  1  0.22772292  0.01741333  0.31407299  1
  O  O55  1  0.78676895  0.77603162  0.30921578  1
  O  O56  1  0.98614706  0.20880822  0.30879495  1
  O  O57  1  0.22266115  0.20880822  0.80879495  1
  O  O58  1  0.98926267  0.77603162  0.80921578  1
  O  O59  1  0.78969041  0.01741333  0.81407299  1
  O  O60  1  0.80195803  0.97446443  0.69598118  1
  O  O61  1  0.18021186  0.20649132  0.69615292  1
  O  O62  1  0.03126177  0.82132831  0.69654659  1
  O  O63  1  0.79006654  0.82132831  0.19654659  1
  O  O64  1  0.02627946  0.20649132  0.19615292  1
  O  O65  1  0.17250640  0.97446443  0.19598118  1
  O  O66  1  0.89089434  0.34428516  0.64293753  1
  O  O67  1  0.45546862  0.10395975  0.64224662  1
  O  O68  1  0.65467735  0.54284203  0.64696719  1
  O  O69  1  0.88816568  0.54284203  0.14696719  1
  O  O70  1  0.64849213  0.10395975  0.14224662  1
  O  O71  1  0.45339182  0.34428516  0.14293753  1
  O  O72  1  0.45883746  0.30303971  0.03040075  1
  O  O73  1  0.84057284  0.53385272  0.02825216  1
  O  O74  1  0.69332470  0.15481591  0.03012820  1
  O  O75  1  0.46149220  0.15481591  0.53012820  1
  O  O76  1  0.69328088  0.53385272  0.52825216  1
  O  O77  1  0.84420325  0.30303971  0.53040075  1
  O  O78  1  0.55696231  0.67559061  0.97654903  1
  O  O79  1  0.12524121  0.44290471  0.97581288  1
  O  O80  1  0.31583703  0.87620791  0.98005420  1
  O  O81  1  0.56036988  0.87620791  0.48005420  1
  O  O82  1  0.31766250  0.44290471  0.47581288  1
  O  O83  1  0.11862729  0.67559061  0.47654903  1
  O  O84  1  0.12645937  0.63632348  0.36410284  1
  O  O85  1  0.50690714  0.86656494  0.36189255  1
  O  O86  1  0.36050268  0.48559953  0.36305654  1
  O  O87  1  0.12509585  0.48559953  0.86305654  1
  O  O88  1  0.35965680  0.86656494  0.86189255  1
  O  O89  1  0.50986312  0.63632348  0.86410284  1
  O  O90  1  0.99406724  0.79822266  0.41182076  1
  O  O91  1  0.82085995  0.00650337  0.41370913  1
  O  O92  1  0.19957343  0.19579076  0.41219449  1
  O  O93  1  0.99621733  0.19579076  0.91219449  1
  O  O94  1  0.18564342  0.00650337  0.91370913  1
  O  O95  1  0.80415542  0.79822266  0.91182076  1
  O  O96  1  0.96916726  0.15809836  0.58608255  1
  O  O97  1  0.19333468  0.04445584  0.58615237  1
  O  O98  1  0.85307529  0.82165598  0.58649779  1
  O  O99  1  0.96858068  0.82165598  0.08649779  1
  O  O100  1  0.85112116  0.04445584  0.08615237  1
  O  O101  1  0.18893110  0.15809836  0.08608255  1
  O  O102  1  0.65825181  0.14477718  0.74707596  1
  O  O103  1  0.47078388  0.33676400  0.74538858  1
  O  O104  1  0.86592806  0.52847022  0.74501841  1
  O  O105  1  0.66254316  0.52847022  0.24501841  1
  O  O106  1  0.86598112  0.33676400  0.24538858  1
  O  O107  1  0.48652636  0.14477718  0.24707596  1
  O  O108  1  0.63052693  0.48684990  0.91925161  1
  O  O109  1  0.85858836  0.37156800  0.91991860  1
  O  O110  1  0.51951062  0.15529428  0.91973048  1
  O  O111  1  0.63578467  0.15529428  0.41973048  1
  O  O112  1  0.51298063  0.37156800  0.41991860  1
  O  O113  1  0.85632397  0.48684990  0.41925161  1
  O  O114  1  0.33317293  0.47010164  0.07787368  1
  O  O115  1  0.15136261  0.66826597  0.08181211  1
  O  O116  1  0.54005704  0.86030449  0.07706223  1
  O  O117  1  0.32024645  0.86030449  0.57706223  1
  O  O118  1  0.51690236  0.66826597  0.58181211  1
  O  O119  1  0.13692770  0.47010164  0.57787368  1
  O  O120  1  0.29918499  0.81191755  0.25347842  1
  O  O121  1  0.52113840  0.69869372  0.25278872  1
  O  O122  1  0.18048854  0.47301315  0.25269532  1
  O  O123  1  0.29252361  0.47301315  0.75269532  1
  O  O124  1  0.17755432  0.69869372  0.75278872  1
  O  O125  1  0.51273156  0.81191755  0.75347842  1
