# generated using pymatgen
data_K2GeSe4
_symmetry_space_group_name_H-M   'P 1'
_cell_length_a   8.33637415
_cell_length_b   9.01311055
_cell_length_c   12.02412953
_cell_angle_alpha   73.80579521
_cell_angle_beta   90.00000000
_cell_angle_gamma   90.00000000
_symmetry_Int_Tables_number   1
_chemical_formula_structural   K2GeSe4
_chemical_formula_sum   'K8 Ge4 Se16'
_cell_volume   867.60565672
_cell_formula_units_Z   4
loop_
 _symmetry_equiv_pos_site_id
 _symmetry_equiv_pos_as_xyz
  1  'x, y, z'
loop_
 _atom_site_type_symbol
 _atom_site_label
 _atom_site_symmetry_multiplicity
 _atom_site_fract_x
 _atom_site_fract_y
 _atom_site_fract_z
 _atom_site_occupancy
  K  K0  1  0.08938279  0.69253581  0.15563179  1
  K  K1  1  0.07544859  0.22948421  0.45338168  1
  K  K2  1  0.57544859  0.27051579  0.54661832  1
  K  K3  1  0.92455141  0.77051579  0.54661832  1
  K  K4  1  0.58938279  0.80746419  0.84436821  1
  K  K5  1  0.42455141  0.72948421  0.45338168  1
  K  K6  1  0.91061721  0.30746419  0.84436821  1
  K  K7  1  0.41061721  0.19253581  0.15563179  1
  Ge  Ge8  1  0.63295501  0.54840281  0.24203055  1
  Ge  Ge9  1  0.13295501  0.95159719  0.75796945  1
  Ge  Ge10  1  0.36704499  0.45159719  0.75796945  1
  Ge  Ge11  1  0.86704499  0.04840281  0.24203055  1
  Se  Se12  1  0.55120437  0.80984552  0.13780280  1
  Se  Se13  1  0.28613257  0.54556180  0.92233133  1
  Se  Se14  1  0.78613257  0.95443820  0.07766867  1
  Se  Se15  1  0.71386743  0.45443820  0.07766867  1
  Se  Se16  1  0.12331261  0.96395640  0.30073457  1
  Se  Se17  1  0.62331261  0.53604360  0.69926543  1
  Se  Se18  1  0.87668739  0.03604360  0.69926543  1
  Se  Se19  1  0.37668739  0.46395640  0.30073457  1
  Se  Se20  1  0.05120437  0.69015448  0.86219720  1
  Se  Se21  1  0.44879563  0.19015448  0.86219720  1
  Se  Se22  1  0.94879563  0.30984552  0.13780280  1
  Se  Se23  1  0.83061768  0.53674573  0.37455022  1
  Se  Se24  1  0.33061768  0.96325427  0.62544978  1
  Se  Se25  1  0.16938232  0.46325427  0.62544978  1
  Se  Se26  1  0.66938232  0.03674573  0.37455022  1
  Se  Se27  1  0.21386743  0.04556180  0.92233133  1
