# generated using pymatgen
data_V3(PO4)4
_symmetry_space_group_name_H-M   'P 1'
_cell_length_a   5.05417021
_cell_length_b   8.21363763
_cell_length_c   13.94313222
_cell_angle_alpha   81.84022084
_cell_angle_beta   90.00000000
_cell_angle_gamma   90.00000000
_symmetry_Int_Tables_number   1
_chemical_formula_structural   V3(PO4)4
_chemical_formula_sum   'V6 P8 O32'
_cell_volume   572.96301833
_cell_formula_units_Z   2
loop_
 _symmetry_equiv_pos_site_id
 _symmetry_equiv_pos_as_xyz
  1  'x, y, z'
loop_
 _atom_site_type_symbol
 _atom_site_label
 _atom_site_symmetry_multiplicity
 _atom_site_fract_x
 _atom_site_fract_y
 _atom_site_fract_z
 _atom_site_occupancy
  V  V0  1  0.50000000  0.50000000  -0.00000000  1
  V  V1  1  0.10594680  0.01674037  0.80381626  1
  V  V2  1  0.60594680  0.48325963  0.69618374  1
  V  V3  1  0.00000000  0.00000000  0.50000000  1
  V  V4  1  0.39405320  0.51674037  0.30381626  1
  V  V5  1  0.89405320  0.98325963  0.19618374  1
  P  P6  1  0.00425951  0.61471173  0.85299156  1
  P  P7  1  0.57790245  0.18890657  0.88276523  1
  P  P8  1  0.50425951  0.88528827  0.64700844  1
  P  P9  1  0.07790245  0.31109343  0.61723477  1
  P  P10  1  0.92209755  0.68890657  0.38276523  1
  P  P11  1  0.49574049  0.11471173  0.35299156  1
  P  P12  1  0.42209755  0.81109343  0.11723477  1
  P  P13  1  0.99574049  0.38528827  0.14700844  1
  O  O14  1  0.60033921  0.28727396  0.96626052  1
  O  O15  1  0.79788338  0.59192903  0.93398916  1
  O  O16  1  0.27646763  0.55073342  0.88475106  1
  O  O17  1  0.31918554  0.08756142  0.89621179  1
  O  O18  1  0.01565996  0.80348749  0.82025325  1
  O  O19  1  0.81193976  0.07694129  0.87829657  1
  O  O20  1  0.54587301  0.30446841  0.78517374  1
  O  O21  1  0.91950159  0.53390452  0.76672214  1
  O  O22  1  0.41950159  0.96609548  0.73327786  1
  O  O23  1  0.51565996  0.69651251  0.67974675  1
  O  O24  1  0.04587301  0.19553159  0.71482626  1
  O  O25  1  0.77646763  0.94926658  0.61524894  1
  O  O26  1  0.31193976  0.42305871  0.62170343  1
  O  O27  1  0.81918554  0.41243858  0.60378821  1
  O  O28  1  0.29788338  0.90807097  0.56601084  1
  O  O29  1  0.10033921  0.21272604  0.53373948  1
  O  O30  1  0.89966079  0.78727396  0.46626052  1
  O  O31  1  0.70211662  0.09192903  0.43398916  1
  O  O32  1  0.18081446  0.58756142  0.39621179  1
  O  O33  1  0.68806024  0.57694129  0.37829657  1
  O  O34  1  0.22353237  0.05073342  0.38475106  1
  O  O35  1  0.95412699  0.80446841  0.28517374  1
  O  O36  1  0.48434004  0.30348749  0.32025325  1
  O  O37  1  0.58049841  0.03390452  0.26672214  1
  O  O38  1  0.08049841  0.46609548  0.23327786  1
  O  O39  1  0.45412699  0.69553159  0.21482626  1
  O  O40  1  0.18806024  0.92305871  0.12170343  1
  O  O41  1  0.98434004  0.19651251  0.17974675  1
  O  O42  1  0.68081446  0.91243858  0.10378821  1
  O  O43  1  0.72353237  0.44926658  0.11524894  1
  O  O44  1  0.20211662  0.40807097  0.06601084  1
  O  O45  1  0.39966079  0.71272604  0.03373948  1
