# generated using pymatgen
data_Na2Hf2Zn2SiS5O24
_symmetry_space_group_name_H-M   'P 1'
_cell_length_a   8.80256142
_cell_length_b   8.80810238
_cell_length_c   23.02980644
_cell_angle_alpha   89.92767845
_cell_angle_beta   89.94757906
_cell_angle_gamma   119.83029548
_symmetry_Int_Tables_number   1
_chemical_formula_structural   Na2Hf2Zn2SiS5O24
_chemical_formula_sum   'Na6 Hf6 Zn6 Si3 S15 O72'
_cell_volume   1549.00006125
_cell_formula_units_Z   3
loop_
 _symmetry_equiv_pos_site_id
 _symmetry_equiv_pos_as_xyz
  1  'x, y, z'
loop_
 _atom_site_type_symbol
 _atom_site_label
 _atom_site_symmetry_multiplicity
 _atom_site_fract_x
 _atom_site_fract_y
 _atom_site_fract_z
 _atom_site_occupancy
  Na  Na0  1  0.00232052  0.00113829  0.49706955  1
  Na  Na1  1  0.99857751  0.99409437  0.99626900  1
  Na  Na2  1  0.66820995  0.32367740  0.82438508  1
  Na  Na3  1  0.65697907  0.32616344  0.33874403  1
  Na  Na4  1  0.32310230  0.67095781  0.16334448  1
  Na  Na5  1  0.33891883  0.67201902  0.66201386  1
  Hf  Hf6  1  0.98871105  0.99668548  0.64699055  1
  Hf  Hf7  1  0.00736505  0.98853152  0.14723663  1
  Hf  Hf8  1  0.67048480  0.33390345  0.18698025  1
  Hf  Hf9  1  0.67561066  0.34409189  0.97938009  1
  Hf  Hf10  1  0.33148777  0.67454621  0.31683479  1
  Hf  Hf11  1  0.34089206  0.67406333  0.80999691  1
  Zn  Zn12  1  0.01497717  0.00517974  0.35291942  1
  Zn  Zn13  1  0.99329974  0.00283417  0.84531467  1
  Zn  Zn14  1  0.66657401  0.31846331  0.68372319  1
  Zn  Zn15  1  0.66402579  0.33267978  0.48511228  1
  Zn  Zn16  1  0.31887947  0.66579466  0.01804258  1
  Zn  Zn17  1  0.33389827  0.66645113  0.51788874  1
  Si  Si18  1  0.29192756  0.00100403  0.25339068  1
  Si  Si19  1  0.71395005  0.01283813  0.75197847  1
  Si  Si20  1  0.96765725  0.62610418  0.08303868  1
  S  S21  1  0.70954808  0.71072893  0.25167064  1
  S  S22  1  0.00131528  0.28822413  0.25135710  1
  S  S23  1  0.29189792  0.28796248  0.75105879  1
  S  S24  1  0.99551763  0.70809229  0.75115618  1
  S  S25  1  0.96016038  0.33888232  0.58240206  1
  S  S26  1  0.37678850  0.04038073  0.58246925  1
  S  S27  1  0.66282171  0.61868413  0.58343426  1
  S  S28  1  0.66514757  0.04086963  0.08279425  1
  S  S29  1  0.37723540  0.33724833  0.08283465  1
  S  S30  1  0.62279725  0.67044886  0.91864769  1
  S  S31  1  0.04628353  0.37275215  0.91759693  1
  S  S32  1  0.32859252  0.95697548  0.91712158  1
  S  S33  1  0.63010021  0.96110790  0.41820417  1
  S  S34  1  0.33359405  0.37470574  0.41834341  1
  S  S35  1  0.03713966  0.66508831  0.41926527  1
  O  O36  1  0.20722340  0.03600022  0.30814436  1
  O  O37  1  0.81320437  0.78528317  0.30290543  1
  O  O38  1  0.96652355  0.18304988  0.30285132  1
  O  O39  1  0.21750331  0.18494405  0.80382613  1
  O  O40  1  0.97627172  0.78784568  0.80413387  1
  O  O41  1  0.82140649  0.03323094  0.80965293  1
  O  O42  1  0.79965891  0.96977129  0.69431639  1
  O  O43  1  0.18067665  0.20835014  0.69851067  1
  O  O44  1  0.03347849  0.82144053  0.69841019  1
  O  O45  1  0.78665333  0.81864367  0.19773656  1
  O  O46  1  0.02522826  0.20945128  0.19725400  1
  O  O47  1  0.17424658  0.96880910  0.19356633  1
  O  O48  1  0.88260288  0.36422308  0.63526849  1
  O  O49  1  0.47962260  0.11879211  0.63522757  1
  O  O50  1  0.64055393  0.51675254  0.63644318  1
  O  O51  1  0.86439841  0.50585281  0.13927605  1
  O  O52  1  0.63924607  0.12491222  0.13534099  1
  O  O53  1  0.48322369  0.35495835  0.13534548  1
  O  O54  1  0.45558778  0.30100934  0.03075117  1
  O  O55  1  0.83627391  0.53121627  0.02695578  1
  O  O56  1  0.69111359  0.15256987  0.03066148  1
  O  O57  1  0.45020856  0.14774953  0.52973892  1
  O  O58  1  0.69770714  0.54792699  0.53040350  1
  O  O59  1  0.85215422  0.30190261  0.52995743  1
  O  O60  1  0.53958367  0.69077618  0.97062978  1
  O  O61  1  0.14844410  0.45458957  0.96978425  1
  O  O62  1  0.30634573  0.85380258  0.96931749  1
  O  O63  1  0.54718777  0.85152464  0.46914555  1
  O  O64  1  0.30912273  0.45920027  0.46948861  1
  O  O65  1  0.14888039  0.69241275  0.46952237  1
  O  O66  1  0.12574071  0.64144056  0.36492879  1
  O  O67  1  0.51583149  0.87268453  0.36435935  1
  O  O68  1  0.35714224  0.48481903  0.36419081  1
  O  O69  1  0.12220875  0.48359196  0.86508299  1
  O  O70  1  0.35938130  0.87444031  0.86465170  1
  O  O71  1  0.51251158  0.63923107  0.86563687  1
  O  O72  1  0.01902515  0.82129248  0.41131404  1
  O  O73  1  0.80268192  0.97570444  0.40839378  1
  O  O74  1  0.17394044  0.20207140  0.41205874  1
  O  O75  1  0.02350207  0.19697080  0.91214431  1
  O  O76  1  0.17508525  0.97920005  0.90896596  1
  O  O77  1  0.80076926  0.81826632  0.91208287  1
  O  O78  1  0.98100754  0.17646363  0.59013848  1
  O  O79  1  0.19649080  0.02172696  0.59041520  1
  O  O80  1  0.82789130  0.80042054  0.58989440  1
  O  O81  1  0.97152187  0.81562976  0.08807318  1
  O  O82  1  0.82928652  0.03371210  0.08999637  1
  O  O83  1  0.19961289  0.17869680  0.08969785  1
  O  O84  1  0.68279137  0.17583897  0.74393518  1
  O  O85  1  0.46955473  0.31896796  0.74253103  1
  O  O86  1  0.84276843  0.53548368  0.74269591  1
  O  O87  1  0.68893507  0.53324937  0.24194668  1
  O  O88  1  0.84590664  0.31363377  0.24275116  1
  O  O89  1  0.48682041  0.16979582  0.24106427  1
  O  O90  1  0.63377506  0.50268049  0.92299424  1
  O  O91  1  0.86450141  0.35525052  0.92366212  1
  O  O92  1  0.49160918  0.13395749  0.92311217  1
  O  O93  1  0.64143373  0.13422240  0.42121131  1
  O  O94  1  0.49430674  0.36011325  0.42153971  1
  O  O95  1  0.86475417  0.50319593  0.42185146  1
  O  O96  1  0.36414164  0.49351962  0.07670811  1
  O  O97  1  0.15732185  0.64606652  0.07834399  1
  O  O98  1  0.51374929  0.86805893  0.07691192  1
  O  O99  1  0.35408798  0.86239567  0.57622299  1
  O  O100  1  0.51099138  0.64677845  0.57730200  1
  O  O101  1  0.13851715  0.49132031  0.57614838  1
  O  O102  1  0.31358866  0.82500751  0.25746769  1
  O  O103  1  0.52959171  0.68635374  0.25638173  1
  O  O104  1  0.15971110  0.46598098  0.25676191  1
  O  O105  1  0.30103527  0.46435913  0.75786899  1
  O  O106  1  0.15763343  0.68941383  0.75739266  1
  O  O107  1  0.51772176  0.82762855  0.75759229  1
