# generated using pymatgen
data_Na10Sc4Ga4Si5S7O48
_symmetry_space_group_name_H-M   'P 1'
_cell_length_a   17.82646801
_cell_length_b   8.95457949
_cell_length_c   22.37717628
_cell_angle_alpha   89.54377166
_cell_angle_beta   89.28956422
_cell_angle_gamma   120.03220325
_symmetry_Int_Tables_number   1
_chemical_formula_structural   Na10Sc4Ga4Si5S7O48
_chemical_formula_sum   'Na30 Sc12 Ga12 Si15 S21 O144'
_cell_volume   3091.81737827
_cell_formula_units_Z   3
loop_
 _symmetry_equiv_pos_site_id
 _symmetry_equiv_pos_as_xyz
  1  'x, y, z'
loop_
 _atom_site_type_symbol
 _atom_site_label
 _atom_site_symmetry_multiplicity
 _atom_site_fract_x
 _atom_site_fract_y
 _atom_site_fract_z
 _atom_site_occupancy
  Na  Na0  1  0.32255377  0.00026291  0.24911419  1
  Na  Na1  1  0.82405411  -0.00015896  0.25204341  1
  Na  Na2  1  0.18385374  0.37337124  0.24158026  1
  Na  Na3  1  0.67791387  0.36801406  0.24428513  1
  Na  Na4  1  0.99516324  0.63083796  0.25922787  1
  Na  Na5  1  0.49693112  0.62781717  0.25796452  1
  Na  Na6  1  0.82564221  0.64834804  0.74467493  1
  Na  Na7  1  0.99564011  0.36082126  0.75691279  1
  Na  Na8  1  0.49762833  0.35566790  0.75696601  1
  Na  Na9  1  0.17826667  0.99074571  0.74268549  1
  Na  Na10  1  0.01772275  0.70789792  0.58589133  1
  Na  Na11  1  0.33033349  0.97248938  0.59101770  1
  Na  Na12  1  0.02050347  0.32873881  0.08350804  1
  Na  Na13  1  0.51651571  0.33215056  0.08528441  1
  Na  Na14  1  0.16190249  0.30209490  0.92605284  1
  Na  Na15  1  0.66235232  0.29946979  0.92664949  1
  Na  Na16  1  0.16354869  0.02294682  0.42489175  1
  Na  Na17  1  0.66299103  0.02972827  0.42457603  1
  Na  Na18  1  0.99419241  0.99891731  0.50189674  1
  Na  Na19  1  0.51023341  0.99448657  0.49705420  1
  Na  Na20  1  0.00229555  0.00082533  0.00040271  1
  Na  Na21  1  0.50003804  0.99426724  0.00435309  1
  Na  Na22  1  0.34510390  0.33578508  0.83545066  1
  Na  Na23  1  0.84592394  0.32150651  0.83174648  1
  Na  Na24  1  0.34991025  0.36403851  0.33666871  1
  Na  Na25  1  0.84738299  0.35899000  0.33849575  1
  Na  Na26  1  0.17692460  0.66327829  0.16706778  1
  Na  Na27  1  0.67495878  0.66199304  0.16560141  1
  Na  Na28  1  0.17229321  0.67279554  0.67004374  1
  Na  Na29  1  0.68034003  0.71143207  0.66072203  1
  Sc  Sc30  1  0.98938700  0.98233423  0.35314843  1
  Sc  Sc31  1  0.99080464  0.99365588  0.84889586  1
  Sc  Sc32  1  0.49293147  0.01036064  0.85197069  1
  Sc  Sc33  1  0.50712463  0.00152081  0.64415364  1
  Sc  Sc34  1  0.99847027  0.00691841  0.15072940  1
  Sc  Sc35  1  0.82880570  0.34179150  0.18510238  1
  Sc  Sc36  1  0.33582160  0.33472884  0.98288092  1
  Sc  Sc37  1  0.83185127  0.33107124  0.98245478  1
  Sc  Sc38  1  0.16599134  0.64881399  0.02000239  1
  Sc  Sc39  1  0.16236840  0.66976816  0.51910704  1
  Sc  Sc40  1  0.16179602  0.66671956  0.81259247  1
  Sc  Sc41  1  0.66640791  0.67901032  0.81393942  1
  Ga  Ga42  1  0.48556981  0.97297341  0.34864882  1
  Ga  Ga43  1  0.00134192  0.98969609  0.64857906  1
  Ga  Ga44  1  0.50034659  0.01681076  0.15297983  1
  Ga  Ga45  1  0.33094322  0.31732047  0.68065589  1
  Ga  Ga46  1  0.83155804  0.31162657  0.68503521  1
  Ga  Ga47  1  0.33735727  0.35428668  0.18629109  1
  Ga  Ga48  1  0.33695315  0.34726389  0.48274729  1
  Ga  Ga49  1  0.83482938  0.34474552  0.48391862  1
  Ga  Ga50  1  0.66262834  0.64185689  0.01836424  1
  Ga  Ga51  1  0.66041814  0.69921752  0.51782057  1
  Ga  Ga52  1  0.15836709  0.64195343  0.31540103  1
  Ga  Ga53  1  0.65353752  0.63439104  0.31754951  1
  Si  Si54  1  0.35458705  0.71157204  0.24960277  1
  Si  Si55  1  0.84622185  0.70287440  0.25317821  1
  Si  Si56  1  0.00028576  0.29796964  0.24992047  1
  Si  Si57  1  0.49663889  0.28613626  0.25042508  1
  Si  Si58  1  0.99506199  0.69777292  0.74440353  1
  Si  Si59  1  0.35322367  0.00676538  0.74369510  1
  Si  Si60  1  0.85509885  0.00009892  0.74477569  1
  Si  Si61  1  0.18638246  0.05307873  0.58089125  1
  Si  Si62  1  0.69461250  0.05340467  0.57987289  1
  Si  Si63  1  0.18741663  0.32864385  0.08481967  1
  Si  Si64  1  0.67866452  0.32512727  0.08305883  1
  Si  Si65  1  0.01527982  0.36212046  0.91703893  1
  Si  Si66  1  0.51873174  0.37351859  0.91606565  1
  Si  Si67  1  0.01536719  0.65762894  0.41823442  1
  Si  Si68  1  0.51640209  0.66787396  0.41509453  1
  S  S69  1  0.14913390  0.00076792  0.25174405  1
  S  S70  1  0.64297601  0.99607702  0.25099003  1
  S  S71  1  0.15067923  0.29400383  0.74738386  1
  S  S72  1  0.64916351  0.29336492  0.75057039  1
  S  S73  1  0.49643281  0.70169167  0.74878500  1
  S  S74  1  0.48229366  0.34328372  0.58190503  1
  S  S75  1  0.97843022  0.32738665  0.58398483  1
  S  S76  1  0.33437929  0.61923974  0.58471919  1
  S  S77  1  0.82969766  0.62454266  0.58253995  1
  S  S78  1  0.48332116  0.63484790  0.08453503  1
  S  S79  1  0.98150972  0.63249958  0.08306133  1
  S  S80  1  0.33255407  0.03928343  0.08704508  1
  S  S81  1  0.82744105  0.02665855  0.08294226  1
  S  S82  1  0.31459012  0.66693392  0.91539988  1
  S  S83  1  0.81144963  0.66867578  0.91833000  1
  S  S84  1  0.16742211  0.96214109  0.91647202  1
  S  S85  1  0.66553129  0.95404677  0.92017941  1
  S  S86  1  0.31554387  0.96222586  0.41577993  1
  S  S87  1  0.80881180  0.95406758  0.41687735  1
  S  S88  1  0.16993678  0.37431212  0.41595295  1
  S  S89  1  0.66682127  0.37820113  0.41883595  1
  O  O90  1  0.11090694  0.02784967  0.30675729  1
  O  O91  1  0.60718834  0.03066271  0.30574806  1
  O  O92  1  0.41790499  0.77760094  0.30669217  1
  O  O93  1  0.91384258  0.78162375  0.30794553  1
  O  O94  1  0.47841268  0.15252072  0.30636222  1
  O  O95  1  0.98604460  0.17045956  0.30587484  1
  O  O96  1  0.11357619  0.18884729  0.80290431  1
  O  O97  1  0.61160166  0.19275023  0.80665094  1
  O  O98  1  0.48859096  0.78388915  0.80304381  1
  O  O99  1  0.97772363  0.78950167  0.80103805  1
  O  O100  1  0.41827729  0.04627322  0.80028560  1
  O  O101  1  0.91462790  0.03998162  0.80401844  1
  O  O102  1  0.39862167  0.98743635  0.68325315  1
  O  O103  1  0.90431498  0.96739050  0.68832018  1
  O  O104  1  0.09537482  0.21211044  0.69545973  1
  O  O105  1  0.59309371  0.20620816  0.69962440  1
  O  O106  1  0.02245663  0.82399144  0.68449211  1
  O  O107  1  0.50925285  0.80747845  0.69486184  1
  O  O108  1  0.39947081  0.84259781  0.19211595  1
  O  O109  1  0.88983763  0.82918548  0.19521663  1
  O  O110  1  0.01992259  0.22239862  0.18863166  1
  O  O111  1  0.52158124  0.21989088  0.18944270  1
  O  O112  1  0.09326391  0.97193847  0.19996575  1
  O  O113  1  0.58832780  0.96851126  0.19854251  1
  O  O114  1  0.44577441  0.36980119  0.63899182  1
  O  O115  1  0.94265538  0.36409266  0.63892317  1
  O  O116  1  0.24658642  0.13174294  0.64015363  1
  O  O117  1  0.75090480  0.14671497  0.63826019  1
  O  O118  1  0.32657057  0.51619094  0.63900405  1
  O  O119  1  0.82006584  0.52942081  0.63917795  1
  O  O120  1  0.44670600  0.52311449  0.14012789  1
  O  O121  1  0.94288158  0.52620222  0.13869115  1
  O  O122  1  0.32411788  0.11854940  0.14280702  1
  O  O123  1  0.81754056  0.10179738  0.13945108  1
  O  O124  1  0.24425877  0.34441758  0.14443091  1
  O  O125  1  0.73528622  0.34851374  0.14243877  1
  O  O126  1  0.23355146  0.31893558  0.02280165  1
  O  O127  1  0.72459820  0.30846769  0.02214416  1
  O  O128  1  0.42991230  0.54598721  0.03263121  1
  O  O129  1  0.92880169  0.54190205  0.03122059  1
  O  O130  1  0.34697218  0.15374484  0.03450158  1
  O  O131  1  0.84226149  0.14559910  0.03206033  1
  O  O132  1  0.23717709  0.16724165  0.52034396  1
  O  O133  1  0.73832683  0.16231868  0.51724715  1
  O  O134  1  0.34570915  0.54283520  0.52967674  1
  O  O135  1  0.84932203  0.54222076  0.53116404  1
  O  O136  1  0.42338664  0.31430175  0.53183166  1
  O  O137  1  0.92682722  0.31032133  0.53105197  1
  O  O138  1  0.27570586  0.69094137  0.97058192  1
  O  O139  1  0.76919739  0.69203100  0.97196787  1
  O  O140  1  0.07687038  0.45984215  0.97557205  1
  O  O141  1  0.57901859  0.46248815  0.97493912  1
  O  O142  1  0.16225119  0.85944184  0.96931937  1
  O  O143  1  0.65867343  0.85031238  0.97354602  1
  O  O144  1  0.27452505  0.86025747  0.47160035  1
  O  O145  1  0.76828016  0.84591894  0.47107353  1
  O  O146  1  0.16332190  0.46593561  0.46797423  1
  O  O147  1  0.65901270  0.47092161  0.46986559  1
  O  O148  1  0.07645364  0.68636514  0.47636807  1
  O  O149  1  0.58210815  0.71312358  0.47076854  1
  O  O150  1  0.06363189  0.63850335  0.35714035  1
  O  O151  1  0.55934242  0.63765122  0.35381366  1
  O  O152  1  0.26202598  0.87644471  0.36282719  1
  O  O153  1  0.75869297  0.87265063  0.36226805  1
  O  O154  1  0.18156998  0.47369239  0.35917311  1
  O  O155  1  0.67898483  0.47373386  0.36059475  1
  O  O156  1  0.06399638  0.47427301  0.85622110  1
  O  O157  1  0.56627667  0.48223523  0.85449407  1
  O  O158  1  0.17771189  0.88541314  0.86036277  1
  O  O159  1  0.67839505  0.87845057  0.86484646  1
  O  O160  1  0.26242532  0.65107081  0.86280022  1
  O  O161  1  0.76173936  0.65151376  0.86336515  1
  O  O162  1  0.01391477  0.83937561  0.41478489  1
  O  O163  1  0.51276762  0.85033389  0.40872121  1
  O  O164  1  0.40275136  0.98181586  0.41269817  1
  O  O165  1  0.89731063  0.97797100  0.41514639  1
  O  O166  1  0.09182958  0.20047525  0.41437772  1
  O  O167  1  0.58949044  0.20330920  0.41593106  1
  O  O168  1  0.01345154  0.17682669  0.91483532  1
  O  O169  1  0.51485510  0.18391116  0.91438534  1
  O  O170  1  0.08871285  0.97828635  0.91415540  1
  O  O171  1  0.58658599  0.96876069  0.91579117  1
  O  O172  1  0.40322643  0.81532132  0.91063197  1
  O  O173  1  0.89937128  0.81786073  0.91557012  1
  O  O174  1  0.48757677  0.18292250  0.58576897  1
  O  O175  1  0.98747210  0.17384328  0.58882907  1
  O  O176  1  0.08788205  0.02647578  0.58569143  1
  O  O177  1  0.59591918  0.02688538  0.58483772  1
  O  O178  1  0.41072427  0.79671649  0.58698442  1
  O  O179  1  0.90959064  0.79954497  0.58393280  1
  O  O180  1  0.48887202  0.80258199  0.09018346  1
  O  O181  1  0.98852738  0.80203577  0.08711845  1
  O  O182  1  0.41152980  0.02254696  0.08784559  1
  O  O183  1  0.90743165  0.01301432  0.08453342  1
  O  O184  1  0.08867607  0.16031316  0.08652168  1
  O  O185  1  0.58047333  0.15148908  0.08849371  1
  O  O186  1  0.34608048  0.18756402  0.74208165  1
  O  O187  1  0.84535490  0.17207186  0.74205797  1
  O  O188  1  0.23817997  0.31302742  0.74069371  1
  O  O189  1  0.73743137  0.32141706  0.74426089  1
  O  O190  1  0.41810513  0.52729063  0.74428835  1
  O  O191  1  0.90697808  0.50759232  0.73649874  1
  O  O192  1  0.33995880  0.51478934  0.24267836  1
  O  O193  1  0.83200710  0.50792105  0.24589322  1
  O  O194  1  0.40928516  0.30693972  0.24245910  1
  O  O195  1  0.91329497  0.31520548  0.24455063  1
  O  O196  1  0.23636776  0.15532406  0.24487560  1
  O  O197  1  0.73157939  0.14882112  0.24366334  1
  O  O198  1  0.31871427  0.50502273  0.91890814  1
  O  O199  1  0.81520426  0.50681251  0.92222786  1
  O  O200  1  0.42327675  0.35172020  0.92124631  1
  O  O201  1  0.92020219  0.34551363  0.92203270  1
  O  O202  1  0.24431899  0.14077779  0.91877056  1
  O  O203  1  0.74161831  0.13267794  0.92210931  1
  O  O204  1  0.32063319  0.13315029  0.41906285  1
  O  O205  1  0.81509295  0.12562504  0.41980996  1
  O  O206  1  0.24766389  0.35267557  0.41865411  1
  O  O207  1  0.74501408  0.35686238  0.42087079  1
  O  O208  1  0.42070123  0.49273059  0.42598256  1
  O  O209  1  0.91928420  0.48282146  0.42574173  1
  O  O210  1  0.17474974  0.50118015  0.08418699  1
  O  O211  1  0.66770036  0.50032550  0.08007800  1
  O  O212  1  0.06914379  0.65121788  0.07792933  1
  O  O213  1  0.57098727  0.65382348  0.07781188  1
  O  O214  1  0.25417259  0.86948589  0.08092281  1
  O  O215  1  0.74941732  0.85613520  0.07563626  1
  O  O216  1  0.17801334  0.85826320  0.57790635  1
  O  O217  1  0.68390478  0.85764928  0.57789168  1
  O  O218  1  0.25563945  0.63648463  0.58214538  1
  O  O219  1  0.75143244  0.63641702  0.57423906  1
  O  O220  1  0.06713934  0.48459833  0.57835008  1
  O  O221  1  0.56978277  0.49391913  0.57441212  1
  O  O222  1  0.15952096  0.84621206  0.25625143  1
  O  O223  1  0.65333236  0.84258263  0.25559892  1
  O  O224  1  0.25832935  0.69632837  0.26038976  1
  O  O225  1  0.75107006  0.69089051  0.26270077  1
  O  O226  1  0.08717567  0.49278850  0.25411892  1
  O  O227  1  0.58158973  0.48077304  0.25666998  1
  O  O228  1  0.15912023  0.46665877  0.75243104  1
  O  O229  1  0.65529838  0.46594378  0.75359166  1
  O  O230  1  0.07901375  0.66973134  0.75175678  1
  O  O231  1  0.57376316  0.67634415  0.75125324  1
  O  O232  1  0.25600191  0.84354847  0.75243386  1
  O  O233  1  0.76091957  0.82104960  0.75133315  1
