# generated using pymatgen
data_Ti2Nb2Si3(SO8)3
_symmetry_space_group_name_H-M   'P 1'
_cell_length_a   8.80795945
_cell_length_b   8.81423214
_cell_length_c   22.72222840
_cell_angle_alpha   89.88867984
_cell_angle_beta   90.27025838
_cell_angle_gamma   119.88068188
_symmetry_Int_Tables_number   1
_chemical_formula_structural   Ti2Nb2Si3(SO8)3
_chemical_formula_sum   'Ti6 Nb6 Si9 S9 O72'
_cell_volume   1529.52779860
_cell_formula_units_Z   3
loop_
 _symmetry_equiv_pos_site_id
 _symmetry_equiv_pos_as_xyz
  1  'x, y, z'
loop_
 _atom_site_type_symbol
 _atom_site_label
 _atom_site_symmetry_multiplicity
 _atom_site_fract_x
 _atom_site_fract_y
 _atom_site_fract_z
 _atom_site_occupancy
  Ti  Ti0  1  0.98643971  0.01319490  0.35772694  1
  Ti  Ti1  1  0.01960564  0.01920872  0.85263228  1
  Ti  Ti2  1  0.67090750  0.34037660  0.69171684  1
  Ti  Ti3  1  0.68228740  0.34996048  0.18594372  1
  Ti  Ti4  1  0.31565040  0.66490169  0.02441556  1
  Ti  Ti5  1  0.35158235  0.67217971  0.52938544  1
  Nb  Nb6  1  0.98817170  0.00931852  0.64203410  1
  Nb  Nb7  1  0.01091002  0.01503163  0.13911527  1
  Nb  Nb8  1  0.65572252  0.33740845  0.97454580  1
  Nb  Nb9  1  0.67744252  0.33336756  0.47962094  1
  Nb  Nb10  1  0.33306872  0.67170134  0.30976472  1
  Nb  Nb11  1  0.34243391  0.67866984  0.80582704  1
  Si  Si12  1  0.99120209  0.28451563  0.24994666  1
  Si  Si13  1  0.29176736  0.28558338  0.74889042  1
  Si  Si14  1  0.72403775  0.01362403  0.75181932  1
  Si  Si15  1  0.96136708  0.34902979  0.58601069  1
  Si  Si16  1  0.67040598  0.61492163  0.58543576  1
  Si  Si17  1  0.95130068  0.61806310  0.08262322  1
  Si  Si18  1  0.39307001  0.34991650  0.08403944  1
  Si  Si19  1  0.32400605  0.94579822  0.91726612  1
  Si  Si20  1  0.61470618  0.94975562  0.41895221  1
  S  S21  1  0.28676894  0.00561749  0.25080073  1
  S  S22  1  0.71656325  0.71384108  0.25101824  1
  S  S23  1  0.99645232  0.71442513  0.75061782  1
  S  S24  1  0.38128235  0.04596811  0.58400363  1
  S  S25  1  0.66132077  0.04593453  0.08334448  1
  S  S26  1  0.62156450  0.67527751  0.91667108  1
  S  S27  1  0.04774076  0.37936363  0.91726449  1
  S  S28  1  0.33051212  0.37872505  0.41680603  1
  S  S29  1  0.04881339  0.67344285  0.41644216  1
  O  O30  1  0.20236805  0.02434955  0.30340607  1
  O  O31  1  0.82414160  0.79410340  0.30407861  1
  O  O32  1  0.97123309  0.16107941  0.30740677  1
  O  O33  1  0.19779693  0.16363644  0.80752762  1
  O  O34  1  0.97218928  0.79528680  0.80382301  1
  O  O35  1  0.84040162  0.02619366  0.80909047  1
  O  O36  1  0.80293800  0.96684603  0.69297523  1
  O  O37  1  0.16345208  0.18868116  0.69283632  1
  O  O38  1  0.03383274  0.82164695  0.69745572  1
  O  O39  1  0.78959540  0.82182332  0.19829064  1
  O  O40  1  0.02583472  0.18865474  0.19403735  1
  O  O41  1  0.17409538  0.96676977  0.19719449  1
  O  O42  1  0.86058542  0.36770023  0.64091632  1
  O  O43  1  0.49079511  0.12139777  0.63574520  1
  O  O44  1  0.63466187  0.49123283  0.64124860  1
  O  O45  1  0.86262168  0.49604670  0.14125563  1
  O  O46  1  0.63579303  0.12558949  0.13664062  1
  O  O47  1  0.50668044  0.36044231  0.14192415  1
  O  O48  1  0.47418315  0.30303584  0.02616620  1
  O  O49  1  0.82923893  0.52363047  0.02569995  1
  O  O50  1  0.70049680  0.15693539  0.03073505  1
  O  O51  1  0.46189414  0.15683337  0.52947469  1
  O  O52  1  0.68942716  0.52069773  0.52496522  1
  O  O53  1  0.83302424  0.30394847  0.52584384  1
  O  O54  1  0.53864732  0.69334690  0.96950995  1
  O  O55  1  0.15677764  0.45884405  0.97076419  1
  O  O56  1  0.30762401  0.82581173  0.97460484  1
  O  O57  1  0.51812010  0.82466293  0.47383640  1
  O  O58  1  0.29576663  0.45386888  0.46861796  1
  O  O59  1  0.15504392  0.69837637  0.46815398  1
  O  O60  1  0.12976591  0.63884237  0.36239987  1
  O  O61  1  0.49601362  0.85361564  0.35943068  1
  O  O62  1  0.35686659  0.49007363  0.36312608  1
  O  O63  1  0.12454619  0.48821011  0.86496872  1
  O  O64  1  0.35704318  0.85230642  0.86028581  1
  O  O65  1  0.50810557  0.63493487  0.86354107  1
  O  O66  1  0.02881704  0.82598175  0.40383435  1
  O  O67  1  0.80875761  0.97052672  0.40515145  1
  O  O68  1  0.17625172  0.20088252  0.40573265  1
  O  O69  1  0.02777186  0.20354162  0.91029535  1
  O  O70  1  0.15566351  0.96925593  0.90574275  1
  O  O71  1  0.79658515  0.82223959  0.90829564  1
  O  O72  1  0.97874114  0.17206474  0.59055961  1
  O  O73  1  0.20575318  0.02570841  0.58981597  1
  O  O74  1  0.84432907  0.80580802  0.59327100  1
  O  O75  1  0.96944146  0.80796457  0.09779554  1
  O  O76  1  0.82172801  0.02569522  0.09240752  1
  O  O77  1  0.19750065  0.17083680  0.09354334  1
  O  O78  1  0.69486596  0.17538663  0.73856091  1
  O  O79  1  0.48220497  0.30873555  0.73840700  1
  O  O80  1  0.84347478  0.53914094  0.74446238  1
  O  O81  1  0.69246380  0.53674050  0.24375810  1
  O  O82  1  0.82013666  0.30219848  0.23850046  1
  O  O83  1  0.46124478  0.15275017  0.24194001  1
  O  O84  1  0.63738146  0.50952317  0.92310662  1
  O  O85  1  0.87041793  0.35907129  0.92637995  1
  O  O86  1  0.50228402  0.13856916  0.92818432  1
  O  O87  1  0.63703506  0.14331086  0.42580117  1
  O  O88  1  0.48648754  0.35955705  0.42257088  1
  O  O89  1  0.87170887  0.51281490  0.42177475  1
  O  O90  1  0.36607099  0.51225463  0.06924803  1
  O  O91  1  0.14408219  0.64096482  0.07344968  1
  O  O92  1  0.51179238  0.86990541  0.07527401  1
  O  O93  1  0.36134587  0.87055044  0.57338719  1
  O  O94  1  0.50004818  0.64029633  0.57313828  1
  O  O95  1  0.14824953  0.51360525  0.56752595  1
  O  O96  1  0.30181313  0.84041118  0.25860251  1
  O  O97  1  0.53570150  0.69199163  0.25982697  1
  O  O98  1  0.16538350  0.47578388  0.26346607  1
  O  O99  1  0.30269878  0.47277157  0.76426618  1
  O  O100  1  0.15402504  0.69008410  0.75905697  1
  O  O101  1  0.52903718  0.83449770  0.76020796  1
