# generated using pymatgen
data_Na4ScTa(SiO4)3
_symmetry_space_group_name_H-M   'P 1'
_cell_length_a   9.18299880
_cell_length_b   9.18299848
_cell_length_c   22.27607260
_cell_angle_alpha   90.00000000
_cell_angle_beta   90.00000000
_cell_angle_gamma   120.00000117
_symmetry_Int_Tables_number   1
_chemical_formula_structural   Na4ScTa(SiO4)3
_chemical_formula_sum   'Na24 Sc6 Ta6 Si18 O72'
_cell_volume   1626.81546036
_cell_formula_units_Z   6
loop_
 _symmetry_equiv_pos_site_id
 _symmetry_equiv_pos_as_xyz
  1  'x, y, z'
loop_
 _atom_site_type_symbol
 _atom_site_label
 _atom_site_symmetry_multiplicity
 _atom_site_fract_x
 _atom_site_fract_y
 _atom_site_fract_z
 _atom_site_occupancy
  Na  Na0  1  0.64068797  0.01734006  0.24680000  1
  Na  Na1  1  0.37665209  0.35931203  0.24680000  1
  Na  Na2  1  0.98265994  0.62334791  0.24680000  1
  Na  Na3  1  0.64068797  0.62334791  0.74680000  1
  Na  Na4  1  0.98265994  0.35931203  0.74680000  1
  Na  Na5  1  0.37665209  0.01734006  0.74680000  1
  Na  Na6  1  0.30735497  0.35067306  0.58013300  1
  Na  Na7  1  0.04331909  0.69264503  0.58013300  1
  Na  Na8  1  0.64932694  0.95668091  0.58013300  1
  Na  Na9  1  0.30735497  0.95668091  0.08013300  1
  Na  Na10  1  0.64932694  0.69264503  0.08013300  1
  Na  Na11  1  0.04331909  0.35067306  0.08013300  1
  Na  Na12  1  0.97402097  0.68400706  0.91346700  1
  Na  Na13  1  0.70998509  0.02597903  0.91346700  1
  Na  Na14  1  0.31599294  0.29001491  0.91346700  1
  Na  Na15  1  0.97402097  0.29001491  0.41346700  1
  Na  Na16  1  0.31599294  0.02597903  0.41346700  1
  Na  Na17  1  0.70998509  0.68400706  0.41346700  1
  Na  Na18  1  -0.00000000  -0.00000000  0.49328616  1
  Na  Na19  1  -0.00000000  -0.00000000  0.99328616  1
  Na  Na20  1  0.66666700  0.33333300  0.82661916  1
  Na  Na21  1  0.66666700  0.33333300  0.32661916  1
  Na  Na22  1  0.33333300  0.66666700  0.15995316  1
  Na  Na23  1  0.33333300  0.66666700  0.65995316  1
  Sc  Sc24  1  -0.00000000  -0.00000000  0.35135670  1
  Sc  Sc25  1  -0.00000000  -0.00000000  0.85135670  1
  Sc  Sc26  1  0.66666700  0.33333300  0.68468970  1
  Sc  Sc27  1  0.66666700  0.33333300  0.18468970  1
  Sc  Sc28  1  0.33333300  0.66666700  0.01802370  1
  Sc  Sc29  1  0.33333300  0.66666700  0.51802370  1
  Ta  Ta30  1  -0.00000000  -0.00000000  0.64626436  1
  Ta  Ta31  1  -0.00000000  -0.00000000  0.14626436  1
  Ta  Ta32  1  0.66666700  0.33333300  0.97959736  1
  Ta  Ta33  1  0.66666700  0.33333300  0.47959736  1
  Ta  Ta34  1  0.33333300  0.66666700  0.31293136  1
  Ta  Ta35  1  0.33333300  0.66666700  0.81293136  1
  Si  Si36  1  0.29165645  0.99655273  0.25180560  1
  Si  Si37  1  0.70489628  0.70834355  0.25180560  1
  Si  Si38  1  0.00344727  0.29510372  0.25180560  1
  Si  Si39  1  0.29165645  0.29510372  0.75180560  1
  Si  Si40  1  0.00344727  0.70834355  0.75180560  1
  Si  Si41  1  0.70489628  0.99655273  0.75180560  1
  Si  Si42  1  0.95832345  0.32988573  0.58513860  1
  Si  Si43  1  0.37156328  0.04167655  0.58513860  1
  Si  Si44  1  0.67011427  0.62843672  0.58513860  1
  Si  Si45  1  0.95832345  0.62843672  0.08513860  1
  Si  Si46  1  0.67011427  0.04167655  0.08513860  1
  Si  Si47  1  0.37156328  0.32988573  0.08513860  1
  Si  Si48  1  0.62498945  0.66321973  0.91847260  1
  Si  Si49  1  0.03822928  0.37501055  0.91847260  1
  Si  Si50  1  0.33678027  0.96177072  0.91847260  1
  Si  Si51  1  0.62498945  0.96177072  0.41847260  1
  Si  Si52  1  0.33678027  0.37501055  0.41847260  1
  Si  Si53  1  0.03822928  0.66321973  0.41847260  1
  O  O54  1  0.20921091  0.02632408  0.31064704  1
  O  O55  1  0.81711317  0.79078909  0.31064704  1
  O  O56  1  0.97367592  0.18288683  0.31064704  1
  O  O57  1  0.20921091  0.18288683  0.81064704  1
  O  O58  1  0.97367592  0.79078909  0.81064704  1
  O  O59  1  0.81711317  0.02632408  0.81064704  1
  O  O60  1  0.80369458  0.96865229  0.69288932  1
  O  O61  1  0.16495771  0.19630542  0.69288932  1
  O  O62  1  0.03134771  0.83504229  0.69288932  1
  O  O63  1  0.80369458  0.83504229  0.19288932  1
  O  O64  1  0.03134771  0.19630542  0.19288932  1
  O  O65  1  0.16495771  0.96865229  0.19288932  1
  O  O66  1  0.87587791  0.35965708  0.64398004  1
  O  O67  1  0.48378017  0.12412209  0.64398004  1
  O  O68  1  0.64034292  0.51621983  0.64398004  1
  O  O69  1  0.87587791  0.51621983  0.14398004  1
  O  O70  1  0.64034292  0.12412209  0.14398004  1
  O  O71  1  0.48378017  0.35965708  0.14398004  1
  O  O72  1  0.47036158  0.30198529  0.02622232  1
  O  O73  1  0.83162471  0.52963842  0.02622232  1
  O  O74  1  0.69801471  0.16837529  0.02622232  1
  O  O75  1  0.47036158  0.16837529  0.52622232  1
  O  O76  1  0.69801471  0.52963842  0.52622232  1
  O  O77  1  0.83162471  0.30198529  0.52622232  1
  O  O78  1  0.54254391  0.69299108  0.97731404  1
  O  O79  1  0.15044617  0.45745609  0.97731404  1
  O  O80  1  0.30700892  0.84955383  0.97731404  1
  O  O81  1  0.54254391  0.84955383  0.47731404  1
  O  O82  1  0.30700892  0.45745609  0.47731404  1
  O  O83  1  0.15044617  0.69299108  0.47731404  1
  O  O84  1  0.13702758  0.63531929  0.35955632  1
  O  O85  1  0.49829071  0.86297242  0.35955632  1
  O  O86  1  0.36468071  0.50170929  0.35955632  1
  O  O87  1  0.13702758  0.50170929  0.85955632  1
  O  O88  1  0.36468071  0.86297242  0.85955632  1
  O  O89  1  0.49829071  0.63531929  0.85955632  1
  O  O90  1  0.00941821  0.82293594  0.41288302  1
  O  O91  1  0.81351773  0.99058179  0.41288302  1
  O  O92  1  0.17706406  0.18648227  0.41288302  1
  O  O93  1  0.00941821  0.18648227  0.91288302  1
  O  O94  1  0.17706406  0.99058179  0.91288302  1
  O  O95  1  0.81351773  0.82293594  0.91288302  1
  O  O96  1  0.96428267  0.15190690  0.58800595  1
  O  O97  1  0.18762423  0.03571733  0.58800595  1
  O  O98  1  0.84809310  0.81237577  0.58800595  1
  O  O99  1  0.96428267  0.81237577  0.08800595  1
  O  O100  1  0.84809310  0.03571733  0.08800595  1
  O  O101  1  0.18762423  0.15190690  0.08800595  1
  O  O102  1  0.67608521  0.15626894  0.74621602  1
  O  O103  1  0.48018473  0.32391479  0.74621602  1
  O  O104  1  0.84373106  0.51981527  0.74621602  1
  O  O105  1  0.67608521  0.51981527  0.24621602  1
  O  O106  1  0.84373106  0.32391479  0.24621602  1
  O  O107  1  0.48018473  0.15626894  0.24621602  1
  O  O108  1  0.63094967  0.48523990  0.92133895  1
  O  O109  1  0.85429123  0.36905033  0.92133895  1
  O  O110  1  0.51476010  0.14570877  0.92133895  1
  O  O111  1  0.63094967  0.14570877  0.42133895  1
  O  O112  1  0.51476010  0.36905033  0.42133895  1
  O  O113  1  0.85429123  0.48523990  0.42133895  1
  O  O114  1  0.34275121  0.48960294  0.07955002  1
  O  O115  1  0.14685073  0.65724879  0.07955002  1
  O  O116  1  0.51039706  0.85314927  0.07955002  1
  O  O117  1  0.34275121  0.85314927  0.57955002  1
  O  O118  1  0.51039706  0.65724879  0.57955002  1
  O  O119  1  0.14685073  0.48960294  0.57955002  1
  O  O120  1  0.29761567  0.81857390  0.25467295  1
  O  O121  1  0.52095723  0.70238433  0.25467295  1
  O  O122  1  0.18142610  0.47904277  0.25467295  1
  O  O123  1  0.29761567  0.47904277  0.75467295  1
  O  O124  1  0.18142610  0.70238433  0.75467295  1
  O  O125  1  0.52095723  0.81857390  0.75467295  1
