# generated using pymatgen
data_MgFe4(PO3)12
_symmetry_space_group_name_H-M   'P 1'
_cell_length_a   8.59775702
_cell_length_b   8.67828602
_cell_length_c   8.84301149
_cell_angle_alpha   89.70753084
_cell_angle_beta   90.84395481
_cell_angle_gamma   90.52704608
_symmetry_Int_Tables_number   1
_chemical_formula_structural   MgFe4(PO3)12
_chemical_formula_sum   'Mg1 Fe4 P12 O36'
_cell_volume   659.70300622
_cell_formula_units_Z   1
loop_
 _symmetry_equiv_pos_site_id
 _symmetry_equiv_pos_as_xyz
  1  'x, y, z'
loop_
 _atom_site_type_symbol
 _atom_site_label
 _atom_site_symmetry_multiplicity
 _atom_site_fract_x
 _atom_site_fract_y
 _atom_site_fract_z
 _atom_site_occupancy
  Mg  Mg0  1  0.49200900  0.51782900  0.45414200  1
  Fe  Fe1  1  0.88237500  0.63957700  0.35000500  1
  Fe  Fe2  1  0.63375000  0.35513500  0.85244600  1
  Fe  Fe3  1  0.36355200  0.86686800  0.65238600  1
  Fe  Fe4  1  0.12681300  0.14191600  0.15066400  1
  P  P5  1  0.68551700  0.98273500  0.80537900  1
  P  P6  1  0.71319300  0.30013300  0.43672000  1
  P  P7  1  0.79591400  0.69151800  0.94834900  1
  P  P8  1  0.82369300  0.00770900  0.32009300  1
  P  P9  1  0.02874900  0.67209400  0.69355100  1
  P  P10  1  0.18921000  0.51604000  0.18841700  1
  P  P11  1  0.19772000  0.19660900  0.55126400  1
  P  P12  1  0.29371700  0.81441200  0.05304100  1
  P  P13  1  0.30850600  0.48213700  0.70489200  1
  P  P14  1  0.46862700  0.31211200  0.17856500  1
  P  P15  1  0.52870500  0.83057800  0.30926800  1
  P  P16  1  0.96361900  0.17999100  0.80528200  1
  O  O17  1  0.61532000  0.68484900  0.36018000  1
  O  O18  1  0.95158500  0.71498000  0.85198300  1
  O  O19  1  0.90392100  0.87720900  0.39467400  1
  O  O20  1  0.91159700  0.60350600  0.58672400  1
  O  O21  1  0.03982000  0.22181500  0.64575100  1
  O  O22  1  0.11176500  0.37641000  0.12066400  1
  O  O23  1  0.08306600  0.13688400  0.92295700  1
  O  O24  1  0.12647500  0.59305000  0.32418500  1
  O  O25  1  0.12997600  0.80248000  0.64477900  1
  O  O26  1  0.14414200  0.53145300  0.76069100  1
  O  O27  1  0.15375500  0.17439700  0.38815900  1
  O  O28  1  0.18497700  0.91871200  0.13708300  1
  O  O29  1  0.22462600  0.63820500  0.05776400  1
  O  O30  1  0.27365000  0.37251900  0.55907600  1
  O  O31  1  0.30544900  0.09609400  0.63732200  1
  O  O32  1  0.33669100  0.84553100  0.89472300  1
  O  O33  1  0.37077800  0.46238000  0.23912500  1
  O  O34  1  0.36020500  0.18413700  0.13540200  1
  O  O35  1  0.39945500  0.39599200  0.82434200  1
  O  O36  1  0.41124600  0.89075700  0.41413900  1
  O  O37  1  0.39639800  0.61356200  0.62854800  1
  O  O38  1  0.45385400  0.79091500  0.14800600  1
  O  O39  1  0.54581300  0.27906900  0.34216500  1
  O  O40  1  0.85826800  0.31327800  0.84132500  1
  O  O41  1  0.59429900  0.36286400  0.07409700  1
  O  O42  1  0.60701600  0.90143100  0.67677800  1
  O  O43  1  0.90185600  0.09647000  0.19423900  1
  O  O44  1  0.65374600  0.95886400  0.25648500  1
  O  O45  1  0.64354100  0.36037600  0.58290500  1
  O  O46  1  0.68701300  0.57962300  0.86754900  1
  O  O47  1  0.72128000  0.86280300  0.94100700  1
  O  O48  1  0.77294000  0.12932900  0.45251600  1
  O  O49  1  0.81939700  0.40199500  0.35077300  1
  O  O50  1  0.84196600  0.66414300  0.10935600  1
  O  O51  1  0.86054900  0.03213800  0.75741800  1
  O  O52  1  0.60789300  0.12437700  0.86795200  1
