# generated using pymatgen
data_Na2Hf4Si5Sn4S7O48
_symmetry_space_group_name_H-M   'P 1'
_cell_length_a   17.79008428
_cell_length_b   8.90229157
_cell_length_c   23.17748644
_cell_angle_alpha   89.98320533
_cell_angle_beta   89.61065576
_cell_angle_gamma   120.08521939
_symmetry_Int_Tables_number   1
_chemical_formula_structural   Na2Hf4Si5Sn4S7O48
_chemical_formula_sum   'Na6 Hf12 Si15 Sn12 S21 O144'
_cell_volume   3176.06373700
_cell_formula_units_Z   3
loop_
 _symmetry_equiv_pos_site_id
 _symmetry_equiv_pos_as_xyz
  1  'x, y, z'
loop_
 _atom_site_type_symbol
 _atom_site_label
 _atom_site_symmetry_multiplicity
 _atom_site_fract_x
 _atom_site_fract_y
 _atom_site_fract_z
 _atom_site_occupancy
  Na  Na0  1  0.99317744  0.99603210  0.49786454  1
  Na  Na1  1  0.49210173  0.98903567  0.99205179  1
  Na  Na2  1  0.34718579  0.35849565  0.83714368  1
  Na  Na3  1  0.83508078  0.34497235  0.82904154  1
  Na  Na4  1  0.33842367  0.32974172  0.33126815  1
  Na  Na5  1  0.83944749  0.33530278  0.34256680  1
  Hf  Hf6  1  0.49875470  0.00410425  0.35849367  1
  Hf  Hf7  1  0.99783677  0.99275733  0.85787868  1
  Hf  Hf8  1  0.50211856  0.99333754  0.64813472  1
  Hf  Hf9  1  0.00228897  0.00012543  0.14438648  1
  Hf  Hf10  1  0.33861646  0.35480862  0.68756679  1
  Hf  Hf11  1  0.83256990  0.32264442  0.18418673  1
  Hf  Hf12  1  0.16823638  0.65508489  0.01553109  1
  Hf  Hf13  1  0.65830960  0.66176017  0.02583844  1
  Hf  Hf14  1  0.15827199  0.65526838  0.52850330  1
  Hf  Hf15  1  0.66799566  0.68281686  0.51711679  1
  Hf  Hf16  1  0.66082425  0.66195399  0.31313730  1
  Hf  Hf17  1  0.16251541  0.66026416  0.81227714  1
  Si  Si18  1  0.14513585  0.00485667  0.25020166  1
  Si  Si19  1  0.50162594  0.28769139  0.24941412  1
  Si  Si20  1  0.64564093  0.28277318  0.74954407  1
  Si  Si21  1  0.00203568  0.71530618  0.74947665  1
  Si  Si22  1  0.50104661  0.71495522  0.75341266  1
  Si  Si23  1  0.97270001  0.31596769  0.58748554  1
  Si  Si24  1  0.33531923  0.63147436  0.58238557  1
  Si  Si25  1  0.47335197  0.62798545  0.08731386  1
  Si  Si26  1  0.83413831  0.03980792  0.08199316  1
  Si  Si27  1  0.31389199  0.66926386  0.91319311  1
  Si  Si28  1  0.01828707  0.37542584  0.91576104  1
  Si  Si29  1  0.52250492  0.36940810  0.91817778  1
  Si  Si30  1  0.81284964  0.95811799  0.41267655  1
  Si  Si31  1  0.02153312  0.66636932  0.41828376  1
  Si  Si32  1  0.51712006  0.65875323  0.41632118  1
  Sn  Sn33  1  0.00148502  0.99091021  0.35541519  1
  Sn  Sn34  1  0.49970840  0.00029776  0.85253200  1
  Sn  Sn35  1  0.99784675  0.99578415  0.64979776  1
  Sn  Sn36  1  0.49628070  0.99908799  0.14875120  1
  Sn  Sn37  1  0.83713966  0.34605474  0.69016098  1
  Sn  Sn38  1  0.33720804  0.32611977  0.18952557  1
  Sn  Sn39  1  0.34373586  0.36245549  0.97733585  1
  Sn  Sn40  1  0.83786573  0.32670972  0.97896033  1
  Sn  Sn41  1  0.33955593  0.34979123  0.48254350  1
  Sn  Sn42  1  0.84250114  0.32302354  0.47962913  1
  Sn  Sn43  1  0.16062358  0.67574268  0.31378544  1
  Sn  Sn44  1  0.65351162  0.63957056  0.80742180  1
  S  S45  1  0.64512125  0.00253905  0.25028721  1
  S  S46  1  0.35119831  0.70797129  0.25363413  1
  S  S47  1  0.85524874  0.70737460  0.24920294  1
  S  S48  1  0.00075820  0.28996813  0.25084333  1
  S  S49  1  0.14440203  0.28651462  0.75034048  1
  S  S50  1  0.35395341  0.00281946  0.74928953  1
  S  S51  1  0.85365305  0.99629690  0.75330322  1
  S  S52  1  0.47895963  0.33158467  0.58245873  1
  S  S53  1  0.18955249  0.04948903  0.58250554  1
  S  S54  1  0.69183212  0.05215932  0.58280502  1
  S  S55  1  0.83176933  0.62053064  0.58121453  1
  S  S56  1  0.97775811  0.62284943  0.08246796  1
  S  S57  1  0.33124401  0.04210349  0.08165912  1
  S  S58  1  0.19225953  0.33422275  0.08367849  1
  S  S59  1  0.68971371  0.33110233  0.08211921  1
  S  S60  1  0.80794370  0.65912971  0.91808975  1
  S  S61  1  0.16878541  0.95811322  0.91797022  1
  S  S62  1  0.66896397  0.95620446  0.91660245  1
  S  S63  1  0.30906995  0.95893825  0.41866179  1
  S  S64  1  0.16853698  0.38210393  0.41535188  1
  S  S65  1  0.66907765  0.38049362  0.41809675  1
  O  O66  1  0.10331882  0.04451276  0.30761598  1
  O  O67  1  0.60306933  0.02789052  0.30123458  1
  O  O68  1  0.40851176  0.79514995  0.30315184  1
  O  O69  1  0.90939883  0.77913524  0.30167612  1
  O  O70  1  0.48751351  0.15954537  0.30380861  1
  O  O71  1  0.98019123  0.18211249  0.30320323  1
  O  O72  1  0.10103263  0.17712477  0.80114108  1
  O  O73  1  0.60472931  0.16976338  0.80845057  1
  O  O74  1  0.47596965  0.78645120  0.81038083  1
  O  O75  1  0.98746998  0.81447065  0.80390680  1
  O  O76  1  0.40767506  0.04419992  0.80199700  1
  O  O77  1  0.91237142  0.02701786  0.80252937  1
  O  O78  1  0.39598231  0.97748250  0.69824265  1
  O  O79  1  0.88979840  0.96808330  0.69850042  1
  O  O80  1  0.09305403  0.21443056  0.69682136  1
  O  O81  1  0.58593760  0.19969312  0.69329077  1
  O  O82  1  0.01626444  0.82733673  0.68922791  1
  O  O83  1  0.50929120  0.82415278  0.69542553  1
  O  O84  1  0.38652463  0.80995185  0.19937693  1
  O  O85  1  0.89762271  0.81715527  0.19804281  1
  O  O86  1  0.00972744  0.20372505  0.19934874  1
  O  O87  1  0.51599678  0.20336646  0.18954037  1
  O  O88  1  0.08411715  0.97434995  0.19477765  1
  O  O89  1  0.59484831  0.97576561  0.19695249  1
  O  O90  1  0.43489312  0.35926967  0.63262039  1
  O  O91  1  0.92949778  0.35121305  0.64338011  1
  O  O92  1  0.24172059  0.13257497  0.63359955  1
  O  O93  1  0.74631924  0.12826685  0.63373870  1
  O  O94  1  0.31796926  0.50036284  0.63744407  1
  O  O95  1  0.81721055  0.51834860  0.63443402  1
  O  O96  1  0.43121357  0.51028363  0.14477471  1
  O  O97  1  0.93358030  0.51074775  0.13417456  1
  O  O98  1  0.31645925  0.11370551  0.13567583  1
  O  O99  1  0.81798819  0.13554525  0.13894822  1
  O  O100  1  0.24553289  0.36513793  0.13543835  1
  O  O101  1  0.74315114  0.35230826  0.13447658  1
  O  O102  1  0.22823188  0.29558719  0.03167161  1
  O  O103  1  0.73051898  0.30514116  0.02983165  1
  O  O104  1  0.41317263  0.55436513  0.03010100  1
  O  O105  1  0.92252243  0.55012684  0.03092033  1
  O  O106  1  0.34573263  0.15376965  0.03089199  1
  O  O107  1  0.85597517  0.17114646  0.02764913  1
  O  O108  1  0.22942753  0.15480213  0.52845039  1
  O  O109  1  0.72969206  0.16161577  0.52980755  1
  O  O110  1  0.35578570  0.54888522  0.52498856  1
  O  O111  1  0.84660077  0.53903917  0.52959074  1
  O  O112  1  0.42361864  0.29317794  0.52943519  1
  O  O113  1  0.91545868  0.27113536  0.52864868  1
  O  O114  1  0.26761563  0.69281344  0.97235035  1
  O  O115  1  0.76948326  0.68656557  0.96992478  1
  O  O116  1  0.07532225  0.46757759  0.97389956  1
  O  O117  1  0.58058911  0.46537503  0.97463781  1
  O  O118  1  0.15295189  0.84779863  0.97003296  1
  O  O119  1  0.66242867  0.85484402  0.96906997  1
  O  O120  1  0.26907835  0.85020511  0.46880252  1
  O  O121  1  0.76905254  0.84036613  0.47110165  1
  O  O122  1  0.16017507  0.46899178  0.46642125  1
  O  O123  1  0.65355726  0.45836116  0.46956614  1
  O  O124  1  0.08254011  0.68923196  0.47222716  1
  O  O125  1  0.57622741  0.68397367  0.47312724  1
  O  O126  1  0.05608017  0.61647526  0.35889166  1
  O  O127  1  0.56455554  0.63042147  0.36013522  1
  O  O128  1  0.25910904  0.88551839  0.36423706  1
  O  O129  1  0.75582536  0.85958400  0.35672901  1
  O  O130  1  0.18497023  0.48806580  0.36143070  1
  O  O131  1  0.68370388  0.48738203  0.36583846  1
  O  O132  1  0.06614736  0.49960224  0.86037044  1
  O  O133  1  0.55935236  0.49519093  0.86138889  1
  O  O134  1  0.18361859  0.88055548  0.86630436  1
  O  O135  1  0.68578410  0.88392246  0.86434615  1
  O  O136  1  0.25527762  0.65240419  0.85816665  1
  O  O137  1  0.75782334  0.63435380  0.86525347  1
  O  O138  1  0.01685597  0.84565724  0.41420200  1
  O  O139  1  0.50792898  0.82842722  0.40428191  1
  O  O140  1  0.39724045  0.98148867  0.40991534  1
  O  O141  1  0.91285430  0.99218530  0.40780010  1
  O  O142  1  0.08694182  0.21216754  0.41080269  1
  O  O143  1  0.59069986  0.20621609  0.40963528  1
  O  O144  1  0.00859697  0.18677442  0.90535294  1
  O  O145  1  0.51702145  0.18166270  0.91255720  1
  O  O146  1  0.09034688  0.97472639  0.91009668  1
  O  O147  1  0.58930163  0.96735186  0.91444083  1
  O  O148  1  0.41098664  0.83816298  0.91232066  1
  O  O149  1  0.89711866  0.81242399  0.91062388  1
  O  O150  1  0.48828341  0.18057749  0.59153035  1
  O  O151  1  0.98703532  0.14627009  0.59316765  1
  O  O152  1  0.10164912  0.03090003  0.58643904  1
  O  O153  1  0.60526916  0.03070318  0.58949675  1
  O  O154  1  0.41785528  0.81908268  0.59363018  1
  O  O155  1  0.91109288  0.79657096  0.58614983  1
  O  O156  1  0.48739623  0.82674499  0.09364034  1
  O  O157  1  0.98581408  0.79395356  0.09211708  1
  O  O158  1  0.41087034  0.02563958  0.08693318  1
  O  O159  1  0.91913099  0.02711465  0.09770684  1
  O  O160  1  0.10390309  0.18250372  0.09264786  1
  O  O161  1  0.60286247  0.17404135  0.08811136  1
  O  O162  1  0.34068322  0.15294232  0.73926247  1
  O  O163  1  0.84591098  0.15353402  0.74790800  1
  O  O164  1  0.22999286  0.29519783  0.74400388  1
  O  O165  1  0.73993452  0.28850712  0.74286387  1
  O  O166  1  0.41662183  0.51472518  0.74514156  1
  O  O167  1  0.91450552  0.52364668  0.74705838  1
  O  O168  1  0.34266690  0.53464417  0.24829288  1
  O  O169  1  0.84574888  0.53223468  0.24036477  1
  O  O170  1  0.41391361  0.30401864  0.24733603  1
  O  O171  1  0.92481585  0.32003131  0.24253528  1
  O  O172  1  0.23974326  0.18355754  0.24284054  1
  O  O173  1  0.73275217  0.16574002  0.24416067  1
  O  O174  1  0.31215371  0.48220978  0.91811201  1
  O  O175  1  0.81782068  0.50115014  0.92464966  1
  O  O176  1  0.42201410  0.33618738  0.92278305  1
  O  O177  1  0.92288439  0.36470636  0.91810163  1
  O  O178  1  0.24526123  0.13154383  0.92602357  1
  O  O179  1  0.74544021  0.13891112  0.92194944  1
  O  O180  1  0.31819809  0.13459120  0.42449053  1
  O  O181  1  0.81327209  0.14282909  0.41826493  1
  O  O182  1  0.24351245  0.35125892  0.42019834  1
  O  O183  1  0.74571724  0.35962012  0.42486450  1
  O  O184  1  0.42143218  0.47951898  0.41884690  1
  O  O185  1  0.92137215  0.50160565  0.42273268  1
  O  O186  1  0.18263461  0.48914375  0.07523429  1
  O  O187  1  0.68390150  0.48828223  0.07710416  1
  O  O188  1  0.06316961  0.63956677  0.07597201  1
  O  O189  1  0.56764183  0.64797989  0.07612412  1
  O  O190  1  0.25443490  0.86876720  0.07416350  1
  O  O191  1  0.75145845  0.85296917  0.07116330  1
  O  O192  1  0.18190519  0.87831389  0.57563886  1
  O  O193  1  0.68349908  0.87830877  0.57384121  1
  O  O194  1  0.24981055  0.64499238  0.57045135  1
  O  O195  1  0.75487943  0.63955834  0.57293962  1
  O  O196  1  0.06686409  0.48669580  0.57697879  1
  O  O197  1  0.56413150  0.48893063  0.57367823  1
  O  O198  1  0.15861768  0.83682979  0.25695465  1
  O  O199  1  0.65833970  0.85407116  0.25720546  1
  O  O200  1  0.26407552  0.68858135  0.26259632  1
  O  O201  1  0.76960130  0.68887257  0.25658295  1
  O  O202  1  0.08151115  0.45988583  0.25584164  1
  O  O203  1  0.58846811  0.47301618  0.25845444  1
  O  O204  1  0.15737908  0.46141590  0.75712526  1
  O  O205  1  0.66719333  0.48340008  0.75527602  1
  O  O206  1  0.08875639  0.70409068  0.75866074  1
  O  O207  1  0.59175852  0.71333711  0.75608049  1
  O  O208  1  0.26861991  0.84665149  0.75733125  1
  O  O209  1  0.76909684  0.84168904  0.76288944  1
