# generated using pymatgen
data_V2O5
_symmetry_space_group_name_H-M   'P 1'
_cell_length_a   5.32692737
_cell_length_b   5.32692737
_cell_length_c   11.44292883
_cell_angle_alpha   90.00000000
_cell_angle_beta   90.00000000
_cell_angle_gamma   141.21078565
_symmetry_Int_Tables_number   1
_chemical_formula_structural   V2O5
_chemical_formula_sum   'V4 O10'
_cell_volume   203.41458031
_cell_formula_units_Z   2
loop_
 _symmetry_equiv_pos_site_id
 _symmetry_equiv_pos_as_xyz
  1  'x, y, z'
loop_
 _atom_site_type_symbol
 _atom_site_label
 _atom_site_symmetry_multiplicity
 _atom_site_fract_x
 _atom_site_fract_y
 _atom_site_fract_z
 _atom_site_occupancy
  V  V0  1  0.70400380  0.29599620  0.60432887  1
  V  V1  1  0.29599620  0.70400380  0.39567113  1
  V  V2  1  0.29599620  0.70400380  0.10432887  1
  V  V3  1  0.70400380  0.29599620  0.89567113  1
  O  O4  1  0.76771349  0.23228651  0.75000000  1
  O  O5  1  0.54695019  0.45304981  0.61851941  1
  O  O6  1  0.25025126  0.74974874  0.56816224  1
  O  O7  1  0.74974874  0.25025126  0.43183776  1
  O  O8  1  0.45304981  0.54695019  0.38148059  1
  O  O9  1  0.23228651  0.76771349  0.25000000  1
  O  O10  1  0.45304981  0.54695019  0.11851941  1
  O  O11  1  0.54695019  0.45304981  0.88148059  1
  O  O12  1  0.74974874  0.25025126  0.06816224  1
  O  O13  1  0.25025126  0.74974874  0.93183776  1
