# generated using pymatgen
data_Na14Ca4Si7Sn4S5O48
_symmetry_space_group_name_H-M   'P 1'
_cell_length_a   18.68874325
_cell_length_b   9.34912853
_cell_length_c   22.69868217
_cell_angle_alpha   89.91359844
_cell_angle_beta   89.57835904
_cell_angle_gamma   119.98966857
_symmetry_Int_Tables_number   1
_chemical_formula_structural   Na14Ca4Si7Sn4S5O48
_chemical_formula_sum   'Na42 Ca12 Si21 Sn12 S15 O144'
_cell_volume   3434.85303959
_cell_formula_units_Z   3
loop_
 _symmetry_equiv_pos_site_id
 _symmetry_equiv_pos_as_xyz
  1  'x, y, z'
loop_
 _atom_site_type_symbol
 _atom_site_label
 _atom_site_symmetry_multiplicity
 _atom_site_fract_x
 _atom_site_fract_y
 _atom_site_fract_z
 _atom_site_occupancy
  Na  Na0  1  0.80603338  0.98437223  0.25637446  1
  Na  Na1  1  0.18413618  0.35233926  0.25589459  1
  Na  Na2  1  0.69358518  0.36658182  0.25376949  1
  Na  Na3  1  0.99417435  0.64278724  0.24327934  1
  Na  Na4  1  0.49849864  0.64467650  0.24909149  1
  Na  Na5  1  0.30831428  0.62794514  0.74066087  1
  Na  Na6  1  0.99755001  0.35093619  0.74316464  1
  Na  Na7  1  0.49869995  0.35289761  0.73763519  1
  Na  Na8  1  0.19189407  0.01833793  0.74791602  1
  Na  Na9  1  0.68602192  0.01658635  0.74959316  1
  Na  Na10  1  0.14641240  0.32900384  0.58380249  1
  Na  Na11  1  0.66078068  0.33744354  0.58123577  1
  Na  Na12  1  0.34192585  0.99243526  0.57712083  1
  Na  Na13  1  0.83414203  0.97694957  0.58019508  1
  Na  Na14  1  0.15773417  0.98147681  0.08799052  1
  Na  Na15  1  0.64676698  0.96280746  0.09087954  1
  Na  Na16  1  0.33394150  0.68774151  0.09146942  1
  Na  Na17  1  0.84063560  0.69422003  0.08408531  1
  Na  Na18  1  0.48649771  0.67924695  0.92826440  1
  Na  Na19  1  0.96875527  0.66513068  0.92534505  1
  Na  Na20  1  0.35595889  0.04354643  0.91643065  1
  Na  Na21  1  0.84709850  0.02956284  0.90911890  1
  Na  Na22  1  0.16561738  0.28538698  0.91555637  1
  Na  Na23  1  0.67471579  0.28906669  0.90585572  1
  Na  Na24  1  0.47136513  0.27766850  0.42626746  1
  Na  Na25  1  0.97411754  0.27144242  0.42778404  1
  Na  Na26  1  0.17149885  0.05996215  0.40549168  1
  Na  Na27  1  0.67577440  0.03878990  0.41252446  1
  Na  Na28  1  0.34932820  0.66663968  0.40893872  1
  Na  Na29  1  0.85127625  0.68203960  0.42086744  1
  Na  Na30  1  0.99112465  0.99845870  0.49794268  1
  Na  Na31  1  0.50165484  0.00128817  0.50202890  1
  Na  Na32  1  0.99668949  0.99552882  0.00468272  1
  Na  Na33  1  0.50172772  0.99926176  0.00533115  1
  Na  Na34  1  0.32637968  0.31782301  0.81867047  1
  Na  Na35  1  0.81980137  0.33050432  0.82987237  1
  Na  Na36  1  0.32121372  0.31122638  0.33312182  1
  Na  Na37  1  0.82417036  0.31296654  0.32924597  1
  Na  Na38  1  0.16860481  0.67452085  0.16889696  1
  Na  Na39  1  0.66411278  0.66763262  0.17322147  1
  Na  Na40  1  0.16220631  0.65836270  0.66939069  1
  Na  Na41  1  0.67027828  0.66529723  0.66368964  1
  Ca  Ca42  1  0.00112970  0.00062573  0.35092332  1
  Ca  Ca43  1  0.49395308  0.98987118  0.34784609  1
  Ca  Ca44  1  0.99274156  0.99759849  0.84665260  1
  Ca  Ca45  1  0.50676223  0.01079895  0.84725395  1
  Ca  Ca46  1  0.33909313  0.33321596  0.67674891  1
  Ca  Ca47  1  0.83750060  0.34053344  0.17898177  1
  Ca  Ca48  1  0.33337363  0.32790047  0.99521254  1
  Ca  Ca49  1  0.83199491  0.33451990  0.98481498  1
  Ca  Ca50  1  0.33179380  0.33100823  0.48429503  1
  Ca  Ca51  1  0.83211709  0.33167967  0.49099173  1
  Ca  Ca52  1  0.66959819  0.67657520  0.31269943  1
  Ca  Ca53  1  0.16753582  0.66324152  0.80958003  1
  Si  Si54  1  0.15669613  0.99963308  0.25134819  1
  Si  Si55  1  0.64786666  0.00272996  0.24872534  1
  Si  Si56  1  0.34623243  0.68265546  0.24965787  1
  Si  Si57  1  0.85085834  0.70111949  0.24933576  1
  Si  Si58  1  0.14874619  0.29171513  0.75052768  1
  Si  Si59  1  0.65792014  0.31671636  0.75158688  1
  Si  Si60  1  0.35170082  0.99916534  0.75154084  1
  Si  Si61  1  0.84708209  0.01199172  0.75029808  1
  Si  Si62  1  0.48985434  0.33568109  0.58136729  1
  Si  Si63  1  0.98745313  0.34064802  0.58460992  1
  Si  Si64  1  0.67723189  0.02700654  0.58522393  1
  Si  Si65  1  0.83952603  0.64217912  0.58053916  1
  Si  Si66  1  0.48656828  0.63524125  0.08274217  1
  Si  Si67  1  0.98753817  0.64593041  0.08174850  1
  Si  Si68  1  0.34009651  0.03567653  0.07898059  1
  Si  Si69  1  0.17779589  0.32584987  0.08273903  1
  Si  Si70  1  0.81184481  0.66477840  0.92088025  1
  Si  Si71  1  0.66485977  0.95482938  0.91562142  1
  Si  Si72  1  0.31191285  0.95992382  0.42108903  1
  Si  Si73  1  0.81509043  0.96878064  0.41675155  1
  Si  Si74  1  0.16664817  0.37718564  0.41581049  1
  Sn  Sn75  1  0.99115104  0.00213677  0.65207965  1
  Sn  Sn76  1  0.50761340  0.02901481  0.65278505  1
  Sn  Sn77  1  0.00730781  0.98882899  0.15384909  1
  Sn  Sn78  1  0.49080214  0.98039129  0.15311537  1
  Sn  Sn79  1  0.83066331  0.33110799  0.67715654  1
  Sn  Sn80  1  0.33060540  0.32860628  0.17780252  1
  Sn  Sn81  1  0.16813236  0.66625532  0.02659105  1
  Sn  Sn82  1  0.66304834  0.66818001  0.01708818  1
  Sn  Sn83  1  0.16233720  0.65769975  0.51621028  1
  Sn  Sn84  1  0.67309895  0.67854357  0.52433750  1
  Sn  Sn85  1  0.18058881  0.68381234  0.31361122  1
  Sn  Sn86  1  0.68122402  0.67966986  0.81262517  1
  S  S87  1  0.00341905  0.29906510  0.25050298  1
  S  S88  1  0.49509633  0.29096133  0.24725186  1
  S  S89  1  0.99603698  0.69967907  0.74830134  1
  S  S90  1  0.50194297  0.70419648  0.75222930  1
  S  S91  1  0.17607509  0.01840961  0.58361061  1
  S  S92  1  0.33226342  0.64606934  0.58297470  1
  S  S93  1  0.83199033  0.01950356  0.08147165  1
  S  S94  1  0.67577563  0.33392950  0.08214843  1
  S  S95  1  0.31185680  0.66304813  0.91901660  1
  S  S96  1  0.02462786  0.37855588  0.92007267  1
  S  S97  1  0.52186326  0.38132025  0.91507288  1
  S  S98  1  0.16749567  0.95859551  0.91772935  1
  S  S99  1  0.66473844  0.37114884  0.41746491  1
  S  S100  1  0.02408286  0.66499929  0.41456969  1
  S  S101  1  0.52183228  0.66819844  0.41918909  1
  O  O102  1  0.12246586  0.04629714  0.30882894  1
  O  O103  1  0.60960634  0.03767889  0.30742779  1
  O  O104  1  0.39835010  0.75580706  0.30868744  1
  O  O105  1  0.90515059  0.78559462  0.30686430  1
  O  O106  1  0.48330875  0.20165802  0.30286546  1
  O  O107  1  0.99453212  0.21057228  0.30524885  1
  O  O108  1  0.11332840  0.18884058  0.81180026  1
  O  O109  1  0.62491129  0.20591929  0.81075446  1
  O  O110  1  0.49138805  0.77225338  0.80813951  1
  O  O111  1  0.98618159  0.76620526  0.80476259  1
  O  O112  1  0.39899945  0.01554315  0.81281030  1
  O  O113  1  0.89691621  0.04207279  0.81079077  1
  O  O114  1  0.40222406  0.96752900  0.69440104  1
  O  O115  1  0.89120430  0.98050135  0.69289579  1
  O  O116  1  0.08983350  0.18046461  0.69307241  1
  O  O117  1  0.59372053  0.22968947  0.69547487  1
  O  O118  1  0.00644939  0.81136423  0.69801060  1
  O  O119  1  0.51544159  0.81831909  0.70207689  1
  O  O120  1  0.38798346  0.79900926  0.19040145  1
  O  O121  1  0.89897450  0.83052699  0.18969421  1
  O  O122  1  0.01774854  0.21453959  0.19910393  1
  O  O123  1  0.50496058  0.20053581  0.19613399  1
  O  O124  1  0.09625937  0.96066689  0.19258200  1
  O  O125  1  0.59137264  0.99781875  0.18873992  1
  O  O126  1  0.45685643  0.36637578  0.64298004  1
  O  O127  1  0.94215077  0.36321075  0.64395646  1
  O  O128  1  0.22858639  0.09407873  0.63597770  1
  O  O129  1  0.74092806  0.11588863  0.64147826  1
  O  O130  1  0.32090223  0.54522841  0.63649883  1
  O  O131  1  0.81955801  0.50565615  0.63372460  1
  O  O132  1  0.43835867  0.51667104  0.14011571  1
  O  O133  1  0.95312263  0.54566434  0.14217116  1
  O  O134  1  0.31692812  0.13217695  0.12983256  1
  O  O135  1  0.82019104  0.09871041  0.13362120  1
  O  O136  1  0.24404971  0.36733463  0.13696202  1
  O  O137  1  0.72834422  0.36095680  0.13384200  1
  O  O138  1  0.20697744  0.27766734  0.02247448  1
  O  O139  1  0.71276648  0.30621777  0.02869582  1
  O  O140  1  0.43557734  0.57279333  0.02242587  1
  O  O141  1  0.93155383  0.56853493  0.02380083  1
  O  O142  1  0.35447063  0.11919481  0.01494290  1
  O  O143  1  0.83754881  0.10934853  0.02700633  1
  O  O144  1  0.21397387  0.12276408  0.53103439  1
  O  O145  1  0.70708446  0.14066653  0.52690945  1
  O  O146  1  0.33816609  0.56537926  0.52995957  1
  O  O147  1  0.85355615  0.58364865  0.51749979  1
  O  O148  1  0.42907722  0.29416949  0.52576571  1
  O  O149  1  0.93471025  0.30030433  0.52585725  1
  O  O150  1  0.26864266  0.68015122  0.97313360  1
  O  O151  1  0.76392635  0.67980920  0.98162186  1
  O  O152  1  0.08021961  0.47196416  0.97087914  1
  O  O153  1  0.57191650  0.46203491  0.96899609  1
  O  O154  1  0.16352720  0.85928155  0.97136071  1
  O  O155  1  0.65148473  0.84113036  0.97592199  1
  O  O156  1  0.26410198  0.84959220  0.48231978  1
  O  O157  1  0.76550578  0.84791923  0.47664840  1
  O  O158  1  0.15492475  0.46321618  0.47714871  1
  O  O159  1  0.65815980  0.45916598  0.47072322  1
  O  O160  1  0.07460174  0.68454131  0.46861515  1
  O  O161  1  0.57497816  0.67971651  0.46985041  1
  O  O162  1  0.06543630  0.64635863  0.36086591  1
  O  O163  1  0.55521602  0.64439344  0.36336370  1
  O  O164  1  0.25148950  0.86805704  0.36462260  1
  O  O165  1  0.76141853  0.88548561  0.35833257  1
  O  O166  1  0.17178016  0.48927963  0.35686779  1
  O  O167  1  0.66780390  0.46024754  0.36305054  1
  O  O168  1  0.06003910  0.47074921  0.86510335  1
  O  O169  1  0.56364127  0.47871702  0.86132437  1
  O  O170  1  0.17294484  0.87676371  0.86405239  1
  O  O171  1  0.66927227  0.85180948  0.85713939  1
  O  O172  1  0.26377889  0.64862262  0.86637609  1
  O  O173  1  0.75098116  0.63544446  0.86459966  1
  O  O174  1  0.01894301  0.81694708  0.41306896  1
  O  O175  1  0.51781426  0.82348937  0.41920664  1
  O  O176  1  0.40095097  0.96745733  0.42107904  1
  O  O177  1  0.90419730  0.97587650  0.42123577  1
  O  O178  1  0.08621540  0.19456275  0.41822793  1
  O  O179  1  0.58943072  0.20378082  0.41907135  1
  O  O180  1  0.01944007  0.21447205  0.92037795  1
  O  O181  1  0.51272522  0.21430146  0.91446253  1
  O  O182  1  0.09110820  0.97078181  0.91938343  1
  O  O183  1  0.58230699  0.97279036  0.91832750  1
  O  O184  1  0.39499370  0.81346642  0.91856020  1
  O  O185  1  0.90123711  0.83514714  0.92048025  1
  O  O186  1  0.49610189  0.16044084  0.58569390  1
  O  O187  1  0.00296470  0.17887450  0.59235274  1
  O  O188  1  0.09281638  -0.00001215  0.59071690  1
  O  O189  1  0.58371626  0.00065720  0.59891900  1
  O  O190  1  0.40572195  0.81469406  0.58703482  1
  O  O191  1  0.91890793  0.83233486  0.59267423  1
  O  O192  1  0.50031747  0.82625528  0.09090971  1
  O  O193  1  0.99615833  0.83465356  0.08567649  1
  O  O194  1  0.41894027  0.00523761  0.09208318  1
  O  O195  1  0.90552524  0.99861572  0.08536322  1
  O  O196  1  0.08513420  0.16694427  0.09733717  1
  O  O197  1  0.59195711  0.18655368  0.08867412  1
  O  O198  1  0.34468383  0.16582982  0.74509193  1
  O  O199  1  0.84178894  0.18385576  0.74203042  1
  O  O200  1  0.24370289  0.32839159  0.74267766  1
  O  O201  1  0.74805439  0.33069236  0.73950670  1
  O  O202  1  0.42652681  0.54074147  0.74453195  1
  O  O203  1  0.92400568  0.53069956  0.74175835  1
  O  O204  1  0.34107306  0.50034633  0.24102970  1
  O  O205  1  0.84288198  0.51916129  0.24450184  1
  O  O206  1  0.42259243  0.31585655  0.23982061  1
  O  O207  1  0.92791240  0.31112756  0.24278578  1
  O  O208  1  0.24785367  0.16518825  0.23897640  1
  O  O209  1  0.74272184  0.15478580  0.24198948  1
  O  O210  1  0.31937245  0.51248374  0.92272631  1
  O  O211  1  0.82089102  0.50045562  0.91852110  1
  O  O212  1  0.43955795  0.36921406  0.91825014  1
  O  O213  1  0.94130236  0.35694680  0.92723368  1
  O  O214  1  0.24243939  0.12648033  0.91916147  1
  O  O215  1  0.75086656  0.13080992  0.91546043  1
  O  O216  1  0.32068026  0.14189148  0.41887943  1
  O  O217  1  0.82450593  0.15277622  0.41969566  1
  O  O218  1  0.25353412  0.37609970  0.41524044  1
  O  O219  1  0.74105410  0.35908688  0.41905966  1
  O  O220  1  0.43722752  0.52491429  0.42573106  1
  O  O221  1  0.94186094  0.51615274  0.41841065  1
  O  O222  1  0.17729691  0.50350414  0.07887303  1
  O  O223  1  0.67019556  0.48936666  0.07722411  1
  O  O224  1  0.08567748  0.68701971  0.07507435  1
  O  O225  1  0.58273784  0.65993075  0.08090765  1
  O  O226  1  0.25545596  0.84487475  0.07901467  1
  O  O227  1  0.75444473  0.84698604  0.08088002  1
  O  O228  1  0.17028586  0.85217392  0.57801435  1
  O  O229  1  0.67413674  0.84730640  0.58194236  1
  O  O230  1  0.25487699  0.66308986  0.58203610  1
  O  O231  1  0.75407422  0.65892185  0.58216383  1
  O  O232  1  0.08408260  0.50818304  0.58178522  1
  O  O233  1  0.58687876  0.48878574  0.57229600  1
  O  O234  1  0.15380994  0.81672933  0.25525253  1
  O  O235  1  0.64307538  0.82336432  0.24416482  1
  O  O236  1  0.25032969  0.65225662  0.25043962  1
  O  O237  1  0.75880927  0.68043169  0.24394419  1
  O  O238  1  0.07771523  0.47040978  0.25128016  1
  O  O239  1  0.57156038  0.45516255  0.24799540  1
  O  O240  1  0.14657132  0.46499966  0.74580899  1
  O  O241  1  0.65399184  0.49262436  0.75526846  1
  O  O242  1  0.07309221  0.68864791  0.74862123  1
  O  O243  1  0.57613260  0.68208289  0.75345433  1
  O  O244  1  0.25987895  0.83494925  0.74501587  1
  O  O245  1  0.75099942  0.85093024  0.75052472  1
