# generated using pymatgen
data_NaCaIn(SO4)3
_symmetry_space_group_name_H-M   'P 1'
_cell_length_a   8.97890659
_cell_length_b   8.97890629
_cell_length_c   23.85036266
_cell_angle_alpha   90.00000000
_cell_angle_beta   90.00000000
_cell_angle_gamma   120.00000113
_symmetry_Int_Tables_number   1
_chemical_formula_structural   NaCaIn(SO4)3
_chemical_formula_sum   'Na6 Ca6 In6 S18 O72'
_cell_volume   1665.22340588
_cell_formula_units_Z   6
loop_
 _symmetry_equiv_pos_site_id
 _symmetry_equiv_pos_as_xyz
  1  'x, y, z'
loop_
 _atom_site_type_symbol
 _atom_site_label
 _atom_site_symmetry_multiplicity
 _atom_site_fract_x
 _atom_site_fract_y
 _atom_site_fract_z
 _atom_site_occupancy
  Na  Na0  1  -0.00000000  0.00000000  0.49974930  1
  Na  Na1  1  -0.00000000  0.00000000  0.99974930  1
  Na  Na2  1  0.66666700  0.33333300  0.83308230  1
  Na  Na3  1  0.66666700  0.33333300  0.33308230  1
  Na  Na4  1  0.33333300  0.66666700  0.16641630  1
  Na  Na5  1  0.33333300  0.66666700  0.66641630  1
  Ca  Ca6  1  -0.00000000  0.00000000  0.35183713  1
  Ca  Ca7  1  -0.00000000  0.00000000  0.85183713  1
  Ca  Ca8  1  0.66666700  0.33333300  0.68517013  1
  Ca  Ca9  1  0.66666700  0.33333300  0.18517013  1
  Ca  Ca10  1  0.33333300  0.66666700  0.01850413  1
  Ca  Ca11  1  0.33333300  0.66666700  0.51850413  1
  In  In12  1  -0.00000000  0.00000000  0.65284036  1
  In  In13  1  -0.00000000  0.00000000  0.15284036  1
  In  In14  1  0.66666700  0.33333300  0.98617336  1
  In  In15  1  0.66666700  0.33333300  0.48617336  1
  In  In16  1  0.33333300  0.66666700  0.31950736  1
  In  In17  1  0.33333300  0.66666700  0.81950736  1
  S  S18  1  0.29389888  0.98635795  0.25043229  1
  S  S19  1  0.69245907  0.70610112  0.25043229  1
  S  S20  1  0.01364205  0.30754093  0.25043229  1
  S  S21  1  0.29389888  0.30754093  0.75043229  1
  S  S22  1  0.01364205  0.70610112  0.75043229  1
  S  S23  1  0.69245907  0.98635795  0.75043229  1
  S  S24  1  0.96056588  0.31969095  0.58376529  1
  S  S25  1  0.35912607  0.03943412  0.58376529  1
  S  S26  1  0.68030905  0.64087393  0.58376529  1
  S  S27  1  0.96056588  0.64087393  0.08376529  1
  S  S28  1  0.68030905  0.03943412  0.08376529  1
  S  S29  1  0.35912607  0.31969095  0.08376529  1
  S  S30  1  0.62723188  0.65302495  0.91709929  1
  S  S31  1  0.02579207  0.37276812  0.91709929  1
  S  S32  1  0.34697505  0.97420793  0.91709929  1
  S  S33  1  0.62723188  0.97420793  0.41709929  1
  S  S34  1  0.34697505  0.37276812  0.41709929  1
  S  S35  1  0.02579207  0.65302495  0.41709929  1
  O  O36  1  0.20714979  0.00078209  0.30006608  1
  O  O37  1  0.79363230  0.79285021  0.30006608  1
  O  O38  1  0.99921791  0.20636770  0.30006608  1
  O  O39  1  0.20714979  0.20636770  0.80006608  1
  O  O40  1  0.99921791  0.79285021  0.80006608  1
  O  O41  1  0.79363230  0.00078209  0.80006608  1
  O  O42  1  0.77394057  0.96721409  0.69786436  1
  O  O43  1  0.19327352  0.22605943  0.69786436  1
  O  O44  1  0.03278591  0.80672648  0.69786436  1
  O  O45  1  0.77394057  0.80672648  0.19786436  1
  O  O46  1  0.03278591  0.22605943  0.19786436  1
  O  O47  1  0.19327352  0.96721409  0.19786436  1
  O  O48  1  0.87381679  0.33411509  0.63339908  1
  O  O49  1  0.46029930  0.12618321  0.63339908  1
  O  O50  1  0.66588491  0.53970070  0.63339908  1
  O  O51  1  0.87381679  0.53970070  0.13339908  1
  O  O52  1  0.66588491  0.12618321  0.13339908  1
  O  O53  1  0.46029930  0.33411509  0.13339908  1
  O  O54  1  0.44060757  0.30054709  0.03119736  1
  O  O55  1  0.85994052  0.55939243  0.03119736  1
  O  O56  1  0.69945291  0.14005948  0.03119736  1
  O  O57  1  0.44060757  0.14005948  0.53119736  1
  O  O58  1  0.69945291  0.55939243  0.53119736  1
  O  O59  1  0.85994052  0.30054709  0.53119736  1
  O  O60  1  0.54048279  0.66744909  0.96673308  1
  O  O61  1  0.12696530  0.45951721  0.96673308  1
  O  O62  1  0.33255091  0.87303470  0.96673308  1
  O  O63  1  0.54048279  0.87303470  0.46673308  1
  O  O64  1  0.33255091  0.45951721  0.46673308  1
  O  O65  1  0.12696530  0.66744909  0.46673308  1
  O  O66  1  0.10727357  0.63388109  0.36453136  1
  O  O67  1  0.52660652  0.89272643  0.36453136  1
  O  O68  1  0.36611891  0.47339348  0.36453136  1
  O  O69  1  0.10727357  0.47339348  0.86453136  1
  O  O70  1  0.36611891  0.89272643  0.86453136  1
  O  O71  1  0.52660652  0.63388109  0.86453136  1
  O  O72  1  0.00323808  0.80446408  0.41333522  1
  O  O73  1  0.80122601  0.99676192  0.41333522  1
  O  O74  1  0.19553592  0.19877399  0.41333522  1
  O  O75  1  0.00323808  0.19877399  0.91333522  1
  O  O76  1  0.19553592  0.99676192  0.91333522  1
  O  O77  1  0.80122601  0.80446408  0.91333522  1
  O  O78  1  0.97390725  0.15929418  0.58682645  1
  O  O79  1  0.18538693  0.02609275  0.58682645  1
  O  O80  1  0.84070582  0.81461307  0.58682645  1
  O  O81  1  0.97390725  0.81461307  0.08682645  1
  O  O82  1  0.84070582  0.02609275  0.08682645  1
  O  O83  1  0.18538693  0.15929418  0.08682645  1
  O  O84  1  0.66990508  0.13779708  0.74666822  1
  O  O85  1  0.46789301  0.33009492  0.74666822  1
  O  O86  1  0.86220292  0.53210699  0.74666822  1
  O  O87  1  0.66990508  0.53210699  0.24666822  1
  O  O88  1  0.86220292  0.33009492  0.24666822  1
  O  O89  1  0.46789301  0.13779708  0.24666822  1
  O  O90  1  0.64057425  0.49262718  0.92015945  1
  O  O91  1  0.85205393  0.35942575  0.92015945  1
  O  O92  1  0.50737282  0.14794607  0.92015945  1
  O  O93  1  0.64057425  0.14794607  0.42015945  1
  O  O94  1  0.50737282  0.35942575  0.42015945  1
  O  O95  1  0.85205393  0.49262718  0.42015945  1
  O  O96  1  0.33657108  0.47113108  0.08000222  1
  O  O97  1  0.13455901  0.66342892  0.08000222  1
  O  O98  1  0.52886892  0.86544099  0.08000222  1
  O  O99  1  0.33657108  0.86544099  0.58000222  1
  O  O100  1  0.52886892  0.66342892  0.58000222  1
  O  O101  1  0.13455901  0.47113108  0.58000222  1
  O  O102  1  0.30724025  0.82596118  0.25349345  1
  O  O103  1  0.51871993  0.69275975  0.25349345  1
  O  O104  1  0.17403882  0.48128007  0.25349345  1
  O  O105  1  0.30724025  0.48128007  0.75349345  1
  O  O106  1  0.17403882  0.69275975  0.75349345  1
  O  O107  1  0.51871993  0.82596118  0.75349345  1
