# generated using pymatgen
data_Sb2XeF14
_symmetry_space_group_name_H-M   'P 1'
_cell_length_a   7.89069068
_cell_length_b   8.13647209
_cell_length_c   9.42104227
_cell_angle_alpha   67.99650088
_cell_angle_beta   88.54489212
_cell_angle_gamma   66.41744864
_symmetry_Int_Tables_number   1
_chemical_formula_structural   Sb2XeF14
_chemical_formula_sum   'Sb4 Xe2 F28'
_cell_volume   508.41489082
_cell_formula_units_Z   2
loop_
 _symmetry_equiv_pos_site_id
 _symmetry_equiv_pos_as_xyz
  1  'x, y, z'
loop_
 _atom_site_type_symbol
 _atom_site_label
 _atom_site_symmetry_multiplicity
 _atom_site_fract_x
 _atom_site_fract_y
 _atom_site_fract_z
 _atom_site_occupancy
  Sb  Sb0  1  0.79841643  0.13007514  0.22880643  1
  Sb  Sb1  1  0.20158357  0.86992486  0.77119357  1
  Sb  Sb2  1  0.49134601  0.83069321  0.29011437  1
  Sb  Sb3  1  0.50865399  0.16930679  0.70988563  1
  Xe  Xe4  1  0.81064955  0.54478455  0.74878159  1
  Xe  Xe5  1  0.18935045  0.45521545  0.25121841  1
  F  F6  1  0.88664792  0.94222044  0.43120755  1
  F  F7  1  0.11335208  0.05777956  0.56879245  1
  F  F8  1  0.58345210  0.27185796  0.30002666  1
  F  F9  1  0.41654790  0.72814204  0.69997334  1
  F  F10  1  0.65884805  0.64202542  0.22761753  1
  F  F11  1  0.34115195  0.35797458  0.77238247  1
  F  F12  1  0.34557052  0.02551387  0.78624982  1
  F  F13  1  0.65442948  0.97448613  0.21375018  1
  F  F14  1  0.34015701  0.29679598  0.51719776  1
  F  F15  1  0.65984299  0.70320402  0.48280224  1
  F  F16  1  0.63929813  0.97299339  0.63799387  1
  F  F17  1  0.36070187  0.02700661  0.36200613  1
  F  F18  1  0.31888787  0.70316019  0.97555144  1
  F  F19  1  0.68111213  0.29683981  0.02444856  1
  F  F20  1  0.65370111  0.02018958  0.90415527  1
  F  F21  1  0.34629889  0.97981042  0.09584473  1
  F  F22  1  0.00905156  0.02745263  0.84480138  1
  F  F23  1  0.99094844  0.97254737  0.15519862  1
  F  F24  1  0.07454875  0.72265283  0.75960227  1
  F  F25  1  0.92545125  0.27734717  0.24039773  1
  F  F26  1  0.64954461  0.31186158  0.62624494  1
  F  F27  1  0.35045539  0.68813842  0.37375506  1
  F  F28  1  0.98880948  0.63947494  0.08151515  1
  F  F29  1  0.01119052  0.36052506  0.91848485  1
  F  F30  1  0.02334869  0.60895626  0.35910750  1
  F  F31  1  0.97665131  0.39104374  0.64089250  1
  F  F32  1  0.28855424  0.35219244  0.09247396  1
  F  F33  1  0.71144576  0.64780756  0.90752604  1
