# generated using pymatgen
data_NaTi2Ge2P5SO24
_symmetry_space_group_name_H-M   'P 1'
_cell_length_a   8.45726421
_cell_length_b   8.46910284
_cell_length_c   22.00498199
_cell_angle_alpha   90.03037885
_cell_angle_beta   89.82321475
_cell_angle_gamma   120.00921525
_symmetry_Int_Tables_number   1
_chemical_formula_structural   NaTi2Ge2P5SO24
_chemical_formula_sum   'Na3 Ti6 Ge6 P15 S3 O72'
_cell_volume   1364.82275369
_cell_formula_units_Z   3
loop_
 _symmetry_equiv_pos_site_id
 _symmetry_equiv_pos_as_xyz
  1  'x, y, z'
loop_
 _atom_site_type_symbol
 _atom_site_label
 _atom_site_symmetry_multiplicity
 _atom_site_fract_x
 _atom_site_fract_y
 _atom_site_fract_z
 _atom_site_occupancy
  Na  Na0  1  0.66869250  0.33576220  0.83443234  1
  Na  Na1  1  0.66714137  0.33387457  0.33124381  1
  Na  Na2  1  0.33348821  0.66697337  0.16702607  1
  Ti  Ti3  1  0.99191058  0.99974439  0.85757476  1
  Ti  Ti4  1  0.00544516  0.99904982  0.64666990  1
  Ti  Ti5  1  0.66214335  0.32614589  0.68931412  1
  Ti  Ti6  1  0.65825217  0.32781200  0.47478181  1
  Ti  Ti7  1  0.33312919  0.67220114  0.51774636  1
  Ti  Ti8  1  0.33050025  0.65754957  0.81017245  1
  Ge  Ge9  1  0.00066460  0.00015434  0.35305872  1
  Ge  Ge10  1  0.99965923  0.00021305  0.14470973  1
  Ge  Ge11  1  0.66658196  0.33279196  0.18617497  1
  Ge  Ge12  1  0.67312640  0.34030511  0.98446072  1
  Ge  Ge13  1  0.33552552  0.66074073  0.02276150  1
  Ge  Ge14  1  0.33305604  0.66616582  0.31175587  1
  P  P15  1  0.28634146  0.00016686  0.24954744  1
  P  P16  1  0.71424914  0.71359451  0.24971106  1
  P  P17  1  0.99954589  0.28583650  0.24967282  1
  P  P18  1  0.28522961  0.28499558  0.75080456  1
  P  P19  1  0.00045433  0.71236511  0.75101192  1
  P  P20  1  0.71160613  0.99737278  0.74996788  1
  P  P21  1  0.37800638  0.04352726  0.58292135  1
  P  P22  1  0.95610015  0.62444106  0.08417461  1
  P  P23  1  0.66809021  0.04603701  0.08337535  1
  P  P24  1  0.37826181  0.32965450  0.08388926  1
  P  P25  1  0.61689114  0.66031333  0.91899700  1
  P  P26  1  0.04361477  0.38186736  0.91920464  1
  P  P27  1  0.62525731  0.95061770  0.41368780  1
  P  P28  1  0.32477285  0.37622401  0.41435869  1
  P  P29  1  0.04712660  0.67264747  0.41396015  1
  S  S30  1  0.95529448  0.33310307  0.58282381  1
  S  S31  1  0.66597852  0.62155512  0.58303522  1
  S  S32  1  0.33580419  0.95603220  0.91815715  1
  O  O33  1  0.20676154  0.03795044  0.30758861  1
  O  O34  1  0.83122212  0.79342447  0.30757114  1
  O  O35  1  0.96194827  0.16865047  0.30761009  1
  O  O36  1  0.20396775  0.16660385  0.80701704  1
  O  O37  1  0.96440364  0.79741652  0.80687124  1
  O  O38  1  0.83218028  0.03679848  0.80648031  1
  O  O39  1  0.79780623  0.96771910  0.69277194  1
  O  O40  1  0.16978255  0.20278952  0.69310222  1
  O  O41  1  0.03205953  0.82968069  0.69325191  1
  O  O42  1  0.79478116  0.83246424  0.19245203  1
  O  O43  1  0.03791533  0.20530864  0.19239376  1
  O  O44  1  0.16768635  0.96231655  0.19248182  1
  O  O45  1  0.87406759  0.36643909  0.63780809  1
  O  O46  1  0.49878662  0.13346960  0.63919211  1
  O  O47  1  0.63564663  0.50819918  0.63776145  1
  O  O48  1  0.87383517  0.49982131  0.14057029  1
  O  O49  1  0.62621832  0.12699167  0.14039373  1
  O  O50  1  0.50128197  0.37288892  0.14060160  1
  O  O51  1  0.46123287  0.29569449  0.02559801  1
  O  O52  1  0.83848596  0.54374230  0.02623919  1
  O  O53  1  0.70312399  0.16447890  0.02546349  1
  O  O54  1  0.46780042  0.16658528  0.52724934  1
  O  O55  1  0.70049261  0.54061803  0.52873784  1
  O  O56  1  0.84106046  0.30215502  0.52885620  1
  O  O57  1  0.53563152  0.70271761  0.97524818  1
  O  O58  1  0.16581640  0.46614113  0.97523016  1
  O  O59  1  0.29998388  0.84157278  0.97322593  1
  O  O60  1  0.53829984  0.83616352  0.47205614  1
  O  O61  1  0.29889995  0.46340571  0.47256981  1
  O  O62  1  0.16385024  0.70149535  0.47200777  1
  O  O63  1  0.12911284  0.62773162  0.35844997  1
  O  O64  1  0.49861200  0.87079777  0.35841066  1
  O  O65  1  0.37198423  0.50161465  0.35840197  1
  O  O66  1  0.12705568  0.49917856  0.86163124  1
  O  O67  1  0.37020156  0.87780261  0.86301257  1
  O  O68  1  0.50092779  0.62985108  0.86160619  1
  O  O69  1  0.02716509  0.84043418  0.40690121  1
  O  O70  1  0.81403695  0.97285049  0.40687389  1
  O  O71  1  0.15983196  0.18673340  0.40697060  1
  O  O72  1  0.02609185  0.19447008  0.90871100  1
  O  O73  1  0.17366114  0.97484757  0.91039401  1
  O  O74  1  0.80591040  0.82947524  0.90882879  1
  O  O75  1  0.97196071  0.16935655  0.59074453  1
  O  O76  1  0.19046737  0.02633270  0.59184827  1
  O  O77  1  0.82891463  0.80339223  0.59064594  1
  O  O78  1  0.97502415  0.81219704  0.09286192  1
  O  O79  1  0.83649848  0.02573704  0.09237249  1
  O  O80  1  0.18896368  0.16225780  0.09246590  1
  O  O81  1  0.69416695  0.16971122  0.74256035  1
  O  O82  1  0.47728571  0.30943573  0.74232344  1
  O  O83  1  0.83125596  0.52336158  0.74134072  1
  O  O84  1  0.69248200  0.52070260  0.24232374  1
  O  O85  1  0.82806030  0.30741606  0.24237967  1
  O  O86  1  0.47933842  0.17191597  0.24235704  1
  O  O87  1  0.63773245  0.48876156  0.92547313  1
  O  O88  1  0.84947832  0.35846793  0.92548047  1
  O  O89  1  0.50233487  0.14094905  0.92416574  1
  O  O90  1  0.64292909  0.14059442  0.42369073  1
  O  O91  1  0.49905258  0.35985370  0.42354494  1
  O  O92  1  0.85893347  0.50066445  0.42481069  1
  O  O93  1  0.36012025  0.50335146  0.07649895  1
  O  O94  1  0.14752697  0.64251775  0.07504331  1
  O  O95  1  0.49373580  0.85483847  0.07502113  1
  O  O96  1  0.35937605  0.85576946  0.57463399  1
  O  O97  1  0.50207492  0.63855732  0.57594723  1
  O  O98  1  0.13741918  0.49606310  0.57591721  1
  O  O99  1  0.30736661  0.82860915  0.25746941  1
  O  O100  1  0.52140707  0.69291922  0.25752284  1
  O  O101  1  0.17140363  0.47845031  0.25741702  1
  O  O102  1  0.30718891  0.47431949  0.75777257  1
  O  O103  1  0.16927978  0.69435091  0.75932986  1
  O  O104  1  0.52332660  0.83315322  0.75959236  1
