# generated using pymatgen
data_Sr(FeO2)2
_symmetry_space_group_name_H-M   'P 1'
_cell_length_a   10.89774557
_cell_length_b   8.04855398
_cell_length_c   12.02060341
_cell_angle_alpha   49.25272592
_cell_angle_beta   90.00000000
_cell_angle_gamma   90.00000000
_symmetry_Int_Tables_number   1
_chemical_formula_structural   Sr(FeO2)2
_chemical_formula_sum   'Sr8 Fe16 O32'
_cell_volume   798.76401241
_cell_formula_units_Z   8
loop_
 _symmetry_equiv_pos_site_id
 _symmetry_equiv_pos_as_xyz
  1  'x, y, z'
loop_
 _atom_site_type_symbol
 _atom_site_label
 _atom_site_symmetry_multiplicity
 _atom_site_fract_x
 _atom_site_fract_y
 _atom_site_fract_z
 _atom_site_occupancy
  Sr  Sr0  1  0.39349561  0.72791298  0.26123122  1
  Sr  Sr1  1  0.89349561  0.27208702  0.23876878  1
  Sr  Sr2  1  0.60650439  0.27208702  0.73876878  1
  Sr  Sr3  1  0.10650439  0.72791298  0.76123122  1
  Sr  Sr4  1  0.84686892  0.71571997  0.29027827  1
  Sr  Sr5  1  0.34686892  0.28428003  0.20972173  1
  Sr  Sr6  1  0.15313108  0.28428003  0.70972173  1
  Sr  Sr7  1  0.65313108  0.71571997  0.79027827  1
  Fe  Fe8  1  0.61373382  0.66539309  0.09230376  1
  Fe  Fe9  1  0.11373382  0.33460691  0.40769624  1
  Fe  Fe10  1  0.38626618  0.33460691  0.90769624  1
  Fe  Fe11  1  0.88626618  0.66539309  0.59230376  1
  Fe  Fe12  1  0.38623978  0.74805723  0.56759918  1
  Fe  Fe13  1  0.88623978  0.25194277  0.93240082  1
  Fe  Fe14  1  0.61376022  0.25194277  0.43240082  1
  Fe  Fe15  1  0.11376022  0.74805723  0.06759918  1
  Fe  Fe16  1  0.63659871  0.11472874  0.09048782  1
  Fe  Fe17  1  0.13659871  0.88527126  0.40951218  1
  Fe  Fe18  1  0.36340129  0.88527126  0.90951218  1
  Fe  Fe19  1  0.86340129  0.11472874  0.59048782  1
  Fe  Fe20  1  0.63821827  0.84402198  0.43231228  1
  Fe  Fe21  1  0.13821827  0.15597802  0.06768772  1
  Fe  Fe22  1  0.36178173  0.15597802  0.56768772  1
  Fe  Fe23  1  0.86178173  0.84402198  0.93231228  1
  O  O24  1  0.48152744  0.75174204  0.43738412  1
  O  O25  1  0.98152744  0.24825796  0.06261588  1
  O  O26  1  0.51847256  0.24825796  0.56261588  1
  O  O27  1  0.01847256  0.75174204  0.93738412  1
  O  O28  1  0.52270414  0.79830128  0.92193760  1
  O  O29  1  0.02270414  0.20169872  0.57806240  1
  O  O30  1  0.47729586  0.20169872  0.07806240  1
  O  O31  1  0.97729586  0.79830128  0.42193760  1
  O  O32  1  0.21981135  0.67013333  0.58744861  1
  O  O33  1  0.71981135  0.32986667  0.91255139  1
  O  O34  1  0.78018865  0.32986667  0.41255139  1
  O  O35  1  0.28018865  0.67013333  0.08744861  1
  O  O36  1  0.75965097  0.59783468  0.04997563  1
  O  O37  1  0.25965097  0.40216532  0.45002437  1
  O  O38  1  0.24034903  0.40216532  0.95002437  1
  O  O39  1  0.74034903  0.59783468  0.54997563  1
  O  O40  1  0.52297603  0.43226880  0.25427637  1
  O  O41  1  0.02297603  0.56773120  0.24572363  1
  O  O42  1  0.47702397  0.56773120  0.74572363  1
  O  O43  1  0.97702397  0.43226880  0.75427637  1
  O  O44  1  0.72755452  0.03602147  0.25236942  1
  O  O45  1  0.22755452  0.96397853  0.24763058  1
  O  O46  1  0.27244548  0.96397853  0.74763058  1
  O  O47  1  0.77244548  0.03602147  0.75236942  1
  O  O48  1  0.86741582  0.96576215  0.01694621  1
  O  O49  1  0.36741582  0.03423785  0.48305379  1
  O  O50  1  0.13258418  0.03423785  0.98305379  1
  O  O51  1  0.63258418  0.96576215  0.51694621  1
  O  O52  1  0.88130890  0.84549267  0.63771077  1
  O  O53  1  0.38130890  0.15450733  0.86228923  1
  O  O54  1  0.11869110  0.15450733  0.36228923  1
  O  O55  1  0.61869110  0.84549267  0.13771077  1
