# generated using pymatgen
data_Na7ZnSi3Ge3(PO8)3
_symmetry_space_group_name_H-M   'P 1'
_cell_length_a   8.78174189
_cell_length_b   8.78591300
_cell_length_c   21.72501972
_cell_angle_alpha   89.45456328
_cell_angle_beta   90.46702161
_cell_angle_gamma   119.86395626
_symmetry_Int_Tables_number   1
_chemical_formula_structural   Na7ZnSi3Ge3(PO8)3
_chemical_formula_sum   'Na21 Zn3 Si9 Ge9 P9 O72'
_cell_volume   1453.54696493
_cell_formula_units_Z   3
loop_
 _symmetry_equiv_pos_site_id
 _symmetry_equiv_pos_as_xyz
  1  'x, y, z'
loop_
 _atom_site_type_symbol
 _atom_site_label
 _atom_site_symmetry_multiplicity
 _atom_site_fract_x
 _atom_site_fract_y
 _atom_site_fract_z
 _atom_site_occupancy
  Na  Na0  1  0.63631627  0.00851736  0.24804804  1
  Na  Na1  1  0.37355606  0.36511898  0.24801778  1
  Na  Na2  1  0.99218964  0.62958243  0.24969995  1
  Na  Na3  1  0.63267473  0.62247596  0.74872084  1
  Na  Na4  1  0.99055042  0.37133753  0.74704947  1
  Na  Na5  1  0.37548966  0.00708295  0.74694152  1
  Na  Na6  1  0.02946379  0.69354801  0.58409534  1
  Na  Na7  1  0.66604749  0.97139766  0.58120092  1
  Na  Na8  1  0.30825008  0.97235731  0.08378918  1
  Na  Na9  1  0.66250786  0.69259491  0.08400880  1
  Na  Na10  1  0.02856101  0.33385627  0.08140876  1
  Na  Na11  1  0.33382788  0.30079177  0.91745597  1
  Na  Na12  1  0.96547009  0.28738925  0.41595865  1
  Na  Na13  1  0.32180795  0.03401581  0.41571486  1
  Na  Na14  1  0.71219227  0.67683355  0.41536399  1
  Na  Na15  1  0.00666458  0.00773955  0.49624730  1
  Na  Na16  1  0.98985462  0.99387931  0.99708674  1
  Na  Na17  1  0.67924284  0.33938565  0.83409558  1
  Na  Na18  1  0.66619420  0.33326667  0.33234848  1
  Na  Na19  1  0.33673181  0.66781393  0.16522506  1
  Na  Na20  1  0.32875378  0.65571876  0.66436223  1
  Zn  Zn21  1  0.99880594  0.99976369  0.35589538  1
  Zn  Zn22  1  0.67777575  0.34177496  0.68148871  1
  Zn  Zn23  1  0.66207127  0.32818670  0.17773696  1
  Si  Si24  1  0.00466525  0.71864402  0.75270881  1
  Si  Si25  1  0.96739507  0.33490574  0.58408093  1
  Si  Si26  1  0.66300721  0.03852464  0.08264542  1
  Si  Si27  1  0.37519246  0.33426707  0.08239950  1
  Si  Si28  1  0.62600440  0.66870783  0.91597813  1
  Si  Si29  1  0.03736368  0.37579380  0.91640350  1
  Si  Si30  1  0.61449918  0.95311333  0.41924191  1
  Si  Si31  1  0.33917929  0.38170138  0.41847895  1
  Si  Si32  1  0.04502133  0.66198227  0.41854035  1
  Ge  Ge33  1  0.98970012  0.99377194  0.85647987  1
  Ge  Ge34  1  0.00815410  0.00630064  0.64696171  1
  Ge  Ge35  1  0.00044340  0.00565825  0.14703260  1
  Ge  Ge36  1  0.67212100  0.33428611  0.97909097  1
  Ge  Ge37  1  0.66950350  0.32939343  0.47946402  1
  Ge  Ge38  1  0.34053984  0.66360411  0.01564339  1
  Ge  Ge39  1  0.32839954  0.65672674  0.51745624  1
  Ge  Ge40  1  0.33318321  0.66619447  0.31948352  1
  Ge  Ge41  1  0.32430683  0.66247989  0.81769560  1
  P  P42  1  0.28811372  0.99564950  0.25143303  1
  P  P43  1  0.70811059  0.71089169  0.25106685  1
  P  P44  1  0.00378308  0.29465038  0.25112669  1
  P  P45  1  0.28189062  0.28602873  0.75236126  1
  P  P46  1  0.71230879  0.99484164  0.75138364  1
  P  P47  1  0.37462559  0.04410532  0.58378909  1
  P  P48  1  0.66181747  0.62326185  0.58352680  1
  P  P49  1  0.96066500  0.62654562  0.08259757  1
  P  P50  1  0.33415968  0.95350814  0.91634248  1
  O  O51  1  0.20788730  0.02571640  0.30718658  1
  O  O52  1  0.81771178  0.79013423  0.30755311  1
  O  O53  1  0.97039436  0.18264858  0.30729467  1
  O  O54  1  0.19879449  0.17120913  0.81036040  1
  O  O55  1  0.97102626  0.81666384  0.80955074  1
  O  O56  1  0.83614869  0.03575562  0.80718467  1
  O  O57  1  0.79112191  0.95860053  0.69259330  1
  O  O58  1  0.16162998  0.20541238  0.69484474  1
  O  O59  1  0.04498017  0.84255425  0.68928339  1
  O  O60  1  0.79329789  0.82980617  0.19129934  1
  O  O61  1  0.03923080  0.21189150  0.19174315  1
  O  O62  1  0.16894127  0.96069636  0.19148039  1
  O  O63  1  0.89707611  0.38113880  0.64481240  1
  O  O64  1  0.48353546  0.11644116  0.64202470  1
  O  O65  1  0.62873888  0.52071084  0.64282592  1
  O  O66  1  0.89689465  0.51934047  0.14167966  1
  O  O67  1  0.61704292  0.10134870  0.14512569  1
  O  O68  1  0.49055672  0.38624888  0.14396800  1
  O  O69  1  0.46213089  0.29026850  0.02296712  1
  O  O70  1  0.83341084  0.54384159  0.02756925  1
  O  O71  1  0.71297285  0.17852054  0.02560483  1
  O  O72  1  0.45828060  0.15878920  0.52546166  1
  O  O73  1  0.70187748  0.54089083  0.52692352  1
  O  O74  1  0.83109666  0.28913227  0.52441375  1
  O  O75  1  0.53933570  0.70170298  0.97694125  1
  O  O76  1  0.16857952  0.46386930  0.97569743  1
  O  O77  1  0.30066673  0.83739869  0.97409816  1
  O  O78  1  0.52578673  0.82880274  0.47922023  1
  O  O79  1  0.29733758  0.47091445  0.47537995  1
  O  O80  1  0.17187695  0.70314140  0.47817412  1
  O  O81  1  0.12545196  0.61716519  0.35618571  1
  O  O82  1  0.49102658  0.87237965  0.35616728  1
  O  O83  1  0.38441171  0.50689861  0.35510513  1
  O  O84  1  0.12484625  0.49634352  0.85449560  1
  O  O85  1  0.36678940  0.87273530  0.85813784  1
  O  O86  1  0.49347775  0.62576891  0.85579361  1
  O  O87  1  0.02140134  0.83048214  0.41481156  1
  O  O88  1  0.80653806  0.97653145  0.41586808  1
  O  O89  1  0.17071175  0.19081118  0.41399261  1
  O  O90  1  0.03219292  0.18490849  0.90924815  1
  O  O91  1  0.17126427  0.97875214  0.91102117  1
  O  O92  1  0.81903041  0.84344263  0.91054921  1
  O  O93  1  0.97359572  0.14836827  0.59066573  1
  O  O94  1  0.18491505  0.01926599  0.58735778  1
  O  O95  1  0.83427634  0.81079302  0.58765579  1
  O  O96  1  0.97861591  0.81315618  0.08864445  1
  O  O97  1  0.84144617  0.01663924  0.08947919  1
  O  O98  1  0.17792150  0.15398170  0.08968031  1
  O  O99  1  0.68583462  0.15387717  0.74711174  1
  O  O100  1  0.46372012  0.30473043  0.74752118  1
  O  O101  1  0.83437485  0.52594051  0.74999269  1
  O  O102  1  0.68555206  0.52673099  0.24512086  1
  O  O103  1  0.84428761  0.32137396  0.24382172  1
  O  O104  1  0.47307642  0.15605208  0.24585773  1
  O  O105  1  0.63368305  0.48493328  0.92368748  1
  O  O106  1  0.84470538  0.35790771  0.92383907  1
  O  O107  1  0.49782929  0.13931413  0.92157226  1
  O  O108  1  0.62742401  0.14727947  0.42345159  1
  O  O109  1  0.52042790  0.36930601  0.42558641  1
  O  O110  1  0.85056990  0.48216242  0.42436141  1
  O  O111  1  0.34483793  0.50518231  0.07423758  1
  O  O112  1  0.14692983  0.65116235  0.07271522  1
  O  O113  1  0.48749013  0.84225602  0.07265874  1
  O  O114  1  0.35443056  0.85709871  0.57759421  1
  O  O115  1  0.50384317  0.65534080  0.57616914  1
  O  O116  1  0.15986608  0.51362543  0.57547274  1
  O  O117  1  0.30052946  0.82142727  0.25337457  1
  O  O118  1  0.52226189  0.69924015  0.25265096  1
  O  O119  1  0.17796176  0.48000433  0.25337187  1
  O  O120  1  0.29960287  0.47279674  0.75535864  1
  O  O121  1  0.18888616  0.70433701  0.75718277  1
  O  O122  1  0.52841270  0.82397232  0.75712779  1
