# generated using pymatgen
data_Tb2MgMo2(ClO4)2
_symmetry_space_group_name_H-M   'P 1'
_cell_length_a   6.48863146
_cell_length_b   6.50214861
_cell_length_c   6.97792061
_cell_angle_alpha   73.41977078
_cell_angle_beta   73.38649813
_cell_angle_gamma   66.84901571
_symmetry_Int_Tables_number   1
_chemical_formula_structural   Tb2MgMo2(ClO4)2
_chemical_formula_sum   'Tb2 Mg1 Mo2 Cl2 O8'
_cell_volume   254.34526418
_cell_formula_units_Z   1
loop_
 _symmetry_equiv_pos_site_id
 _symmetry_equiv_pos_as_xyz
  1  'x, y, z'
loop_
 _atom_site_type_symbol
 _atom_site_label
 _atom_site_symmetry_multiplicity
 _atom_site_fract_x
 _atom_site_fract_y
 _atom_site_fract_z
 _atom_site_occupancy
  Tb  Tb0  1  0.23265200  0.24293200  0.89174700  1
  Tb  Tb1  1  0.75630500  0.76611300  0.10797700  1
  Mg  Mg2  1  0.68802800  0.31199900  0.50018300  1
  Mo  Mo3  1  0.36205400  0.35366400  0.26736200  1
  Mo  Mo4  1  0.64445600  0.63832300  0.73250600  1
  Cl  Cl5  1  0.94897400  0.04873900  0.24864700  1
  Cl  Cl6  1  0.95148700  0.05058400  0.75054400  1
  O  O7  1  0.38328200  0.24014000  0.54176500  1
  O  O8  1  0.48518400  0.87787400  0.86902200  1
  O  O9  1  0.75799600  0.61779400  0.45823400  1
  O  O10  1  0.47471500  0.44912200  0.77171400  1
  O  O11  1  0.12119800  0.51234100  0.13212700  1
  O  O12  1  0.90313500  0.54083000  0.84810000  1
  O  O13  1  0.45875700  0.09591800  0.15187400  1
  O  O14  1  0.55052900  0.52446100  0.22819900  1
