# generated using pymatgen
data_K3BiO3
_symmetry_space_group_name_H-M   'P 1'
_cell_length_a   9.26653661
_cell_length_b   9.26645003
_cell_length_c   9.26643560
_cell_angle_alpha   109.47173109
_cell_angle_beta   109.47047258
_cell_angle_gamma   109.47119454
_symmetry_Int_Tables_number   1
_chemical_formula_structural   K3BiO3
_chemical_formula_sum   'K12 Bi4 O12'
_cell_volume   612.52394141
_cell_formula_units_Z   4
loop_
 _symmetry_equiv_pos_site_id
 _symmetry_equiv_pos_as_xyz
  1  'x, y, z'
loop_
 _atom_site_type_symbol
 _atom_site_label
 _atom_site_symmetry_multiplicity
 _atom_site_fract_x
 _atom_site_fract_y
 _atom_site_fract_z
 _atom_site_occupancy
  K  K0  1  0.72662606  0.24356049  0.72661849  1
  K  K1  1  0.27337037  0.99999859  0.51693737  1
  K  K2  1  0.00000881  0.27338167  0.51694923  1
  K  K3  1  0.48306790  0.48307334  0.75643595  1
  K  K4  1  0.00000039  0.51693920  0.27337333  1
  K  K5  1  0.51693092  -0.00000699  0.27335781  1
  K  K6  1  0.48306577  0.75643246  0.48305435  1
  K  K7  1  0.27336719  0.51693569  0.00000274  1
  K  K8  1  0.51694042  0.27338138  0.00000642  1
  K  K9  1  0.72663725  0.72663793  0.24357835  1
  K  K10  1  0.24356977  0.72661643  0.72661976  1
  K  K11  1  0.75642715  0.48305417  0.48304743  1
  Bi  Bi12  1  0.29461072  0.29463041  0.29462682  1
  Bi  Bi13  1  0.00000347  0.70536165  -0.00001813  1
  Bi  Bi14  1  0.70535802  0.00000677  0.00000419  1
  Bi  Bi15  1  0.00000982  -0.00000165  0.70539535  1
  O  O16  1  0.47275727  0.47275873  0.26259344  1
  O  O17  1  0.00000137  0.78983149  0.52724077  1
  O  O18  1  0.78983576  -0.00000027  0.52724238  1
  O  O19  1  0.21017082  0.73740753  0.21016868  1
  O  O20  1  -0.00000104  0.52723345  0.78982728  1
  O  O21  1  0.52723487  0.00000026  0.78982965  1
  O  O22  1  0.47276001  0.26259185  0.47276009  1
  O  O23  1  0.78983383  0.52724105  0.00000182  1
  O  O24  1  0.52723799  0.78982938  -0.00000120  1
  O  O25  1  0.21017064  0.21016812  0.73740821  1
  O  O26  1  0.73740789  0.21017109  0.21016956  1
  O  O27  1  0.26259755  0.47276579  0.47276885  1
