# generated using pymatgen
data_MgV3CrO10
_symmetry_space_group_name_H-M   'P 1'
_cell_length_a   6.47800691
_cell_length_b   6.62026715
_cell_length_c   5.43177768
_cell_angle_alpha   87.79181578
_cell_angle_beta   93.91899605
_cell_angle_gamma   89.99484613
_symmetry_Int_Tables_number   1
_chemical_formula_structural   MgV3CrO10
_chemical_formula_sum   'Mg1 V3 Cr1 O10'
_cell_volume   232.22980595
_cell_formula_units_Z   1
loop_
 _symmetry_equiv_pos_site_id
 _symmetry_equiv_pos_as_xyz
  1  'x, y, z'
loop_
 _atom_site_type_symbol
 _atom_site_label
 _atom_site_symmetry_multiplicity
 _atom_site_fract_x
 _atom_site_fract_y
 _atom_site_fract_z
 _atom_site_occupancy
  Mg  Mg0  1  0.21931800  0.56901400  0.09672900  1
  V  V1  1  0.25285600  0.26501500  0.59795800  1
  V  V2  1  0.74296500  0.73301300  0.39030100  1
  V  V3  1  0.75056100  0.24113000  0.49081200  1
  Cr  Cr4  1  0.25296400  0.76024100  0.53888000  1
  O  O5  1  0.03383100  0.72761400  0.30842100  1
  O  O6  1  0.22960000  0.30634800  0.28975800  1
  O  O7  1  0.25189900  0.53729300  0.74931600  1
  O  O8  1  0.26722800  0.97926500  0.69553800  1
  O  O9  1  0.44568100  0.71410200  0.31168100  1
  O  O10  1  0.54927000  0.25912300  0.67693300  1
  O  O11  1  0.73570300  0.01178000  0.32610500  1
  O  O12  1  0.74765700  0.45668000  0.28876400  1
  O  O13  1  0.76233700  0.71490600  0.68832200  1
  O  O14  1  0.96813100  0.24447700  0.68937000  1
