# generated using pymatgen
data_ZrTe2Br5
_symmetry_space_group_name_H-M   'P 1'
_cell_length_a   8.92776905
_cell_length_b   8.92776917
_cell_length_c   9.38950625
_cell_angle_alpha   109.75469306
_cell_angle_beta   115.59993243
_cell_angle_gamma   100.95824961
_symmetry_Int_Tables_number   1
_chemical_formula_structural   ZrTe2Br5
_chemical_formula_sum   'Zr2 Te4 Br10'
_cell_volume   583.26715673
_cell_formula_units_Z   2
loop_
 _symmetry_equiv_pos_site_id
 _symmetry_equiv_pos_as_xyz
  1  'x, y, z'
loop_
 _atom_site_type_symbol
 _atom_site_label
 _atom_site_symmetry_multiplicity
 _atom_site_fract_x
 _atom_site_fract_y
 _atom_site_fract_z
 _atom_site_occupancy
  Zr  Zr0  1  0.81322271  0.81322271  -0.00000000  1
  Zr  Zr1  1  0.18677729  0.18677729  0.00000000  1
  Te  Te2  1  0.83248908  0.33248908  0.50000000  1
  Te  Te3  1  0.16751092  0.66751092  0.50000000  1
  Te  Te4  1  0.80903423  0.56511304  0.37414727  1
  Te  Te5  1  0.19096577  0.43488696  0.62585273  1
  Br  Br6  1  0.41334680  0.15722644  0.90980873  1
  Br  Br7  1  0.24741871  0.50353907  0.09019127  1
  Br  Br8  1  0.58665320  0.84277356  0.09019127  1
  Br  Br9  1  0.75258129  0.49646093  0.90980873  1
  Br  Br10  1  0.41190808  0.25953617  0.33313534  1
  Br  Br11  1  0.92640083  0.07877274  0.66686466  1
  Br  Br12  1  0.08032514  0.84193295  0.92225809  1
  Br  Br13  1  0.91967486  0.15806705  0.07774191  1
  Br  Br14  1  0.07359917  0.92122726  0.33313534  1
  Br  Br15  1  0.58809192  0.74046383  0.66686466  1
