# generated using pymatgen
data_Na21Ta8Zn4Si15(PO24)3
_symmetry_space_group_name_H-M   'P 1'
_cell_length_a   9.09858620
_cell_length_b   9.11823124
_cell_length_c   22.36412330
_cell_angle_alpha   89.88839262
_cell_angle_beta   89.90880534
_cell_angle_gamma   120.04505381
_symmetry_Int_Tables_number   1
_chemical_formula_structural   Na21Ta8Zn4Si15(PO24)3
_chemical_formula_sum   'Na21 Ta8 Zn4 Si15 P3 O72'
_cell_volume   1606.07915939
_cell_formula_units_Z   1
loop_
 _symmetry_equiv_pos_site_id
 _symmetry_equiv_pos_as_xyz
  1  'x, y, z'
loop_
 _atom_site_type_symbol
 _atom_site_label
 _atom_site_symmetry_multiplicity
 _atom_site_fract_x
 _atom_site_fract_y
 _atom_site_fract_z
 _atom_site_occupancy
  Na  Na0  1  0.63983060  0.02130183  0.24135486  1
  Na  Na1  1  0.37878568  0.35520539  0.24344581  1
  Na  Na2  1  0.98285214  0.62448696  0.24082036  1
  Na  Na3  1  0.63901039  0.62068721  0.74392859  1
  Na  Na4  1  0.97858246  0.35555528  0.74591035  1
  Na  Na5  1  0.38234778  0.02525080  0.74690564  1
  Na  Na6  1  0.31285609  0.33767076  0.58829810  1
  Na  Na7  1  0.66408240  0.97486408  0.58817774  1
  Na  Na8  1  0.31342222  0.97389597  0.08528696  1
  Na  Na9  1  0.96747160  0.68523913  0.91252190  1
  Na  Na10  1  0.71906467  0.03342935  0.91003220  1
  Na  Na11  1  0.31408178  0.27835401  0.91010211  1
  Na  Na12  1  0.96562137  0.28074211  0.41185434  1
  Na  Na13  1  0.31471799  0.03550754  0.40948324  1
  Na  Na14  1  0.71703886  0.68452908  0.41187881  1
  Na  Na15  1  0.00086742  0.99256776  0.49490105  1
  Na  Na16  1  0.99244408  0.00050799  0.99306307  1
  Na  Na17  1  0.66169191  0.32792767  0.82527482  1
  Na  Na18  1  0.66180062  0.32922818  0.32479688  1
  Na  Na19  1  0.33431231  0.65707647  0.16091066  1
  Na  Na20  1  0.32344886  0.66739993  0.66672758  1
  Ta  Ta21  1  0.99851565  0.99970915  0.64684074  1
  Ta  Ta22  1  0.00064101  0.99784708  0.14316279  1
  Ta  Ta23  1  0.66740458  0.33277570  0.98162024  1
  Ta  Ta24  1  0.66638809  0.33379775  0.48092769  1
  Ta  Ta25  1  0.33282879  0.66393413  0.02136258  1
  Ta  Ta26  1  0.33096012  0.66597109  0.52069908  1
  Ta  Ta27  1  0.33277287  0.66914900  0.31265866  1
  Ta  Ta28  1  0.33654364  0.66599888  0.81312631  1
  Zn  Zn29  1  0.00491164  0.00208641  0.35114703  1
  Zn  Zn30  1  0.00190102  0.00589261  0.85102134  1
  Zn  Zn31  1  0.66147645  0.32801718  0.68060194  1
  Zn  Zn32  1  0.66128246  0.32824233  0.17504992  1
  Si  Si33  1  0.29382946  0.00233911  0.25265918  1
  Si  Si34  1  0.29337892  0.29283512  0.75284717  1
  Si  Si35  1  0.70698633  0.00129439  0.75322995  1
  Si  Si36  1  0.95873852  0.33591626  0.58631140  1
  Si  Si37  1  0.37143819  0.03771344  0.58496685  1
  Si  Si38  1  0.67037109  0.62663862  0.58487720  1
  Si  Si39  1  0.95625056  0.62104374  0.08659462  1
  Si  Si40  1  0.66773072  0.04015301  0.08537341  1
  Si  Si41  1  0.37631147  0.33801194  0.08638612  1
  Si  Si42  1  0.62354427  0.66323238  0.91767612  1
  Si  Si43  1  0.04024548  0.37837446  0.91708617  1
  Si  Si44  1  0.33571614  0.95871909  0.91757969  1
  Si  Si45  1  0.62393762  0.95952445  0.41701942  1
  Si  Si46  1  0.33667290  0.37732665  0.41672722  1
  Si  Si47  1  0.03949642  0.66237592  0.41668581  1
  P  P48  1  0.70983475  0.71264958  0.25308713  1
  P  P49  1  0.00312446  0.28994871  0.25268370  1
  P  P50  1  0.00268477  0.71224141  0.75283616  1
  O  O51  1  0.21155311  0.02770128  0.31247838  1
  O  O52  1  0.80756126  0.79059295  0.31061298  1
  O  O53  1  0.97603901  0.18980581  0.31042450  1
  O  O54  1  0.21404946  0.17996256  0.81161413  1
  O  O55  1  0.97774285  0.78763955  0.80961114  1
  O  O56  1  0.81582278  0.02459877  0.81203089  1
  O  O57  1  0.80207293  0.96854903  0.69290700  1
  O  O58  1  0.16660789  0.19460480  0.69273882  1
  O  O59  1  0.02813014  0.83292793  0.69711850  1
  O  O60  1  0.80154000  0.83257870  0.19814368  1
  O  O61  1  0.02812564  0.19581263  0.19815033  1
  O  O62  1  0.16572302  0.96997381  0.19397381  1
  O  O63  1  0.88509414  0.36727277  0.64622234  1
  O  O64  1  0.48738973  0.10495038  0.64322693  1
  O  O65  1  0.61877869  0.50834902  0.64272385  1
  O  O66  1  0.88382134  0.51755667  0.14713747  1
  O  O67  1  0.61877053  0.10606416  0.14426850  1
  O  O68  1  0.47705548  0.36736863  0.14733660  1
  O  O69  1  0.46857800  0.30068376  0.02802959  1
  O  O70  1  0.83489436  0.52749098  0.02702986  1
  O  O71  1  0.69428366  0.16375920  0.02626308  1
  O  O72  1  0.46769145  0.16568061  0.52599211  1
  O  O73  1  0.69356483  0.52963349  0.52498176  1
  O  O74  1  0.83294125  0.30269139  0.52687330  1
  O  O75  1  0.51831677  0.68570962  0.97235406  1
  O  O76  1  0.16474560  0.48610683  0.97212185  1
  O  O77  1  0.31724176  0.84027761  0.97509973  1
  O  O78  1  0.52470434  0.83869809  0.47449810  1
  O  O79  1  0.32049632  0.47983964  0.47422955  1
  O  O80  1  0.16620868  0.68227868  0.47178411  1
  O  O81  1  0.13389602  0.63142458  0.35736980  1
  O  O82  1  0.49598259  0.86242212  0.35854164  1
  O  O83  1  0.36693645  0.50259978  0.35789658  1
  O  O84  1  0.13240112  0.50154051  0.85698154  1
  O  O85  1  0.36613742  0.86318276  0.85833801  1
  O  O86  1  0.49788297  0.63159439  0.85766955  1
  O  O87  1  0.01831848  0.82565267  0.41582343  1
  O  O88  1  0.80832599  0.97919416  0.41415869  1
  O  O89  1  0.17008163  0.19398451  0.41698282  1
  O  O90  1  0.02168757  0.19479674  0.91754068  1
  O  O91  1  0.16952491  0.97628828  0.91639139  1
  O  O92  1  0.80840491  0.82650593  0.91533935  1
  O  O93  1  0.97443398  0.16016928  0.58922134  1
  O  O94  1  0.18646327  0.02903385  0.58926157  1
  O  O95  1  0.83704938  0.81896928  0.58883193  1
  O  O96  1  0.97865228  0.81588560  0.09116563  1
  O  O97  1  0.83881477  0.02295553  0.09213315  1
  O  O98  1  0.18710370  0.15837267  0.09123132  1
  O  O99  1  0.68087026  0.16261978  0.74709437  1
  O  O100  1  0.48417795  0.32674433  0.74593129  1
  O  O101  1  0.85226749  0.53489025  0.74498275  1
  O  O102  1  0.68393498  0.53458640  0.24740468  1
  O  O103  1  0.85457941  0.32219240  0.24647777  1
  O  O104  1  0.48506023  0.16147017  0.24762827  1
  O  O105  1  0.62877544  0.48527479  0.92340267  1
  O  O106  1  0.85466663  0.37008711  0.92256675  1
  O  O107  1  0.51308042  0.14472097  0.92254902  1
  O  O108  1  0.63076093  0.14374031  0.42231361  1
  O  O109  1  0.51377216  0.36825225  0.42176187  1
  O  O110  1  0.85584413  0.48432962  0.42221935  1
  O  O111  1  0.34468690  0.49654311  0.07452426  1
  O  O112  1  0.15277985  0.66187415  0.07577807  1
  O  O113  1  0.50008201  0.85237624  0.07376908  1
  O  O114  1  0.35035488  0.85023255  0.57302392  1
  O  O115  1  0.50518807  0.65539170  0.57381869  1
  O  O116  1  0.15482757  0.49144928  0.57500680  1
  O  O117  1  0.30179684  0.81871804  0.25485178  1
  O  O118  1  0.52800943  0.70040269  0.25476788  1
  O  O119  1  0.17612978  0.46893641  0.25484072  1
  O  O120  1  0.29509492  0.47937288  0.75431191  1
  O  O121  1  0.17423528  0.70610198  0.75353163  1
  O  O122  1  0.51653131  0.82017449  0.75406777  1
