# generated using pymatgen
data_Na4Y2Si2SO12
_symmetry_space_group_name_H-M   'P 1'
_cell_length_a   9.51382022
_cell_length_b   9.51381739
_cell_length_c   23.25748149
_cell_angle_alpha   89.91247434
_cell_angle_beta   90.08754565
_cell_angle_gamma   119.92927185
_symmetry_Int_Tables_number   1
_chemical_formula_structural   Na4Y2Si2SO12
_chemical_formula_sum   'Na24 Y12 Si12 S6 O72'
_cell_volume   1824.36391504
_cell_formula_units_Z   6
loop_
 _symmetry_equiv_pos_site_id
 _symmetry_equiv_pos_as_xyz
  1  'x, y, z'
loop_
 _atom_site_type_symbol
 _atom_site_label
 _atom_site_symmetry_multiplicity
 _atom_site_fract_x
 _atom_site_fract_y
 _atom_site_fract_z
 _atom_site_occupancy
  Na  Na0  1  0.65921654  0.99917751  0.25862684  1
  Na  Na1  1  0.36584778  0.38396602  0.23759900  1
  Na  Na2  1  0.98489059  0.61427795  0.25544937  1
  Na  Na3  1  0.61603395  0.63415220  0.73759904  1
  Na  Na4  1  0.00082253  0.34078335  0.75862688  1
  Na  Na5  1  0.38572209  0.01510928  0.75544922  1
  Na  Na6  1  0.32588356  0.33251069  0.59195993  1
  Na  Na7  1  0.03251480  0.71729915  0.57093200  1
  Na  Na8  1  0.65155793  0.94761109  0.58878229  1
  Na  Na9  1  0.28270087  0.96748530  0.07093211  1
  Na  Na10  1  0.66748951  0.67411657  0.09195998  1
  Na  Na11  1  0.05238895  0.34844228  0.08878233  1
  Na  Na12  1  0.99254947  0.66584436  0.92529397  1
  Na  Na13  1  0.69918053  0.05063300  0.90426594  1
  Na  Na14  1  0.31822412  0.28094480  0.92211600  1
  Na  Na15  1  0.94936716  0.30081951  0.40426592  1
  Na  Na16  1  0.33415559  0.00745079  0.42529399  1
  Na  Na17  1  0.71905540  0.68177620  0.42211596  1
  Na  Na18  1  0.98599325  0.96789617  0.50022518  1
  Na  Na19  1  0.03210414  0.01400676  0.00022522  1
  Na  Na20  1  0.65266030  0.30122897  0.83355820  1
  Na  Na21  1  0.69877091  0.34733955  0.33355820  1
  Na  Na22  1  0.31932637  0.63456310  0.16689222  1
  Na  Na23  1  0.36543694  0.68067362  0.66689220  1
  Y  Y24  1  0.98725310  0.99162533  0.34905664  1
  Y  Y25  1  0.00837545  0.01274789  0.84905666  1
  Y  Y26  1  0.99930380  0.00276182  0.65130195  1
  Y  Y27  1  0.99723809  0.00069600  0.15130212  1
  Y  Y28  1  0.65391976  0.32495777  0.68238959  1
  Y  Y29  1  0.67504185  0.34607968  0.18238966  1
  Y  Y30  1  0.66597070  0.33609456  0.98463501  1
  Y  Y31  1  0.66390521  0.33402942  0.48463483  1
  Y  Y32  1  0.32058600  0.65829240  0.01572364  1
  Y  Y33  1  0.34170785  0.67941411  0.51572348  1
  Y  Y34  1  0.33263670  0.66942904  0.31796910  1
  Y  Y35  1  0.33057097  0.66736298  0.81796884  1
  Si  Si36  1  0.69168625  0.69359082  0.24899949  1
  Si  Si37  1  0.00075463  0.30461320  0.25026090  1
  Si  Si38  1  0.30640925  0.30831368  0.74899943  1
  Si  Si39  1  0.69538677  0.99924521  0.75026084  1
  Si  Si40  1  0.35835303  0.02692475  0.58233265  1
  Si  Si41  1  0.66742108  0.63794638  0.58359405  1
  Si  Si42  1  0.97307526  0.64164692  0.08233264  1
  Si  Si43  1  0.36205395  0.33257930  0.08359410  1
  Si  Si44  1  0.02502030  0.36025763  0.91566627  1
  Si  Si45  1  0.33408765  0.97128007  0.91692775  1
  Si  Si46  1  0.63974225  0.97497969  0.41566624  1
  Si  Si47  1  0.02872004  0.66591222  0.41692770  1
  S  S48  1  0.30070899  0.00047794  0.25032986  1
  S  S49  1  0.99952236  0.69929065  0.75033002  1
  S  S50  1  0.96737558  0.33381038  0.58366338  1
  S  S51  1  0.66619048  0.03262502  0.08366337  1
  S  S52  1  0.63404236  0.66714281  0.91699673  1
  S  S53  1  0.33285794  0.36595768  0.41699678  1
  O  O54  1  0.22501450  0.02312471  0.30219251  1
  O  O55  1  0.80640093  0.78240699  0.30529633  1
  O  O56  1  0.98875001  0.19945930  0.30798321  1
  O  O57  1  0.21759264  0.19359886  0.80529642  1
  O  O58  1  0.97687516  0.77498573  0.80219252  1
  O  O59  1  0.80054088  0.01125016  0.80798332  1
  O  O60  1  0.78166200  0.97538366  0.69289384  1
  O  O61  1  0.19703771  0.21993347  0.69153480  1
  O  O62  1  0.01725235  0.79906047  0.69887628  1
  O  O63  1  0.78006708  0.80296291  0.19153459  1
  O  O64  1  0.02461642  0.21833766  0.19289357  1
  O  O65  1  0.20093937  0.98274740  0.19887614  1
  O  O66  1  0.89168094  0.35645751  0.63552556  1
  O  O67  1  0.47306821  0.11574048  0.63862942  1
  O  O68  1  0.65541692  0.53279237  0.64131627  1
  O  O69  1  0.88425880  0.52693093  0.13862960  1
  O  O70  1  0.64354218  0.10831946  0.13552573  1
  O  O71  1  0.46720742  0.34458315  0.14131610  1
  O  O72  1  0.44832935  0.30871705  0.02622659  1
  O  O73  1  0.86370416  0.55326599  0.02486765  1
  O  O74  1  0.68391914  0.13239337  0.03220913  1
  O  O75  1  0.44673362  0.13629545  0.52486766  1
  O  O76  1  0.69128310  0.55167089  0.52622662  1
  O  O77  1  0.86760696  0.31608050  0.53220931  1
  O  O78  1  0.55834760  0.68979159  0.96885957  1
  O  O79  1  0.13973386  0.44907413  0.97196347  1
  O  O80  1  0.32208292  0.86612626  0.97465039  1
  O  O81  1  0.55092598  0.86026622  0.47196343  1
  O  O82  1  0.31020820  0.44165269  0.46885963  1
  O  O83  1  0.13387424  0.67791717  0.47465049  1
  O  O84  1  0.11499575  0.64205088  0.35956065  1
  O  O85  1  0.53036998  0.88659976  0.35820170  1
  O  O86  1  0.35058506  0.46572787  0.36554324  1
  O  O87  1  0.11339997  0.46962959  0.85820175  1
  O  O88  1  0.35794901  0.88500374  0.85956052  1
  O  O89  1  0.53427292  0.64941471  0.86554355  1
  O  O90  1  0.02493711  0.83836994  0.41544790  1
  O  O91  1  0.82397077  0.99831563  0.41430271  1
  O  O92  1  0.19077826  0.20012125  0.41174531  1
  O  O93  1  0.00168445  0.17602974  0.91430286  1
  O  O94  1  0.16162976  0.97506278  0.91544788  1
  O  O95  1  0.79987824  0.80922125  0.91174535  1
  O  O96  1  0.97914895  0.18387963  0.58710990  1
  O  O97  1  0.17796437  0.01192729  0.58564712  1
  O  O98  1  0.82535536  0.82355824  0.58512069  1
  O  O99  1  0.98807260  0.82203545  0.08564717  1
  O  O100  1  0.81612070  0.02085071  0.08710989  1
  O  O101  1  0.17644124  0.17464441  0.08512073  1
  O  O102  1  0.69160412  0.17170360  0.74878073  1
  O  O103  1  0.49063722  0.33164880  0.74763584  1
  O  O104  1  0.85744548  0.53345453  0.74507823  1
  O  O105  1  0.66835108  0.50936216  0.24763577  1
  O  O106  1  0.82829664  0.30839590  0.24878077  1
  O  O107  1  0.46654578  0.14255451  0.24507818  1
  O  O108  1  0.64581553  0.51721444  0.92044320  1
  O  O109  1  0.84462979  0.34525996  0.91898054  1
  O  O110  1  0.49202265  0.15689192  0.91845397  1
  O  O111  1  0.65473983  0.15536968  0.41898048  1
  O  O112  1  0.48278612  0.35418420  0.42044324  1
  O  O113  1  0.84310792  0.50797750  0.41845396  1
  O  O114  1  0.35827044  0.50503658  0.08211454  1
  O  O115  1  0.15730450  0.66498310  0.08096965  1
  O  O116  1  0.52411071  0.86678723  0.07841197  1
  O  O117  1  0.33501691  0.84269527  0.58096972  1
  O  O118  1  0.49496324  0.64172970  0.58211445  1
  O  O119  1  0.13321271  0.47588921  0.57841194  1
  O  O120  1  0.31248180  0.85054654  0.25377701  1
  O  O121  1  0.51129727  0.67859410  0.25231421  1
  O  O122  1  0.15868864  0.49022568  0.25178776  1
  O  O123  1  0.32140588  0.48870285  0.75231433  1
  O  O124  1  0.14945364  0.68751834  0.75377699  1
  O  O125  1  0.50977403  0.84131125  0.75178775  1
