# generated using pymatgen
data_NaNb2Ga2P5SO24
_symmetry_space_group_name_H-M   'P 1'
_cell_length_a   8.66792040
_cell_length_b   8.64848826
_cell_length_c   22.38190269
_cell_angle_alpha   89.91971870
_cell_angle_beta   90.22066376
_cell_angle_gamma   119.94185295
_symmetry_Int_Tables_number   1
_chemical_formula_structural   NaNb2Ga2P5SO24
_chemical_formula_sum   'Na3 Nb6 Ga6 P15 S3 O72'
_cell_volume   1453.89692266
_cell_formula_units_Z   3
loop_
 _symmetry_equiv_pos_site_id
 _symmetry_equiv_pos_as_xyz
  1  'x, y, z'
loop_
 _atom_site_type_symbol
 _atom_site_label
 _atom_site_symmetry_multiplicity
 _atom_site_fract_x
 _atom_site_fract_y
 _atom_site_fract_z
 _atom_site_occupancy
  Na  Na0  1  0.00009728  0.99959853  0.00482936  1
  Na  Na1  1  0.66644828  0.33316354  0.83303999  1
  Na  Na2  1  0.66728655  0.33159490  0.33917268  1
  Nb  Nb3  1  0.00533199  0.00755928  0.36053921  1
  Nb  Nb4  1  0.99953659  0.00033830  0.85375812  1
  Nb  Nb5  1  0.66619274  0.32765933  0.18898014  1
  Nb  Nb6  1  0.33174779  0.66625210  0.02741222  1
  Nb  Nb7  1  0.33940960  0.66781155  0.52433730  1
  Nb  Nb8  1  0.33415350  0.66617339  0.80762652  1
  Ga  Ga9  1  0.99217056  0.99174593  0.64587650  1
  Ga  Ga10  1  0.01038583  0.00775847  0.14741326  1
  Ga  Ga11  1  0.66380638  0.33915157  0.68714686  1
  Ga  Ga12  1  0.66714717  0.33425722  0.98094433  1
  Ga  Ga13  1  0.67017389  0.34300615  0.48005600  1
  Ga  Ga14  1  0.32359630  0.66663224  0.31381841  1
  P  P15  1  0.28081998  0.98964401  0.24969211  1
  P  P16  1  0.01158192  0.29209495  0.24947867  1
  P  P17  1  0.28838533  0.28056875  0.74549525  1
  P  P18  1  0.99268039  0.70894147  0.74644160  1
  P  P19  1  0.71603443  0.00979083  0.74593187  1
  P  P20  1  0.67852829  0.62106110  0.58463552  1
  P  P21  1  0.94606153  0.62605439  0.08241591  1
  P  P22  1  0.67980819  0.05153833  0.08164059  1
  P  P23  1  0.37643518  0.32231602  0.08160769  1
  P  P24  1  0.61930869  0.65938244  0.91808922  1
  P  P25  1  0.03965934  0.38116556  0.91759114  1
  P  P26  1  0.34133864  0.96045996  0.91761247  1
  P  P27  1  0.61329419  0.95841445  0.41541814  1
  P  P28  1  0.34704614  0.39094513  0.41536294  1
  P  P29  1  0.04198114  0.65607515  0.41639863  1
  S  S30  1  0.70808318  0.71608099  0.24967291  1
  S  S31  1  0.94883572  0.32629268  0.58416159  1
  S  S32  1  0.37798785  0.05261603  0.58408944  1
  O  O33  1  0.19717593  0.02951320  0.30531436  1
  O  O34  1  0.82395717  0.79271334  0.30349917  1
  O  O35  1  0.96816516  0.16818955  0.30539961  1
  O  O36  1  0.19899553  0.16802189  0.80392109  1
  O  O37  1  0.96742021  0.79846765  0.80431668  1
  O  O38  1  0.82998881  0.03396038  0.80424345  1
  O  O39  1  0.79395582  0.96801143  0.69267425  1
  O  O40  1  0.16942972  0.20079959  0.69172473  1
  O  O41  1  0.03521883  0.82840969  0.69282918  1
  O  O42  1  0.78896111  0.81902795  0.19534512  1
  O  O43  1  0.02945322  0.20423259  0.19340199  1
  O  O44  1  0.17228203  0.96512037  0.19351132  1
  O  O45  1  0.87537948  0.36516004  0.63765007  1
  O  O46  1  0.49180827  0.12312391  0.63772657  1
  O  O47  1  0.63041330  0.50184384  0.63998325  1
  O  O48  1  0.86436212  0.50508582  0.13864170  1
  O  O49  1  0.64024940  0.13325841  0.13830949  1
  O  O50  1  0.49482107  0.35965580  0.13835032  1
  O  O51  1  0.45977712  0.29572041  0.02607544  1
  O  O52  1  0.83700273  0.54229334  0.02636528  1
  O  O53  1  0.70632237  0.16344620  0.02645884  1
  O  O54  1  0.45845565  0.15719864  0.52963053  1
  O  O55  1  0.70250163  0.53743214  0.52793404  1
  O  O56  1  0.84122050  0.29723809  0.52978126  1
  O  O57  1  0.53454216  0.69517205  0.97306853  1
  O  O58  1  0.16033119  0.46540783  0.97300289  1
  O  O59  1  0.30526160  0.83977782  0.97294890  1
  O  O60  1  0.53171852  0.83893357  0.47218236  1
  O  O61  1  0.30744859  0.46943761  0.47199012  1
  O  O62  1  0.16109153  0.69417555  0.47255006  1
  O  O63  1  0.12173190  0.62695197  0.36036255  1
  O  O64  1  0.50279268  0.87381532  0.35986338  1
  O  O65  1  0.37291878  0.49998121  0.35961275  1
  O  O66  1  0.13188863  0.49347405  0.86119098  1
  O  O67  1  0.36139024  0.86790149  0.86125242  1
  O  O68  1  0.50664505  0.63847906  0.86129300  1
  O  O69  1  0.02453440  0.82742638  0.40714532  1
  O  O70  1  0.79974200  0.97136413  0.40717625  1
  O  O71  1  0.17279737  0.20221475  0.40890529  1
  O  O72  1  0.02625637  0.19433878  0.91014274  1
  O  O73  1  0.16842745  0.97423080  0.90997405  1
  O  O74  1  0.80573902  0.83196336  0.91014509  1
  O  O75  1  0.97622429  0.17329048  0.59121926  1
  O  O76  1  0.19992163  0.02906143  0.59118054  1
  O  O77  1  0.83498157  0.80940984  0.59199902  1
  O  O78  1  0.97379276  0.81232556  0.09125385  1
  O  O79  1  0.83609287  0.02179211  0.09150407  1
  O  O80  1  0.18918789  0.16475773  0.08905084  1
  O  O81  1  0.69255606  0.17287428  0.74167595  1
  O  O82  1  0.47427664  0.30281997  0.74352801  1
  O  O83  1  0.83030025  0.52219358  0.74337037  1
  O  O84  1  0.69310233  0.53275659  0.24398832  1
  O  O85  1  0.83703588  0.30882664  0.24295477  1
  O  O86  1  0.47036878  0.16590398  0.24295816  1
  O  O87  1  0.64044032  0.49652911  0.92278633  1
  O  O88  1  0.85619868  0.35968858  0.92271515  1
  O  O89  1  0.50374162  0.14396400  0.92283218  1
  O  O90  1  0.64246948  0.14525072  0.42604504  1
  O  O91  1  0.50141420  0.35623713  0.42398878  1
  O  O92  1  0.85523805  0.49621097  0.42413925  1
  O  O93  1  0.36186228  0.49562717  0.07474312  1
  O  O94  1  0.13333293  0.63968518  0.07491283  1
  O  O95  1  0.50535696  0.86595874  0.07487281  1
  O  O96  1  0.35828425  0.86866621  0.57569139  1
  O  O97  1  0.50640516  0.64086755  0.57354964  1
  O  O98  1  0.13056797  0.49136280  0.57537484  1
  O  O99  1  0.31212801  0.83486879  0.25934120  1
  O  O100  1  0.53169754  0.69178840  0.25771122  1
  O  O101  1  0.16973845  0.47528561  0.25929925  1
  O  O102  1  0.30659437  0.46725695  0.75866903  1
  O  O103  1  0.16106813  0.69175323  0.75944807  1
  O  O104  1  0.53102538  0.84053789  0.75928168  1
