# generated using pymatgen
data_MgV8(PO4)12
_symmetry_space_group_name_H-M   'P 1'
_cell_length_a   8.56471178
_cell_length_b   8.54118885
_cell_length_c   11.96887682
_cell_angle_alpha   89.28397271
_cell_angle_beta   89.41462649
_cell_angle_gamma   89.58839352
_symmetry_Int_Tables_number   1
_chemical_formula_structural   MgV8(PO4)12
_chemical_formula_sum   'Mg1 V8 P12 O48'
_cell_volume   875.42123955
_cell_formula_units_Z   1
loop_
 _symmetry_equiv_pos_site_id
 _symmetry_equiv_pos_as_xyz
  1  'x, y, z'
loop_
 _atom_site_type_symbol
 _atom_site_label
 _atom_site_symmetry_multiplicity
 _atom_site_fract_x
 _atom_site_fract_y
 _atom_site_fract_z
 _atom_site_occupancy
  Mg  Mg0  1  0.43421600  0.04004000  0.17997500  1
  V  V1  1  0.24075300  0.97030700  0.39287600  1
  V  V2  1  0.25152800  0.46701700  0.11637800  1
  V  V3  1  0.24728700  0.02862500  0.87582300  1
  V  V4  1  0.25071600  0.53053600  0.62032300  1
  V  V5  1  0.74878300  0.47744400  0.38451500  1
  V  V6  1  0.76398800  0.96945700  0.11200000  1
  V  V7  1  0.74645000  0.53370400  0.88509400  1
  V  V8  1  0.75147500  0.02840900  0.61924400  1
  P  P9  1  0.02739200  0.25445800  0.50777500  1
  P  P10  1  0.10303000  0.12071600  0.14158700  1
  P  P11  1  0.10624000  0.38352900  0.85659400  1
  P  P12  1  0.39321200  0.61875000  0.35485100  1
  P  P13  1  0.39557300  0.88197100  0.64267600  1
  P  P14  1  0.46535200  0.75482800  0.99772300  1
  P  P15  1  0.52940000  0.24195400  0.99738100  1
  P  P16  1  0.61374300  0.12003300  0.36002500  1
  P  P17  1  0.60405100  0.38494400  0.64512100  1
  P  P18  1  0.89360100  0.61204800  0.14390500  1
  P  P19  1  0.97163500  0.75030100  0.49703100  1
  P  P20  1  0.89874900  0.87889000  0.85040000  1
  O  O21  1  0.07183500  0.61135200  0.13296800  1
  O  O22  1  0.06776700  0.82608300  0.40152000  1
  O  O23  1  0.07350800  0.64070900  0.57007300  1
  O  O24  1  0.07023600  0.91181300  0.82287200  1
  O  O25  1  0.11051200  0.13683400  0.42748200  1
  O  O26  1  0.12608400  0.29900800  0.16351500  1
  O  O27  1  0.15214600  0.07757800  0.02421400  1
  O  O28  1  0.15592900  0.21619000  0.82183000  1
  O  O29  1  0.15900400  0.49498600  0.75770400  1
  O  O30  1  0.16006300  0.34683900  0.56148400  1
  O  O31  1  0.21135800  0.02633000  0.22340000  1
  O  O32  1  0.19545800  0.43360400  0.95970900  1
  O  O33  1  0.31128600  0.51419600  0.27171600  1
  O  O34  1  0.29421400  0.92886000  0.54145000  1
  O  O35  1  0.32653300  0.83962000  0.94242400  1
  O  O36  1  0.34529300  0.57464200  0.47461000  1
  O  O37  1  0.35566000  0.99100900  0.73864800  1
  O  O38  1  0.92865300  0.39074800  0.86945500  1
  O  O39  1  0.34831300  0.71006300  0.67359500  1
  O  O40  1  0.39667100  0.61658600  0.06879000  1
  O  O41  1  0.42569100  0.28207600  0.10230000  1
  O  O42  1  0.43292100  0.10825500  0.36850200  1
  O  O43  1  0.42431000  0.41152800  0.65678200  1
  O  O44  1  0.44067600  0.13744300  0.91826100  1
  O  O45  1  0.53982600  0.87098700  0.08194800  1
  O  O46  1  0.57431600  0.59524800  0.34207800  1
  O  O47  1  0.57012400  0.88651100  0.61462000  1
  O  O48  1  0.58218800  0.69740500  0.91015400  1
  O  O49  1  0.59532100  0.38403900  0.93530900  1
  O  O50  1  0.65462300  0.29290500  0.33229700  1
  O  O51  1  0.62566600  0.20709600  0.65872300  1
  O  O52  1  0.64680300  0.02094500  0.25352900  1
  O  O53  1  0.65468000  0.44005900  0.52710800  1
  O  O54  1  0.66945800  0.14860100  0.04864700  1
  O  O55  1  0.70733400  0.06202600  0.45889500  1
  O  O56  1  0.68717500  0.48203500  0.73237300  1
  O  O57  1  0.80943700  0.55598700  0.04088000  1
  O  O58  1  0.79336700  0.97488900  0.76881900  1
  O  O59  1  0.84221000  0.65615700  0.43910100  1
  O  O60  1  0.84195100  0.50640700  0.24471700  1
  O  O61  1  0.83665900  0.78132400  0.17236200  1
  O  O62  1  0.85581400  0.92295900  0.97010700  1
  O  O63  1  0.87348900  0.70046900  0.83482700  1
  O  O64  1  0.89417600  0.86515600  0.57584400  1
  O  O65  1  0.93220000  0.08656600  0.17051600  1
  O  O66  1  0.92728200  0.36076900  0.43119800  1
  O  O67  1  0.92896100  0.17662300  0.59918500  1
  O  O68  1  0.36533000  0.79738500  0.33215400  1
