# generated using pymatgen
data_PAuCl4
_symmetry_space_group_name_H-M   'P 1'
_cell_length_a   14.76799806
_cell_length_b   6.19569747
_cell_length_c   7.45439729
_cell_angle_alpha   84.39187810
_cell_angle_beta   90.00000000
_cell_angle_gamma   90.00000000
_symmetry_Int_Tables_number   1
_chemical_formula_structural   PAuCl4
_chemical_formula_sum   'P4 Au4 Cl16'
_cell_volume   678.79814794
_cell_formula_units_Z   4
loop_
 _symmetry_equiv_pos_site_id
 _symmetry_equiv_pos_as_xyz
  1  'x, y, z'
loop_
 _atom_site_type_symbol
 _atom_site_label
 _atom_site_symmetry_multiplicity
 _atom_site_fract_x
 _atom_site_fract_y
 _atom_site_fract_z
 _atom_site_occupancy
  P  P0  1  0.87009201  0.47751744  0.75572084  1
  P  P1  1  0.62990799  0.97751744  0.75572084  1
  P  P2  1  0.12990799  0.52248256  0.24427916  1
  P  P3  1  0.37009201  0.02248256  0.24427916  1
  Au  Au4  1  0.73497530  0.98468791  0.54515738  1
  Au  Au5  1  0.23497530  0.51531209  0.45484262  1
  Au  Au6  1  0.26502470  0.01531209  0.45484262  1
  Au  Au7  1  0.76502470  0.48468791  0.54515738  1
  Cl  Cl8  1  0.51976447  0.15931465  0.69607836  1
  Cl  Cl9  1  0.98023553  0.65931465  0.69607836  1
  Cl  Cl10  1  0.48023553  0.84068535  0.30392164  1
  Cl  Cl11  1  0.01976447  0.34068535  0.30392164  1
  Cl  Cl12  1  0.65422081  0.49099945  0.32952254  1
  Cl  Cl13  1  0.15422081  0.00900055  0.67047746  1
  Cl  Cl14  1  0.34577919  0.50900055  0.67047746  1
  Cl  Cl15  1  0.84577919  0.99099945  0.32952254  1
  Cl  Cl16  1  0.82727920  0.58124739  0.98731074  1
  Cl  Cl17  1  0.32727920  0.91875261  0.01268926  1
  Cl  Cl18  1  0.17272080  0.41875261  0.01268926  1
  Cl  Cl19  1  0.67272080  0.08124739  0.98731074  1
  Cl  Cl20  1  0.92213321  0.18365249  0.83176529  1
  Cl  Cl21  1  0.42213321  0.31634751  0.16823471  1
  Cl  Cl22  1  0.07786679  0.81634751  0.16823471  1
  Cl  Cl23  1  0.57786679  0.68365249  0.83176529  1
