# generated using pymatgen
data_TaAlSi(SO6)2
_symmetry_space_group_name_H-M   'P 1'
_cell_length_a   8.62958999
_cell_length_b   8.64886087
_cell_length_c   22.32393104
_cell_angle_alpha   89.54111427
_cell_angle_beta   90.00000000
_cell_angle_gamma   119.92632105
_symmetry_Int_Tables_number   1
_chemical_formula_structural   TaAlSi(SO6)2
_chemical_formula_sum   'Ta6 Al6 Si6 S12 O72'
_cell_volume   1443.95543700
_cell_formula_units_Z   6
loop_
 _symmetry_equiv_pos_site_id
 _symmetry_equiv_pos_as_xyz
  1  'x, y, z'
loop_
 _atom_site_type_symbol
 _atom_site_label
 _atom_site_symmetry_multiplicity
 _atom_site_fract_x
 _atom_site_fract_y
 _atom_site_fract_z
 _atom_site_occupancy
  Ta  Ta0  1  0.00750809  0.01810899  0.64181498  1
  Ta  Ta1  1  0.01060090  0.01810899  0.14181498  1
  Ta  Ta2  1  0.65194196  0.32559836  0.97478717  1
  Ta  Ta3  1  0.67365740  0.32559836  0.47478717  1
  Ta  Ta4  1  0.33550819  0.66971102  0.30851798  1
  Ta  Ta5  1  0.33420183  0.66971102  0.80851798  1
  Al  Al6  1  0.98342382  0.01118738  0.35630240  1
  Al  Al7  1  0.02776356  0.01118738  0.85630240  1
  Al  Al8  1  0.67337086  0.34166017  0.68794386  1
  Al  Al9  1  0.66829032  0.34166017  0.18794386  1
  Al  Al10  1  0.32610434  0.66522230  0.02333685  1
  Al  Al11  1  0.33911696  0.66522230  0.52333685  1
  Si  Si12  1  0.98076392  0.28353648  0.25165447  1
  Si  Si13  1  0.30277256  0.28353648  0.75165447  1
  Si  Si14  1  0.96358957  0.35819682  0.58643604  1
  Si  Si15  1  0.39460825  0.35819682  0.08643604  1
  Si  Si16  1  0.31545431  0.93612972  0.92007760  1
  Si  Si17  1  0.62067441  0.93612972  0.42007760  1
  S  S18  1  0.28722851  0.00867711  0.25164850  1
  S  S19  1  0.72125483  0.71004968  0.25101634  1
  S  S20  1  0.98879485  0.71004968  0.75101634  1
  S  S21  1  0.72144860  0.00867711  0.75164850  1
  S  S22  1  0.38508985  0.04189420  0.58409201  1
  S  S23  1  0.66076298  0.61629429  0.58411820  1
  S  S24  1  0.95553231  0.61629429  0.08411820  1
  S  S25  1  0.65680536  0.04189420  0.08409201  1
  S  S26  1  0.62799526  0.68025736  0.91646476  1
  S  S27  1  0.04978994  0.37503079  0.91774177  1
  S  S28  1  0.32523985  0.37503079  0.41774177  1
  S  S29  1  0.05226111  0.68025736  0.41646476  1
  O  O30  1  0.20140687  0.02746531  0.30490678  1
  O  O31  1  0.82961378  0.79105204  0.30411889  1
  O  O32  1  0.96674902  0.16007546  0.30703528  1
  O  O33  1  0.19332643  0.16007546  0.80703528  1
  O  O34  1  0.96143826  0.79105204  0.80411889  1
  O  O35  1  0.82605844  0.02746531  0.80490678  1
  O  O36  1  0.79643238  0.96748103  0.69696124  1
  O  O37  1  0.16687709  0.19358306  0.69183368  1
  O  O38  1  0.02698207  0.82240932  0.69638986  1
  O  O39  1  0.79542725  0.82240932  0.19638986  1
  O  O40  1  0.02670598  0.19358306  0.19183368  1
  O  O41  1  0.17104865  0.96748103  0.19696124  1
  O  O42  1  0.85657413  0.36826903  0.64305809  1
  O  O43  1  0.49239947  0.12532312  0.63670495  1
  O  O44  1  0.63171053  0.50497358  0.63735029  1
  O  O45  1  0.87326405  0.50497358  0.13735029  1
  O  O46  1  0.63292464  0.12532312  0.13670495  1
  O  O47  1  0.51169590  0.36826903  0.14305809  1
  O  O48  1  0.47912998  0.31011875  0.02654017  1
  O  O49  1  0.84462598  0.53863922  0.02965728  1
  O  O50  1  0.70308354  0.16072524  0.02954376  1
  O  O51  1  0.45764270  0.16072524  0.52954376  1
  O  O52  1  0.69401424  0.53863922  0.52965728  1
  O  O53  1  0.83098977  0.31011875  0.52654017  1
  O  O54  1  0.54490110  0.70124173  0.96977538  1
  O  O55  1  0.16129921  0.45377521  0.97027585  1
  O  O56  1  0.30523947  0.81924697  0.97692176  1
  O  O57  1  0.51400650  0.81924697  0.47692176  1
  O  O58  1  0.29247500  0.45377521  0.47027585  1
  O  O59  1  0.15633963  0.70124173  0.46977538  1
  O  O60  1  0.12470162  0.63324162  0.36251291  1
  O  O61  1  0.49301963  0.85457271  0.35994972  1
  O  O62  1  0.36069185  0.49089498  0.36309582  1
  O  O63  1  0.13020214  0.49089498  0.86309582  1
  O  O64  1  0.36155207  0.85457271  0.85994972  1
  O  O65  1  0.50853900  0.63324162  0.86251291  1
  O  O66  1  0.03429386  0.83590979  0.40380506  1
  O  O67  1  0.81468224  0.96394859  0.40887656  1
  O  O68  1  0.17630760  0.19561650  0.40681206  1
  O  O69  1  0.01930890  0.19561650  0.90681206  1
  O  O70  1  0.14926635  0.96394859  0.90887656  1
  O  O71  1  0.80161593  0.83590979  0.90380506  1
  O  O72  1  0.97039415  0.16809882  0.59265008  1
  O  O73  1  0.19980251  0.01938573  0.59096725  1
  O  O74  1  0.82454953  0.79515425  0.59296159  1
  O  O75  1  0.97060473  0.79515425  0.09296159  1
  O  O76  1  0.81958322  0.01938573  0.09096725  1
  O  O77  1  0.19770467  0.16809882  0.09265008  1
  O  O78  1  0.69706819  0.16098985  0.74137028  1
  O  O79  1  0.49187221  0.30753197  0.73425376  1
  O  O80  1  0.83695223  0.53151530  0.74257586  1
  O  O81  1  0.69456407  0.53151530  0.24257586  1
  O  O82  1  0.81566076  0.30753197  0.23425376  1
  O  O83  1  0.46392266  0.16098985  0.24137028  1
  O  O84  1  0.65174732  0.51809638  0.92395700  1
  O  O85  1  0.87324172  0.36584170  0.92569470  1
  O  O86  1  0.50231195  0.13765154  0.92690021  1
  O  O87  1  0.63534058  0.13765154  0.42690021  1
  O  O88  1  0.49260098  0.36584170  0.42569470  1
  O  O89  1  0.86635006  0.51809638  0.42395700  1
  O  O90  1  0.36063111  0.51701499  0.06919574  1
  O  O91  1  0.13356359  0.63853103  0.07552079  1
  O  O92  1  0.50342461  0.86613276  0.07424564  1
  O  O93  1  0.36270714  0.86613276  0.57424564  1
  O  O94  1  0.50496644  0.63853103  0.57552079  1
  O  O95  1  0.15638288  0.51701499  0.56919574  1
  O  O96  1  0.30311998  0.84215874  0.25750702  1
  O  O97  1  0.53761726  0.69228688  0.25856573  1
  O  O98  1  0.16422637  0.47949213  0.26155599  1
  O  O99  1  0.31526476  0.47949213  0.76155599  1
  O  O100  1  0.15466862  0.69228688  0.75856573  1
  O  O101  1  0.53903777  0.84215874  0.75750702  1
