# generated using pymatgen
data_Rb2TiCl6
_symmetry_space_group_name_H-M   'P 1'
_cell_length_a   7.06603068
_cell_length_b   7.06603074
_cell_length_c   7.06603113
_cell_angle_alpha   59.99999821
_cell_angle_beta   59.99999796
_cell_angle_gamma   60.00000438
_symmetry_Int_Tables_number   1
_chemical_formula_structural   Rb2TiCl6
_chemical_formula_sum   'Rb2 Ti1 Cl6'
_cell_volume   249.46613104
_cell_formula_units_Z   1
loop_
 _symmetry_equiv_pos_site_id
 _symmetry_equiv_pos_as_xyz
  1  'x, y, z'
loop_
 _atom_site_type_symbol
 _atom_site_label
 _atom_site_symmetry_multiplicity
 _atom_site_fract_x
 _atom_site_fract_y
 _atom_site_fract_z
 _atom_site_occupancy
  Rb  Rb0  1  0.75000000  0.75000000  0.75000000  1
  Rb  Rb1  1  0.25000000  0.25000000  0.25000000  1
  Ti  Ti2  1  -0.00000000  0.00000000  -0.00000000  1
  Cl  Cl3  1  0.23530081  0.76469919  0.76469919  1
  Cl  Cl4  1  0.23530081  0.76469919  0.23530081  1
  Cl  Cl5  1  0.76469919  0.23530081  0.76469919  1
  Cl  Cl6  1  0.76469919  0.23530081  0.23530081  1
  Cl  Cl7  1  0.76469919  0.76469919  0.23530081  1
  Cl  Cl8  1  0.23530081  0.23530081  0.76469919  1
