# generated using pymatgen
data_KPb
_symmetry_space_group_name_H-M   'P 1'
_cell_length_a   11.60932936
_cell_length_b   11.60932968
_cell_length_c   12.56037457
_cell_angle_alpha   117.52535442
_cell_angle_beta   117.52535357
_cell_angle_gamma   89.99999762
_symmetry_Int_Tables_number   1
_chemical_formula_structural   KPb
_chemical_formula_sum   'K16 Pb16'
_cell_volume   1281.26158385
_cell_formula_units_Z   16
loop_
 _symmetry_equiv_pos_site_id
 _symmetry_equiv_pos_as_xyz
  1  'x, y, z'
loop_
 _atom_site_type_symbol
 _atom_site_label
 _atom_site_symmetry_multiplicity
 _atom_site_fract_x
 _atom_site_fract_y
 _atom_site_fract_z
 _atom_site_occupancy
  K  K0  1  0.61874301  0.25000000  0.50000000  1
  K  K1  1  0.75000000  0.61874301  -0.00000000  1
  K  K2  1  0.25000000  0.88125699  0.00000000  1
  K  K3  1  0.88125699  0.75000000  0.50000000  1
  K  K4  1  0.38125699  0.75000000  0.50000000  1
  K  K5  1  0.25000000  0.38125699  0.00000000  1
  K  K6  1  0.75000000  0.11874301  -0.00000000  1
  K  K7  1  0.11874301  0.25000000  0.50000000  1
  K  K8  1  0.49793047  0.24793047  0.75000000  1
  K  K9  1  0.00206953  0.49793047  0.25000000  1
  K  K10  1  0.24793047  0.25206953  0.25000000  1
  K  K11  1  0.25206953  0.00206953  0.75000000  1
  K  K12  1  0.50206953  0.75206953  0.25000000  1
  K  K13  1  0.99793047  0.50206953  0.75000000  1
  K  K14  1  0.75206953  0.74793047  0.75000000  1
  K  K15  1  0.74793047  0.99793047  0.25000000  1
  Pb  Pb16  1  0.12852508  0.69768991  0.13329206  1
  Pb  Pb17  1  0.56439786  0.49523302  0.36670794  1
  Pb  Pb18  1  0.80231009  0.37147492  0.36670794  1
  Pb  Pb19  1  0.49523302  0.80231009  0.86670794  1
  Pb  Pb20  1  0.37147492  0.56439786  0.86670794  1
  Pb  Pb21  1  0.93560214  0.12852508  0.63329206  1
  Pb  Pb22  1  0.69768991  0.00476698  0.63329206  1
  Pb  Pb23  1  0.00476698  0.93560214  0.13329206  1
  Pb  Pb24  1  0.87147492  0.30231009  0.86670794  1
  Pb  Pb25  1  0.43560214  0.50476698  0.63329206  1
  Pb  Pb26  1  0.19768991  0.62852508  0.63329206  1
  Pb  Pb27  1  0.50476698  0.19768991  0.13329206  1
  Pb  Pb28  1  0.62852508  0.43560214  0.13329206  1
  Pb  Pb29  1  0.06439786  0.87147492  0.36670794  1
  Pb  Pb30  1  0.30231009  0.99523302  0.36670794  1
  Pb  Pb31  1  0.99523302  0.06439786  0.86670794  1
