# generated using pymatgen
data_Na14Ca2Si9Sn6(SO16)3
_symmetry_space_group_name_H-M   'P 1'
_cell_length_a   18.38909762
_cell_length_b   9.24643519
_cell_length_c   22.69567931
_cell_angle_alpha   90.24668499
_cell_angle_beta   89.80117125
_cell_angle_gamma   120.08987212
_symmetry_Int_Tables_number   1
_chemical_formula_structural   Na14Ca2Si9Sn6(SO16)3
_chemical_formula_sum   'Na42 Ca6 Si27 Sn18 S9 O144'
_cell_volume   3338.95085762
_cell_formula_units_Z   3
loop_
 _symmetry_equiv_pos_site_id
 _symmetry_equiv_pos_as_xyz
  1  'x, y, z'
loop_
 _atom_site_type_symbol
 _atom_site_label
 _atom_site_symmetry_multiplicity
 _atom_site_fract_x
 _atom_site_fract_y
 _atom_site_fract_z
 _atom_site_occupancy
  Na  Na0  1  0.30937567  0.00225082  0.24539425  1
  Na  Na1  1  0.81617179  0.01672600  0.24942059  1
  Na  Na2  1  0.18812842  0.36486301  0.25380101  1
  Na  Na3  1  0.69530226  0.36771245  0.25092219  1
  Na  Na4  1  0.99017155  0.61691382  0.25658908  1
  Na  Na5  1  0.49517146  0.63638938  0.24885278  1
  Na  Na6  1  0.31684087  0.61702370  0.74156261  1
  Na  Na7  1  0.81004569  0.61861986  0.74108330  1
  Na  Na8  1  0.99329124  0.34800161  0.74323498  1
  Na  Na9  1  0.49278230  0.36938187  0.75181899  1
  Na  Na10  1  0.19541271  0.02624058  0.74561033  1
  Na  Na11  1  0.69032891  0.01264964  0.74990847  1
  Na  Na12  1  0.15488783  0.33766476  0.58509583  1
  Na  Na13  1  0.66090220  0.35706642  0.57911052  1
  Na  Na14  1  0.01236723  0.69238216  0.57818635  1
  Na  Na15  1  0.51270900  0.69325745  0.57297561  1
  Na  Na16  1  0.32647904  0.96266703  0.58460913  1
  Na  Na17  1  0.83328729  0.95697517  0.57274142  1
  Na  Na18  1  0.15945239  0.96480593  0.08614886  1
  Na  Na19  1  0.65708161  0.97381165  0.08925112  1
  Na  Na20  1  0.33532192  0.70688527  0.08567539  1
  Na  Na21  1  0.82618312  0.69004285  0.08892623  1
  Na  Na22  1  0.01108558  0.32730405  0.07883937  1
  Na  Na23  1  0.51501626  0.33482766  0.08342376  1
  Na  Na24  1  0.98501879  0.66886332  0.91849365  1
  Na  Na25  1  0.35067337  0.03986981  0.91337670  1
  Na  Na26  1  0.16100419  0.29370338  0.91521090  1
  Na  Na27  1  0.48825429  0.30509979  0.41847422  1
  Na  Na28  1  0.66868978  0.02963097  0.41365747  1
  Na  Na29  1  0.84998442  0.67163004  0.41897354  1
  Na  Na30  1  0.99833627  0.99701289  0.49646963  1
  Na  Na31  1  0.49276501  0.98144633  0.49229430  1
  Na  Na32  1  0.98949150  0.00167041  0.99433898  1
  Na  Na33  1  0.50850772  0.01436792  0.00284903  1
  Na  Na34  1  0.33940009  0.33924044  0.82587871  1
  Na  Na35  1  0.82500627  0.31711580  0.83191779  1
  Na  Na36  1  0.32603932  0.33407173  0.33348760  1
  Na  Na37  1  0.83779754  0.33142646  0.33050141  1
  Na  Na38  1  0.17348198  0.68200776  0.17182361  1
  Na  Na39  1  0.67153228  0.67807572  0.16728724  1
  Na  Na40  1  0.16917086  0.66265281  0.66011630  1
  Na  Na41  1  0.67601969  0.66626900  0.66679899  1
  Ca  Ca42  1  0.32866449  0.33587997  0.68508215  1
  Ca  Ca43  1  0.83778954  0.33302128  0.68167418  1
  Ca  Ca44  1  0.33653854  0.33899745  0.18402988  1
  Ca  Ca45  1  0.82806120  0.32052621  0.18591951  1
  Ca  Ca46  1  0.16604420  0.67370086  0.01133729  1
  Ca  Ca47  1  0.67080789  0.66585600  0.50851110  1
  Si  Si48  1  0.14317757  0.99931736  0.24993292  1
  Si  Si49  1  0.64129903  0.98830727  0.25325045  1
  Si  Si50  1  0.35228296  0.71309916  0.25077042  1
  Si  Si51  1  0.84744215  0.70334882  0.25346490  1
  Si  Si52  1  0.00629313  0.30080253  0.25351458  1
  Si  Si53  1  0.14146708  0.29223805  0.75463951  1
  Si  Si54  1  0.64605122  0.29239901  0.74841301  1
  Si  Si55  1  0.50530295  0.71412189  0.75538873  1
  Si  Si56  1  0.34906741  0.99082138  0.75503747  1
  Si  Si57  1  0.85232252  0.99230732  0.75148318  1
  Si  Si58  1  0.98520429  0.33937208  0.58205473  1
  Si  Si59  1  0.18489038  0.03659813  0.58506976  1
  Si  Si60  1  0.33514183  0.63731521  0.58260648  1
  Si  Si61  1  0.83329886  0.63411303  0.58708030  1
  Si  Si62  1  0.48372997  0.63061025  0.08041071  1
  Si  Si63  1  0.33395001  0.02681498  0.08695874  1
  Si  Si64  1  0.83531042  0.03265791  0.08155646  1
  Si  Si65  1  0.68491687  0.33320788  0.08420966  1
  Si  Si66  1  0.81318030  0.65922091  0.91589235  1
  Si  Si67  1  0.01396910  0.36684583  0.91894168  1
  Si  Si68  1  0.52096912  0.36728207  0.91469057  1
  Si  Si69  1  0.16682834  0.97265074  0.91691279  1
  Si  Si70  1  0.31343400  0.96653228  0.41629791  1
  Si  Si71  1  0.82388766  0.98076877  0.41819920  1
  Si  Si72  1  0.66480744  0.36287179  0.41626654  1
  Si  Si73  1  0.02270032  0.67659717  0.41460062  1
  Si  Si74  1  0.51339944  0.65931693  0.41912601  1
  Sn  Sn75  1  0.99863513  0.99564787  0.35159777  1
  Sn  Sn76  1  0.49598867  0.98513097  0.35575701  1
  Sn  Sn77  1  0.99514302  0.00449847  0.85551143  1
  Sn  Sn78  1  0.50437904  0.01279717  0.84915020  1
  Sn  Sn79  1  0.99783448  0.01188270  0.64444066  1
  Sn  Sn80  1  0.49473692  0.98375673  0.65592018  1
  Sn  Sn81  1  0.99221988  0.00395571  0.15839346  1
  Sn  Sn82  1  0.49915858  0.98646854  0.14626694  1
  Sn  Sn83  1  0.34372760  0.32544434  0.98225791  1
  Sn  Sn84  1  0.82939390  0.32276797  0.98070799  1
  Sn  Sn85  1  0.32926920  0.33518653  0.48062485  1
  Sn  Sn86  1  0.84486099  0.35264492  0.47682455  1
  Sn  Sn87  1  0.66799634  0.65624096  0.01475303  1
  Sn  Sn88  1  0.16828703  0.67862180  0.51438604  1
  Sn  Sn89  1  0.16699904  0.68137247  0.31361505  1
  Sn  Sn90  1  0.67130357  0.68104036  0.32218804  1
  Sn  Sn91  1  0.16469433  0.66669667  0.81807290  1
  Sn  Sn92  1  0.66678896  0.65272212  0.81319775  1
  S  S93  1  0.50367675  0.29202188  0.25136685  1
  S  S94  1  0.00357714  0.71439207  0.75232560  1
  S  S95  1  0.48170771  0.32605969  0.58489476  1
  S  S96  1  0.67939809  0.03488677  0.58410136  1
  S  S97  1  0.98099414  0.63601126  0.08398722  1
  S  S98  1  0.18265141  0.32608523  0.08146517  1
  S  S99  1  0.31997705  0.66580277  0.91587642  1
  S  S100  1  0.66489017  0.95868844  0.91586373  1
  S  S101  1  0.16706892  0.37498865  0.41587349  1
  O  O102  1  0.09715563  0.03077851  0.30507668  1
  O  O103  1  0.59554085  0.02212506  0.30834257  1
  O  O104  1  0.41466380  0.80966815  0.30459681  1
  O  O105  1  0.90861299  0.79630536  0.30903928  1
  O  O106  1  0.49249413  0.18947476  0.30424909  1
  O  O107  1  0.98953304  0.16766057  0.30463552  1
  O  O108  1  0.09723760  0.17017973  0.81070674  1
  O  O109  1  0.60378962  0.17256097  0.80563781  1
  O  O110  1  0.48615995  0.80775163  0.80923410  1
  O  O111  1  0.99400658  0.79413756  0.80621108  1
  O  O112  1  0.40508802  0.01428296  0.81407580  1
  O  O113  1  0.91392793  0.02267538  0.80632322  1
  O  O114  1  0.38829485  0.95110433  0.69458471  1
  O  O115  1  0.89143252  0.95273441  0.69112824  1
  O  O116  1  0.08381147  0.21132548  0.69411544  1
  O  O117  1  0.58389780  0.20534269  0.68947829  1
  O  O118  1  0.01526469  0.81509784  0.69863339  1
  O  O119  1  0.52581584  0.82649572  0.69337187  1
  O  O120  1  0.38982473  0.82682963  0.18932523  1
  O  O121  1  0.88434661  0.81862250  0.19128049  1
  O  O122  1  0.02738472  0.23250386  0.18936285  1
  O  O123  1  0.51373097  0.21239997  0.19662079  1
  O  O124  1  0.08449013  0.96444806  0.18808248  1
  O  O125  1  0.58510616  0.95530541  0.19146339  1
  O  O126  1  0.44191086  0.34412880  0.63796685  1
  O  O127  1  0.96148603  0.38833999  0.64446605  1
  O  O128  1  0.23924734  0.09385017  0.64443312  1
  O  O129  1  0.72809238  0.10897779  0.63775466  1
  O  O130  1  0.31473646  0.53911386  0.64385624  1
  O  O131  1  0.81822114  0.52615946  0.64551265  1
  O  O132  1  0.45598076  0.52536320  0.14039160  1
  O  O133  1  0.94059559  0.53719138  0.13629741  1
  O  O134  1  0.31385465  0.10691098  0.14272652  1
  O  O135  1  0.81453053  0.09247315  0.14219804  1
  O  O136  1  0.23265154  0.35035702  0.13445223  1
  O  O137  1  0.74050276  0.38564230  0.14258763  1
  O  O138  1  0.22523179  0.30784916  0.02727782  1
  O  O139  1  0.72782037  0.28618695  0.02749439  1
  O  O140  1  0.41197750  0.53809198  0.02669054  1
  O  O141  1  0.92990298  0.55663895  0.02932396  1
  O  O142  1  0.35174447  0.14274154  0.02483395  1
  O  O143  1  0.85861334  0.16832419  0.02664076  1
  O  O144  1  0.22964247  0.17162360  0.52975733  1
  O  O145  1  0.72061930  0.13786794  0.53093763  1
  O  O146  1  0.35753175  0.54503947  0.52832494  1
  O  O147  1  0.84873625  0.54339913  0.52707062  1
  O  O148  1  0.42916764  0.30057512  0.53101628  1
  O  O149  1  0.91448893  0.29486535  0.53010616  1
  O  O150  1  0.28265563  0.69398802  0.96907548  1
  O  O151  1  0.77412082  0.69870611  0.97430223  1
  O  O152  1  0.06923488  0.43552678  0.97764033  1
  O  O153  1  0.57401022  0.45207297  0.97433987  1
  O  O154  1  0.14625471  0.86684694  0.97620057  1
  O  O155  1  0.65574738  0.86119252  0.96981184  1
  O  O156  1  0.27461379  0.85027102  0.47477172  1
  O  O157  1  0.78944779  0.86792118  0.47628631  1
  O  O158  1  0.15837300  0.45513103  0.47036221  1
  O  O159  1  0.63913772  0.41987867  0.47586587  1
  O  O160  1  0.07511664  0.69398232  0.47458185  1
  O  O161  1  0.56518855  0.69528399  0.47916942  1
  O  O162  1  0.06319984  0.63984736  0.35605871  1
  O  O163  1  0.55828322  0.62159479  0.36067923  1
  O  O164  1  0.25779322  0.88185202  0.35677852  1
  O  O165  1  0.76075494  0.89689736  0.35922790  1
  O  O166  1  0.17791186  0.47632957  0.36255383  1
  O  O167  1  0.68386252  0.49073235  0.35891972  1
  O  O168  1  0.05906005  0.49695893  0.86093760  1
  O  O169  1  0.56226036  0.47949948  0.85575959  1
  O  O170  1  0.18969529  0.88605904  0.85983611  1
  O  O171  1  0.67535224  0.87882154  0.86226054  1
  O  O172  1  0.26515939  0.63969629  0.86279477  1
  O  O173  1  0.75705286  0.63274756  0.85674015  1
  O  O174  1  0.01184645  0.84308897  0.41245888  1
  O  O175  1  0.50856491  0.83093410  0.41171753  1
  O  O176  1  0.41093395  0.00296688  0.41034414  1
  O  O177  1  0.91588269  0.99285917  0.41067373  1
  O  O178  1  0.09198520  0.20697259  0.41293657  1
  O  O179  1  0.58148948  0.17623351  0.40607119  1
  O  O180  1  0.00850728  0.18520549  0.91164767  1
  O  O181  1  0.50498923  0.17130339  0.91307999  1
  O  O182  1  0.08245089  0.98700660  0.90668643  1
  O  O183  1  0.58839769  0.97590765  0.91321488  1
  O  O184  1  0.40392821  0.81741338  0.90998929  1
  O  O185  1  0.91099136  0.81795980  0.91027456  1
  O  O186  1  0.48958886  0.17085590  0.58726464  1
  O  O187  1  0.99141808  0.16572438  0.58284717  1
  O  O188  1  0.09128215  0.02167154  0.58982641  1
  O  O189  1  0.59463785  0.02768794  0.58719317  1
  O  O190  1  0.42340415  0.82932973  0.58624866  1
  O  O191  1  0.92432972  0.81732065  0.58745205  1
  O  O192  1  0.48962879  0.81566453  0.08260013  1
  O  O193  1  0.98972280  0.80680325  0.08643235  1
  O  O194  1  0.42507013  0.02899038  0.08850245  1
  O  O195  1  0.92386380  0.01705970  0.08616786  1
  O  O196  1  0.09900798  0.16686159  0.08405782  1
  O  O197  1  0.59118301  0.16116785  0.08913709  1
  O  O198  1  0.34247192  0.15732808  0.75284390  1
  O  O199  1  0.84206718  0.15604222  0.75064455  1
  O  O200  1  0.23522246  0.32014953  0.75412610  1
  O  O201  1  0.73930199  0.31797437  0.74864491  1
  O  O202  1  0.42472324  0.52933990  0.75177330  1
  O  O203  1  0.93012468  0.54568984  0.74996411  1
  O  O204  1  0.34237827  0.52926194  0.25020358  1
  O  O205  1  0.84103796  0.52387230  0.25104622  1
  O  O206  1  0.42849945  0.31076446  0.24879252  1
  O  O207  1  0.92563289  0.32422252  0.25021507  1
  O  O208  1  0.23662603  0.16122959  0.25024380  1
  O  O209  1  0.73432743  0.14847263  0.25275616  1
  O  O210  1  0.32312846  0.50863116  0.91969322  1
  O  O211  1  0.82575739  0.49513899  0.92466302  1
  O  O212  1  0.42429829  0.34026688  0.91781395  1
  O  O213  1  0.92259898  0.36264162  0.92069466  1
  O  O214  1  0.25143595  0.16638963  0.92262246  1
  O  O215  1  0.74179446  0.12869563  0.91883526  1
  O  O216  1  0.32487220  0.15481752  0.42500114  1
  O  O217  1  0.82141318  0.15687130  0.42231073  1
  O  O218  1  0.24485710  0.36073402  0.41897392  1
  O  O219  1  0.75080782  0.34810026  0.42163941  1
  O  O220  1  0.42126196  0.48083067  0.42019146  1
  O  O221  1  0.92626687  0.51449060  0.41678646  1
  O  O222  1  0.17023620  0.47182305  0.07673161  1
  O  O223  1  0.66972417  0.49399451  0.07440455  1
  O  O224  1  0.06566880  0.65346115  0.07955963  1
  O  O225  1  0.57906938  0.66369567  0.06690055  1
  O  O226  1  0.25599944  0.83575759  0.08126459  1
  O  O227  1  0.75198217  0.84661713  0.06993160  1
  O  O228  1  0.17104331  0.84692247  0.57461548  1
  O  O229  1  0.66524202  0.86321211  0.57922782  1
  O  O230  1  0.25239005  0.65848583  0.57097211  1
  O  O231  1  0.75302562  0.66321566  0.58307523  1
  O  O232  1  0.08108037  0.49737399  0.56890796  1
  O  O233  1  0.56599302  0.47675381  0.58001320  1
  O  O234  1  0.14671568  0.82315180  0.25127503  1
  O  O235  1  0.64295272  0.80916355  0.25759503  1
  O  O236  1  0.25951874  0.70051768  0.25622303  1
  O  O237  1  0.75392961  0.69197380  0.25691870  1
  O  O238  1  0.09569923  0.48108939  0.25849594  1
  O  O239  1  0.58117468  0.45897777  0.25464859  1
  O  O240  1  0.14520087  0.47753608  0.75984343  1
  O  O241  1  0.64747894  0.47350406  0.75051551  1
  O  O242  1  0.08304146  0.70389555  0.75555717  1
  O  O243  1  0.59416778  0.71099089  0.76060565  1
  O  O244  1  0.25554465  0.81363699  0.75805047  1
  O  O245  1  0.75936594  0.81999167  0.75683659  1
