# generated using pymatgen
data_RbMgNbO3
_symmetry_space_group_name_H-M   'P 1'
_cell_length_a   5.22033602
_cell_length_b   5.22000418
_cell_length_c   5.22000418
_cell_angle_alpha   103.79267523
_cell_angle_beta   103.76559100
_cell_angle_gamma   76.23440900
_symmetry_Int_Tables_number   1
_chemical_formula_structural   RbMgNbO3
_chemical_formula_sum   'Rb1 Mg1 Nb1 O3'
_cell_volume   131.67696178
_cell_formula_units_Z   1
loop_
 _symmetry_equiv_pos_site_id
 _symmetry_equiv_pos_as_xyz
  1  'x, y, z'
loop_
 _atom_site_type_symbol
 _atom_site_label
 _atom_site_symmetry_multiplicity
 _atom_site_fract_x
 _atom_site_fract_y
 _atom_site_fract_z
 _atom_site_occupancy
  Rb  Rb0  1  0.49992960  0.50451106  0.49548894  1
  Mg  Mg1  1  0.16691819  0.16987414  0.83012586  1
  Nb  Nb2  1  0.90484652  0.90738303  0.09261697  1
  O  O3  1  0.55777216  0.06159632  0.93840368  1
  O  O4  1  0.06026676  0.56103234  0.93772990  1
  O  O5  1  0.06026676  0.06227010  0.43896766  1
