# generated using pymatgen
data_YNb3(PO4)6
_symmetry_space_group_name_H-M   'P 1'
_cell_length_a   8.91915485
_cell_length_b   8.91915456
_cell_length_c   22.90951848
_cell_angle_alpha   90.00000000
_cell_angle_beta   90.00000000
_cell_angle_gamma   120.00000112
_symmetry_Int_Tables_number   1
_chemical_formula_structural   YNb3(PO4)6
_chemical_formula_sum   'Y3 Nb9 P18 O72'
_cell_volume   1578.31608192
_cell_formula_units_Z   3
loop_
 _symmetry_equiv_pos_site_id
 _symmetry_equiv_pos_as_xyz
  1  'x, y, z'
loop_
 _atom_site_type_symbol
 _atom_site_label
 _atom_site_symmetry_multiplicity
 _atom_site_fract_x
 _atom_site_fract_y
 _atom_site_fract_z
 _atom_site_occupancy
  Y  Y0  1  0.00000000  -0.00000000  0.36618791  1
  Y  Y1  1  0.66666700  0.33333300  0.69402206  1
  Y  Y2  1  0.66666700  0.33333300  0.18921411  1
  Nb  Nb3  1  0.00000000  -0.00000000  0.85951307  1
  Nb  Nb4  1  0.00000000  -0.00000000  0.64100172  1
  Nb  Nb5  1  0.00000000  -0.00000000  0.14717351  1
  Nb  Nb6  1  0.66666700  0.33333300  0.97924354  1
  Nb  Nb7  1  0.66666700  0.33333300  0.47671393  1
  Nb  Nb8  1  0.33333300  0.66666700  0.02043252  1
  Nb  Nb9  1  0.33333300  0.66666700  0.52360412  1
  Nb  Nb10  1  0.33333300  0.66666700  0.30711156  1
  Nb  Nb11  1  0.33333300  0.66666700  0.80818367  1
  P  P12  1  0.27655343  0.98691879  0.25152810  1
  P  P13  1  0.71036536  0.72344657  0.25152810  1
  P  P14  1  0.01308121  0.28963464  0.25152810  1
  P  P15  1  0.26876273  0.28161623  0.75173334  1
  P  P16  1  0.01285349  0.73123727  0.75173334  1
  P  P17  1  0.71838377  0.98714651  0.75173334  1
  P  P18  1  0.95257576  0.33111329  0.58297165  1
  P  P19  1  0.37853854  0.04742424  0.58297165  1
  P  P20  1  0.66888671  0.62146146  0.58297165  1
  P  P21  1  0.95735703  0.62827947  0.08085262  1
  P  P22  1  0.67092344  0.04264297  0.08085262  1
  P  P23  1  0.37172053  0.32907656  0.08085262  1
  P  P24  1  0.61391553  0.66051012  0.91522362  1
  P  P25  1  0.04659358  0.38608447  0.91522362  1
  P  P26  1  0.33948988  0.95340642  0.91522362  1
  P  P27  1  0.60048514  0.95315672  0.41761145  1
  P  P28  1  0.35267058  0.39951486  0.41761145  1
  P  P29  1  0.04684328  0.64732942  0.41761145  1
  O  O30  1  0.19727649  0.01311261  0.30528009  1
  O  O31  1  0.81583612  0.80272351  0.30528009  1
  O  O32  1  0.98688739  0.18416388  0.30528009  1
  O  O33  1  0.17679224  0.17446850  0.80740144  1
  O  O34  1  0.99767626  0.82320776  0.80740144  1
  O  O35  1  0.82553150  0.00232374  0.80740144  1
  O  O36  1  0.80238842  0.95965552  0.69686575  1
  O  O37  1  0.15726709  0.19761158  0.69686575  1
  O  O38  1  0.04034448  0.84273291  0.69686575  1
  O  O39  1  0.80354039  0.84072985  0.19531433  1
  O  O40  1  0.03718946  0.19645961  0.19531433  1
  O  O41  1  0.15927015  0.96281054  0.19531433  1
  O  O42  1  0.88701656  0.37351555  0.63731126  1
  O  O43  1  0.48649999  0.11298344  0.63731126  1
  O  O44  1  0.62648445  0.51350001  0.63731126  1
  O  O45  1  0.89569034  0.51410243  0.13329576  1
  O  O46  1  0.61841308  0.10430966  0.13329576  1
  O  O47  1  0.48589757  0.38158692  0.13329576  1
  O  O48  1  0.46773315  0.30170592  0.02709266  1
  O  O49  1  0.83397377  0.53226685  0.02709266  1
  O  O50  1  0.69829408  0.16602623  0.02709266  1
  O  O51  1  0.46461837  0.16946361  0.53019390  1
  O  O52  1  0.70484624  0.53538163  0.53019390  1
  O  O53  1  0.83053639  0.29515376  0.53019390  1
  O  O54  1  0.53075758  0.69661362  0.96779300  1
  O  O55  1  0.16585504  0.46924242  0.96779300  1
  O  O56  1  0.30338638  0.83414496  0.96779300  1
  O  O57  1  0.50526917  0.84524352  0.47242833  1
  O  O58  1  0.33997335  0.49473083  0.47242833  1
  O  O59  1  0.15475648  0.66002665  0.47242833  1
  O  O60  1  0.13135365  0.62222463  0.36237525  1
  O  O61  1  0.49086998  0.86864635  0.36237525  1
  O  O62  1  0.37777537  0.50913002  0.36237525  1
  O  O63  1  0.13086340  0.50274339  0.86136500  1
  O  O64  1  0.37187899  0.86913660  0.86136500  1
  O  O65  1  0.49725661  0.62812101  0.86136500  1
  O  O66  1  0.02588679  0.80350375  0.41700023  1
  O  O67  1  0.77761696  0.97411321  0.41700023  1
  O  O68  1  0.19649625  0.22238304  0.41700023  1
  O  O69  1  0.02392981  0.20313592  0.90617033  1
  O  O70  1  0.17920611  0.97607019  0.90617033  1
  O  O71  1  0.79686408  0.82079389  0.90617033  1
  O  O72  1  0.96695962  0.16367655  0.59329117  1
  O  O73  1  0.19671694  0.03304038  0.59329117  1
  O  O74  1  0.83632345  0.80328306  0.59329117  1
  O  O75  1  0.97236011  0.80650977  0.08916169  1
  O  O76  1  0.83414966  0.02763989  0.08916169  1
  O  O77  1  0.19349023  0.16585034  0.08916169  1
  O  O78  1  0.69857213  0.14373185  0.74826913  1
  O  O79  1  0.44516072  0.30142787  0.74826913  1
  O  O80  1  0.85626815  0.55483928  0.74826913  1
  O  O81  1  0.67317527  0.54322630  0.23900107  1
  O  O82  1  0.87005203  0.32682473  0.23900107  1
  O  O83  1  0.45677370  0.12994797  0.23900107  1
  O  O84  1  0.63378250  0.50079908  0.92692770  1
  O  O85  1  0.86701758  0.36621750  0.92692770  1
  O  O86  1  0.49920092  0.13298242  0.92692770  1
  O  O87  1  0.61111055  0.13216817  0.42761652  1
  O  O88  1  0.52105862  0.38888945  0.42761652  1
  O  O89  1  0.86783183  0.47894138  0.42761652  1
  O  O90  1  0.34324983  0.48329331  0.06291329  1
  O  O91  1  0.14004249  0.65675017  0.06291329  1
  O  O92  1  0.51670669  0.85995751  0.06291329  1
  O  O93  1  0.33768462  0.86052772  0.56929867  1
  O  O94  1  0.52284210  0.66231538  0.56929867  1
  O  O95  1  0.13947228  0.47715790  0.56929867  1
  O  O96  1  0.27733247  0.81118835  0.25812052  1
  O  O97  1  0.53385488  0.72266753  0.25812052  1
  O  O98  1  0.18881165  0.46614512  0.25812052  1
  O  O99  1  0.27923084  0.46133544  0.76145823  1
  O  O100  1  0.18210360  0.72076916  0.76145823  1
  O  O101  1  0.53866456  0.81789640  0.76145823  1
