# generated using pymatgen
data_V5(PbO6)2
_symmetry_space_group_name_H-M   'P 1'
_cell_length_a   5.14992428
_cell_length_b   8.35040046
_cell_length_c   11.85708499
_cell_angle_alpha   81.36957750
_cell_angle_beta   90.00000000
_cell_angle_gamma   90.00000000
_symmetry_Int_Tables_number   1
_chemical_formula_structural   V5(PbO6)2
_chemical_formula_sum   'V10 Pb4 O24'
_cell_volume   504.12756145
_cell_formula_units_Z   2
loop_
 _symmetry_equiv_pos_site_id
 _symmetry_equiv_pos_as_xyz
  1  'x, y, z'
loop_
 _atom_site_type_symbol
 _atom_site_label
 _atom_site_symmetry_multiplicity
 _atom_site_fract_x
 _atom_site_fract_y
 _atom_site_fract_z
 _atom_site_occupancy
  V  V0  1  0.12481688  0.84784796  0.97343868  1
  V  V1  1  0.12481688  0.15215204  0.52656132  1
  V  V2  1  0.87518312  0.15215204  0.02656132  1
  V  V3  1  0.87518312  0.84784796  0.47343868  1
  V  V4  1  0.88794534  0.56413213  0.88318402  1
  V  V5  1  0.88794534  0.43586787  0.61681598  1
  V  V6  1  0.11205466  0.43586787  0.11681598  1
  V  V7  1  0.11205466  0.56413213  0.38318402  1
  V  V8  1  0.88403657  -0.00000000  0.75000000  1
  V  V9  1  0.11596343  -0.00000000  0.25000000  1
  Pb  Pb10  1  0.64736098  0.72023968  0.17788038  1
  Pb  Pb11  1  0.64736098  0.27976032  0.32211962  1
  Pb  Pb12  1  0.35263902  0.27976032  0.82211962  1
  Pb  Pb13  1  0.35263902  0.72023968  0.67788038  1
  O  O14  1  0.56651701  -0.00000000  0.75000000  1
  O  O15  1  0.43348299  -0.00000000  0.25000000  1
  O  O16  1  0.94659389  0.50000000  0.25000000  1
  O  O17  1  0.05340611  0.50000000  0.75000000  1
  O  O18  1  0.98378542  0.93878862  0.10556634  1
  O  O19  1  0.98378542  0.06121138  0.39443366  1
  O  O20  1  0.01621458  0.06121138  0.89443366  1
  O  O21  1  0.01621458  0.93878862  0.60556634  1
  O  O22  1  0.42802864  0.45441818  0.13377659  1
  O  O23  1  0.42802864  0.54558182  0.36622341  1
  O  O24  1  0.57197136  0.54558182  0.86622341  1
  O  O25  1  0.57197136  0.45441818  0.63377659  1
  O  O26  1  0.99297624  0.78754594  0.32895525  1
  O  O27  1  0.99297624  0.21245406  0.17104475  1
  O  O28  1  0.56019820  0.83035869  0.48601268  1
  O  O29  1  0.56019820  0.16964131  0.01398732  1
  O  O30  1  0.43980180  0.16964131  0.51398732  1
  O  O31  1  0.43980180  0.83035869  0.98601268  1
  O  O32  1  0.03075285  0.63626953  0.53025745  1
  O  O33  1  0.03075285  0.36373047  0.96974255  1
  O  O34  1  0.96924715  0.36373047  0.46974255  1
  O  O35  1  0.96924715  0.63626953  0.03025745  1
  O  O36  1  0.00702376  0.78754594  0.82895525  1
  O  O37  1  0.00702376  0.21245406  0.67104475  1
