# generated using pymatgen
data_Sn2P2SO12
_symmetry_space_group_name_H-M   'P 1'
_cell_length_a   8.74378504
_cell_length_b   8.76605400
_cell_length_c   22.65366064
_cell_angle_alpha   89.74773808
_cell_angle_beta   90.00000000
_cell_angle_gamma   119.91600097
_symmetry_Int_Tables_number   1
_chemical_formula_structural   Sn2P2SO12
_chemical_formula_sum   'Sn12 P12 S6 O72'
_cell_volume   1504.99137506
_cell_formula_units_Z   6
loop_
 _symmetry_equiv_pos_site_id
 _symmetry_equiv_pos_as_xyz
  1  'x, y, z'
loop_
 _atom_site_type_symbol
 _atom_site_label
 _atom_site_symmetry_multiplicity
 _atom_site_fract_x
 _atom_site_fract_y
 _atom_site_fract_z
 _atom_site_occupancy
  Sn  Sn0  1  0.99952795  0.00034260  0.35409645  1
  Sn  Sn1  1  0.00081466  0.00034260  0.85409645  1
  Sn  Sn2  1  0.99361286  0.00379032  0.64586051  1
  Sn  Sn3  1  0.01017746  0.00379032  0.14586051  1
  Sn  Sn4  1  0.66619495  0.33367560  0.68742945  1
  Sn  Sn5  1  0.66748166  0.33367560  0.18742945  1
  Sn  Sn6  1  0.66027986  0.33712332  0.97919351  1
  Sn  Sn7  1  0.67684446  0.33712332  0.47919351  1
  Sn  Sn8  1  0.33286095  0.66700960  0.02076345  1
  Sn  Sn9  1  0.33414766  0.66700960  0.52076345  1
  Sn  Sn10  1  0.32694586  0.67045732  0.31252751  1
  Sn  Sn11  1  0.34351046  0.67045732  0.81252751  1
  P  P12  1  0.29123449  0.00167035  0.25033164  1
  P  P13  1  0.00047598  0.29013337  0.24990547  1
  P  P14  1  0.28965740  0.29013337  0.74990547  1
  P  P15  1  0.71043586  0.00167035  0.75033164  1
  P  P16  1  0.95790149  0.33500335  0.58366464  1
  P  P17  1  0.66714298  0.62346637  0.58323847  1
  P  P18  1  0.95632440  0.62346637  0.08323847  1
  P  P19  1  0.37710286  0.33500335  0.08366464  1
  P  P20  1  0.62456749  0.66833735  0.91699864  1
  P  P21  1  0.33380898  0.95680037  0.91657247  1
  P  P22  1  0.62299040  0.95680037  0.41657247  1
  P  P23  1  0.04376886  0.66833735  0.41699864  1
  S  S24  1  0.70814455  0.70957534  0.24984143  1
  S  S25  1  0.00143079  0.70957534  0.74984143  1
  S  S26  1  0.37481155  0.04290834  0.58317443  1
  S  S27  1  0.66809779  0.04290834  0.08317443  1
  S  S28  1  0.04147755  0.37624234  0.91650843  1
  S  S29  1  0.33476379  0.37624234  0.41650843  1
  O  O30  1  0.20940334  0.03558588  0.30547018  1
  O  O31  1  0.81901611  0.78472010  0.30292890  1
  O  O32  1  0.96456769  0.17360922  0.30538684  1
  O  O33  1  0.20904153  0.17360922  0.80538684  1
  O  O34  1  0.96570399  0.78472010  0.80292890  1
  O  O35  1  0.82618254  0.03558588  0.80547018  1
  O  O36  1  0.78835059  0.96288557  0.69540316  1
  O  O37  1  0.17496364  0.20768925  0.69456924  1
  O  O38  1  0.03523389  0.82035313  0.69651149  1
  O  O39  1  0.78511924  0.82035313  0.19651149  1
  O  O40  1  0.03272561  0.20768925  0.19456924  1
  O  O41  1  0.17453497  0.96288557  0.19540316  1
  O  O42  1  0.87607034  0.36891888  0.63880318  1
  O  O43  1  0.48568311  0.11805310  0.63626190  1
  O  O44  1  0.63123469  0.50694222  0.63871984  1
  O  O45  1  0.87570853  0.50694222  0.13871984  1
  O  O46  1  0.63237099  0.11805310  0.13626190  1
  O  O47  1  0.49284954  0.36891888  0.13880318  1
  O  O48  1  0.45501759  0.29621857  0.02873616  1
  O  O49  1  0.84163064  0.54102225  0.02790224  1
  O  O50  1  0.70190089  0.15368613  0.02984449  1
  O  O51  1  0.45178624  0.15368613  0.52984449  1
  O  O52  1  0.69939261  0.54102225  0.52790224  1
  O  O53  1  0.84120197  0.29621857  0.52873616  1
  O  O54  1  0.54273634  0.70225288  0.97213718  1
  O  O55  1  0.15234911  0.45138710  0.96959590  1
  O  O56  1  0.29790069  0.84027622  0.97205384  1
  O  O57  1  0.54237453  0.84027622  0.47205384  1
  O  O58  1  0.29903699  0.45138710  0.46959590  1
  O  O59  1  0.15951554  0.70225288  0.47213718  1
  O  O60  1  0.12168359  0.62955257  0.36207016  1
  O  O61  1  0.50829664  0.87435625  0.36123624  1
  O  O62  1  0.36856689  0.48702013  0.36317849  1
  O  O63  1  0.11845224  0.48702013  0.86317849  1
  O  O64  1  0.36605861  0.87435625  0.86123624  1
  O  O65  1  0.50786797  0.62955257  0.86207016  1
  O  O66  1  0.02486293  0.83194316  0.40835985  1
  O  O67  1  0.80615773  0.97564618  0.40850108  1
  O  O68  1  0.17620444  0.20132533  0.40980694  1
  O  O69  1  0.02512089  0.20132533  0.90980694  1
  O  O70  1  0.16948845  0.97564618  0.90850108  1
  O  O71  1  0.80708023  0.83194316  0.90835985  1
  O  O72  1  0.97725947  0.17151429  0.59048238  1
  O  O73  1  0.19969859  0.02411185  0.59089193  1
  O  O74  1  0.83269166  0.80510406  0.59165252  1
  O  O75  1  0.97241239  0.80510406  0.09165252  1
  O  O76  1  0.82441326  0.02411185  0.09089193  1
  O  O77  1  0.19425481  0.17151429  0.09048238  1
  O  O78  1  0.69152993  0.16527616  0.74169285  1
  O  O79  1  0.47282473  0.30897918  0.74183408  1
  O  O80  1  0.84287144  0.53465833  0.74313994  1
  O  O81  1  0.69178789  0.53465833  0.24313994  1
  O  O82  1  0.83615545  0.30897918  0.24183408  1
  O  O83  1  0.47374723  0.16527616  0.24169285  1
  O  O84  1  0.64392647  0.50484729  0.92381538  1
  O  O85  1  0.86636559  0.35744485  0.92422493  1
  O  O86  1  0.49935866  0.13843706  0.92498552  1
  O  O87  1  0.63907939  0.13843706  0.42498552  1
  O  O88  1  0.49108026  0.35744485  0.42422493  1
  O  O89  1  0.86092181  0.50484729  0.42381538  1
  O  O90  1  0.35819593  0.49861016  0.07502685  1
  O  O91  1  0.13949073  0.64231318  0.07516808  1
  O  O92  1  0.50953744  0.86799233  0.07647394  1
  O  O93  1  0.35845389  0.86799233  0.57647394  1
  O  O94  1  0.50282145  0.64231318  0.57516808  1
  O  O95  1  0.14041323  0.49861016  0.57502685  1
  O  O96  1  0.31059247  0.83818129  0.25714938  1
  O  O97  1  0.53303159  0.69077885  0.25755893  1
  O  O98  1  0.16602466  0.47177106  0.25831952  1
  O  O99  1  0.30574539  0.47177106  0.75831952  1
  O  O100  1  0.15774626  0.69077885  0.75755893  1
  O  O101  1  0.52758781  0.83818129  0.75714938  1
