# generated using pymatgen
data_NaLa2Ti2P3(SO8)3
_symmetry_space_group_name_H-M   'P 1'
_cell_length_a   9.04441700
_cell_length_b   9.03956519
_cell_length_c   23.52278213
_cell_angle_alpha   90.38954900
_cell_angle_beta   90.08542287
_cell_angle_gamma   120.19946428
_symmetry_Int_Tables_number   1
_chemical_formula_structural   NaLa2Ti2P3(SO8)3
_chemical_formula_sum   'Na3 La6 Ti6 P9 S9 O72'
_cell_volume   1662.08783423
_cell_formula_units_Z   3
loop_
 _symmetry_equiv_pos_site_id
 _symmetry_equiv_pos_as_xyz
  1  'x, y, z'
loop_
 _atom_site_type_symbol
 _atom_site_label
 _atom_site_symmetry_multiplicity
 _atom_site_fract_x
 _atom_site_fract_y
 _atom_site_fract_z
 _atom_site_occupancy
  Na  Na0  1  0.68215263  0.33570059  0.83585606  1
  Na  Na1  1  0.66250509  0.34332595  0.33218953  1
  Na  Na2  1  0.34981821  0.68219436  0.16313897  1
  La  La3  1  0.67451671  0.33530104  0.68590164  1
  La  La4  1  0.65251888  0.32738914  0.18413026  1
  La  La5  1  0.66395679  0.32075174  0.99004960  1
  La  La6  1  0.66238732  0.33528292  0.48776137  1
  La  La7  1  0.33830509  0.67038117  0.30535799  1
  La  La8  1  0.33021590  0.67020105  0.80025615  1
  Ti  Ti9  1  0.01149393  0.99044387  0.35634386  1
  Ti  Ti10  1  0.99148917  0.00058487  0.85878516  1
  Ti  Ti11  1  0.99255841  0.99034740  0.65059960  1
  Ti  Ti12  1  0.99622106  0.99800643  0.14677471  1
  Ti  Ti13  1  0.33029242  0.64877412  0.01750105  1
  Ti  Ti14  1  0.31883738  0.65475879  0.50939664  1
  P  P15  1  0.27081654  0.00527604  0.24934465  1
  P  P16  1  0.74002493  0.73133497  0.25070560  1
  P  P17  1  0.98550730  0.73084812  0.75314392  1
  P  P18  1  0.74205461  0.01232222  0.75195459  1
  P  P19  1  0.65986673  0.00430141  0.08395248  1
  P  P20  1  0.34284715  0.32953309  0.08396500  1
  P  P21  1  0.05036909  0.37030437  0.91474656  1
  P  P22  1  0.31417703  0.36326448  0.41425380  1
  P  P23  1  0.04470522  0.67580326  0.41487727  1
  S  S24  1  0.99292955  0.26454647  0.24985418  1
  S  S25  1  0.27074020  0.25717268  0.75107386  1
  S  S26  1  0.99325958  0.33487953  0.58273865  1
  S  S27  1  0.34121048  0.00517714  0.58402904  1
  S  S28  1  0.66124445  0.65603070  0.58382294  1
  S  S29  1  0.99289611  0.65444742  0.08357706  1
  S  S30  1  0.63280076  0.67947122  0.91629167  1
  S  S31  1  0.31482647  0.95243652  0.91597644  1
  S  S32  1  0.63527583  0.95154527  0.41840462  1
  O  O33  1  0.17674696  0.00242393  0.30651176  1
  O  O34  1  0.83256411  0.83082760  0.30678778  1
  O  O35  1  0.99835399  0.17806630  0.30219175  1
  O  O36  1  0.18451117  0.16843993  0.80368554  1
  O  O37  1  0.98456808  0.82805931  0.80727536  1
  O  O38  1  0.84069245  0.02149093  0.80773659  1
  O  O39  1  0.84252818  0.01956378  0.69689320  1
  O  O40  1  0.18217898  0.16499681  0.69766177  1
  O  O41  1  0.98081576  0.82199023  0.69659392  1
  O  O42  1  0.84164999  0.82601660  0.19666205  1
  O  O43  1  0.98475455  0.17078672  0.19646998  1
  O  O44  1  0.17707375  0.01843776  0.19633909  1
  O  O45  1  0.92218070  0.38355437  0.63185019  1
  O  O46  1  0.46197106  0.08343212  0.63303356  1
  O  O47  1  0.62063910  0.53853959  0.63271630  1
  O  O48  1  0.91995593  0.53831987  0.13271013  1
  O  O49  1  0.60657942  0.07606258  0.13459812  1
  O  O50  1  0.46772082  0.39047650  0.13477772  1
  O  O51  1  0.41454321  0.28471388  0.03279841  1
  O  O52  1  0.88197484  0.58557027  0.03350434  1
  O  O53  1  0.71297544  0.12486796  0.03328268  1
  O  O54  1  0.40815075  0.12359805  0.53524793  1
  O  O55  1  0.71550237  0.59144271  0.53508514  1
  O  O56  1  0.87450080  0.28377255  0.53426321  1
  O  O57  1  0.54418990  0.69672713  0.96743302  1
  O  O58  1  0.16894183  0.47196020  0.96774222  1
  O  O59  1  0.30035422  0.85055129  0.96675439  1
  O  O60  1  0.53438584  0.83968615  0.46804671  1
  O  O61  1  0.29807420  0.47028687  0.46681123  1
  O  O62  1  0.16417032  0.69150994  0.46795334  1
  O  O63  1  0.12026795  0.64425024  0.36204772  1
  O  O64  1  0.53417267  0.88635816  0.36604913  1
  O  O65  1  0.35424340  0.47365358  0.36178933  1
  O  O66  1  0.12951405  0.47756124  0.86194972  1
  O  O67  1  0.34642860  0.87991747  0.86414966  1
  O  O68  1  0.52997050  0.65051873  0.86452458  1
  O  O69  1  0.04201966  0.84664455  0.40898523  1
  O  O70  1  0.80051685  0.95564228  0.41371141  1
  O  O71  1  0.14563145  0.19028350  0.40630207  1
  O  O72  1  0.04239222  0.19349840  0.90644630  1
  O  O73  1  0.15499423  0.96151398  0.90859031  1
  O  O74  1  0.80138474  0.84279403  0.91041308  1
  O  O75  1  0.02341629  0.19304088  0.59804836  1
  O  O76  1  0.17018815  0.98103321  0.59942765  1
  O  O77  1  0.80998329  0.82944062  0.59889948  1
  O  O78  1  0.02038609  0.82760735  0.09709850  1
  O  O79  1  0.80971366  0.97521238  0.10131748  1
  O  O80  1  0.16356298  0.18270610  0.10028201  1
  O  O81  1  0.72416018  0.17297822  0.75182981  1
  O  O82  1  0.44304239  0.27481910  0.75118920  1
  O  O83  1  0.82305710  0.55325664  0.75338230  1
  O  O84  1  0.72611216  0.55490849  0.25265485  1
  O  O85  1  0.83840697  0.28212341  0.25159405  1
  O  O86  1  0.44865855  0.16711915  0.25402858  1
  O  O87  1  0.66632718  0.53581685  0.92299284  1
  O  O88  1  0.86881121  0.33766418  0.92399823  1
  O  O89  1  0.46207258  0.13185743  0.92081714  1
  O  O90  1  0.66455971  0.12654558  0.42728012  1
  O  O91  1  0.46294335  0.33293976  0.42713017  1
  O  O92  1  0.86394286  0.52827420  0.42542108  1
  O  O93  1  0.31994220  0.48836985  0.06809654  1
  O  O94  1  0.16674448  0.67689945  0.07145569  1
  O  O95  1  0.50372331  0.82526012  0.06648969  1
  O  O96  1  0.32302472  0.83766106  0.56888651  1
  O  O97  1  0.51338890  0.67603237  0.56881470  1
  O  O98  1  0.16163463  0.48870390  0.56749384  1
  O  O99  1  0.27811160  0.84030450  0.24354571  1
  O  O100  1  0.56590091  0.72187889  0.24522912  1
  O  O101  1  0.15029219  0.43451784  0.24470402  1
  O  O102  1  0.28203346  0.42519751  0.74794508  1
  O  O103  1  0.15054779  0.72588648  0.74894121  1
  O  O104  1  0.57437208  0.84433105  0.74920816  1
