# generated using pymatgen
data_Ba2HoMgSbO6
_symmetry_space_group_name_H-M   'P 1'
_cell_length_a   7.42000914
_cell_length_b   7.41818915
_cell_length_c   7.41818930
_cell_angle_alpha   49.67484292
_cell_angle_beta   49.66794448
_cell_angle_gamma   49.66794249
_symmetry_Int_Tables_number   1
_chemical_formula_structural   Ba2HoMgSbO6
_chemical_formula_sum   'Ba2 Ho1 Mg1 Sb1 O6'
_cell_volume   218.21178362
_cell_formula_units_Z   1
loop_
 _symmetry_equiv_pos_site_id
 _symmetry_equiv_pos_as_xyz
  1  'x, y, z'
loop_
 _atom_site_type_symbol
 _atom_site_label
 _atom_site_symmetry_multiplicity
 _atom_site_fract_x
 _atom_site_fract_y
 _atom_site_fract_z
 _atom_site_occupancy
  Ba  Ba0  1  0.82655387  0.82569472  0.82569472  1
  Ba  Ba1  1  0.27850880  0.27738108  0.27738108  1
  Ho  Ho2  1  0.00398821  0.00360821  0.00360821  1
  Mg  Mg3  1  0.59844848  0.59758273  0.59758273  1
  Sb  Sb4  1  0.44999947  0.44991920  0.44991920  1
  O  O5  1  0.24102518  0.76971093  0.76971093  1
  O  O6  1  0.24237804  0.71037078  0.24333887  1
  O  O7  1  0.77028213  0.24012972  0.76969368  1
  O  O8  1  0.24237804  0.24333887  0.71037079  1
  O  O9  1  0.70896765  0.24277809  0.24277809  1
  O  O10  1  0.77028213  0.76969368  0.24012972  1
