# generated using pymatgen
data_Fe(IO3)3
_symmetry_space_group_name_H-M   'P 1'
_cell_length_a   9.24770281
_cell_length_b   9.24771658
_cell_length_c   5.20073898
_cell_angle_alpha   90.00217936
_cell_angle_beta   90.00223740
_cell_angle_gamma   120.00111650
_symmetry_Int_Tables_number   1
_chemical_formula_structural   Fe(IO3)3
_chemical_formula_sum   'Fe2 I6 O18'
_cell_volume   385.17596368
_cell_formula_units_Z   2
loop_
 _symmetry_equiv_pos_site_id
 _symmetry_equiv_pos_as_xyz
  1  'x, y, z'
loop_
 _atom_site_type_symbol
 _atom_site_label
 _atom_site_symmetry_multiplicity
 _atom_site_fract_x
 _atom_site_fract_y
 _atom_site_fract_z
 _atom_site_occupancy
  Fe  Fe0  1  0.33332877  0.66667763  0.63159399  1
  Fe  Fe1  1  0.66666400  0.33330111  0.13164122  1
  I  I2  1  0.33606100  0.31436905  0.49739931  1
  I  I3  1  0.97831875  0.66396208  0.49746262  1
  I  I4  1  0.02173296  0.33608825  -0.00259602  1
  I  I5  1  0.31434505  0.97831928  -0.00267549  1
  I  I6  1  0.66392771  0.68560429  -0.00267436  1
  I  I7  1  0.68565363  0.02168297  0.49742296  1
  O  O8  1  0.81171744  0.28783706  0.90092412  1
  O  O9  1  0.52387176  0.81168952  0.40085886  1
  O  O10  1  0.28779646  0.47614582  0.40083141  1
  O  O11  1  0.71216706  0.52385888  0.90084392  1
  O  O12  1  0.47613732  0.18829880  0.90085993  1
  O  O13  1  0.18833394  0.71218853  0.40087637  1
  O  O14  1  0.41992457  0.87352380  0.84960038  1
  O  O15  1  0.54636659  0.41990701  0.34964043  1
  O  O16  1  0.82847762  0.05188161  0.24394859  1
  O  O17  1  0.77657375  0.82846897  0.74384453  1
  O  O18  1  0.05189241  0.22343184  0.74391346  1
  O  O19  1  0.94807601  0.77655796  0.24397608  1
  O  O20  1  0.22342647  0.17154979  0.24387043  1
  O  O21  1  0.87354382  0.45363204  0.34969716  1
  O  O22  1  0.58010817  0.12645399  0.34968771  1
  O  O23  1  0.45355321  0.58001621  0.84959556  1
  O  O24  1  0.12645714  0.54639862  0.84965074  1
  O  O25  1  0.17154341  0.94815588  0.74379908  1
