# generated using pymatgen
data_MgFe3(OF)3
_symmetry_space_group_name_H-M   'P 1'
_cell_length_a   5.36311764
_cell_length_b   6.13565725
_cell_length_c   5.35844783
_cell_angle_alpha   116.80366237
_cell_angle_beta   59.92700222
_cell_angle_gamma   117.54247494
_symmetry_Int_Tables_number   1
_chemical_formula_structural   MgFe3(OF)3
_chemical_formula_sum   'Mg1 Fe3 O3 F3'
_cell_volume   129.65800834
_cell_formula_units_Z   1
loop_
 _symmetry_equiv_pos_site_id
 _symmetry_equiv_pos_as_xyz
  1  'x, y, z'
loop_
 _atom_site_type_symbol
 _atom_site_label
 _atom_site_symmetry_multiplicity
 _atom_site_fract_x
 _atom_site_fract_y
 _atom_site_fract_z
 _atom_site_occupancy
  Mg  Mg0  1  0.30123210  0.89941529  0.30015343  1
  Fe  Fe1  1  0.06429843  0.18296925  0.06278756  1
  Fe  Fe2  1  0.47523509  0.43129119  0.47696807  1
  Fe  Fe3  1  0.66989059  0.02195934  0.67683537  1
  O  O4  1  0.07471540  0.16632695  0.41442486  1
  O  O5  1  0.41274452  0.16398057  0.68434996  1
  O  O6  1  0.68700314  0.16524845  0.07262177  1
  F  F7  1  0.30838196  0.72044329  0.87940839  1
  F  F8  1  0.52720837  0.72083260  0.30960572  1
  F  F9  1  0.87809042  0.71202707  0.52164389  1
