# generated using pymatgen
data_Na6Mg4Ta8Si9(SO8)9
_symmetry_space_group_name_H-M   'P 1'
_cell_length_a   8.82427842
_cell_length_b   8.82501198
_cell_length_c   22.80716152
_cell_angle_alpha   90.07820055
_cell_angle_beta   90.08311133
_cell_angle_gamma   119.82156640
_symmetry_Int_Tables_number   1
_chemical_formula_structural   Na6Mg4Ta8Si9(SO8)9
_chemical_formula_sum   'Na6 Mg4 Ta8 Si9 S9 O72'
_cell_volume   1540.89386799
_cell_formula_units_Z   1
loop_
 _symmetry_equiv_pos_site_id
 _symmetry_equiv_pos_as_xyz
  1  'x, y, z'
loop_
 _atom_site_type_symbol
 _atom_site_label
 _atom_site_symmetry_multiplicity
 _atom_site_fract_x
 _atom_site_fract_y
 _atom_site_fract_z
 _atom_site_occupancy
  Na  Na0  1  -0.00166378  -0.00037849  0.49093299  1
  Na  Na1  1  0.98739046  0.00704928  0.99848081  1
  Na  Na2  1  0.68553505  0.33970461  0.81851971  1
  Na  Na3  1  0.66428925  0.31592511  0.32034558  1
  Na  Na4  1  0.32706243  0.66600179  0.17168970  1
  Na  Na5  1  0.33134758  0.67546358  0.65808894  1
  Mg  Mg6  1  0.67806532  0.33696359  0.68941116  1
  Mg  Mg7  1  0.66502090  0.32363690  0.19206219  1
  Mg  Mg8  1  0.33752902  0.65905896  0.01835220  1
  Mg  Mg9  1  0.33196791  0.67126002  0.51247716  1
  Ta  Ta10  1  0.01191954  0.01374813  0.35604427  1
  Ta  Ta11  1  0.98092770  0.98986950  0.85416103  1
  Ta  Ta12  1  0.98868063  0.98610046  0.64495183  1
  Ta  Ta13  1  0.00986082  0.00731097  0.14971347  1
  Ta  Ta14  1  0.67457315  0.33678812  0.97628471  1
  Ta  Ta15  1  0.66578806  0.32694552  0.47254174  1
  Ta  Ta16  1  0.32063548  0.66365002  0.31653058  1
  Ta  Ta17  1  0.33035431  0.65811056  0.81083328  1
  Si  Si18  1  0.29788360  0.00022305  0.25122100  1
  Si  Si19  1  0.00497297  0.30139954  0.25101002  1
  Si  Si20  1  0.99928285  0.70862127  0.74979114  1
  Si  Si21  1  0.70175426  -0.00078063  0.74885854  1
  Si  Si22  1  0.61427880  0.66607047  0.92112045  1
  Si  Si23  1  0.05596586  0.38038787  0.91978263  1
  Si  Si24  1  0.61689356  0.94004170  0.41957820  1
  Si  Si25  1  0.33305418  0.38910201  0.42115945  1
  Si  Si26  1  0.04948757  0.67431355  0.42168796  1
  S  S27  1  0.71145853  0.71457271  0.24796321  1
  S  S28  1  0.28246931  0.28373403  0.74922691  1
  S  S29  1  0.95862631  0.33547515  0.58556261  1
  S  S30  1  0.38056601  0.04949846  0.58683110  1
  S  S31  1  0.66085368  0.61497023  0.58583722  1
  S  S32  1  0.95480276  0.62386786  0.08359119  1
  S  S33  1  0.66284709  0.04046078  0.08414056  1
  S  S34  1  0.37870618  0.33016623  0.08488694  1
  S  S35  1  0.33397963  0.95364700  0.91770274  1
  O  O36  1  0.17783766  -0.00007649  0.30487316  1
  O  O37  1  0.81607433  0.79871241  0.30031927  1
  O  O38  1  0.98403192  0.17295649  0.30500436  1
  O  O39  1  0.19954808  0.18437806  0.80292320  1
  O  O40  1  0.00175716  0.82562582  0.80606619  1
  O  O41  1  0.82515783  0.01741688  0.80665701  1
  O  O42  1  0.80922398  0.97708183  0.69181060  1
  O  O43  1  0.17137808  0.20130148  0.69624448  1
  O  O44  1  0.03159413  0.83564523  0.69117149  1
  O  O45  1  0.80402328  0.82943508  0.19310759  1
  O  O46  1  0.02389306  0.19254256  0.19062110  1
  O  O47  1  0.16817605  0.96988015  0.19006438  1
  O  O48  1  0.86919979  0.34464801  0.63808413  1
  O  O49  1  0.47960229  0.14074628  0.63898276  1
  O  O50  1  0.65662845  0.52006338  0.63847818  1
  O  O51  1  0.86578424  0.52093717  0.13447934  1
  O  O52  1  0.65554662  0.13246931  0.13582840  1
  O  O53  1  0.47995621  0.34032645  0.13618803  1
  O  O54  1  0.46210891  0.30743772  0.02982894  1
  O  O55  1  0.84422845  0.52954084  0.02821577  1
  O  O56  1  0.68341394  0.14991205  0.02912103  1
  O  O57  1  0.46339245  0.15154325  0.53248778  1
  O  O58  1  0.68684619  0.53708647  0.53207190  1
  O  O59  1  0.85134858  0.30828797  0.53182047  1
  O  O60  1  0.55317693  0.71727356  0.97823227  1
  O  O61  1  0.15729467  0.45782876  0.97836360  1
  O  O62  1  0.30074779  0.85007303  0.97019068  1
  O  O63  1  0.55371151  0.83904996  0.47896753  1
  O  O64  1  0.29180506  0.45326964  0.47975879  1
  O  O65  1  0.15941359  0.72009204  0.47970503  1
  O  O66  1  0.12971476  0.62974548  0.36181485  1
  O  O67  1  0.49389211  0.86045117  0.36017938  1
  O  O68  1  0.36880250  0.50539548  0.36111089  1
  O  O69  1  0.13645704  0.50188479  0.86008882  1
  O  O70  1  0.36687107  0.87696548  0.86396154  1
  O  O71  1  0.49466147  0.63613996  0.86191218  1
  O  O72  1  0.00292129  0.82516666  0.40412949  1
  O  O73  1  0.81374661  0.98130976  0.40290974  1
  O  O74  1  0.17519269  0.18688799  0.40718846  1
  O  O75  1  0.03031813  0.18569368  0.90633394  1
  O  O76  1  0.18789337  0.98898517  0.90791366  1
  O  O77  1  0.81852575  0.82126233  0.90647677  1
  O  O78  1  0.97551106  0.16910523  0.58979217  1
  O  O79  1  0.19992766  0.03950326  0.59005502  1
  O  O80  1  0.83334459  0.79994580  0.58901223  1
  O  O81  1  0.95837651  0.79701376  0.08313345  1
  O  O82  1  0.82632825  0.02466641  0.08471691  1
  O  O83  1  0.19724589  0.16131174  0.08647947  1
  O  O84  1  0.67546852  0.16237611  0.74558729  1
  O  O85  1  0.45570772  0.30832615  0.74337022  1
  O  O86  1  0.82389181  0.52891476  0.74630359  1
  O  O87  1  0.69620898  0.54568760  0.23841082  1
  O  O88  1  0.84332439  0.32970164  0.24430568  1
  O  O89  1  0.47382023  0.17869567  0.24563598  1
  O  O90  1  0.63266648  0.48630998  0.92854889  1
  O  O91  1  0.84939828  0.34620773  0.92693809  1
  O  O92  1  0.49640981  0.13222391  0.92459520  1
  O  O93  1  0.63851765  0.14060299  0.42644923  1
  O  O94  1  0.50758291  0.36143981  0.42844418  1
  O  O95  1  0.85566405  0.49162845  0.42953604  1
  O  O96  1  0.35190867  0.48028573  0.08089094  1
  O  O97  1  0.13189259  0.65285267  0.07668776  1
  O  O98  1  0.50618113  0.86848395  0.07895470  1
  O  O99  1  0.35165018  0.87144001  0.58408249  1
  O  O100  1  0.51608731  0.64933215  0.58344508  1
  O  O101  1  0.13414351  0.48661508  0.58240219  1
  O  O102  1  0.30906879  0.82146411  0.25430489  1
  O  O103  1  0.54217042  0.70970689  0.24926960  1
  O  O104  1  0.19437281  0.47893764  0.25449264  1
  O  O105  1  0.29058026  0.45988048  0.75390069  1
  O  O106  1  0.17865630  0.69669780  0.75783042  1
  O  O107  1  0.52082819  0.81228924  0.75736382  1
