# generated using pymatgen
data_SbAsF8
_symmetry_space_group_name_H-M   'P 1'
_cell_length_a   8.05509160
_cell_length_b   5.53253996
_cell_length_c   6.84418155
_cell_angle_alpha   84.31355016
_cell_angle_beta   90.00000000
_cell_angle_gamma   90.00000000
_symmetry_Int_Tables_number   1
_chemical_formula_structural   SbAsF8
_chemical_formula_sum   'Sb2 As2 F16'
_cell_volume   303.51079249
_cell_formula_units_Z   2
loop_
 _symmetry_equiv_pos_site_id
 _symmetry_equiv_pos_as_xyz
  1  'x, y, z'
loop_
 _atom_site_type_symbol
 _atom_site_label
 _atom_site_symmetry_multiplicity
 _atom_site_fract_x
 _atom_site_fract_y
 _atom_site_fract_z
 _atom_site_occupancy
  Sb  Sb0  1  0.25000000  0.80097263  0.78374973  1
  Sb  Sb1  1  0.75000000  0.19902737  0.21625027  1
  As  As2  1  0.25000000  0.48890273  0.30240926  1
  As  As3  1  0.75000000  0.51109727  0.69759074  1
  F  F4  1  0.48281693  0.77504001  0.78803616  1
  F  F5  1  0.98281693  0.22495999  0.21196384  1
  F  F6  1  0.51718307  0.22495999  0.21196384  1
  F  F7  1  0.01718307  0.77504001  0.78803616  1
  F  F8  1  0.25000000  0.03011034  0.96562255  1
  F  F9  1  0.75000000  0.96988966  0.03437745  1
  F  F10  1  0.09158631  0.69925848  0.29366094  1
  F  F11  1  0.59158631  0.30074152  0.70633906  1
  F  F12  1  0.90841369  0.30074152  0.70633906  1
  F  F13  1  0.40841369  0.69925848  0.29366094  1
  F  F14  1  0.25000000  0.53625966  0.00094061  1
  F  F15  1  0.75000000  0.46374034  -0.00094061  1
  F  F16  1  0.25000000  0.53313031  0.61972035  1
  F  F17  1  0.75000000  0.46686969  0.38027965  1
  F  F18  1  0.25000000  0.02625923  0.56118790  1
  F  F19  1  0.75000000  0.97374077  0.43881210  1
