# generated using pymatgen
data_Sr8MgMn6O20
_symmetry_space_group_name_H-M   'P 1'
_cell_length_a   5.58749301
_cell_length_b   6.77474634
_cell_length_c   13.59833657
_cell_angle_alpha   90.60165944
_cell_angle_beta   89.99527949
_cell_angle_gamma   114.34764693
_symmetry_Int_Tables_number   1
_chemical_formula_structural   Sr8MgMn6O20
_chemical_formula_sum   'Sr8 Mg1 Mn6 O20'
_cell_volume   468.93698879
_cell_formula_units_Z   1
loop_
 _symmetry_equiv_pos_site_id
 _symmetry_equiv_pos_as_xyz
  1  'x, y, z'
loop_
 _atom_site_type_symbol
 _atom_site_label
 _atom_site_symmetry_multiplicity
 _atom_site_fract_x
 _atom_site_fract_y
 _atom_site_fract_z
 _atom_site_occupancy
  Sr  Sr0  1  0.22934800  0.45861800  0.14251300  1
  Sr  Sr1  1  0.77614400  0.55248400  0.82208000  1
  Sr  Sr2  1  0.73477100  0.46946200  0.38765200  1
  Sr  Sr3  1  0.26285300  0.52585400  0.61198500  1
  Sr  Sr4  1  0.97884400  0.95767900  0.63436100  1
  Sr  Sr5  1  0.02663600  0.05329700  0.36581900  1
  Sr  Sr6  1  0.50971000  0.01936500  0.15283000  1
  Sr  Sr7  1  0.48560000  0.97119200  0.85802400  1
  Mg  Mg8  1  0.72035900  0.44034900  0.02496900  1
  Mn  Mn9  1  0.62683000  0.25373500  0.64605500  1
  Mn  Mn10  1  0.36654700  0.73317400  0.35059500  1
  Mn  Mn11  1  0.86785800  0.73581900  0.16188200  1
  Mn  Mn12  1  0.14045500  0.28078300  0.84704000  1
  Mn  Mn13  1  0.49856000  0.99712500  0.49697000  1
  Mn  Mn14  1  0.00131300  0.00243600  0.00304400  1
  O  O15  1  0.37328600  0.23442200  0.74233600  1
  O  O16  1  0.13336700  0.76917200  0.25744400  1
  O  O17  1  0.63579200  0.76909200  0.25747200  1
  O  O18  1  0.86088100  0.23434200  0.74237500  1
  O  O19  1  0.15922800  0.77185600  0.45983600  1
  O  O20  1  0.37555400  0.21535300  0.53233900  1
  O  O21  1  0.37429900  0.24662100  0.96733400  1
  O  O22  1  0.08870800  0.72794800  0.05361800  1
  O  O23  1  0.83971700  0.21527700  0.53236700  1
  O  O24  1  0.61262200  0.77182000  0.45982800  1
  O  O25  1  0.63905000  0.72769900  0.05369300  1
  O  O26  1  0.87317300  0.24663700  0.96741300  1
  O  O27  1  0.78057800  0.56103300  0.64706500  1
  O  O28  1  0.21846400  0.43720400  0.33969200  1
  O  O29  1  0.02780800  0.05586900  0.14428700  1
  O  O30  1  0.97283800  0.94539800  0.86337200  1
  O  O31  1  0.46382700  0.92778600  0.63444000  1
  O  O32  1  0.71170500  0.42319300  0.17002400  1
  O  O33  1  0.28986300  0.57981000  0.82516900  1
  O  O34  1  0.53389100  0.06772600  0.35969900  1
