# generated using pymatgen
data_Na7In2Ga2SiP5O24
_symmetry_space_group_name_H-M   'P 1'
_cell_length_a   9.01230426
_cell_length_b   9.00960635
_cell_length_c   22.12937651
_cell_angle_alpha   90.19834585
_cell_angle_beta   89.51645913
_cell_angle_gamma   119.88911555
_symmetry_Int_Tables_number   1
_chemical_formula_structural   Na7In2Ga2SiP5O24
_chemical_formula_sum   'Na21 In6 Ga6 Si3 P15 O72'
_cell_volume   1557.79396988
_cell_formula_units_Z   3
loop_
 _symmetry_equiv_pos_site_id
 _symmetry_equiv_pos_as_xyz
  1  'x, y, z'
loop_
 _atom_site_type_symbol
 _atom_site_label
 _atom_site_symmetry_multiplicity
 _atom_site_fract_x
 _atom_site_fract_y
 _atom_site_fract_z
 _atom_site_occupancy
  Na  Na0  1  0.36735282  0.36972985  0.25173834  1
  Na  Na1  1  0.99914201  0.62985409  0.24907842  1
  Na  Na2  1  0.63620794  0.64183889  0.75006798  1
  Na  Na3  1  0.99525284  0.35938027  0.75330499  1
  Na  Na4  1  0.36809004  0.99886308  0.74940446  1
  Na  Na5  1  0.30246482  0.32812106  0.58000731  1
  Na  Na6  1  0.03427244  0.69979312  0.58124755  1
  Na  Na7  1  0.66112408  0.96716670  0.58520511  1
  Na  Na8  1  0.30204181  0.96861774  0.08357633  1
  Na  Na9  1  0.67158284  0.69731954  0.08249287  1
  Na  Na10  1  0.03064684  0.33836062  0.08482416  1
  Na  Na11  1  0.96205396  0.66480660  0.91917264  1
  Na  Na12  1  0.70468516  0.03623260  0.91450928  1
  Na  Na13  1  0.96635263  0.29717013  0.41439061  1
  Na  Na14  1  0.33404328  0.03646761  0.41748852  1
  Na  Na15  1  0.99411668  0.98915680  0.49777819  1
  Na  Na16  1  0.00990714  0.00679519  0.00170505  1
  Na  Na17  1  0.65643549  0.32890490  0.83377052  1
  Na  Na18  1  0.66666305  0.33326604  0.33276579  1
  Na  Na19  1  0.33960242  0.67700479  0.16765791  1
  Na  Na20  1  0.33873653  0.67443253  0.66644373  1
  In  In21  1  0.00464266  0.00639409  0.85257060  1
  In  In22  1  0.99892935  0.99971621  0.65298376  1
  In  In23  1  0.66363362  0.32580747  0.67992683  1
  In  In24  1  0.66997171  0.32863227  0.18391724  1
  In  In25  1  0.66342978  0.33706606  0.98417986  1
  In  In26  1  0.66289598  0.33706704  0.47974102  1
  Ga  Ga27  1  0.99133866  0.99276477  0.34996909  1
  Ga  Ga28  1  0.99632950  0.99332438  0.15254508  1
  Ga  Ga29  1  0.32829254  0.66484906  0.01670916  1
  Ga  Ga30  1  0.33800126  0.67303543  0.51343202  1
  Ga  Ga31  1  0.34206072  0.67408805  0.31626864  1
  Ga  Ga32  1  0.33864426  0.66935369  0.81771725  1
  Si  Si33  1  0.69382618  0.99565831  0.75311887  1
  Si  Si34  1  0.36258019  0.02463389  0.58005501  1
  Si  Si35  1  0.97304225  0.64020385  0.08381772  1
  P  P36  1  0.28678632  0.99568931  0.25260259  1
  P  P37  1  0.70632793  0.71451552  0.25135975  1
  P  P38  1  0.00314265  0.28833381  0.25246231  1
  P  P39  1  0.30081651  0.30618825  0.75095769  1
  P  P40  1  0.00394601  0.69829144  0.75254166  1
  P  P41  1  0.97271575  0.34001018  0.57969792  1
  P  P42  1  0.66221334  0.63211648  0.58208416  1
  P  P43  1  0.66676064  0.02960949  0.08185571  1
  P  P44  1  0.36224303  0.33221993  0.08573701  1
  P  P45  1  0.61673678  0.66297676  0.91712108  1
  P  P46  1  0.04953707  0.38099545  0.91747025  1
  P  P47  1  0.33414038  0.95449141  0.91722261  1
  P  P48  1  0.62766162  0.95168809  0.41474751  1
  P  P49  1  0.32926960  0.37789338  0.41358511  1
  P  P50  1  0.04713700  0.67161331  0.41352503  1
  O  O51  1  0.20161121  0.02594374  0.30917075  1
  O  O52  1  0.82722324  0.80045091  0.30489443  1
  O  O53  1  0.98275769  0.18228671  0.30981939  1
  O  O54  1  0.22113033  0.17938106  0.80347855  1
  O  O55  1  0.96992228  0.77877874  0.80885464  1
  O  O56  1  0.81689714  0.03727247  0.81160902  1
  O  O57  1  0.77056740  0.95397862  0.69198678  1
  O  O58  1  0.19525089  0.23496393  0.69217391  1
  O  O59  1  0.04298468  0.81078688  0.69521060  1
  O  O60  1  0.78426977  0.81506733  0.19182493  1
  O  O61  1  0.02800097  0.20298393  0.19488774  1
  O  O62  1  0.17704834  0.96652670  0.19505812  1
  O  O63  1  0.90034436  0.37958503  0.63778804  1
  O  O64  1  0.47944309  0.09848398  0.64092056  1
  O  O65  1  0.63042149  0.52710315  0.64114548  1
  O  O66  1  0.89606071  0.51386147  0.14282585  1
  O  O67  1  0.61596918  0.10542031  0.13556782  1
  O  O68  1  0.47574669  0.37205640  0.14262575  1
  O  O69  1  0.43766537  0.28227704  0.03159073  1
  O  O70  1  0.84865983  0.56486487  0.02461503  1
  O  O71  1  0.70671332  0.14236260  0.02436998  1
  O  O72  1  0.44260976  0.14984900  0.52144789  1
  O  O73  1  0.70673112  0.55116006  0.52905690  1
  O  O74  1  0.85717447  0.30634804  0.52444230  1
  O  O75  1  0.52925154  0.68502186  0.97417864  1
  O  O76  1  0.14965671  0.46685643  0.97533544  1
  O  O77  1  0.31136405  0.84704412  0.97456128  1
  O  O78  1  0.55007476  0.85161691  0.47432134  1
  O  O79  1  0.30456898  0.46257855  0.47143277  1
  O  O80  1  0.15613347  0.70020720  0.47121955  1
  O  O81  1  0.13284535  0.64160358  0.35713930  1
  O  O82  1  0.50609554  0.86564371  0.36147022  1
  O  O83  1  0.34950734  0.48469339  0.35656791  1
  O  O84  1  0.13543086  0.48896916  0.86011277  1
  O  O85  1  0.35632394  0.86979120  0.85939233  1
  O  O86  1  0.51784282  0.64855579  0.85887383  1
  O  O87  1  0.03293542  0.83679796  0.40860690  1
  O  O88  1  0.81138350  0.97685264  0.40878141  1
  O  O89  1  0.16399663  0.19552190  0.41143333  1
  O  O90  1  0.02419731  0.19790610  0.91706884  1
  O  O91  1  0.16766762  0.96558788  0.91507324  1
  O  O92  1  0.79912557  0.82746906  0.91692695  1
  O  O93  1  0.98695467  0.17657070  0.58578479  1
  O  O94  1  0.17192137  0.00487396  0.58615321  1
  O  O95  1  0.81908415  0.81444603  0.58594381  1
  O  O96  1  0.99190438  0.83148633  0.09246483  1
  O  O97  1  0.83136403  0.01843254  0.09176631  1
  O  O98  1  0.17952210  0.17528661  0.09364270  1
  O  O99  1  0.67704934  0.16847814  0.74907998  1
  O  O100  1  0.48461177  0.33525509  0.74588924  1
  O  O101  1  0.84013743  0.52162735  0.74601013  1
  O  O102  1  0.68668281  0.53098563  0.24852531  1
  O  O103  1  0.84560810  0.31513144  0.25038303  1
  O  O104  1  0.46403698  0.16206009  0.24803030  1
  O  O105  1  0.64213611  0.50498322  0.91793053  1
  O  O106  1  0.86723072  0.36401491  0.91826490  1
  O  O107  1  0.50003219  0.13177604  0.91991730  1
  O  O108  1  0.64847012  0.13572629  0.41696088  1
  O  O109  1  0.48656740  0.35096818  0.41485438  1
  O  O110  1  0.86991797  0.50533457  0.41733367  1
  O  O111  1  0.34928795  0.49598140  0.07598916  1
  O  O112  1  0.16469099  0.65983079  0.07598884  1
  O  O113  1  0.51054604  0.84661775  0.07467582  1
  O  O114  1  0.34716108  0.83520583  0.57310035  1
  O  O115  1  0.49616064  0.64133341  0.57399787  1
  O  O116  1  0.15341658  0.49859624  0.57243194  1
  O  O117  1  0.30075468  0.83037735  0.25770661  1
  O  O118  1  0.52261472  0.68945567  0.25752788  1
  O  O119  1  0.16846805  0.47081175  0.25488763  1
  O  O120  1  0.30978703  0.48099754  0.75969907  1
  O  O121  1  0.16244034  0.67550126  0.75893063  1
  O  O122  1  0.50334144  0.82280000  0.75838135  1
