# generated using pymatgen
data_Na3VS4
_symmetry_space_group_name_H-M   'P 1'
_cell_length_a   13.44344728
_cell_length_b   13.44344728
_cell_length_c   7.91487660
_cell_angle_alpha   90.00000000
_cell_angle_beta   90.00000000
_cell_angle_gamma   90.00000000
_symmetry_Int_Tables_number   1
_chemical_formula_structural   Na3VS4
_chemical_formula_sum   'Na24 V8 S32'
_cell_volume   1430.42616318
_cell_formula_units_Z   8
loop_
 _symmetry_equiv_pos_site_id
 _symmetry_equiv_pos_as_xyz
  1  'x, y, z'
loop_
 _atom_site_type_symbol
 _atom_site_label
 _atom_site_symmetry_multiplicity
 _atom_site_fract_x
 _atom_site_fract_y
 _atom_site_fract_z
 _atom_site_occupancy
  Na  Na0  1  -0.00000000  0.50000000  0.57456035  1
  Na  Na1  1  0.50000000  0.00000000  0.42543965  1
  Na  Na2  1  0.50000000  0.00000000  0.92543965  1
  Na  Na3  1  -0.00000000  0.50000000  0.07456035  1
  Na  Na4  1  0.50000000  0.50000000  0.71090881  1
  Na  Na5  1  0.50000000  0.50000000  0.28909119  1
  Na  Na6  1  -0.00000000  0.00000000  0.78909119  1
  Na  Na7  1  -0.00000000  0.00000000  0.21090881  1
  Na  Na8  1  0.75548517  0.45536503  0.85384695  1
  Na  Na9  1  0.54463497  0.75548517  0.14615305  1
  Na  Na10  1  0.45536503  0.24451483  0.14615305  1
  Na  Na11  1  0.24451483  0.54463497  0.85384695  1
  Na  Na12  1  0.25548517  0.04463497  0.64615305  1
  Na  Na13  1  0.74451483  0.95536503  0.64615305  1
  Na  Na14  1  0.95536503  0.25548517  0.35384695  1
  Na  Na15  1  0.04463497  0.74451483  0.35384695  1
  Na  Na16  1  0.75350108  0.20015830  0.93577869  1
  Na  Na17  1  0.79984170  0.75350108  0.06422131  1
  Na  Na18  1  0.20015830  0.24649892  0.06422131  1
  Na  Na19  1  0.24649892  0.79984170  0.93577869  1
  Na  Na20  1  0.25350108  0.29984170  0.56422131  1
  Na  Na21  1  0.74649892  0.70015830  0.56422131  1
  Na  Na22  1  0.70015830  0.25350108  0.43577869  1
  Na  Na23  1  0.29984170  0.74649892  0.43577869  1
  V  V24  1  0.01111327  0.26159764  0.77962061  1
  V  V25  1  0.23840236  0.48888673  0.27962061  1
  V  V26  1  0.76159764  0.51111327  0.27962061  1
  V  V27  1  0.48888673  0.76159764  0.72037939  1
  V  V28  1  0.51111327  0.23840236  0.72037939  1
  V  V29  1  0.98888673  0.73840236  0.77962061  1
  V  V30  1  0.26159764  0.98888673  0.22037939  1
  V  V31  1  0.73840236  0.01111327  0.22037939  1
  S  S32  1  0.60833937  0.11269157  0.68108427  1
  S  S33  1  0.16146500  0.92004099  0.39684081  1
  S  S34  1  0.83853500  0.07995901  0.39684081  1
  S  S35  1  0.92004099  0.83853500  0.60315919  1
  S  S36  1  0.07995901  0.16146500  0.60315919  1
  S  S37  1  0.42004099  0.66146500  0.89684081  1
  S  S38  1  0.33853500  0.42004099  0.10315919  1
  S  S39  1  0.66146500  0.57995901  0.10315919  1
  S  S40  1  0.68611510  0.49104283  0.51412147  1
  S  S41  1  0.50895717  0.68611510  0.48587853  1
  S  S42  1  0.49104283  0.31388490  0.48587853  1
  S  S43  1  0.31388490  0.50895717  0.51412147  1
  S  S44  1  0.18611510  0.00895717  0.98587853  1
  S  S45  1  0.81388490  0.99104283  0.98587853  1
  S  S46  1  0.99104283  0.18611510  0.01412147  1
  S  S47  1  0.00895717  0.81388490  0.01412147  1
  S  S48  1  0.87028839  0.31026251  0.67727699  1
  S  S49  1  0.68973749  0.87028839  0.32272301  1
  S  S50  1  0.31026251  0.12971161  0.32272301  1
  S  S51  1  0.12971161  0.68973749  0.67727699  1
  S  S52  1  0.38730843  0.89166063  0.18108427  1
  S  S53  1  0.62971161  0.81026251  0.82272301  1
  S  S54  1  0.81026251  0.37028839  0.17727699  1
  S  S55  1  0.18973749  0.62971161  0.17727699  1
  S  S56  1  0.57995901  0.33853500  0.89684081  1
  S  S57  1  0.88730843  0.60833937  0.31891573  1
  S  S58  1  0.11269157  0.39166063  0.31891573  1
  S  S59  1  0.39166063  0.88730843  0.68108427  1
  S  S60  1  0.10833937  0.38730843  0.81891573  1
  S  S61  1  0.89166063  0.61269157  0.81891573  1
  S  S62  1  0.61269157  0.10833937  0.18108427  1
  S  S63  1  0.37028839  0.18973749  0.82272301  1
