# generated using pymatgen
data_NaHf2Ge2P5SO24
_symmetry_space_group_name_H-M   'P 1'
_cell_length_a   8.60585675
_cell_length_b   8.61199907
_cell_length_c   22.44458890
_cell_angle_alpha   90.32913841
_cell_angle_beta   89.55610852
_cell_angle_gamma   120.19968598
_symmetry_Int_Tables_number   1
_chemical_formula_structural   NaHf2Ge2P5SO24
_chemical_formula_sum   'Na3 Hf6 Ge6 P15 S3 O72'
_cell_volume   1437.63604415
_cell_formula_units_Z   3
loop_
 _symmetry_equiv_pos_site_id
 _symmetry_equiv_pos_as_xyz
  1  'x, y, z'
loop_
 _atom_site_type_symbol
 _atom_site_label
 _atom_site_symmetry_multiplicity
 _atom_site_fract_x
 _atom_site_fract_y
 _atom_site_fract_z
 _atom_site_occupancy
  Na  Na0  1  0.67377721  0.34028010  0.82888934  1
  Na  Na1  1  0.66653869  0.33392811  0.33493936  1
  Na  Na2  1  0.33401627  0.66814587  0.16721429  1
  Hf  Hf3  1  0.00120875  0.00163823  0.36392996  1
  Hf  Hf4  1  0.99877539  0.00054633  0.14254719  1
  Hf  Hf5  1  0.66784756  0.33347882  0.18922446  1
  Hf  Hf6  1  0.67369410  0.33962879  0.97382403  1
  Hf  Hf7  1  0.33629921  0.65997137  0.01566239  1
  Hf  Hf8  1  0.33093065  0.66678114  0.31703543  1
  Ge  Ge9  1  0.99336770  0.00045380  0.84601386  1
  Ge  Ge10  1  0.00916256  0.99585960  0.65159479  1
  Ge  Ge11  1  0.66213855  0.32325906  0.68763457  1
  Ge  Ge12  1  0.65500689  0.32798440  0.48448243  1
  Ge  Ge13  1  0.33099792  0.67835899  0.52076175  1
  Ge  Ge14  1  0.33218120  0.65739886  0.80509775  1
  P  P15  1  0.28665664  0.99841595  0.25232065  1
  P  P16  1  0.71132392  0.71246865  0.25326409  1
  P  P17  1  0.00016811  0.28820489  0.25310356  1
  P  P18  1  0.28700328  0.28325422  0.74806503  1
  P  P19  1  0.00016621  0.70897210  0.74866693  1
  P  P20  1  0.71260651  0.99743637  0.74671824  1
  P  P21  1  0.37653593  0.04469321  0.58602946  1
  P  P22  1  0.96101083  0.62283692  0.08160835  1
  P  P23  1  0.66285097  0.04291412  0.08057257  1
  P  P24  1  0.38147852  0.33664232  0.08151994  1
  P  P25  1  0.62868927  0.67872762  0.90543701  1
  P  P26  1  0.05165242  0.37054468  0.90570645  1
  P  P27  1  0.61356441  0.96199667  0.42499167  1
  P  P28  1  0.34539783  0.39167663  0.42679616  1
  P  P29  1  0.03321793  0.65025038  0.42591195  1
  S  S30  1  0.95482766  0.33129926  0.58567086  1
  S  S31  1  0.66838113  0.62303206  0.58655750  1
  S  S32  1  0.32015758  0.94898000  0.90760564  1
  O  O33  1  0.19745868  0.01542908  0.30935912  1
  O  O34  1  0.81862390  0.80418941  0.30938367  1
  O  O35  1  0.98422657  0.18169439  0.30930626  1
  O  O36  1  0.20648356  0.15714288  0.80229019  1
  O  O37  1  0.95364509  0.79086727  0.80273972  1
  O  O38  1  0.83666062  0.04674415  0.80150266  1
  O  O39  1  0.79812870  0.95881987  0.69133889  1
  O  O40  1  0.16673651  0.20319434  0.69238683  1
  O  O41  1  0.04122175  0.82851304  0.69253207  1
  O  O42  1  0.79657217  0.81594619  0.19576229  1
  O  O43  1  0.01956456  0.20352093  0.19556113  1
  O  O44  1  0.18218097  0.97987688  0.19544669  1
  O  O45  1  0.87701356  0.37492853  0.63951894  1
  O  O46  1  0.50440090  0.12781815  0.64035655  1
  O  O47  1  0.62906163  0.50323666  0.63967508  1
  O  O48  1  0.87674100  0.50993407  0.13775363  1
  O  O49  1  0.63470614  0.12651520  0.13734340  1
  O  O50  1  0.49312060  0.36451263  0.13761407  1
  O  O51  1  0.47317483  0.32254583  0.02437748  1
  O  O52  1  0.85239118  0.53190097  0.02478723  1
  O  O53  1  0.68086804  0.15263153  0.02432339  1
  O  O54  1  0.45914833  0.17175575  0.53163692  1
  O  O55  1  0.71033528  0.54585936  0.53294048  1
  O  O56  1  0.83685939  0.29327228  0.53288393  1
  O  O57  1  0.54775738  0.70692994  0.96272034  1
  O  O58  1  0.15835907  0.45478933  0.96284668  1
  O  O59  1  0.29718265  0.84732124  0.96272576  1
  O  O60  1  0.53110016  0.84060019  0.48041791  1
  O  O61  1  0.31028457  0.47796561  0.48260733  1
  O  O62  1  0.15542987  0.69138051  0.48106528  1
  O  O63  1  0.11149664  0.61107444  0.36996330  1
  O  O64  1  0.49754373  0.88336186  0.36928565  1
  O  O65  1  0.38250681  0.50513399  0.37041476  1
  O  O66  1  0.13693396  0.50043376  0.85220290  1
  O  O67  1  0.36037656  0.86920564  0.85501260  1
  O  O68  1  0.50218626  0.64108170  0.85180993  1
  O  O69  1  0.01154021  0.81275469  0.41696347  1
  O  O70  1  0.79868378  0.98514627  0.41690481  1
  O  O71  1  0.18251949  0.20561376  0.41868183  1
  O  O72  1  0.04458271  0.18967805  0.89720045  1
  O  O73  1  0.15488078  0.95896964  0.90053677  1
  O  O74  1  0.81356755  0.84970120  0.89752900  1
  O  O75  1  0.96941972  0.16892101  0.59478393  1
  O  O76  1  0.19015820  0.02789015  0.59695122  1
  O  O77  1  0.83339429  0.80231845  0.59493541  1
  O  O78  1  0.97503894  0.80451654  0.08698101  1
  O  O79  1  0.82929811  0.02621975  0.08650277  1
  O  O80  1  0.19772837  0.17011712  0.08679266  1
  O  O81  1  0.69613699  0.16958414  0.73837054  1
  O  O82  1  0.47723654  0.30284044  0.73945466  1
  O  O83  1  0.82810058  0.51939679  0.73877722  1
  O  O84  1  0.69113218  0.52486149  0.25011553  1
  O  O85  1  0.83270064  0.30805477  0.25015637  1
  O  O86  1  0.47498286  0.16593583  0.24940089  1
  O  O87  1  0.64938417  0.51136230  0.91187297  1
  O  O88  1  0.86037532  0.34334143  0.91192025  1
  O  O89  1  0.47901139  0.13301031  0.91341923  1
  O  O90  1  0.62695345  0.14751484  0.43336356  1
  O  O91  1  0.51789572  0.37776402  0.43398573  1
  O  O92  1  0.84838964  0.47797133  0.43589268  1
  O  O93  1  0.36189922  0.50427196  0.07645253  1
  O  O94  1  0.14700908  0.64301942  0.07448336  1
  O  O95  1  0.49502193  0.85686479  0.07423135  1
  O  O96  1  0.35588108  0.85679817  0.57561957  1
  O  O97  1  0.50927710  0.64216654  0.57832721  1
  O  O98  1  0.13538992  0.49267962  0.57776500  1
  O  O99  1  0.30589386  0.83043368  0.25670203  1
  O  O100  1  0.52330844  0.69209461  0.25782267  1
  O  O101  1  0.16841499  0.47615270  0.25723707  1
  O  O102  1  0.30785982  0.46994542  0.75623475  1
  O  O103  1  0.16728818  0.69155228  0.75874253  1
  O  O104  1  0.52419837  0.83368243  0.75693126  1
