# generated using pymatgen
data_TlBSe3
_symmetry_space_group_name_H-M   'P 1'
_cell_length_a   6.20731608
_cell_length_b   7.17149564
_cell_length_c   7.16121572
_cell_angle_alpha   109.14907732
_cell_angle_beta   103.50478869
_cell_angle_gamma   113.47667585
_symmetry_Int_Tables_number   1
_chemical_formula_structural   TlBSe3
_chemical_formula_sum   'Tl2 B2 Se6'
_cell_volume   250.63348323
_cell_formula_units_Z   2
loop_
 _symmetry_equiv_pos_site_id
 _symmetry_equiv_pos_as_xyz
  1  'x, y, z'
loop_
 _atom_site_type_symbol
 _atom_site_label
 _atom_site_symmetry_multiplicity
 _atom_site_fract_x
 _atom_site_fract_y
 _atom_site_fract_z
 _atom_site_occupancy
  Tl  Tl0  1  0.93147506  0.45325673  0.34313278  1
  Tl  Tl1  1  0.08717451  0.10954074  0.65608286  1
  B  B2  1  0.35003559  0.77261477  0.04571636  1
  B  B3  1  0.80485542  0.72743553  0.95442232  1
  Se  Se4  1  0.58630140  0.69852258  0.67012595  1
  Se  Se5  1  0.41579730  0.02738872  0.33061689  1
  Se  Se6  1  0.09520376  0.07561448  0.13277777  1
  Se  Se7  1  0.46154570  0.94295307  0.86763562  1
  Se  Se8  1  0.96273499  0.52387445  0.89658414  1
  Se  Se9  1  0.56575725  0.62687793  0.10290630  1
