# generated using pymatgen
data_Na10Hf5Zn3Si6(SO8)6
_symmetry_space_group_name_H-M   'P 1'
_cell_length_a   18.15028825
_cell_length_b   9.06820122
_cell_length_c   22.81857154
_cell_angle_alpha   90.18542843
_cell_angle_beta   89.75356186
_cell_angle_gamma   119.94247988
_symmetry_Int_Tables_number   1
_chemical_formula_structural   Na10Hf5Zn3Si6(SO8)6
_chemical_formula_sum   'Na30 Hf15 Zn9 Si18 S18 O144'
_cell_volume   3254.39924143
_cell_formula_units_Z   3
loop_
 _symmetry_equiv_pos_site_id
 _symmetry_equiv_pos_as_xyz
  1  'x, y, z'
loop_
 _atom_site_type_symbol
 _atom_site_label
 _atom_site_symmetry_multiplicity
 _atom_site_fract_x
 _atom_site_fract_y
 _atom_site_fract_z
 _atom_site_occupancy
  Na  Na0  1  0.31850052  0.00372568  0.24373543  1
  Na  Na1  1  0.19827799  0.37224121  0.24447034  1
  Na  Na2  1  0.69070694  0.36845260  0.24364081  1
  Na  Na3  1  0.99657915  0.64073092  0.24989139  1
  Na  Na4  1  0.31841396  0.61404852  0.75355637  1
  Na  Na5  1  0.81946421  0.62563775  0.74738504  1
  Na  Na6  1  0.99257819  0.36072920  0.74913761  1
  Na  Na7  1  0.49541553  0.37367322  0.74183322  1
  Na  Na8  1  0.18210072  0.01122972  0.74624521  1
  Na  Na9  1  0.68691767  0.01327488  0.74815854  1
  Na  Na10  1  0.64657408  0.34998141  0.57625385  1
  Na  Na11  1  0.32156687  0.68284961  0.07947884  1
  Na  Na12  1  0.82452311  0.68612461  0.08677518  1
  Na  Na13  1  0.16424676  0.31913385  0.92274932  1
  Na  Na14  1  0.99400026  0.30816033  0.42076857  1
  Na  Na15  1  0.16417546  0.02947098  0.41905221  1
  Na  Na16  1  0.66067619  0.02682427  0.41300079  1
  Na  Na17  1  0.84141542  0.66780896  0.41736340  1
  Na  Na18  1  0.00221157  0.00510367  0.49989167  1
  Na  Na19  1  0.49226586  0.01149983  0.49355591  1
  Na  Na20  1  0.00724610  0.02614023  0.99943783  1
  Na  Na21  1  0.50260050  0.02428738  0.99533324  1
  Na  Na22  1  0.34457747  0.35774828  0.83305899  1
  Na  Na23  1  0.83873500  0.33546158  0.82734135  1
  Na  Na24  1  0.33805178  0.36398774  0.32545846  1
  Na  Na25  1  0.83160430  0.33192476  0.32837251  1
  Na  Na26  1  0.16902207  0.66378725  0.15642055  1
  Na  Na27  1  0.66421669  0.66456268  0.15825926  1
  Na  Na28  1  0.16095082  0.65874278  0.65885164  1
  Na  Na29  1  0.65893218  0.66616959  0.65912500  1
  Hf  Hf30  1  -0.00000187  0.99212733  0.35340687  1
  Hf  Hf31  1  0.99946497  0.00645629  0.84883328  1
  Hf  Hf32  1  0.50278123  0.99853523  0.85627752  1
  Hf  Hf33  1  0.00157591  0.00219982  0.65050229  1
  Hf  Hf34  1  0.50242950  0.00649773  0.64613775  1
  Hf  Hf35  1  0.00493443  0.99729919  0.14722344  1
  Hf  Hf36  1  0.50026958  0.00298006  0.14622090  1
  Hf  Hf37  1  0.33410444  0.33880000  0.97900733  1
  Hf  Hf38  1  0.82938318  0.32635918  0.98139927  1
  Hf  Hf39  1  0.33750349  0.33764116  0.48435027  1
  Hf  Hf40  1  0.83258618  0.33532722  0.47819230  1
  Hf  Hf41  1  0.17158212  0.66442836  0.31604819  1
  Hf  Hf42  1  0.67303040  0.67073830  0.31620256  1
  Hf  Hf43  1  0.15889107  0.64634668  0.81833212  1
  Hf  Hf44  1  0.65984119  0.65715035  0.81251742  1
  Zn  Zn45  1  0.49769381  0.99897353  0.35014890  1
  Zn  Zn46  1  0.34278937  0.35733375  0.68149155  1
  Zn  Zn47  1  0.83633330  0.33587330  0.69160238  1
  Zn  Zn48  1  0.32555796  0.34878715  0.18570549  1
  Zn  Zn49  1  0.82724176  0.34404422  0.17847409  1
  Zn  Zn50  1  0.16836017  0.62456341  0.01276151  1
  Zn  Zn51  1  0.65518268  0.62347706  0.01884604  1
  Zn  Zn52  1  0.15804570  0.65096564  0.50984615  1
  Zn  Zn53  1  0.65967907  0.64386621  0.51267659  1
  Si  Si54  1  0.15017891  0.99815554  0.25157057  1
  Si  Si55  1  0.35906018  0.71226095  0.25256192  1
  Si  Si56  1  0.85160480  0.70244333  0.24780551  1
  Si  Si57  1  0.15038215  0.29552172  0.74898126  1
  Si  Si58  1  0.64632837  0.29023734  0.74953481  1
  Si  Si59  1  0.00389596  0.71186334  0.75044027  1
  Si  Si60  1  0.49850188  0.70975859  0.74953968  1
  Si  Si61  1  0.85226563  0.99717349  0.74883472  1
  Si  Si62  1  0.48374847  0.33924369  0.58682217  1
  Si  Si63  1  0.18344216  0.33358985  0.08419474  1
  Si  Si64  1  0.68431857  0.33731853  0.08562709  1
  Si  Si65  1  0.31603409  0.67354693  0.91918548  1
  Si  Si66  1  0.01319227  0.36193340  0.91857862  1
  Si  Si67  1  0.51799197  0.36972796  0.91686049  1
  Si  Si68  1  0.80980917  0.95344568  0.42138964  1
  Si  Si69  1  0.16953602  0.37178749  0.41788004  1
  Si  Si70  1  0.65793189  0.35685772  0.41767230  1
  Si  Si71  1  0.02389071  0.66905612  0.41763328  1
  S  S72  1  0.64640854  0.99625276  0.25047484  1
  S  S73  1  0.99827362  0.28982770  0.25006605  1
  S  S74  1  0.50099973  0.29524021  0.25043512  1
  S  S75  1  0.35428360  0.99591979  0.75100429  1
  S  S76  1  0.98011043  0.33277676  0.58419223  1
  S  S77  1  0.18633077  0.03611295  0.58390048  1
  S  S78  1  0.68767696  0.03881649  0.58430682  1
  S  S79  1  0.33044960  0.63013677  0.58419136  1
  S  S80  1  0.83648970  0.63017090  0.58490240  1
  S  S81  1  0.48019515  0.62522733  0.08561436  1
  S  S82  1  0.98048550  0.62443631  0.08409627  1
  S  S83  1  0.33354812  0.04366288  0.08639740  1
  S  S84  1  0.83309731  0.04322943  0.08477500  1
  S  S85  1  0.81489928  0.66848240  0.91860667  1
  S  S86  1  0.16600427  0.95632766  0.91827997  1
  S  S87  1  0.66866748  0.95658298  0.91914278  1
  S  S88  1  0.31407706  0.96163673  0.41957439  1
  S  S89  1  0.51987876  0.66384141  0.41755046  1
  O  O90  1  0.10313173  0.03029371  0.30798552  1
  O  O91  1  0.61161332  0.02684675  0.30492754  1
  O  O92  1  0.41386516  0.81399835  0.30828718  1
  O  O93  1  0.90990241  0.80103853  0.30533626  1
  O  O94  1  0.48953738  0.19528852  0.30352936  1
  O  O95  1  0.98838385  0.19239803  0.30465143  1
  O  O96  1  0.10533598  0.17906833  0.80754801  1
  O  O97  1  0.59794394  0.16304287  0.80349134  1
  O  O98  1  0.48324381  0.80379369  0.80458273  1
  O  O99  1  0.98654452  0.80189116  0.80645387  1
  O  O100  1  0.40869867  0.02210483  0.80254074  1
  O  O101  1  0.91591492  0.03429270  0.80447050  1
  O  O102  1  0.39407063  0.96777419  0.69762653  1
  O  O103  1  0.89728501  0.95802393  0.69253308  1
  O  O104  1  0.08269067  0.20492694  0.69474460  1
  O  O105  1  0.58529990  0.20840544  0.69088883  1
  O  O106  1  0.02109147  0.83786726  0.69363462  1
  O  O107  1  0.51285753  0.83017113  0.69193161  1
  O  O108  1  0.40067780  0.83167224  0.19255696  1
  O  O109  1  0.89633965  0.81666213  0.18900212  1
  O  O110  1  0.01087733  0.20251672  0.19896539  1
  O  O111  1  0.51834340  0.21170972  0.19842981  1
  O  O112  1  0.08447006  0.96858743  0.19636543  1
  O  O113  1  0.59181110  0.98139651  0.19898297  1
  O  O114  1  0.43902677  0.35025406  0.64715175  1
  O  O115  1  0.93705435  0.34518748  0.63755053  1
  O  O116  1  0.23360165  0.11991534  0.63765140  1
  O  O117  1  0.73658586  0.12352863  0.63774960  1
  O  O118  1  0.31795861  0.53274309  0.63884611  1
  O  O119  1  0.82799097  0.52584766  0.63716588  1
  O  O120  1  0.44165772  0.52118264  0.13784014  1
  O  O121  1  0.94416147  0.52908042  0.13949905  1
  O  O122  1  0.33010564  0.12643638  0.14118184  1
  O  O123  1  0.82669221  0.12844542  0.13783568  1
  O  O124  1  0.23931672  0.36329547  0.14286433  1
  O  O125  1  0.73852293  0.37003931  0.14590024  1
  O  O126  1  0.23143945  0.31067040  0.02543332  1
  O  O127  1  0.73616408  0.31394424  0.02967291  1
  O  O128  1  0.42572385  0.54366801  0.03247629  1
  O  O129  1  0.92242285  0.53159486  0.03382180  1
  O  O130  1  0.34637358  0.15227249  0.03429798  1
  O  O131  1  0.84551464  0.15196797  0.03168296  1
  O  O132  1  0.23078123  0.14506703  0.53042908  1
  O  O133  1  0.73028302  0.15091617  0.53132267  1
  O  O134  1  0.34105447  0.53665847  0.53285130  1
  O  O135  1  0.84364759  0.54112356  0.53056992  1
  O  O136  1  0.42177191  0.31787575  0.53004264  1
  O  O137  1  0.92871933  0.31768011  0.53032196  1
  O  O138  1  0.27985632  0.70715966  0.97895588  1
  O  O139  1  0.77794501  0.69591506  0.97186942  1
  O  O140  1  0.07605725  0.44885117  0.97207096  1
  O  O141  1  0.57489409  0.45318655  0.97288401  1
  O  O142  1  0.15567263  0.85498109  0.96931339  1
  O  O143  1  0.66035285  0.85702140  0.97054270  1
  O  O144  1  0.27300344  0.85848869  0.47121040  1
  O  O145  1  0.76705883  0.82762285  0.47538597  1
  O  O146  1  0.14623987  0.45102758  0.47288444  1
  O  O147  1  0.64821268  0.43409752  0.47833051  1
  O  O148  1  0.08669125  0.72344666  0.47222454  1
  O  O149  1  0.57232386  0.69124852  0.46953683  1
  O  O150  1  0.06279877  0.62891995  0.35808792  1
  O  O151  1  0.55982513  0.63680432  0.36371865  1
  O  O152  1  0.25975338  0.88233437  0.36490510  1
  O  O153  1  0.74781844  0.87286070  0.36248520  1
  O  O154  1  0.18265129  0.48454827  0.35761902  1
  O  O155  1  0.67906808  0.48895296  0.36063338  1
  O  O156  1  0.05571640  0.47271015  0.85651869  1
  O  O157  1  0.56115180  0.48649641  0.85685298  1
  O  O158  1  0.17635400  0.87769887  0.86253714  1
  O  O159  1  0.68030343  0.88132400  0.86349505  1
  O  O160  1  0.25385305  0.64002003  0.86067798  1
  O  O161  1  0.76273008  0.64627526  0.86500861  1
  O  O162  1  0.00589252  0.82928774  0.40998625  1
  O  O163  1  0.51034987  0.81529900  0.41105521  1
  O  O164  1  0.40021961  0.99007085  0.41199361  1
  O  O165  1  0.90627454  0.98619767  0.40899213  1
  O  O166  1  0.08257975  0.18235877  0.40906148  1
  O  O167  1  0.58296006  0.16126668  0.40699953  1
  O  O168  1  0.01006332  0.17632007  0.91210377  1
  O  O169  1  0.50872267  0.18193290  0.90793127  1
  O  O170  1  0.09161667  0.98523809  0.91150140  1
  O  O171  1  0.59312223  0.97993080  0.91272635  1
  O  O172  1  0.41191597  0.83102042  0.91020189  1
  O  O173  1  0.90208611  0.81630793  0.91079976  1
  O  O174  1  0.49248501  0.16194706  0.58613254  1
  O  O175  1  0.98619763  0.17281879  0.58517800  1
  O  O176  1  0.10007128  0.02463239  0.58455013  1
  O  O177  1  0.60239749  0.03398570  0.58653026  1
  O  O178  1  0.41121925  0.79831023  0.58698511  1
  O  O179  1  0.91617593  0.79946726  0.58603738  1
  O  O180  1  0.48137186  0.79514709  0.09068090  1
  O  O181  1  0.97808762  0.79161126  0.08650138  1
  O  O182  1  0.41242796  0.02043374  0.08850367  1
  O  O183  1  0.91050667  0.02108905  0.08707862  1
  O  O184  1  0.08729055  0.15961390  0.08832764  1
  O  O185  1  0.59019505  0.16323380  0.09006011  1
  O  O186  1  0.34318626  0.14523378  0.74585658  1
  O  O187  1  0.84250253  0.16438958  0.74427299  1
  O  O188  1  0.24223960  0.30777154  0.74172254  1
  O  O189  1  0.74066940  0.31431381  0.74390082  1
  O  O190  1  0.41706348  0.51798746  0.74846966  1
  O  O191  1  0.92164013  0.52330927  0.74493573  1
  O  O192  1  0.34326316  0.52002628  0.24897393  1
  O  O193  1  0.84539701  0.51445936  0.24801482  1
  O  O194  1  0.42485707  0.30804523  0.23998083  1
  O  O195  1  0.92516557  0.31534433  0.24341100  1
  O  O196  1  0.24601064  0.15747826  0.24766482  1
  O  O197  1  0.73301770  0.14457495  0.24283603  1
  O  O198  1  0.31598528  0.48844953  0.92274809  1
  O  O199  1  0.82204260  0.50994023  0.92354944  1
  O  O200  1  0.42186518  0.34589062  0.92387669  1
  O  O201  1  0.91917669  0.34449162  0.92419517  1
  O  O202  1  0.24357269  0.13229622  0.92138216  1
  O  O203  1  0.74576265  0.13274712  0.92271129  1
  O  O204  1  0.31705328  0.13184927  0.42380255  1
  O  O205  1  0.82148079  0.14626094  0.42701897  1
  O  O206  1  0.25020253  0.33777407  0.42496553  1
  O  O207  1  0.75030096  0.35112929  0.42338797  1
  O  O208  1  0.43301721  0.50771856  0.42342125  1
  O  O209  1  0.92846531  0.49820918  0.42627229  1
  O  O210  1  0.17809255  0.50859823  0.08261080  1
  O  O211  1  0.68325848  0.51679589  0.08147407  1
  O  O212  1  0.06676550  0.65991557  0.07570889  1
  O  O213  1  0.56807025  0.66245682  0.07796516  1
  O  O214  1  0.25906118  0.87329269  0.08090800  1
  O  O215  1  0.75783872  0.87331088  0.07726828  1
  O  O216  1  0.17803773  0.86714155  0.57766058  1
  O  O217  1  0.67600656  0.87050710  0.57707799  1
  O  O218  1  0.25692034  0.65455006  0.57574892  1
  O  O219  1  0.76056378  0.64750587  0.58112406  1
  O  O220  1  0.06552802  0.48455239  0.58053899  1
  O  O221  1  0.58019506  0.50283684  0.58161415  1
  O  O222  1  0.15137312  0.81811261  0.25675824  1
  O  O223  1  0.64881380  0.83387329  0.25339457  1
  O  O224  1  0.26122485  0.69475658  0.25595948  1
  O  O225  1  0.75412316  0.67484521  0.25429308  1
  O  O226  1  0.07848908  0.46096317  0.25377197  1
  O  O227  1  0.57949048  0.46741689  0.25466018  1
  O  O228  1  0.15961216  0.48642315  0.75491169  1
  O  O229  1  0.65535184  0.47979749  0.75665822  1
  O  O230  1  0.09306028  0.70457536  0.75589000  1
  O  O231  1  0.58756185  0.70158608  0.75574383  1
  O  O232  1  0.26909534  0.83982904  0.75673370  1
  O  O233  1  0.76000339  0.82633353  0.75876482  1
