# generated using pymatgen
data_Na5LaTa3Si5PO24
_symmetry_space_group_name_H-M   'P 1'
_cell_length_a   9.12389717
_cell_length_b   9.16174898
_cell_length_c   22.74262150
_cell_angle_alpha   90.11735238
_cell_angle_beta   89.84757994
_cell_angle_gamma   119.85579152
_symmetry_Int_Tables_number   1
_chemical_formula_structural   Na5LaTa3Si5PO24
_chemical_formula_sum   'Na15 La3 Ta9 Si15 P3 O72'
_cell_volume   1648.76020277
_cell_formula_units_Z   3
loop_
 _symmetry_equiv_pos_site_id
 _symmetry_equiv_pos_as_xyz
  1  'x, y, z'
loop_
 _atom_site_type_symbol
 _atom_site_label
 _atom_site_symmetry_multiplicity
 _atom_site_fract_x
 _atom_site_fract_y
 _atom_site_fract_z
 _atom_site_occupancy
  Na  Na0  1  0.99259922  0.63804195  0.24150029  1
  Na  Na1  1  0.62898357  0.62022074  0.74875070  1
  Na  Na2  1  0.99058512  0.36927686  0.74831688  1
  Na  Na3  1  0.37727830  0.00964521  0.75102848  1
  Na  Na4  1  0.32059348  0.97435487  0.08132786  1
  Na  Na5  1  0.65842415  0.68190646  0.08253957  1
  Na  Na6  1  0.96843432  0.29239897  0.41720040  1
  Na  Na7  1  0.32236870  0.03145531  0.41507219  1
  Na  Na8  1  0.70670719  0.67727389  0.41745568  1
  Na  Na9  1  -0.00015143  0.99972219  0.50403085  1
  Na  Na10  1  0.99885396  0.01070959  0.99618397  1
  Na  Na11  1  0.66608995  0.33421918  0.83508634  1
  Na  Na12  1  0.64525292  0.31419678  0.32379404  1
  Na  Na13  1  0.33214015  0.65313301  0.16452261  1
  Na  Na14  1  0.33121085  0.65842094  0.66425223  1
  La  La15  1  0.00479308  0.00533630  0.34834694  1
  La  La16  1  0.66850620  0.33732835  0.67816891  1
  La  La17  1  0.65926459  0.32161233  0.17314956  1
  Ta  Ta18  1  0.00023154  0.99951974  0.85870414  1
  Ta  Ta19  1  0.99613390  0.99942044  0.64595875  1
  Ta  Ta20  1  0.00433319  0.00417539  0.14656699  1
  Ta  Ta21  1  0.66656267  0.33142440  0.97812133  1
  Ta  Ta22  1  0.67150900  0.33620589  0.48441680  1
  Ta  Ta23  1  0.32881834  0.66315200  0.01285513  1
  Ta  Ta24  1  0.33424328  0.66496809  0.52114339  1
  Ta  Ta25  1  0.33681902  0.66988543  0.31217058  1
  Ta  Ta26  1  0.33266493  0.66582899  0.81480886  1
  Si  Si27  1  0.30235668  0.99232520  0.25197378  1
  Si  Si28  1  0.27622892  0.28713756  0.75279519  1
  Si  Si29  1  0.01178074  0.72385778  0.75245503  1
  Si  Si30  1  0.71018687  0.98808458  0.75343540  1
  Si  Si31  1  0.97403562  0.33158472  0.58490000  1
  Si  Si32  1  0.66963501  0.64217480  0.58488537  1
  Si  Si33  1  0.97018021  0.63314559  0.08284751  1
  Si  Si34  1  0.66348286  0.02753221  0.07882409  1
  Si  Si35  1  0.36634759  0.33912922  0.07985785  1
  Si  Si36  1  0.62466017  0.66188342  0.91538313  1
  Si  Si37  1  0.03649293  0.37446628  0.91435580  1
  Si  Si38  1  0.33874116  0.96312233  0.91550764  1
  Si  Si39  1  0.61077732  0.96022812  0.41901990  1
  Si  Si40  1  0.34869420  0.38896418  0.41843706  1
  Si  Si41  1  0.04043840  0.65173468  0.41801962  1
  P  P42  1  0.69481070  0.70495824  0.24953515  1
  P  P43  1  0.01411521  0.30893374  0.25057358  1
  P  P44  1  0.35945726  0.02885977  0.58202462  1
  O  O45  1  0.22862784  0.00164085  0.31538778  1
  O  O46  1  0.78117429  0.77347473  0.30888137  1
  O  O47  1  0.98987116  0.22689992  0.31088420  1
  O  O48  1  0.17560843  0.17112427  0.80936035  1
  O  O49  1  0.99600259  0.82497428  0.80899404  1
  O  O50  1  0.82867607  0.00597122  0.80930589  1
  O  O51  1  0.80787163  0.97063421  0.69376501  1
  O  O52  1  0.16203980  0.19055194  0.69370753  1
  O  O53  1  0.03190539  0.83988878  0.69374345  1
  O  O54  1  0.80123346  0.82698637  0.19721771  1
  O  O55  1  0.01864263  0.19216640  0.19990817  1
  O  O56  1  0.16694713  0.97756836  0.19749326  1
  O  O57  1  0.91933312  0.37129100  0.64702857  1
  O  O58  1  0.45143739  0.08088948  0.64072482  1
  O  O59  1  0.62473878  0.54715922  0.64684178  1
  O  O60  1  0.92457554  0.54831645  0.14600223  1
  O  O61  1  0.58674090  0.06824695  0.13545696  1
  O  O62  1  0.48102455  0.40745336  0.13724576  1
  O  O63  1  0.46671844  0.29336143  0.02853778  1
  O  O64  1  0.82349682  0.52391312  0.03281149  1
  O  O65  1  0.69613484  0.16677946  0.02694120  1
  O  O66  1  0.46827662  0.15691019  0.53145943  1
  O  O67  1  0.68819924  0.52218207  0.53107090  1
  O  O68  1  0.83412772  0.30759650  0.53084827  1
  O  O69  1  0.52483758  0.68399724  0.97052338  1
  O  O70  1  0.16148686  0.47996879  0.96795891  1
  O  O71  1  0.31725905  0.84470081  0.97156516  1
  O  O72  1  0.50600146  0.84038532  0.47256154  1
  O  O73  1  0.33645288  0.49500664  0.47297997  1
  O  O74  1  0.16220267  0.66858801  0.47136777  1
  O  O75  1  0.13220318  0.62975621  0.35693121  1
  O  O76  1  0.49590731  0.86139935  0.35871609  1
  O  O77  1  0.36728693  0.50446175  0.35924958  1
  O  O78  1  0.13110420  0.49351984  0.85567883  1
  O  O79  1  0.36120315  0.86482983  0.85729620  1
  O  O80  1  0.50357164  0.63711687  0.85707995  1
  O  O81  1  0.00918727  0.80953583  0.41923636  1
  O  O82  1  0.79783079  0.98520928  0.41986988  1
  O  O83  1  0.18393056  0.20437978  0.42086628  1
  O  O84  1  0.01644402  0.18762557  0.91031846  1
  O  O85  1  0.17137028  0.98400527  0.91021381  1
  O  O86  1  0.81208010  0.82914613  0.91014545  1
  O  O87  1  0.98012829  0.15632614  0.58801135  1
  O  O88  1  0.18963578  0.02663558  0.58513861  1
  O  O89  1  0.84875570  0.81992050  0.58810339  1
  O  O90  1  0.97781629  0.82181206  0.09142728  1
  O  O91  1  0.83695579  0.01671896  0.09256656  1
  O  O92  1  0.18598100  0.15978336  0.09315989  1
  O  O93  1  0.68660044  0.15095919  0.75220057  1
  O  O94  1  0.46192913  0.30647670  0.75282853  1
  O  O95  1  0.84667581  0.53841112  0.75268908  1
  O  O96  1  0.68231671  0.53449314  0.24345957  1
  O  O97  1  0.87116104  0.34673111  0.24364663  1
  O  O98  1  0.48771851  0.14857335  0.24734283  1
  O  O99  1  0.64207353  0.49384062  0.92567856  1
  O  O100  1  0.85256481  0.36121671  0.92480851  1
  O  O101  1  0.50773112  0.14884542  0.92367127  1
  O  O102  1  0.62202882  0.14582031  0.42474107  1
  O  O103  1  0.52146178  0.37444081  0.42503752  1
  O  O104  1  0.85383915  0.47657956  0.42570936  1
  O  O105  1  0.32924366  0.49125435  0.06452298  1
  O  O106  1  0.16410212  0.67784224  0.06794836  1
  O  O107  1  0.51304893  0.83391855  0.06482739  1
  O  O108  1  0.33223806  0.85213730  0.56878906  1
  O  O109  1  0.51329873  0.67460774  0.57045730  1
  O  O110  1  0.15869136  0.49340810  0.57067065  1
  O  O111  1  0.29223864  0.80403802  0.25229706  1
  O  O112  1  0.52074557  0.69881545  0.25138679  1
  O  O113  1  0.18811839  0.47717769  0.25086401  1
  O  O114  1  0.29321483  0.47685029  0.75611862  1
  O  O115  1  0.18602191  0.70845961  0.75598613  1
  O  O116  1  0.52226075  0.81370424  0.75609710  1
