# generated using pymatgen
data_Na4MgTaSi2PO12
_symmetry_space_group_name_H-M   'P 1'
_cell_length_a   9.09500836
_cell_length_b   9.09500805
_cell_length_c   22.13486813
_cell_angle_alpha   89.90167382
_cell_angle_beta   90.09832617
_cell_angle_gamma   119.68055163
_symmetry_Int_Tables_number   1
_chemical_formula_structural   Na4MgTaSi2PO12
_chemical_formula_sum   'Na24 Mg6 Ta6 Si12 P6 O72'
_cell_volume   1590.74991018
_cell_formula_units_Z   6
loop_
 _symmetry_equiv_pos_site_id
 _symmetry_equiv_pos_as_xyz
  1  'x, y, z'
loop_
 _atom_site_type_symbol
 _atom_site_label
 _atom_site_symmetry_multiplicity
 _atom_site_fract_x
 _atom_site_fract_y
 _atom_site_fract_z
 _atom_site_occupancy
  Na  Na0  1  0.64913362  0.01718163  0.24911152  1
  Na  Na1  1  0.37822545  0.36291429  0.24207291  1
  Na  Na2  1  0.97346182  0.61610489  0.24519538  1
  Na  Na3  1  0.63708571  0.62177455  0.74207291  1
  Na  Na4  1  0.98281837  0.35086638  0.74911152  1
  Na  Na5  1  0.38389511  0.02653818  0.74519538  1
  Na  Na6  1  0.31580062  0.35051463  0.58244452  1
  Na  Na7  1  0.04489245  0.69624729  0.57540591  1
  Na  Na8  1  0.64012882  0.94943789  0.57852838  1
  Na  Na9  1  0.30375271  0.95510755  0.07540591  1
  Na  Na10  1  0.64948537  0.68419938  0.08244452  1
  Na  Na11  1  0.05056211  0.35987118  0.07852838  1
  Na  Na12  1  0.98246662  0.68384863  0.91577852  1
  Na  Na13  1  0.71155845  0.02958129  0.90873991  1
  Na  Na14  1  0.30679482  0.28277189  0.91186238  1
  Na  Na15  1  0.97041871  0.28844155  0.40873991  1
  Na  Na16  1  0.31615137  0.01753338  0.41577852  1
  Na  Na17  1  0.71722811  0.69320518  0.41186238  1
  Na  Na18  1  0.99327966  0.99074236  0.49154862  1
  Na  Na19  1  0.00925764  0.00672034  0.99154862  1
  Na  Na20  1  0.65994666  0.32407536  0.82488162  1
  Na  Na21  1  0.67592464  0.34005334  0.32488162  1
  Na  Na22  1  0.32661266  0.65740936  0.15821562  1
  Na  Na23  1  0.34259064  0.67338734  0.65821562  1
  Mg  Mg24  1  0.99457052  0.99594766  0.35130091  1
  Mg  Mg25  1  0.00405234  0.00542948  0.85130091  1
  Mg  Mg26  1  0.66123752  0.32928066  0.68463391  1
  Mg  Mg27  1  0.67071934  0.33876248  0.18463391  1
  Mg  Mg28  1  0.32790352  0.66261466  0.01796791  1
  Mg  Mg29  1  0.33738534  0.67209648  0.51796791  1
  Ta  Ta30  1  0.99831132  0.00111589  0.64700934  1
  Ta  Ta31  1  0.99888411  0.00168868  0.14700934  1
  Ta  Ta32  1  0.66497832  0.33444889  0.98034234  1
  Ta  Ta33  1  0.66555111  0.33502168  0.48034234  1
  Ta  Ta34  1  0.33164432  0.66778289  0.31367634  1
  Ta  Ta35  1  0.33221711  0.66835568  0.81367634  1
  Si  Si36  1  0.70469590  0.70423183  0.25325764  1
  Si  Si37  1  0.99974683  0.29379300  0.25350246  1
  Si  Si38  1  0.29576817  0.29530410  0.75325764  1
  Si  Si39  1  0.70620700  0.00025317  0.75350246  1
  Si  Si40  1  0.37136290  0.03756483  0.58659064  1
  Si  Si41  1  0.66641383  0.62712600  0.58683546  1
  Si  Si42  1  0.96243517  0.62863710  0.08659064  1
  Si  Si43  1  0.37287400  0.33358617  0.08683546  1
  Si  Si44  1  0.03802890  0.37089883  0.91992464  1
  Si  Si45  1  0.33307983  0.96046000  0.92016946  1
  Si  Si46  1  0.62910117  0.96197110  0.41992464  1
  Si  Si47  1  0.03954000  0.66692017  0.42016946  1
  P  P48  1  0.28908679  0.99753172  0.25234715  1
  P  P49  1  0.00246828  0.71091321  0.75234715  1
  P  P50  1  0.95575379  0.33086472  0.58568015  1
  P  P51  1  0.66913528  0.04424621  0.08568015  1
  P  P52  1  0.62241979  0.66419872  0.91901415  1
  P  P53  1  0.33580128  0.37758021  0.41901415  1
  O  O54  1  0.21070002  0.02492285  0.30856480  1
  O  O55  1  0.81996552  0.78887786  0.31120141  1
  O  O56  1  0.98125143  0.18495385  0.31211716  1
  O  O57  1  0.21112214  0.18003448  0.81120141  1
  O  O58  1  0.97507715  0.78929998  0.80856480  1
  O  O59  1  0.81504615  0.01874857  0.81211716  1
  O  O60  1  0.80162131  0.96760848  0.69276668  1
  O  O61  1  0.16571893  0.19769259  0.69274588  1
  O  O62  1  0.03100142  0.82983677  0.69514212  1
  O  O63  1  0.80230741  0.83428107  0.19274588  1
  O  O64  1  0.03239152  0.19837869  0.19276668  1
  O  O65  1  0.17016323  0.96899858  0.19514212  1
  O  O66  1  0.87736702  0.35825585  0.64189780  1
  O  O67  1  0.48663252  0.12221086  0.64453441  1
  O  O68  1  0.64791843  0.51828685  0.64545016  1
  O  O69  1  0.87778914  0.51336748  0.14453441  1
  O  O70  1  0.64174415  0.12263298  0.14189780  1
  O  O71  1  0.48171315  0.35208157  0.14545016  1
  O  O72  1  0.46828831  0.30094148  0.02609968  1
  O  O73  1  0.83238593  0.53102559  0.02607888  1
  O  O74  1  0.69766842  0.16316977  0.02847512  1
  O  O75  1  0.46897441  0.16761407  0.52607888  1
  O  O76  1  0.69905852  0.53171169  0.52609968  1
  O  O77  1  0.83683023  0.30233158  0.52847512  1
  O  O78  1  0.54403302  0.69158985  0.97523180  1
  O  O79  1  0.15329852  0.45554486  0.97786841  1
  O  O80  1  0.31458443  0.85162085  0.97878416  1
  O  O81  1  0.54445514  0.84670148  0.47786841  1
  O  O82  1  0.30841015  0.45596698  0.47523180  1
  O  O83  1  0.14837915  0.68541557  0.47878416  1
  O  O84  1  0.13495431  0.63427548  0.35943368  1
  O  O85  1  0.49905193  0.86435959  0.35941288  1
  O  O86  1  0.36433442  0.49650377  0.36180912  1
  O  O87  1  0.13564041  0.50094807  0.85941288  1
  O  O88  1  0.36572452  0.86504569  0.85943368  1
  O  O89  1  0.50349623  0.63566558  0.86180912  1
  O  O90  1  0.01858666  0.83241564  0.41301065  1
  O  O91  1  0.82042728  0.99645498  0.41359514  1
  O  O92  1  0.18969178  0.19786668  0.41035255  1
  O  O93  1  0.00354502  0.17957272  0.91359514  1
  O  O94  1  0.16758436  0.98141334  0.91301065  1
  O  O95  1  0.80213332  0.81030822  0.91035255  1
  O  O96  1  0.96138329  0.15893983  0.58812466  1
  O  O97  1  0.18340033  0.03290938  0.58870530  1
  O  O98  1  0.84523200  0.81744971  0.58832773  1
  O  O99  1  0.96709062  0.81659967  0.08870530  1
  O  O100  1  0.84106017  0.03861671  0.08812466  1
  O  O101  1  0.18255029  0.15476800  0.08832773  1
  O  O102  1  0.68525366  0.16574864  0.74634365  1
  O  O103  1  0.48709428  0.32978798  0.74692814  1
  O  O104  1  0.85635878  0.53119968  0.74368555  1
  O  O105  1  0.67021202  0.51290572  0.24692814  1
  O  O106  1  0.83425136  0.31474634  0.24634365  1
  O  O107  1  0.46880032  0.14364122  0.24368555  1
  O  O108  1  0.62805029  0.49227283  0.92145766  1
  O  O109  1  0.85006733  0.36624238  0.92203830  1
  O  O110  1  0.51189900  0.15078271  0.92166073  1
  O  O111  1  0.63375762  0.14993267  0.42203830  1
  O  O112  1  0.50772717  0.37194971  0.42145766  1
  O  O113  1  0.84921729  0.48810100  0.42166073  1
  O  O114  1  0.35191966  0.49908264  0.07967765  1
  O  O115  1  0.15376028  0.66312198  0.08026214  1
  O  O116  1  0.52302478  0.86453368  0.07701955  1
  O  O117  1  0.33687802  0.84623972  0.58026214  1
  O  O118  1  0.50091736  0.64808034  0.57967765  1
  O  O119  1  0.13546632  0.47697522  0.57701955  1
  O  O120  1  0.29471629  0.82560683  0.25479166  1
  O  O121  1  0.51673333  0.69957638  0.25537230  1
  O  O122  1  0.17856500  0.48411671  0.25499473  1
  O  O123  1  0.30042362  0.48326667  0.75537230  1
  O  O124  1  0.17439317  0.70528371  0.75479166  1
  O  O125  1  0.51588329  0.82143500  0.75499473  1
