# generated using pymatgen
data_Na3Zn3In(SO4)6
_symmetry_space_group_name_H-M   'P 1'
_cell_length_a   8.81324656
_cell_length_b   8.80326720
_cell_length_c   22.72974911
_cell_angle_alpha   89.97219147
_cell_angle_beta   90.07388706
_cell_angle_gamma   119.94857374
_symmetry_Int_Tables_number   1
_chemical_formula_structural   Na3Zn3In(SO4)6
_chemical_formula_sum   'Na9 Zn9 In3 S18 O72'
_cell_volume   1528.02172836
_cell_formula_units_Z   3
loop_
 _symmetry_equiv_pos_site_id
 _symmetry_equiv_pos_as_xyz
  1  'x, y, z'
loop_
 _atom_site_type_symbol
 _atom_site_label
 _atom_site_symmetry_multiplicity
 _atom_site_fract_x
 _atom_site_fract_y
 _atom_site_fract_z
 _atom_site_occupancy
  Na  Na0  1  0.63532345  0.99845674  0.24846746  1
  Na  Na1  1  0.36403499  0.36329224  0.24790973  1
  Na  Na2  1  0.02864634  0.69644798  0.58810493  1
  Na  Na3  1  0.99854599  0.01649619  0.49942921  1
  Na  Na4  1  0.99980172  0.99907568  0.99799000  1
  Na  Na5  1  0.66603628  0.33256225  0.82886928  1
  Na  Na6  1  0.68654473  0.35152306  0.33413761  1
  Na  Na7  1  0.31463566  0.66490185  0.15841278  1
  Na  Na8  1  0.35143782  0.66498251  0.66712731  1
  Zn  Zn9  1  0.99952688  0.99515531  0.35063260  1
  Zn  Zn10  1  0.99993914  0.00053624  0.84792463  1
  Zn  Zn11  1  0.99955362  0.00785087  0.65640465  1
  Zn  Zn12  1  0.00036580  0.99589660  0.14954096  1
  Zn  Zn13  1  0.66194289  0.32857349  0.68512729  1
  Zn  Zn14  1  0.67439478  0.34058238  0.17481360  1
  Zn  Zn15  1  0.33373782  0.66676357  0.01483839  1
  Zn  Zn16  1  0.34104581  0.66597423  0.51392395  1
  Zn  Zn17  1  0.32510427  0.66590805  0.32285814  1
  In  In18  1  0.66684926  0.33350379  0.98431406  1
  In  In19  1  0.66207463  0.32812300  0.48394970  1
  In  In20  1  0.33255859  0.66671588  0.81633156  1
  S  S21  1  0.29486179  0.99792471  0.25037338  1
  S  S22  1  0.70525833  0.70287734  0.25070879  1
  S  S23  1  0.99980680  0.29578177  0.25053084  1
  S  S24  1  0.29853731  0.29541283  0.75009337  1
  S  S25  1  0.99714155  0.70154726  0.74791309  1
  S  S26  1  0.70452568  0.00252719  0.74990169  1
  S  S27  1  0.96613479  0.33183856  0.58398848  1
  S  S28  1  0.36508980  0.03232058  0.58452575  1
  S  S29  1  0.66632690  0.63314335  0.58472602  1
  S  S30  1  0.97131879  0.63739278  0.08396930  1
  S  S31  1  0.66589909  0.02889165  0.08654215  1
  S  S32  1  0.36271926  0.33373788  0.08642483  1
  S  S33  1  0.63439801  0.67043551  0.91776875  1
  S  S34  1  0.03593548  0.36538088  0.91770001  1
  S  S35  1  0.32946462  0.96416658  0.91769613  1
  S  S36  1  0.63293041  0.96346418  0.41433316  1
  S  S37  1  0.33047048  0.36681626  0.41436557  1
  S  S38  1  0.03545489  0.66938432  0.41870790  1
  O  O39  1  0.21447015  0.02685881  0.30319595  1
  O  O40  1  0.80667635  0.78123586  0.30484556  1
  O  O41  1  0.96823155  0.18474054  0.30341239  1
  O  O42  1  0.21288096  0.19603431  0.80371205  1
  O  O43  1  0.98413481  0.79311358  0.79994190  1
  O  O44  1  0.80414033  0.01712197  0.80364080  1
  O  O45  1  0.78313364  0.97956387  0.69564466  1
  O  O46  1  0.19857420  0.21594084  0.69562577  1
  O  O47  1  0.01621695  0.79769533  0.69178017  1
  O  O48  1  0.78677274  0.81364550  0.19828134  1
  O  O49  1  0.03117412  0.21538757  0.19794878  1
  O  O50  1  0.19290495  0.97602163  0.19656439  1
  O  O51  1  0.87723777  0.36200871  0.63396275  1
  O  O52  1  0.47585824  0.12106535  0.63548302  1
  O  O53  1  0.64315560  0.52241303  0.63613264  1
  O  O54  1  0.88980626  0.53128362  0.13756475  1
  O  O55  1  0.64446381  0.10924261  0.14191943  1
  O  O56  1  0.46351144  0.35357097  0.14194624  1
  O  O57  1  0.45142369  0.31007704  0.03450366  1
  O  O58  1  0.86344599  0.55481267  0.03041765  1
  O  O59  1  0.69014774  0.14148585  0.03452128  1
  O  O60  1  0.43805107  0.13226929  0.52845821  1
  O  O61  1  0.70149524  0.55742873  0.53007592  1
  O  O62  1  0.86371650  0.30290561  0.52802493  1
  O  O63  1  0.54679635  0.68614624  0.97059872  1
  O  O64  1  0.13931537  0.45335982  0.97050293  1
  O  O65  1  0.31435000  0.86105792  0.97051188  1
  O  O66  1  0.54106072  0.85990706  0.46659734  1
  O  O67  1  0.31624144  0.45759590  0.46659996  1
  O  O68  1  0.13075477  0.68170712  0.47402700  1
  O  O69  1  0.11946368  0.64765534  0.36570673  1
  O  O70  1  0.53701192  0.88577342  0.35826886  1
  O  O71  1  0.35123793  0.46413919  0.35838441  1
  O  O72  1  0.11284634  0.46945917  0.86304477  1
  O  O73  1  0.35641813  0.88726858  0.86301288  1
  O  O74  1  0.53052082  0.64380910  0.86310013  1
  O  O75  1  0.01722313  0.82760985  0.41438439  1
  O  O76  1  0.81034165  0.98372694  0.41252231  1
  O  O77  1  0.17308251  0.18971148  0.41194681  1
  O  O78  1  0.01886397  0.19013358  0.91271094  1
  O  O79  1  0.17150039  0.98134165  0.91249526  1
  O  O80  1  0.80985908  0.82802924  0.91276044  1
  O  O81  1  0.98936389  0.17796904  0.59056758  1
  O  O82  1  0.18524337  0.00784179  0.58950948  1
  O  O83  1  0.82673812  0.80912905  0.59005712  1
  O  O84  1  0.98926125  0.81364278  0.08845055  1
  O  O85  1  0.82408367  0.01095797  0.08990543  1
  O  O86  1  0.18630532  0.17586286  0.08940674  1
  O  O87  1  0.68499171  0.16066569  0.74605022  1
  O  O88  1  0.47654037  0.31594862  0.74671721  1
  O  O89  1  0.83997847  0.52360261  0.74544547  1
  O  O90  1  0.67885638  0.52162777  0.24453854  1
  O  O91  1  0.83957248  0.31217667  0.24365759  1
  O  O92  1  0.47479966  0.15911697  0.24574031  1
  O  O93  1  0.65346761  0.50994531  0.92112491  1
  O  O94  1  0.85618857  0.34548800  0.92096265  1
  O  O95  1  0.48951142  0.14388069  0.92114579  1
  O  O96  1  0.65009652  0.14271278  0.41750120  1
  O  O97  1  0.49226690  0.34985812  0.41815647  1
  O  O98  1  0.85538352  0.50852048  0.42028257  1
  O  O99  1  0.34972995  0.49443558  0.08032422  1
  O  O100  1  0.14592618  0.65282597  0.07786275  1
  O  O101  1  0.50572333  0.85529508  0.08021132  1
  O  O102  1  0.34540848  0.85348183  0.57931535  1
  O  O103  1  0.50820618  0.65007512  0.57750049  1
  O  O104  1  0.13991408  0.49680184  0.57812253  1
  O  O105  1  0.32095613  0.84277359  0.25605718  1
  O  O106  1  0.52551781  0.68446903  0.25501586  1
  O  O107  1  0.16030240  0.47235264  0.25702973  1
  O  O108  1  0.31790177  0.47602530  0.75261290  1
  O  O109  1  0.15882161  0.68379403  0.75125605  1
  O  O110  1  0.52402314  0.84193537  0.75264777  1
