# generated using pymatgen
data_Sr2HfMgCrO6
_symmetry_space_group_name_H-M   'P 1'
_cell_length_a   6.56339665
_cell_length_b   6.56345489
_cell_length_c   6.56321821
_cell_angle_alpha   76.08712600
_cell_angle_beta   128.71253720
_cell_angle_gamma   127.95410353
_symmetry_Int_Tables_number   1
_chemical_formula_structural   Sr2HfMgCrO6
_chemical_formula_sum   'Sr2 Hf1 Mg1 Cr1 O6'
_cell_volume   169.11085480
_cell_formula_units_Z   1
loop_
 _symmetry_equiv_pos_site_id
 _symmetry_equiv_pos_as_xyz
  1  'x, y, z'
loop_
 _atom_site_type_symbol
 _atom_site_label
 _atom_site_symmetry_multiplicity
 _atom_site_fract_x
 _atom_site_fract_y
 _atom_site_fract_z
 _atom_site_occupancy
  Sr  Sr0  1  0.49998300  0.32109200  0.82103900  1
  Sr  Sr1  1  0.50001700  0.67890800  0.17896100  1
  Hf  Hf2  1  0.00000000  0.50000000  0.50000000  1
  Mg  Mg3  1  0.50000000  0.00000000  0.50000000  1
  Cr  Cr4  1  0.00000000  0.00000000  0.00000000  1
  O  O5  1  0.00006100  0.29645000  0.29644900  1
  O  O6  1  0.99993900  0.70355000  0.70355100  1
  O  O7  1  0.49077100  0.24360400  0.24714000  1
  O  O8  1  0.50922900  0.75639600  0.75286000  1
  O  O9  1  0.00353700  0.75638300  0.24716000  1
  O  O10  1  0.99646300  0.24361700  0.75284000  1
