# generated using pymatgen
data_Na4TaGa3(PO4)6
_symmetry_space_group_name_H-M   'P 1'
_cell_length_a   8.68132129
_cell_length_b   8.67400048
_cell_length_c   22.14433915
_cell_angle_alpha   89.97939046
_cell_angle_beta   90.09242450
_cell_angle_gamma   119.97642725
_symmetry_Int_Tables_number   1
_chemical_formula_structural   Na4TaGa3(PO4)6
_chemical_formula_sum   'Na12 Ta3 Ga9 P18 O72'
_cell_volume   1444.44535125
_cell_formula_units_Z   3
loop_
 _symmetry_equiv_pos_site_id
 _symmetry_equiv_pos_as_xyz
  1  'x, y, z'
loop_
 _atom_site_type_symbol
 _atom_site_label
 _atom_site_symmetry_multiplicity
 _atom_site_fract_x
 _atom_site_fract_y
 _atom_site_fract_z
 _atom_site_occupancy
  Na  Na0  1  0.63397884  0.99978369  0.25057067  1
  Na  Na1  1  0.36504361  0.36553398  0.25056120  1
  Na  Na2  1  0.00025062  0.63464763  0.25018928  1
  Na  Na3  1  0.29909426  0.33180480  0.58550658  1
  Na  Na4  1  0.03451397  0.69972976  0.58532720  1
  Na  Na5  1  0.66618733  0.70086459  0.08247956  1
  Na  Na6  1  0.99131144  0.99904176  0.49762509  1
  Na  Na7  1  0.00852556  0.00768719  0.99703532  1
  Na  Na8  1  0.66684835  0.33316031  0.82714254  1
  Na  Na9  1  0.66650467  0.33293753  0.33324054  1
  Na  Na10  1  0.32461149  0.66593417  0.16288152  1
  Na  Na11  1  0.34336996  0.67559255  0.66542642  1
  Ta  Ta12  1  0.66603622  0.33167455  0.97748929  1
  Ta  Ta13  1  0.66754680  0.33275724  0.47804918  1
  Ta  Ta14  1  0.33273489  0.66658771  0.80989483  1
  Ga  Ga15  1  0.00053652  0.00064853  0.35361727  1
  Ga  Ga16  1  0.99965792  0.00022232  0.85082700  1
  Ga  Ga17  1  0.99319597  0.99938895  0.65170570  1
  Ga  Ga18  1  0.00647394  0.00564893  0.14708736  1
  Ga  Ga19  1  0.66618408  0.33151638  0.68801907  1
  Ga  Ga20  1  0.66737159  0.33235377  0.18138427  1
  Ga  Ga21  1  0.32686010  0.66598925  0.01745504  1
  Ga  Ga22  1  0.34002523  0.67262594  0.51590627  1
  Ga  Ga23  1  0.33342235  0.66712348  0.31867128  1
  P  P24  1  0.28842022  0.99989805  0.25019800  1
  P  P25  1  0.71086817  0.71081813  0.24958223  1
  P  P26  1  0.00012129  0.28882542  0.25025159  1
  P  P27  1  0.28967630  0.28167255  0.74930661  1
  P  P28  1  0.99191614  0.71064198  0.74917113  1
  P  P29  1  0.71836549  0.00768050  0.75010670  1
  P  P30  1  0.95634633  0.33025061  0.58543219  1
  P  P31  1  0.37812234  0.03993393  0.58544384  1
  P  P32  1  0.66558274  0.62680137  0.58523760  1
  P  P33  1  0.96380191  0.62654087  0.08510739  1
  P  P34  1  0.66598210  0.03977608  0.08511709  1
  P  P35  1  0.37061402  0.33115341  0.08461738  1
  P  P36  1  0.62647607  0.67570582  0.91821632  1
  P  P37  1  0.04946967  0.37360559  0.91753770  1
  P  P38  1  0.32376737  0.95048814  0.91738315  1
  P  P39  1  0.62548739  0.95133701  0.41532144  1
  P  P40  1  0.32628684  0.37509786  0.41627911  1
  P  P41  1  0.04871041  0.67393040  0.41613502  1
  O  O42  1  0.21003637  0.04112606  0.30593304  1
  O  O43  1  0.83223423  0.79237027  0.30470943  1
  O  O44  1  0.95920581  0.16913146  0.30592754  1
  O  O45  1  0.20524518  0.17239067  0.80544387  1
  O  O46  1  0.96697586  0.79477304  0.80546801  1
  O  O47  1  0.82618802  0.03382219  0.80698810  1
  O  O48  1  0.78680743  0.96194787  0.69267616  1
  O  O49  1  0.17922011  0.21416534  0.69023251  1
  O  O50  1  0.03530738  0.82163222  0.69024261  1
  O  O51  1  0.78626187  0.82532157  0.19173127  1
  O  O52  1  0.04107762  0.21107223  0.19396822  1
  O  O53  1  0.16916867  0.95838385  0.19392139  1
  O  O54  1  0.87403478  0.37256392  0.63906304  1
  O  O55  1  0.49407260  0.12661160  0.64015480  1
  O  O56  1  0.62674783  0.50306919  0.63919457  1
  O  O57  1  0.88158946  0.51503469  0.14301681  1
  O  O58  1  0.63379129  0.11927678  0.14281140  1
  O  O59  1  0.48972907  0.37127449  0.14183702  1
  O  O60  1  0.46834089  0.30581188  0.02917884  1
  O  O61  1  0.83565788  0.53195228  0.02999236  1
  O  O62  1  0.69329129  0.16229664  0.02958940  1
  O  O63  1  0.46694122  0.16251049  0.52833979  1
  O  O64  1  0.69780560  0.53540950  0.52814903  1
  O  O65  1  0.83894123  0.30445416  0.52781545  1
  O  O66  1  0.54432723  0.69849265  0.97647737  1
  O  O67  1  0.15927207  0.45800492  0.97421045  1
  O  O68  1  0.30022386  0.84210935  0.97418328  1
  O  O69  1  0.54096872  0.84059278  0.47185461  1
  O  O70  1  0.30141662  0.45763021  0.47432673  1
  O  O71  1  0.15529091  0.69764899  0.47437097  1
  O  O72  1  0.12075393  0.63254411  0.35854012  1
  O  O73  1  0.51342808  0.88181114  0.35711725  1
  O  O74  1  0.36775144  0.48852018  0.35855929  1
  O  O75  1  0.13234630  0.49561409  0.86140914  1
  O  O76  1  0.36253728  0.86742728  0.86131997  1
  O  O77  1  0.50295032  0.63764251  0.86264760  1
  O  O78  1  0.02321465  0.83539363  0.41035455  1
  O  O79  1  0.81244550  0.97709464  0.40987440  1
  O  O80  1  0.16485100  0.18827827  0.41051310  1
  O  O81  1  0.02264910  0.18841426  0.90967956  1
  O  O82  1  0.16564154  0.97768277  0.90950481  1
  O  O83  1  0.81141741  0.83411426  0.91018214  1
  O  O84  1  0.97828839  0.16510862  0.58884665  1
  O  O85  1  0.19211309  0.02563646  0.58801816  1
  O  O86  1  0.83849004  0.80791697  0.58870409  1
  O  O87  1  0.96809385  0.80660355  0.08881267  1
  O  O88  1  0.83411993  0.02200588  0.08876431  1
  O  O89  1  0.19003814  0.16167129  0.08866629  1
  O  O90  1  0.68976380  0.16772886  0.74380961  1
  O  O91  1  0.47858718  0.31111806  0.74357900  1
  O  O92  1  0.83219066  0.52182854  0.74322216  1
  O  O93  1  0.68853989  0.52085474  0.24368556  1
  O  O94  1  0.83260879  0.31097735  0.24373167  1
  O  O95  1  0.47785878  0.16743188  0.24348251  1
  O  O96  1  0.63952825  0.50062208  0.92427979  1
  O  O97  1  0.86176278  0.36094812  0.92444326  1
  O  O98  1  0.49892938  0.13835594  0.92395596  1
  O  O99  1  0.64191444  0.14055857  0.42371323  1
  O  O100  1  0.49876608  0.35809869  0.42406524  1
  O  O101  1  0.85924833  0.50140772  0.42364943  1
  O  O102  1  0.36186953  0.50322284  0.07680761  1
  O  O103  1  0.14557902  0.64256840  0.07713313  1
  O  O104  1  0.50159200  0.85323331  0.07730262  1
  O  O105  1  0.35158804  0.85169841  0.57671328  1
  O  O106  1  0.49579555  0.63888118  0.57594144  1
  O  O107  1  0.14286417  0.49885038  0.57661175  1
  O  O108  1  0.31057455  0.83248650  0.25653400  1
  O  O109  1  0.52180055  0.68915329  0.25622463  1
  O  O110  1  0.16732257  0.47841243  0.25666927  1
  O  O111  1  0.30847545  0.47314183  0.75738983  1
  O  O112  1  0.16451751  0.69189856  0.75722770  1
  O  O113  1  0.52672213  0.83534739  0.75796713  1
