# generated using pymatgen
data_Na5HfNb3(SiO4)6
_symmetry_space_group_name_H-M   'P 1'
_cell_length_a   9.07855426
_cell_length_b   9.06558620
_cell_length_c   22.81328229
_cell_angle_alpha   90.21933195
_cell_angle_beta   89.79978630
_cell_angle_gamma   120.19783470
_symmetry_Int_Tables_number   1
_chemical_formula_structural   Na5HfNb3(SiO4)6
_chemical_formula_sum   'Na15 Hf3 Nb9 Si18 O72'
_cell_volume   1622.77334374
_cell_formula_units_Z   3
loop_
 _symmetry_equiv_pos_site_id
 _symmetry_equiv_pos_as_xyz
  1  'x, y, z'
loop_
 _atom_site_type_symbol
 _atom_site_label
 _atom_site_symmetry_multiplicity
 _atom_site_fract_x
 _atom_site_fract_y
 _atom_site_fract_z
 _atom_site_occupancy
  Na  Na0  1  0.36620290  0.36309916  0.24869853  1
  Na  Na1  1  0.99499265  0.63226572  0.24860808  1
  Na  Na2  1  0.63528162  0.63110597  0.74920077  1
  Na  Na3  1  0.99860535  0.36725972  0.74951012  1
  Na  Na4  1  0.03203038  0.69760999  0.58408025  1
  Na  Na5  1  0.30305556  0.96908484  0.08394421  1
  Na  Na6  1  0.69988506  0.03382183  0.91773742  1
  Na  Na7  1  0.96827167  0.29784481  0.41542084  1
  Na  Na8  1  0.33156046  0.03375794  0.41580354  1
  Na  Na9  1  0.99326563  0.99876569  0.49972080  1
  Na  Na10  1  0.00015499  0.99999982  0.00102025  1
  Na  Na11  1  0.65985545  0.33227058  0.83405328  1
  Na  Na12  1  0.66691132  0.33300063  0.33085166  1
  Na  Na13  1  0.33981840  0.66753648  0.16494381  1
  Na  Na14  1  0.33999561  0.67350980  0.66569814  1
  Hf  Hf15  1  0.99542043  0.99514090  0.35304340  1
  Hf  Hf16  1  0.66100093  0.32693798  0.68621377  1
  Hf  Hf17  1  0.66639856  0.32838862  0.18491407  1
  Nb  Nb18  1  0.00530114  0.00013958  0.85509964  1
  Nb  Nb19  1  0.00022900  0.00418385  0.64516803  1
  Nb  Nb20  1  0.99381715  0.99965553  0.14524586  1
  Nb  Nb21  1  0.66784511  0.33892392  0.98011008  1
  Nb  Nb22  1  0.66673060  0.33734823  0.48077326  1
  Nb  Nb23  1  0.33226568  0.66138400  0.02079490  1
  Nb  Nb24  1  0.33803793  0.66667909  0.52106141  1
  Nb  Nb25  1  0.33701131  0.67037024  0.31236918  1
  Nb  Nb26  1  0.33337166  0.67065113  0.81409919  1
  Si  Si27  1  0.29108419  0.00110412  0.25008266  1
  Si  Si28  1  0.70832760  0.70950497  0.24976542  1
  Si  Si29  1  0.99604470  0.28835995  0.25116550  1
  Si  Si30  1  0.29083392  0.28832898  0.75053639  1
  Si  Si31  1  0.00383320  0.71411973  0.74942790  1
  Si  Si32  1  0.71108308  0.00004389  0.75111696  1
  Si  Si33  1  0.95584097  0.33101877  0.58345384  1
  Si  Si34  1  0.37585279  0.04278215  0.58293297  1
  Si  Si35  1  0.66401112  0.62402102  0.58508464  1
  Si  Si36  1  0.95771237  0.62402131  0.08420248  1
  Si  Si37  1  0.66854963  0.04315632  0.08167171  1
  Si  Si38  1  0.37707285  0.33571360  0.08432838  1
  Si  Si39  1  0.62102994  0.66310369  0.91632448  1
  Si  Si40  1  0.04336323  0.37785077  0.91650957  1
  Si  Si41  1  0.33149537  0.95642909  0.91850480  1
  Si  Si42  1  0.62502599  0.95608789  0.41743986  1
  Si  Si43  1  0.33730607  0.37986208  0.41648224  1
  Si  Si44  1  0.04350177  0.66654578  0.41741691  1
  O  O45  1  0.20666708  0.03237071  0.30865728  1
  O  O46  1  0.83114609  0.79518701  0.30585006  1
  O  O47  1  0.97304172  0.17868413  0.30991826  1
  O  O48  1  0.19053151  0.16631908  0.80700291  1
  O  O49  1  0.97090241  0.80880532  0.80564690  1
  O  O50  1  0.83153264  0.02875756  0.80867572  1
  O  O51  1  0.80470331  0.96524134  0.69437015  1
  O  O52  1  0.16197386  0.19564587  0.69414144  1
  O  O53  1  0.03051493  0.83141185  0.69104397  1
  O  O54  1  0.80461481  0.83474669  0.19262902  1
  O  O55  1  0.03457457  0.19566362  0.19461310  1
  O  O56  1  0.16612987  0.96430955  0.19228400  1
  O  O57  1  0.87712754  0.37212715  0.64115285  1
  O  O58  1  0.49456367  0.12796216  0.63926410  1
  O  O59  1  0.63592715  0.51149206  0.64308692  1
  O  O60  1  0.87784232  0.51240869  0.14250942  1
  O  O61  1  0.62615247  0.12447332  0.13773812  1
  O  O62  1  0.48827500  0.36560618  0.14271949  1
  O  O63  1  0.47193363  0.30093891  0.02758058  1
  O  O64  1  0.83304301  0.52669731  0.02703940  1
  O  O65  1  0.69502049  0.16147304  0.02316418  1
  O  O66  1  0.46719919  0.16194052  0.52424753  1
  O  O67  1  0.69804904  0.52871732  0.52807920  1
  O  O68  1  0.83652817  0.30534851  0.52500694  1
  O  O69  1  0.52862539  0.70027374  0.97156706  1
  O  O70  1  0.16748856  0.47330392  0.97226208  1
  O  O71  1  0.30467301  0.83809694  0.97546081  1
  O  O72  1  0.52412243  0.83343687  0.47349696  1
  O  O73  1  0.30413149  0.47492717  0.47219454  1
  O  O74  1  0.16469118  0.69454353  0.47453746  1
  O  O75  1  0.13293465  0.63171674  0.35930798  1
  O  O76  1  0.49540304  0.86248350  0.36099256  1
  O  O77  1  0.36353219  0.49840864  0.35819040  1
  O  O78  1  0.13559198  0.49606989  0.85794596  1
  O  O79  1  0.36404220  0.86095912  0.86128452  1
  O  O80  1  0.50340888  0.63852123  0.85761205  1
  O  O81  1  0.03453759  0.83965804  0.41258056  1
  O  O82  1  0.81476436  0.98562638  0.41329196  1
  O  O83  1  0.16759591  0.19207759  0.41262428  1
  O  O84  1  0.01727564  0.18553127  0.90965204  1
  O  O85  1  0.16302337  0.97469569  0.90918095  1
  O  O86  1  0.80601936  0.83944160  0.90896569  1
  O  O87  1  0.97561635  0.16186196  0.58994476  1
  O  O88  1  0.18280375  0.01637813  0.58939297  1
  O  O89  1  0.84155481  0.80971027  0.58916636  1
  O  O90  1  0.98502705  0.81812581  0.08891267  1
  O  O91  1  0.83819017  0.02410950  0.08942768  1
  O  O92  1  0.19062760  0.15839227  0.08944585  1
  O  O93  1  0.70221758  0.17307566  0.74530489  1
  O  O94  1  0.48130601  0.31870441  0.74633920  1
  O  O95  1  0.83405794  0.52575261  0.74547935  1
  O  O96  1  0.68604967  0.52105397  0.24369360  1
  O  O97  1  0.83865696  0.32276574  0.24482699  1
  O  O98  1  0.47551052  0.17217774  0.24458149  1
  O  O99  1  0.64081975  0.49506440  0.92365057  1
  O  O100  1  0.85148190  0.35102790  0.92303699  1
  O  O101  1  0.50789053  0.14114995  0.92299072  1
  O  O102  1  0.63661383  0.14333456  0.42346774  1
  O  O103  1  0.50377171  0.35524931  0.42383313  1
  O  O104  1  0.85836921  0.48925793  0.42370068  1
  O  O105  1  0.35502529  0.50220657  0.07420129  1
  O  O106  1  0.15064652  0.65305099  0.07462665  1
  O  O107  1  0.49481059  0.85574613  0.07379320  1
  O  O108  1  0.34531857  0.84870733  0.57493731  1
  O  O109  1  0.49746693  0.64510564  0.57507546  1
  O  O110  1  0.14225791  0.50500506  0.57436296  1
  O  O111  1  0.29913288  0.82307823  0.25710642  1
  O  O112  1  0.51668898  0.68694049  0.25626507  1
  O  O113  1  0.17367001  0.47877707  0.25622512  1
  O  O114  1  0.30324011  0.47627944  0.75670102  1
  O  O115  1  0.16993640  0.68812015  0.75718957  1
  O  O116  1  0.52543251  0.82286786  0.75678670  1
