# generated using pymatgen
data_Ga2(SO4)3
_symmetry_space_group_name_H-M   'P 1'
_cell_length_a   8.44611877
_cell_length_b   8.44611852
_cell_length_c   21.91424278
_cell_angle_alpha   90.00000000
_cell_angle_beta   90.00000000
_cell_angle_gamma   120.00000095
_symmetry_Int_Tables_number   1
_chemical_formula_structural   Ga2(SO4)3
_chemical_formula_sum   'Ga12 S18 O72'
_cell_volume   1353.85281326
_cell_formula_units_Z   6
loop_
 _symmetry_equiv_pos_site_id
 _symmetry_equiv_pos_as_xyz
  1  'x, y, z'
loop_
 _atom_site_type_symbol
 _atom_site_label
 _atom_site_symmetry_multiplicity
 _atom_site_fract_x
 _atom_site_fract_y
 _atom_site_fract_z
 _atom_site_occupancy
  Ga  Ga0  1  -0.00000000  0.00000000  0.35345836  1
  Ga  Ga1  1  -0.00000000  0.00000000  0.85345836  1
  Ga  Ga2  1  -0.00000000  0.00000000  0.64654164  1
  Ga  Ga3  1  -0.00000000  0.00000000  0.14654164  1
  Ga  Ga4  1  0.66666700  0.33333300  0.68679136  1
  Ga  Ga5  1  0.66666700  0.33333300  0.18679136  1
  Ga  Ga6  1  0.66666700  0.33333300  0.97987464  1
  Ga  Ga7  1  0.66666700  0.33333300  0.47987464  1
  Ga  Ga8  1  0.33333300  0.66666700  0.02012536  1
  Ga  Ga9  1  0.33333300  0.66666700  0.52012536  1
  Ga  Ga10  1  0.33333300  0.66666700  0.31320864  1
  Ga  Ga11  1  0.33333300  0.66666700  0.81320864  1
  S  S12  1  0.29075719  0.00000000  0.25000000  1
  S  S13  1  0.70924281  0.70924281  0.25000000  1
  S  S14  1  1.00000000  0.29075719  0.25000000  1
  S  S15  1  0.29075719  0.29075719  0.75000000  1
  S  S16  1  0.00000000  0.70924281  0.75000000  1
  S  S17  1  0.70924281  0.00000000  0.75000000  1
  S  S18  1  0.95742419  0.33333300  0.58333300  1
  S  S19  1  0.37590981  0.04257581  0.58333300  1
  S  S20  1  0.66666700  0.62409019  0.58333300  1
  S  S21  1  0.95742419  0.62409019  0.08333300  1
  S  S22  1  0.66666700  0.04257581  0.08333300  1
  S  S23  1  0.37590981  0.33333300  0.08333300  1
  S  S24  1  0.62409019  0.66666700  0.91666700  1
  S  S25  1  0.04257581  0.37590981  0.91666700  1
  S  S26  1  0.33333300  0.95742419  0.91666700  1
  S  S27  1  0.62409019  0.95742419  0.41666700  1
  S  S28  1  0.33333300  0.37590981  0.41666700  1
  S  S29  1  0.04257581  0.66666700  0.41666700  1
  O  O30  1  0.21139422  0.03601377  0.30495075  1
  O  O31  1  0.82461955  0.78860578  0.30495075  1
  O  O32  1  0.96398623  0.17538045  0.30495075  1
  O  O33  1  0.21139422  0.17538045  0.80495075  1
  O  O34  1  0.96398623  0.78860578  0.80495075  1
  O  O35  1  0.82461955  0.03601377  0.80495075  1
  O  O36  1  0.78860578  0.96398623  0.69504925  1
  O  O37  1  0.17538045  0.21139422  0.69504925  1
  O  O38  1  0.03601377  0.82461955  0.69504925  1
  O  O39  1  0.78860578  0.82461955  0.19504925  1
  O  O40  1  0.03601377  0.21139422  0.19504925  1
  O  O41  1  0.17538045  0.96398623  0.19504925  1
  O  O42  1  0.87806122  0.36934677  0.63828375  1
  O  O43  1  0.49128655  0.12193878  0.63828375  1
  O  O44  1  0.63065323  0.50871345  0.63828375  1
  O  O45  1  0.87806122  0.50871345  0.13828375  1
  O  O46  1  0.63065323  0.12193878  0.13828375  1
  O  O47  1  0.49128655  0.36934677  0.13828375  1
  O  O48  1  0.45527278  0.29731923  0.02838225  1
  O  O49  1  0.84204745  0.54472722  0.02838225  1
  O  O50  1  0.70268077  0.15795255  0.02838225  1
  O  O51  1  0.45527278  0.15795255  0.52838225  1
  O  O52  1  0.70268077  0.54472722  0.52838225  1
  O  O53  1  0.84204745  0.29731923  0.52838225  1
  O  O54  1  0.54472722  0.70268077  0.97161775  1
  O  O55  1  0.15795255  0.45527278  0.97161775  1
  O  O56  1  0.29731923  0.84204745  0.97161775  1
  O  O57  1  0.54472722  0.84204745  0.47161775  1
  O  O58  1  0.29731923  0.45527278  0.47161775  1
  O  O59  1  0.15795255  0.70268077  0.47161775  1
  O  O60  1  0.12193878  0.63065323  0.36171625  1
  O  O61  1  0.50871345  0.87806122  0.36171625  1
  O  O62  1  0.36934677  0.49128655  0.36171625  1
  O  O63  1  0.12193878  0.49128655  0.86171625  1
  O  O64  1  0.36934677  0.87806122  0.86171625  1
  O  O65  1  0.50871345  0.63065323  0.86171625  1
  O  O66  1  0.02504317  0.83054570  0.40860850  1
  O  O67  1  0.80550253  0.97495683  0.40860850  1
  O  O68  1  0.16945430  0.19449747  0.40860850  1
  O  O69  1  0.02504317  0.19449747  0.90860850  1
  O  O70  1  0.16945430  0.97495683  0.90860850  1
  O  O71  1  0.80550253  0.83054570  0.90860850  1
  O  O72  1  0.97495683  0.16945430  0.59139150  1
  O  O73  1  0.19449747  0.02504317  0.59139150  1
  O  O74  1  0.83054570  0.80550253  0.59139150  1
  O  O75  1  0.97495683  0.80550253  0.09139150  1
  O  O76  1  0.83054570  0.02504317  0.09139150  1
  O  O77  1  0.19449747  0.16945430  0.09139150  1
  O  O78  1  0.69171017  0.16387870  0.74194150  1
  O  O79  1  0.47216953  0.30828983  0.74194150  1
  O  O80  1  0.83612130  0.52783047  0.74194150  1
  O  O81  1  0.69171017  0.52783047  0.24194150  1
  O  O82  1  0.83612130  0.30828983  0.24194150  1
  O  O83  1  0.47216953  0.16387870  0.24194150  1
  O  O84  1  0.64162383  0.50278730  0.92472450  1
  O  O85  1  0.86116447  0.35837617  0.92472450  1
  O  O86  1  0.49721270  0.13883553  0.92472450  1
  O  O87  1  0.64162383  0.13883553  0.42472450  1
  O  O88  1  0.49721270  0.35837617  0.42472450  1
  O  O89  1  0.86116447  0.50278730  0.42472450  1
  O  O90  1  0.35837617  0.49721270  0.07527550  1
  O  O91  1  0.13883553  0.64162383  0.07527550  1
  O  O92  1  0.50278730  0.86116447  0.07527550  1
  O  O93  1  0.35837617  0.86116447  0.57527550  1
  O  O94  1  0.50278730  0.64162383  0.57527550  1
  O  O95  1  0.13883553  0.49721270  0.57527550  1
  O  O96  1  0.30828983  0.83612130  0.25805850  1
  O  O97  1  0.52783047  0.69171017  0.25805850  1
  O  O98  1  0.16387870  0.47216953  0.25805850  1
  O  O99  1  0.30828983  0.47216953  0.75805850  1
  O  O100  1  0.16387870  0.69171017  0.75805850  1
  O  O101  1  0.52783047  0.83612130  0.75805850  1
