# generated using pymatgen
data_MgCo5BiO12
_symmetry_space_group_name_H-M   'P 1'
_cell_length_a   5.18688912
_cell_length_b   5.15037563
_cell_length_c   9.90295785
_cell_angle_alpha   92.55573533
_cell_angle_beta   96.91720329
_cell_angle_gamma   59.39907855
_symmetry_Int_Tables_number   1
_chemical_formula_structural   MgCo5BiO12
_chemical_formula_sum   'Mg1 Co5 Bi1 O12'
_cell_volume   226.00802265
_cell_formula_units_Z   1
loop_
 _symmetry_equiv_pos_site_id
 _symmetry_equiv_pos_as_xyz
  1  'x, y, z'
loop_
 _atom_site_type_symbol
 _atom_site_label
 _atom_site_symmetry_multiplicity
 _atom_site_fract_x
 _atom_site_fract_y
 _atom_site_fract_z
 _atom_site_occupancy
  Mg  Mg0  1  0.58122700  0.66247400  0.74145500  1
  Co  Co1  1  0.18419600  0.65904900  0.49872200  1
  Co  Co2  1  0.66610200  0.65267900  0.00705600  1
  Co  Co3  1  0.33052100  0.31644600  0.99626600  1
  Co  Co4  1  0.84631000  0.32677500  0.49781800  1
  Co  Co5  1  0.51023800  0.00062500  0.48362100  1
  Bi  Bi6  1  0.99582500  0.99271200  0.00946800  1
  O  O7  1  0.02879400  0.60773200  0.10109900  1
  O  O8  1  0.33935600  0.64203900  0.89592900  1
  O  O9  1  0.14516400  0.34312100  0.40934100  1
  O  O10  1  0.48857500  0.63675800  0.40189500  1
  O  O11  1  0.54359000  0.35115300  0.60076900  1
  O  O12  1  0.21496600  0.96788300  0.59805700  1
  O  O13  1  0.85927700  0.64838100  0.59638700  1
  O  O14  1  0.67171200  0.35479100  0.11136700  1
  O  O15  1  0.38985300  0.98630300  0.10662900  1
  O  O16  1  0.92973700  0.36489900  0.88666900  1
  O  O17  1  0.61231100  0.97814200  0.89298100  1
  O  O18  1  0.84349400  0.99553800  0.40822100  1
