# generated using pymatgen
data_Na14Mg4In4Si5S7O48
_symmetry_space_group_name_H-M   'P 1'
_cell_length_a   18.36447638
_cell_length_b   9.14044934
_cell_length_c   22.46009842
_cell_angle_alpha   89.89642023
_cell_angle_beta   90.27727116
_cell_angle_gamma   119.80893393
_symmetry_Int_Tables_number   1
_chemical_formula_structural   Na14Mg4In4Si5S7O48
_chemical_formula_sum   'Na42 Mg12 In12 Si15 S21 O144'
_cell_volume   3271.26802969
_cell_formula_units_Z   3
loop_
 _symmetry_equiv_pos_site_id
 _symmetry_equiv_pos_as_xyz
  1  'x, y, z'
loop_
 _atom_site_type_symbol
 _atom_site_label
 _atom_site_symmetry_multiplicity
 _atom_site_fract_x
 _atom_site_fract_y
 _atom_site_fract_z
 _atom_site_occupancy
  Na  Na0  1  0.80746597  0.99449485  0.24978088  1
  Na  Na1  1  0.18524427  0.35765211  0.25227808  1
  Na  Na2  1  0.68187335  0.35162065  0.25162048  1
  Na  Na3  1  0.00454323  0.65083862  0.24507217  1
  Na  Na4  1  0.50973677  0.65154566  0.23919691  1
  Na  Na5  1  0.31798729  0.61928042  0.75236960  1
  Na  Na6  1  0.00935060  0.36690602  0.73965448  1
  Na  Na7  1  0.50352133  0.37444289  0.74443024  1
  Na  Na8  1  0.18542606  0.01799661  0.75082370  1
  Na  Na9  1  0.67163769  0.99405508  0.74956703  1
  Na  Na10  1  0.14706138  0.32534474  0.58452557  1
  Na  Na11  1  0.65101401  0.32463519  0.58224430  1
  Na  Na12  1  0.33003835  0.97675537  0.59148560  1
  Na  Na13  1  0.83153179  0.98780769  0.58545420  1
  Na  Na14  1  0.15471980  0.98361879  0.07473296  1
  Na  Na15  1  0.64486508  0.96568753  0.07811982  1
  Na  Na16  1  0.33368741  0.67768414  0.08026262  1
  Na  Na17  1  0.82774223  0.68096847  0.08463674  1
  Na  Na18  1  0.48574613  0.67925859  0.91722623  1
  Na  Na19  1  0.99262480  0.68155603  0.91542173  1
  Na  Na20  1  0.34200614  0.03222941  0.91107274  1
  Na  Na21  1  0.84083463  0.02731713  0.91153538  1
  Na  Na22  1  0.16880317  0.27953556  0.91312674  1
  Na  Na23  1  0.66419073  0.27932792  0.91544413  1
  Na  Na24  1  0.49326665  0.30490692  0.41993568  1
  Na  Na25  1  0.98673688  0.29807954  0.43265975  1
  Na  Na26  1  0.16811261  0.05502859  0.42273829  1
  Na  Na27  1  0.66821509  0.05761096  0.41929815  1
  Na  Na28  1  0.34416918  0.65459354  0.41753008  1
  Na  Na29  1  0.83966944  0.65099198  0.41690003  1
  Na  Na30  1  0.01168925  0.01673019  0.50671862  1
  Na  Na31  1  0.51307692  0.00794148  0.50188138  1
  Na  Na32  1  0.01418119  0.02123360  0.99664211  1
  Na  Na33  1  0.51208957  0.00579606  0.00142542  1
  Na  Na34  1  0.32790136  0.33452687  0.82726638  1
  Na  Na35  1  0.81894736  0.32540632  0.83080693  1
  Na  Na36  1  0.32244482  0.31424974  0.33271304  1
  Na  Na37  1  0.81592696  0.31902800  0.33535545  1
  Na  Na38  1  0.17032784  0.67036488  0.16410141  1
  Na  Na39  1  0.65180017  0.64838151  0.16258906  1
  Na  Na40  1  0.15460160  0.65462706  0.66569528  1
  Na  Na41  1  0.65935296  0.66919857  0.67089990  1
  Mg  Mg42  1  0.01171897  0.01826961  0.34966902  1
  Mg  Mg43  1  0.51333110  0.02117777  0.34864885  1
  Mg  Mg44  1  0.01142423  0.00368770  0.84802872  1
  Mg  Mg45  1  0.51262662  0.99161956  0.84481726  1
  Mg  Mg46  1  0.32742670  0.32958992  0.68593766  1
  Mg  Mg47  1  0.82066386  0.32141395  0.18095314  1
  Mg  Mg48  1  0.32711229  0.33065314  0.98617651  1
  Mg  Mg49  1  0.82425112  0.31720468  0.98458525  1
  Mg  Mg50  1  0.32396560  0.33317191  0.48690422  1
  Mg  Mg51  1  0.82703342  0.32643508  0.48816573  1
  Mg  Mg52  1  0.66536155  0.66394814  0.31803223  1
  Mg  Mg53  1  0.16840062  0.67122010  0.81687240  1
  In  In54  1  0.01035224  0.01703879  0.64932877  1
  In  In55  1  0.51345069  0.00398552  0.65467403  1
  In  In56  1  0.00981432  0.00902530  0.15038381  1
  In  In57  1  0.51073392  0.00446046  0.14815400  1
  In  In58  1  0.82685121  0.32042525  0.67969629  1
  In  In59  1  0.32773303  0.33167425  0.17868967  1
  In  In60  1  0.16194225  0.65859740  0.01330780  1
  In  In61  1  0.65263113  0.65217866  0.01982994  1
  In  In62  1  0.15485915  0.65517659  0.52229394  1
  In  In63  1  0.66147572  0.66353497  0.51492998  1
  In  In64  1  0.17232401  0.67756030  0.31896111  1
  In  In65  1  0.66647103  0.66796754  0.81609154  1
  Si  Si66  1  0.15197260  0.99742561  0.25120949  1
  Si  Si67  1  0.65331005  0.99564056  0.25361220  1
  Si  Si68  1  0.15130065  0.31102250  0.75383697  1
  Si  Si69  1  0.65342083  0.30704581  0.75106247  1
  Si  Si70  1  0.49472786  0.68837544  0.75278146  1
  Si  Si71  1  0.97732198  0.32997977  0.58330625  1
  Si  Si72  1  0.18820887  0.03744746  0.58271524  1
  Si  Si73  1  0.68078864  0.02549905  0.57938412  1
  Si  Si74  1  0.47731060  0.62428585  0.08386793  1
  Si  Si75  1  0.18085072  0.33730792  0.08148363  1
  Si  Si76  1  0.68655057  0.34058308  0.08263683  1
  Si  Si77  1  0.16711274  0.96411720  0.91640259  1
  Si  Si78  1  0.66933813  0.96783228  0.91725817  1
  Si  Si79  1  0.16779616  0.37150556  0.41527082  1
  Si  Si80  1  0.66755397  0.37111542  0.41527716  1
  S  S81  1  0.35439253  0.71243424  0.25195684  1
  S  S82  1  0.85564128  0.71067652  0.25072243  1
  S  S83  1  0.99709705  0.29565675  0.25119242  1
  S  S84  1  0.49795282  0.29446068  0.25312916  1
  S  S85  1  0.99849808  0.70164362  0.75316624  1
  S  S86  1  0.35336839  0.99735685  0.75080758  1
  S  S87  1  0.85657089  0.99854961  0.75208509  1
  S  S88  1  0.47652452  0.33060544  0.58287435  1
  S  S89  1  0.33731546  0.63295173  0.58266564  1
  S  S90  1  0.83406808  0.63228383  0.58108311  1
  S  S91  1  0.97662893  0.61957597  0.08498583  1
  S  S92  1  0.33336997  0.03484298  0.08183057  1
  S  S93  1  0.83842948  0.04422564  0.08487961  1
  S  S94  1  0.31650195  0.67067823  0.91530342  1
  S  S95  1  0.81920753  0.67008870  0.91844681  1
  S  S96  1  0.01441808  0.36432687  0.91471489  1
  S  S97  1  0.51212336  0.35612245  0.91544874  1
  S  S98  1  0.32056149  0.97161268  0.41811815  1
  S  S99  1  0.81785942  0.96380281  0.41260060  1
  S  S100  1  0.01370191  0.66800520  0.41341301  1
  S  S101  1  0.51473972  0.66543811  0.41344935  1
  O  O102  1  0.10722853  0.02889077  0.30797880  1
  O  O103  1  0.61072362  0.03304886  0.31071662  1
  O  O104  1  0.40248229  0.80385671  0.30549640  1
  O  O105  1  0.90858208  0.80105469  0.30298214  1
  O  O106  1  0.48843056  0.19348266  0.30735945  1
  O  O107  1  0.98378577  0.18961725  0.30470683  1
  O  O108  1  0.10699373  0.18950608  0.81109423  1
  O  O109  1  0.60911375  0.18649689  0.80834325  1
  O  O110  1  0.47601585  0.76726382  0.81188340  1
  O  O111  1  0.98829888  0.78225988  0.80743390  1
  O  O112  1  0.40669572  0.01684373  0.80339772  1
  O  O113  1  0.90613227  0.00564593  0.80515593  1
  O  O114  1  0.39110430  0.97184892  0.69512564  1
  O  O115  1  0.89472684  0.98069613  0.69608081  1
  O  O116  1  0.09021255  0.23661570  0.69366566  1
  O  O117  1  0.59580353  0.24029684  0.68896181  1
  O  O118  1  0.00733347  0.80418373  0.69921481  1
  O  O119  1  0.51490737  0.81123278  0.69479844  1
  O  O120  1  0.39274196  0.80705794  0.19636140  1
  O  O121  1  0.89270391  0.81555015  0.19527634  1
  O  O122  1  0.00933770  0.21458982  0.19763619  1
  O  O123  1  0.50722057  0.21055995  0.19925948  1
  O  O124  1  0.09222576  0.94843001  0.19026821  1
  O  O125  1  0.59349346  0.95247748  0.19347177  1
  O  O126  1  0.43562080  0.34597835  0.63653128  1
  O  O127  1  0.93668192  0.35442504  0.64504324  1
  O  O128  1  0.24560273  0.12365628  0.64157464  1
  O  O129  1  0.73488139  0.09595045  0.64179459  1
  O  O130  1  0.33026755  0.53108954  0.63537207  1
  O  O131  1  0.82039221  0.52617799  0.63434998  1
  O  O132  1  0.43885527  0.52188761  0.14734312  1
  O  O133  1  0.93611245  0.52342934  0.13974981  1
  O  O134  1  0.31859058  0.11054021  0.13590958  1
  O  O135  1  0.83291292  0.13221416  0.13871255  1
  O  O136  1  0.23216517  0.37175939  0.14548828  1
  O  O137  1  0.74126253  0.37446021  0.14407600  1
  O  O138  1  0.22579652  0.30507014  0.02544517  1
  O  O139  1  0.73012735  0.31118265  0.02446310  1
  O  O140  1  0.42143668  0.52880348  0.02588394  1
  O  O141  1  0.92976021  0.53267385  0.03040660  1
  O  O142  1  0.34227300  0.13303829  0.02783188  1
  O  O143  1  0.85025540  0.14391359  0.03009280  1
  O  O144  1  0.22647921  0.14515404  0.52142184  1
  O  O145  1  0.72523838  0.14126355  0.52138191  1
  O  O146  1  0.34806105  0.55718387  0.52682736  1
  O  O147  1  0.84371607  0.55367438  0.52626718  1
  O  O148  1  0.43054863  0.32574593  0.52738343  1
  O  O149  1  0.92464880  0.31799232  0.52329441  1
  O  O150  1  0.27838488  0.69260103  0.97166552  1
  O  O151  1  0.78164681  0.69887744  0.97282555  1
  O  O152  1  0.07002840  0.43142438  0.96861502  1
  O  O153  1  0.57109385  0.42963586  0.96718033  1
  O  O154  1  0.14652793  0.84608930  0.97869077  1
  O  O155  1  0.65490727  0.84971872  0.97646390  1
  O  O156  1  0.28091596  0.86308216  0.47076243  1
  O  O157  1  0.78135268  0.86297061  0.46811168  1
  O  O158  1  0.15247699  0.46717492  0.47139364  1
  O  O159  1  0.64847935  0.45321824  0.47587238  1
  O  O160  1  0.07284996  0.70941485  0.46423603  1
  O  O161  1  0.57055307  0.70786566  0.46684399  1
  O  O162  1  0.05110084  0.63748010  0.35865999  1
  O  O163  1  0.55590916  0.64049228  0.36087893  1
  O  O164  1  0.26285811  0.90259298  0.36524146  1
  O  O165  1  0.76161316  0.87798910  0.36108345  1
  O  O166  1  0.18516849  0.48728419  0.35398061  1
  O  O167  1  0.68124600  0.49239608  0.35823038  1
  O  O168  1  0.05601472  0.47234985  0.86252574  1
  O  O169  1  0.55086068  0.46356863  0.86175368  1
  O  O170  1  0.17951114  0.86507083  0.86095886  1
  O  O171  1  0.69068585  0.88397731  0.85968169  1
  O  O172  1  0.26006479  0.64446324  0.86423253  1
  O  O173  1  0.76086911  0.62910058  0.86691856  1
  O  O174  1  0.00042874  0.81473198  0.40662107  1
  O  O175  1  0.49850559  0.80879872  0.40677289  1
  O  O176  1  0.40161058  0.97557602  0.40819514  1
  O  O177  1  0.90144962  0.97620094  0.40544067  1
  O  O178  1  0.08179546  0.18603531  0.41278702  1
  O  O179  1  0.58176843  0.18323024  0.41377484  1
  O  O180  1  0.99763740  0.18823994  0.90834957  1
  O  O181  1  0.49862509  0.18324236  0.90812778  1
  O  O182  1  0.08110271  0.98047084  0.91388087  1
  O  O183  1  0.58353031  0.98129530  0.91382559  1
  O  O184  1  0.39868824  0.82735755  0.91031584  1
  O  O185  1  0.90106854  0.82753868  0.90891347  1
  O  O186  1  0.47938468  0.16786973  0.58370550  1
  O  O187  1  0.97840569  0.14806956  0.58417294  1
  O  O188  1  0.09344913  0.01699077  0.58619431  1
  O  O189  1  0.59041476  0.02296485  0.58264614  1
  O  O190  1  0.40791298  0.81029687  0.58626555  1
  O  O191  1  0.90716952  0.80342443  0.58732168  1
  O  O192  1  0.47950497  0.80977634  0.08490963  1
  O  O193  1  0.97818944  0.78781155  0.08546998  1
  O  O194  1  0.40664374  0.01023114  0.08863156  1
  O  O195  1  0.91047552  0.01009794  0.08938870  1
  O  O196  1  0.08841857  0.16033081  0.08398155  1
  O  O197  1  0.59263737  0.17025684  0.08495841  1
  O  O198  1  0.34613908  0.15203021  0.74632310  1
  O  O199  1  0.85362799  0.16021303  0.75182634  1
  O  O200  1  0.24237311  0.32074498  0.74607074  1
  O  O201  1  0.74347523  0.30615270  0.74486803  1
  O  O202  1  0.41565345  0.49800449  0.74355965  1
  O  O203  1  0.92575420  0.52831420  0.74942775  1
  O  O204  1  0.35035477  0.54394642  0.25222174  1
  O  O205  1  0.85303958  0.54524662  0.24620330  1
  O  O206  1  0.42484756  0.32149587  0.24971382  1
  O  O207  1  0.92386312  0.32073611  0.24432859  1
  O  O208  1  0.24347479  0.17255554  0.24477804  1
  O  O209  1  0.74731080  0.16654975  0.24624450  1
  O  O210  1  0.32686963  0.51955597  0.91924298  1
  O  O211  1  0.83488685  0.52556134  0.92447999  1
  O  O212  1  0.43094679  0.35019720  0.92432443  1
  O  O213  1  0.93342979  0.36217796  0.92389407  1
  O  O214  1  0.25271520  0.15016232  0.92179625  1
  O  O215  1  0.75474644  0.15524159  0.92032262  1
  O  O216  1  0.33621036  0.14684726  0.42478035  1
  O  O217  1  0.82824783  0.13555925  0.41673289  1
  O  O218  1  0.25369010  0.35691963  0.41939386  1
  O  O219  1  0.75347188  0.35622054  0.42105038  1
  O  O220  1  0.43338686  0.50646913  0.42224179  1
  O  O221  1  0.93174674  0.51278302  0.42188950  1
  O  O222  1  0.17718975  0.51518235  0.07719099  1
  O  O223  1  0.68378913  0.51983666  0.07797677  1
  O  O224  1  0.06526532  0.65548225  0.08413657  1
  O  O225  1  0.57607651  0.66984736  0.08518183  1
  O  O226  1  0.25575967  0.86223213  0.07845019  1
  O  O227  1  0.75996291  0.87759905  0.08211882  1
  O  O228  1  0.18597567  0.85238894  0.57904129  1
  O  O229  1  0.67749722  0.84015965  0.57589127  1
  O  O230  1  0.25722660  0.63977988  0.57938225  1
  O  O231  1  0.75629832  0.64841942  0.57729793  1
  O  O232  1  0.07640312  0.48152615  0.58549165  1
  O  O233  1  0.56551074  0.47382024  0.58170408  1
  O  O234  1  0.15564008  0.81910277  0.25555538  1
  O  O235  1  0.66278300  0.82515464  0.25892030  1
  O  O236  1  0.26584885  0.67993653  0.25205289  1
  O  O237  1  0.76966440  0.68530933  0.25495812  1
  O  O238  1  0.07528186  0.46391354  0.25545378  1
  O  O239  1  0.57668319  0.46368827  0.25652587  1
  O  O240  1  0.16236923  0.50123763  0.75895911  1
  O  O241  1  0.66293905  0.49445948  0.75628454  1
  O  O242  1  0.07749470  0.69137764  0.75661623  1
  O  O243  1  0.58364711  0.68221708  0.75510065  1
  O  O244  1  0.26792030  0.84735162  0.75551886  1
  O  O245  1  0.76930944  0.85541751  0.75302181  1
