# generated using pymatgen
data_Na6HfZn3P4(SO12)2
_symmetry_space_group_name_H-M   'P 1'
_cell_length_a   9.05732852
_cell_length_b   9.03009429
_cell_length_c   22.07995842
_cell_angle_alpha   89.79618582
_cell_angle_beta   89.92251726
_cell_angle_gamma   119.87090868
_symmetry_Int_Tables_number   1
_chemical_formula_structural   Na6HfZn3P4(SO12)2
_chemical_formula_sum   'Na18 Hf3 Zn9 P12 S6 O72'
_cell_volume   1565.95467726
_cell_formula_units_Z   3
loop_
 _symmetry_equiv_pos_site_id
 _symmetry_equiv_pos_as_xyz
  1  'x, y, z'
loop_
 _atom_site_type_symbol
 _atom_site_label
 _atom_site_symmetry_multiplicity
 _atom_site_fract_x
 _atom_site_fract_y
 _atom_site_fract_z
 _atom_site_occupancy
  Na  Na0  1  0.36484440  0.36786475  0.25307638  1
  Na  Na1  1  0.64371133  0.63653149  0.74155886  1
  Na  Na2  1  0.99245349  0.34575874  0.74649067  1
  Na  Na3  1  0.29485341  0.34348940  0.58466023  1
  Na  Na4  1  0.03209041  0.69692737  0.57970761  1
  Na  Na5  1  0.67334812  0.95769548  0.58031670  1
  Na  Na6  1  0.28894341  0.96025040  0.07913248  1
  Na  Na7  1  0.66024711  0.69660628  0.08235829  1
  Na  Na8  1  0.04828141  0.34387022  0.08391309  1
  Na  Na9  1  0.31947424  0.29442473  0.90879905  1
  Na  Na10  1  0.98169437  0.30393060  0.40748514  1
  Na  Na11  1  0.69439062  0.67860689  0.40769970  1
  Na  Na12  1  0.00890974  0.00011282  0.49355797  1
  Na  Na13  1  0.98910127  0.98135656  0.99069951  1
  Na  Na14  1  0.64945154  0.29755090  0.82697705  1
  Na  Na15  1  0.66647245  0.31054833  0.32448618  1
  Na  Na16  1  0.32119496  0.67414545  0.17208986  1
  Na  Na17  1  0.33996786  0.67100772  0.66098136  1
  Hf  Hf18  1  0.67092913  0.34157355  0.97811364  1
  Hf  Hf19  1  0.66785320  0.33450335  0.47962662  1
  Hf  Hf20  1  0.33574258  0.67393616  0.81829930  1
  Zn  Zn21  1  0.00714490  0.99607312  0.34987251  1
  Zn  Zn22  1  0.99447507  0.00381369  0.85075398  1
  Zn  Zn23  1  0.99189774  0.01116713  0.65588274  1
  Zn  Zn24  1  0.00827353  0.99352056  0.15318501  1
  Zn  Zn25  1  0.65914465  0.32570553  0.68292518  1
  Zn  Zn26  1  0.67357027  0.34582289  0.18014686  1
  Zn  Zn27  1  0.32725763  0.66405944  0.00960379  1
  Zn  Zn28  1  0.33129288  0.66372315  0.50482569  1
  Zn  Zn29  1  0.33486557  0.67996969  0.32584060  1
  P  P30  1  0.30114453  0.29972990  0.75100152  1
  P  P31  1  0.70041986  0.00065331  0.74782459  1
  P  P32  1  0.96576273  0.33592951  0.58660317  1
  P  P33  1  0.66830328  0.63185090  0.58646884  1
  P  P34  1  0.96444200  0.62945120  0.08574427  1
  P  P35  1  0.36922486  0.33364831  0.08657498  1
  P  P36  1  0.63457698  0.67434905  0.91990320  1
  P  P37  1  0.03338233  0.36523017  0.91872902  1
  P  P38  1  0.32920494  0.96580880  0.92219555  1
  P  P39  1  0.63354323  0.96396013  0.41829020  1
  P  P40  1  0.33113032  0.36568282  0.41513957  1
  P  P41  1  0.03808374  0.67058410  0.41888542  1
  S  S42  1  0.30325357  0.99916119  0.24817953  1
  S  S43  1  0.69744560  0.70053267  0.24956769  1
  S  S44  1  0.99834884  0.29741641  0.24895620  1
  S  S45  1  0.00524585  0.70730015  0.74886937  1
  S  S46  1  0.36933734  0.03532864  0.58512864  1
  S  S47  1  0.66696270  0.04135800  0.08588937  1
  O  O48  1  0.20730136  0.02066194  0.29830357  1
  O  O49  1  0.79406271  0.78969509  0.30462805  1
  O  O50  1  0.98812493  0.19944594  0.30492144  1
  O  O51  1  0.21470964  0.19846140  0.80836655  1
  O  O52  1  0.99081671  0.79937257  0.80078021  1
  O  O53  1  0.82148082  0.02526808  0.79947101  1
  O  O54  1  0.76129484  0.95677005  0.68759521  1
  O  O55  1  0.19420865  0.22174836  0.69237567  1
  O  O56  1  0.02401554  0.79731392  0.69046332  1
  O  O57  1  0.78485996  0.79425837  0.19300110  1
  O  O58  1  0.01306192  0.20880929  0.19347650  1
  O  O59  1  0.21524561  0.98294643  0.18879745  1
  O  O60  1  0.88203231  0.35434315  0.64459917  1
  O  O61  1  0.46831104  0.11344107  0.64014917  1
  O  O62  1  0.64717713  0.52616192  0.64404726  1
  O  O63  1  0.88512471  0.51543710  0.14135744  1
  O  O64  1  0.64453604  0.12151033  0.14041639  1
  O  O65  1  0.47222427  0.35398482  0.14450090  1
  O  O66  1  0.46785610  0.31471946  0.03050858  1
  O  O67  1  0.84868672  0.53183766  0.02944560  1
  O  O68  1  0.68263646  0.14879906  0.03097796  1
  O  O69  1  0.46246943  0.14273927  0.53085333  1
  O  O70  1  0.67612237  0.52821449  0.53011045  1
  O  O71  1  0.84918253  0.31948548  0.53094214  1
  O  O72  1  0.55318072  0.68882388  0.97882771  1
  O  O73  1  0.13501322  0.44760383  0.97673067  1
  O  O74  1  0.31953641  0.87502793  0.98198033  1
  O  O75  1  0.55597337  0.86353872  0.47790970  1
  O  O76  1  0.30414864  0.44367542  0.47401096  1
  O  O77  1  0.13074548  0.69172864  0.47974953  1
  O  O78  1  0.11843691  0.62582916  0.36630181  1
  O  O79  1  0.52466252  0.88177696  0.36302184  1
  O  O80  1  0.36925446  0.48280893  0.35938333  1
  O  O81  1  0.12808851  0.47977374  0.86209383  1
  O  O82  1  0.34577987  0.86287735  0.86813814  1
  O  O83  1  0.51228501  0.64730769  0.86481595  1
  O  O84  1  0.00048099  0.81783815  0.41077973  1
  O  O85  1  0.81640747  0.98948708  0.41324037  1
  O  O86  1  0.17329709  0.18769831  0.40897353  1
  O  O87  1  0.01658810  0.18878950  0.91337688  1
  O  O88  1  0.17792980  0.99495574  0.91474320  1
  O  O89  1  0.81325136  0.82021738  0.91054382  1
  O  O90  1  0.98084033  0.17160333  0.58502064  1
  O  O91  1  0.19992684  0.02451719  0.58544367  1
  O  O92  1  0.83706628  0.80552144  0.58496041  1
  O  O93  1  0.96794547  0.80381730  0.08711641  1
  O  O94  1  0.82529267  0.02965952  0.08658619  1
  O  O95  1  0.19026639  0.16968435  0.08657041  1
  O  O96  1  0.68434340  0.16252616  0.74394882  1
  O  O97  1  0.48698609  0.33630559  0.74753140  1
  O  O98  1  0.85302284  0.53243787  0.74883648  1
  O  O99  1  0.67750851  0.52444969  0.25034419  1
  O  O100  1  0.84491540  0.31555878  0.24700961  1
  O  O101  1  0.47347776  0.15926069  0.24742147  1
  O  O102  1  0.63227061  0.49721328  0.92048338  1
  O  O103  1  0.85418970  0.35076823  0.92053397  1
  O  O104  1  0.49572538  0.14714562  0.92078430  1
  O  O105  1  0.66149536  0.15126158  0.42308919  1
  O  O106  1  0.49646990  0.35058973  0.42270945  1
  O  O107  1  0.85301732  0.50399029  0.42375077  1
  O  O108  1  0.35264839  0.49584523  0.08078304  1
  O  O109  1  0.14631043  0.65670423  0.07937987  1
  O  O110  1  0.51619617  0.86812879  0.08121930  1
  O  O111  1  0.34924618  0.86246301  0.58006645  1
  O  O112  1  0.50993152  0.65410627  0.58167047  1
  O  O113  1  0.14368524  0.49743539  0.58080738  1
  O  O114  1  0.32114313  0.84553125  0.25484273  1
  O  O115  1  0.52296694  0.67909617  0.24991579  1
  O  O116  1  0.15832672  0.46704058  0.25041360  1
  O  O117  1  0.31392352  0.48382447  0.75515559  1
  O  O118  1  0.15918358  0.68253448  0.75392877  1
  O  O119  1  0.51938723  0.83797317  0.75794828  1
