# generated using pymatgen
data_Na21Mg4Ta8Si15(PO24)3
_symmetry_space_group_name_H-M   'P 1'
_cell_length_a   9.08316380
_cell_length_b   9.10061673
_cell_length_c   22.30068808
_cell_angle_alpha   89.95302715
_cell_angle_beta   89.99884619
_cell_angle_gamma   120.03135307
_symmetry_Int_Tables_number   1
_chemical_formula_structural   Na21Mg4Ta8Si15(PO24)3
_chemical_formula_sum   'Na21 Mg4 Ta8 Si15 P3 O72'
_cell_volume   1595.95032945
_cell_formula_units_Z   1
loop_
 _symmetry_equiv_pos_site_id
 _symmetry_equiv_pos_as_xyz
  1  'x, y, z'
loop_
 _atom_site_type_symbol
 _atom_site_label
 _atom_site_symmetry_multiplicity
 _atom_site_fract_x
 _atom_site_fract_y
 _atom_site_fract_z
 _atom_site_occupancy
  Na  Na0  1  0.63866218  0.01930952  0.24066563  1
  Na  Na1  1  0.37685440  0.35436295  0.24289037  1
  Na  Na2  1  0.98549156  0.62735457  0.24013721  1
  Na  Na3  1  0.63827989  0.62188500  0.74380852  1
  Na  Na4  1  0.97977283  0.35421120  0.74591989  1
  Na  Na5  1  0.38217766  0.02511452  0.74681098  1
  Na  Na6  1  0.31346515  0.33755787  0.58881441  1
  Na  Na7  1  0.66447074  0.97596645  0.58868723  1
  Na  Na8  1  0.31485349  0.97521890  0.08569394  1
  Na  Na9  1  0.96730197  0.68357822  0.91301451  1
  Na  Na10  1  0.71840260  0.03344199  0.90966532  1
  Na  Na11  1  0.31491452  0.27897675  0.90987164  1
  Na  Na12  1  0.96538850  0.28174965  0.41219542  1
  Na  Na13  1  0.31502725  0.03560397  0.40898745  1
  Na  Na14  1  0.71591632  0.68337344  0.41211785  1
  Na  Na15  1  0.00113430  0.99198282  0.49528050  1
  Na  Na16  1  0.99199738  0.00099902  0.99315634  1
  Na  Na17  1  0.66071308  0.32682188  0.82572761  1
  Na  Na18  1  0.66059898  0.32823384  0.32567138  1
  Na  Na19  1  0.33411054  0.65680758  0.16049309  1
  Na  Na20  1  0.32324999  0.66732900  0.66687308  1
  Mg  Mg21  1  0.00286480  0.00168072  0.35326802  1
  Mg  Mg22  1  0.00149754  0.00302647  0.85336516  1
  Mg  Mg23  1  0.66425539  0.33079938  0.68391229  1
  Mg  Mg24  1  0.66351362  0.33060069  0.18099194  1
  Ta  Ta25  1  0.99847391  0.00010596  0.64662837  1
  Ta  Ta26  1  0.00106312  0.99794972  0.14278545  1
  Ta  Ta27  1  0.66732392  0.33243778  0.98184154  1
  Ta  Ta28  1  0.66608333  0.33362731  0.48094407  1
  Ta  Ta29  1  0.33319267  0.66410357  0.02148285  1
  Ta  Ta30  1  0.33109773  0.66621788  0.52094470  1
  Ta  Ta31  1  0.33240993  0.66882903  0.31241875  1
  Ta  Ta32  1  0.33621076  0.66572090  0.81288678  1
  Si  Si33  1  0.29399479  0.00281082  0.25327058  1
  Si  Si34  1  0.29319526  0.29216512  0.75350064  1
  Si  Si35  1  0.70759154  0.00173419  0.75377955  1
  Si  Si36  1  0.95854491  0.33624893  0.58671220  1
  Si  Si37  1  0.37291990  0.03939478  0.58555380  1
  Si  Si38  1  0.67022384  0.62613645  0.58521743  1
  Si  Si39  1  0.95649583  0.62093084  0.08706375  1
  Si  Si40  1  0.66787530  0.04158576  0.08609723  1
  Si  Si41  1  0.37749692  0.33798453  0.08704296  1
  Si  Si42  1  0.62421332  0.66366968  0.91757769  1
  Si  Si43  1  0.04004416  0.37701878  0.91668916  1
  Si  Si44  1  0.33502343  0.95857413  0.91739279  1
  Si  Si45  1  0.62397321  0.95939752  0.41702602  1
  Si  Si46  1  0.33559041  0.37642502  0.41641040  1
  Si  Si47  1  0.03930135  0.66301727  0.41645338  1
  P  P48  1  0.71083856  0.71212696  0.25290737  1
  P  P49  1  0.00168929  0.28873976  0.25263511  1
  P  P50  1  0.00151767  0.71294720  0.75292184  1
  O  O51  1  0.20746807  0.02484277  0.31238071  1
  O  O52  1  0.80960257  0.79322007  0.31037085  1
  O  O53  1  0.97687595  0.18794480  0.31023061  1
  O  O54  1  0.21004698  0.17899829  0.81152955  1
  O  O55  1  0.97831150  0.78983731  0.80922852  1
  O  O56  1  0.81717416  0.02204318  0.81183758  1
  O  O57  1  0.80153128  0.96884436  0.69259015  1
  O  O58  1  0.16719530  0.19485892  0.69251873  1
  O  O59  1  0.02767342  0.83275033  0.69678146  1
  O  O60  1  0.80108987  0.83173959  0.19784285  1
  O  O61  1  0.02749490  0.19574853  0.19790240  1
  O  O62  1  0.16695365  0.97066873  0.19380160  1
  O  O63  1  0.88266065  0.36464670  0.64614952  1
  O  O64  1  0.48911570  0.11118226  0.64335507  1
  O  O65  1  0.62204517  0.50826398  0.64261557  1
  O  O66  1  0.88265778  0.51835000  0.14718792  1
  O  O67  1  0.62269034  0.11147332  0.14442993  1
  O  O68  1  0.47833990  0.36405770  0.14752018  1
  O  O69  1  0.46899802  0.30116523  0.02798138  1
  O  O70  1  0.83546815  0.52698607  0.02701870  1
  O  O71  1  0.69408953  0.16342781  0.02615649  1
  O  O72  1  0.46774717  0.16568726  0.52564687  1
  O  O73  1  0.69325852  0.52968482  0.52464836  1
  O  O74  1  0.83306412  0.30318435  0.52661462  1
  O  O75  1  0.51956775  0.68738419  0.97240356  1
  O  O76  1  0.16532695  0.48499314  0.97201795  1
  O  O77  1  0.31594680  0.83990822  0.97507277  1
  O  O78  1  0.52573594  0.83859382  0.47462820  1
  O  O79  1  0.31912836  0.47871773  0.47410639  1
  O  O80  1  0.16650645  0.68390835  0.47180075  1
  O  O81  1  0.13356885  0.63135491  0.35706632  1
  O  O82  1  0.49587465  0.86245095  0.35832918  1
  O  O83  1  0.36700377  0.50222944  0.35758474  1
  O  O84  1  0.13173367  0.50105303  0.85660327  1
  O  O85  1  0.36626897  0.86354762  0.85805855  1
  O  O86  1  0.49809382  0.63131255  0.85734875  1
  O  O87  1  0.01751526  0.82614529  0.41474639  1
  O  O88  1  0.80881549  0.97957081  0.41343028  1
  O  O89  1  0.16880518  0.19279511  0.41563911  1
  O  O90  1  0.02132448  0.19330336  0.91628253  1
  O  O91  1  0.16868907  0.97619337  0.91542144  1
  O  O92  1  0.80924991  0.82651621  0.91466484  1
  O  O93  1  0.97456891  0.16045497  0.58878870  1
  O  O94  1  0.18664742  0.02867628  0.58900197  1
  O  O95  1  0.83649296  0.81917040  0.58826957  1
  O  O96  1  0.97903395  0.81639231  0.09056542  1
  O  O97  1  0.83858852  0.02238555  0.09190877  1
  O  O98  1  0.18710887  0.15853239  0.09093435  1
  O  O99  1  0.68151902  0.16356329  0.74706208  1
  O  O100  1  0.48449499  0.32691365  0.74591868  1
  O  O101  1  0.84999870  0.53485704  0.74417208  1
  O  O102  1  0.68593377  0.53448898  0.24694484  1
  O  O103  1  0.85281323  0.32049075  0.24602178  1
  O  O104  1  0.48534503  0.16184822  0.24802488  1
  O  O105  1  0.62917876  0.48538280  0.92308152  1
  O  O106  1  0.85432626  0.36893320  0.92211965  1
  O  O107  1  0.51252562  0.14474449  0.92206266  1
  O  O108  1  0.63083955  0.14377516  0.42186740  1
  O  O109  1  0.51283211  0.36730703  0.42122662  1
  O  O110  1  0.85562105  0.48475730  0.42177480  1
  O  O111  1  0.34582773  0.49725783  0.07486068  1
  O  O112  1  0.15359320  0.66187626  0.07591132  1
  O  O113  1  0.49973648  0.85311367  0.07410594  1
  O  O114  1  0.35185554  0.85098463  0.57348024  1
  O  O115  1  0.50427895  0.65464437  0.57406889  1
  O  O116  1  0.15534859  0.49229436  0.57523906  1
  O  O117  1  0.30309972  0.81886401  0.25437207  1
  O  O118  1  0.52798987  0.69840966  0.25465960  1
  O  O119  1  0.17454728  0.46837617  0.25473959  1
  O  O120  1  0.29543753  0.47965962  0.75391659  1
  O  O121  1  0.17215695  0.70485144  0.75343540  1
  O  O122  1  0.51565061  0.82092437  0.75371706  1
