# generated using pymatgen
data_Na6CaHf3Si2(PO6)4
_symmetry_space_group_name_H-M   'P 1'
_cell_length_a   9.16448143
_cell_length_b   9.18578201
_cell_length_c   22.68598044
_cell_angle_alpha   89.89623106
_cell_angle_beta   90.08228978
_cell_angle_gamma   120.07841895
_symmetry_Int_Tables_number   1
_chemical_formula_structural   Na6CaHf3Si2(PO6)4
_chemical_formula_sum   'Na18 Ca3 Hf9 Si6 P12 O72'
_cell_volume   1652.59981216
_cell_formula_units_Z   3
loop_
 _symmetry_equiv_pos_site_id
 _symmetry_equiv_pos_as_xyz
  1  'x, y, z'
loop_
 _atom_site_type_symbol
 _atom_site_label
 _atom_site_symmetry_multiplicity
 _atom_site_fract_x
 _atom_site_fract_y
 _atom_site_fract_z
 _atom_site_occupancy
  Na  Na0  1  0.99875671  0.99472004  0.50157147  1
  Na  Na1  1  0.99874654  0.99679890  0.99895768  1
  Na  Na2  1  0.64809944  0.30032671  0.83222962  1
  Na  Na3  1  0.64985253  0.32909865  0.32218581  1
  Na  Na4  1  0.32273476  0.66577815  0.16117425  1
  Na  Na5  1  0.32572860  0.66258462  0.66602877  1
  Na  Na6  1  0.65257757  0.01529213  0.24252760  1
  Na  Na7  1  0.98445325  0.62375191  0.23776377  1
  Na  Na8  1  0.63184059  0.61834285  0.74176411  1
  Na  Na9  1  0.99035952  0.37055236  0.74641092  1
  Na  Na10  1  0.66544273  0.97501777  0.58604094  1
  Na  Na11  1  0.66334049  0.68021746  0.07825545  1
  Na  Na12  1  0.02284705  0.34504466  0.08463075  1
  Na  Na13  1  0.97176683  0.66826241  0.91903296  1
  Na  Na14  1  0.33562329  0.30575649  0.91778767  1
  Na  Na15  1  0.96048008  0.28227950  0.41144234  1
  Na  Na16  1  0.32813845  0.03003734  0.41088756  1
  Na  Na17  1  0.71299141  0.68748697  0.41635151  1
  Ca  Ca18  1  0.00302575  0.00247381  0.35150317  1
  Ca  Ca19  1  0.65529535  0.32900946  0.68351601  1
  Ca  Ca20  1  0.65853651  0.32897144  0.17761787  1
  Hf  Hf21  1  0.99723107  0.99982669  0.85648936  1
  Hf  Hf22  1  0.00615507  0.99637235  0.64561586  1
  Hf  Hf23  1  0.00863556  0.00171861  0.14949559  1
  Hf  Hf24  1  0.66838768  0.33178695  0.98090913  1
  Hf  Hf25  1  0.66752705  0.33837432  0.48559970  1
  Hf  Hf26  1  0.33347682  0.67417518  0.01365003  1
  Hf  Hf27  1  0.33550760  0.66529834  0.52114950  1
  Hf  Hf28  1  0.33754503  0.66737054  0.31313889  1
  Hf  Hf29  1  0.33664029  0.67535945  0.81552770  1
  Si  Si30  1  0.66915417  0.63925427  0.58658862  1
  Si  Si31  1  0.97338117  0.63866270  0.08490066  1
  Si  Si32  1  0.62660427  0.66366188  0.91644853  1
  Si  Si33  1  0.03900709  0.37470663  0.91546709  1
  Si  Si34  1  0.33835449  0.96528543  0.91473733  1
  Si  Si35  1  0.62260440  0.96752618  0.41786372  1
  P  P36  1  0.29736762  0.99092235  0.25474327  1
  P  P37  1  0.69843494  0.70492058  0.25203628  1
  P  P38  1  0.00572194  0.30382332  0.25193714  1
  P  P39  1  0.28434108  0.29442259  0.75284259  1
  P  P40  1  0.01046831  0.71499659  0.75223106  1
  P  P41  1  0.70966903  0.99096523  0.74910753  1
  P  P42  1  0.96635191  0.33116874  0.58548966  1
  P  P43  1  0.36594156  0.03302403  0.58054364  1
  P  P44  1  0.66840032  0.02909807  0.08578313  1
  P  P45  1  0.36237775  0.33555217  0.08025382  1
  P  P46  1  0.34534441  0.38359552  0.41828835  1
  P  P47  1  0.03911055  0.65351757  0.41713066  1
  O  O48  1  0.22974747  0.00528584  0.31408526  1
  O  O49  1  0.78945955  0.78066338  0.30994007  1
  O  O50  1  0.98878738  0.21062316  0.30940282  1
  O  O51  1  0.19126132  0.19682390  0.80934327  1
  O  O52  1  0.00494445  0.80873328  0.80820473  1
  O  O53  1  0.81790735  0.99444612  0.80229025  1
  O  O54  1  0.79801887  0.97896481  0.69172968  1
  O  O55  1  0.17763119  0.19618207  0.69809464  1
  O  O56  1  0.01750636  0.81975028  0.69688357  1
  O  O57  1  0.80099385  0.82555731  0.19888641  1
  O  O58  1  0.01650603  0.20418986  0.19721653  1
  O  O59  1  0.17717932  0.98130882  0.20304412  1
  O  O60  1  0.89943849  0.35827684  0.64307508  1
  O  O61  1  0.48432919  0.09797065  0.63285753  1
  O  O62  1  0.63937121  0.54282225  0.64755896  1
  O  O63  1  0.90789531  0.53120382  0.14455037  1
  O  O64  1  0.63724757  0.08428144  0.14490626  1
  O  O65  1  0.47353899  0.37527804  0.13360543  1
  O  O66  1  0.44500626  0.30764245  0.02466793  1
  O  O67  1  0.83833338  0.53552137  0.03030820  1
  O  O68  1  0.69033920  0.15651486  0.03611726  1
  O  O69  1  0.45496328  0.14718007  0.52526610  1
  O  O70  1  0.68702062  0.53457417  0.52936432  1
  O  O71  1  0.83909676  0.30269987  0.53314176  1
  O  O72  1  0.54105695  0.68969951  0.97498077  1
  O  O73  1  0.16141129  0.46459400  0.97201044  1
  O  O74  1  0.29845734  0.83896090  0.97009380  1
  O  O75  1  0.51584586  0.84928446  0.47331738  1
  O  O76  1  0.32722060  0.47388483  0.47205002  1
  O  O77  1  0.14803389  0.66351229  0.46942838  1
  O  O78  1  0.12130219  0.63262416  0.35951492  1
  O  O79  1  0.50780119  0.87024686  0.35792386  1
  O  O80  1  0.36115010  0.48923492  0.36195028  1
  O  O81  1  0.12778951  0.49718036  0.85774835  1
  O  O82  1  0.36608806  0.87558762  0.85704205  1
  O  O83  1  0.50434667  0.63337123  0.85893639  1
  O  O84  1  0.01932211  0.80977585  0.41680363  1
  O  O85  1  0.80878416  0.98773902  0.42007046  1
  O  O86  1  0.19372407  0.20495333  0.41689798  1
  O  O87  1  0.02283174  0.18936306  0.91055750  1
  O  O88  1  0.16946898  0.98481433  0.91029039  1
  O  O89  1  0.82030322  0.82196853  0.91098901  1
  O  O90  1  0.97577406  0.16586991  0.58680806  1
  O  O91  1  0.19476475  0.02657857  0.58766142  1
  O  O92  1  0.84012111  0.82982016  0.58620149  1
  O  O93  1  0.97966959  0.82248252  0.09081036  1
  O  O94  1  0.83911642  0.02563531  0.08778726  1
  O  O95  1  0.18154012  0.17802367  0.08850940  1
  O  O96  1  0.69984784  0.15173003  0.75061280  1
  O  O97  1  0.46307120  0.32241153  0.75376371  1
  O  O98  1  0.85136529  0.53946123  0.75230430  1
  O  O99  1  0.67706586  0.53064216  0.24463263  1
  O  O100  1  0.84947924  0.32486530  0.24731118  1
  O  O101  1  0.47924158  0.13188608  0.24690227  1
  O  O102  1  0.64159610  0.49279346  0.92327994  1
  O  O103  1  0.85573415  0.36142113  0.92496157  1
  O  O104  1  0.49870977  0.15329132  0.92361773  1
  O  O105  1  0.63478599  0.15326793  0.42151662  1
  O  O106  1  0.51283965  0.37818081  0.42188592  1
  O  O107  1  0.86167195  0.49109001  0.42251984  1
  O  O108  1  0.33558481  0.48947046  0.07275138  1
  O  O109  1  0.15931999  0.65945181  0.07346996  1
  O  O110  1  0.52576740  0.84662950  0.07352346  1
  O  O111  1  0.32779683  0.85044183  0.57028191  1
  O  O112  1  0.51118288  0.67738919  0.57725427  1
  O  O113  1  0.14306846  0.48048002  0.57291915  1
  O  O114  1  0.29179570  0.81564508  0.25184543  1
  O  O115  1  0.52487765  0.70264806  0.25188347  1
  O  O116  1  0.16881962  0.48194356  0.25198807  1
  O  O117  1  0.28952526  0.46856649  0.75210660  1
  O  O118  1  0.17018677  0.69598918  0.75156918  1
  O  O119  1  0.53590597  0.82414788  0.75185941  1
