# generated using pymatgen
data_Si3PH9
_symmetry_space_group_name_H-M   'P 1'
_cell_length_a   12.89035940
_cell_length_b   6.09884878
_cell_length_c   9.81110241
_cell_angle_alpha   85.69870937
_cell_angle_beta   90.00000000
_cell_angle_gamma   90.00000000
_symmetry_Int_Tables_number   1
_chemical_formula_structural   Si3PH9
_chemical_formula_sum   'Si12 P4 H36'
_cell_volume   769.14064186
_cell_formula_units_Z   4
loop_
 _symmetry_equiv_pos_site_id
 _symmetry_equiv_pos_as_xyz
  1  'x, y, z'
loop_
 _atom_site_type_symbol
 _atom_site_label
 _atom_site_symmetry_multiplicity
 _atom_site_fract_x
 _atom_site_fract_y
 _atom_site_fract_z
 _atom_site_occupancy
  Si  Si0  1  0.88484216  0.89805025  0.33587763  1
  Si  Si1  1  0.38484216  0.10194975  0.16412237  1
  Si  Si2  1  0.11515784  0.10194975  0.66412237  1
  Si  Si3  1  0.61515784  0.89805025  0.83587763  1
  Si  Si4  1  0.78285787  0.28927744  0.12170112  1
  Si  Si5  1  0.28285787  0.71072256  0.37829888  1
  Si  Si6  1  0.21714213  0.71072256  0.87829888  1
  Si  Si7  1  0.71714213  0.28927744  0.62170112  1
  Si  Si8  1  0.03846481  0.29771817  0.20070422  1
  Si  Si9  1  0.53846481  0.70228183  0.29929578  1
  Si  Si10  1  0.96153519  0.70228183  0.79929578  1
  Si  Si11  1  0.46153519  0.29771817  0.70070422  1
  P  P12  1  0.88491096  0.26755882  0.30830977  1
  P  P13  1  0.38491096  0.73244118  0.19169023  1
  P  P14  1  0.11508904  0.73244118  0.69169023  1
  P  P15  1  0.61508904  0.26755882  0.80830977  1
  H  H16  1  0.97445952  0.82439706  0.42232155  1
  H  H17  1  0.47445952  0.17560294  0.07767845  1
  H  H18  1  0.02554048  0.17560294  0.57767845  1
  H  H19  1  0.52554048  0.82439706  0.92232155  1
  H  H20  1  0.78689010  0.82653466  0.40446550  1
  H  H21  1  0.28689010  0.17346534  0.09553450  1
  H  H22  1  0.21310990  0.17346534  0.59553450  1
  H  H23  1  0.71310990  0.82653466  0.90446550  1
  H  H24  1  0.89231064  0.79960471  0.20237632  1
  H  H25  1  0.39231064  0.20039529  0.29762368  1
  H  H26  1  0.10768936  0.20039529  0.79762368  1
  H  H27  1  0.60768936  0.79960471  0.70237632  1
  H  H28  1  0.67905522  0.20557381  0.16490162  1
  H  H29  1  0.17905522  0.79442619  0.33509838  1
  H  H30  1  0.32094478  0.79442619  0.83509838  1
  H  H31  1  0.82094478  0.20557381  0.66490162  1
  H  H32  1  0.45197847  0.14267321  0.59175261  1
  H  H33  1  0.95197847  0.85732679  0.90824739  1
  H  H34  1  0.54802153  0.85732679  0.40824739  1
  H  H35  1  0.04802153  0.14267321  0.09175261  1
  H  H36  1  0.37848996  0.25088026  0.80330850  1
  H  H37  1  0.87848996  0.74911974  0.69669150  1
  H  H38  1  0.62151004  0.74911974  0.19669150  1
  H  H39  1  0.12151004  0.25088026  0.30330850  1
  H  H40  1  0.44939779  0.52594069  0.63953312  1
  H  H41  1  0.94939779  0.47405931  0.86046688  1
  H  H42  1  0.55060221  0.47405931  0.36046688  1
  H  H43  1  0.05060221  0.52594069  0.13953312  1
  H  H44  1  0.67617584  0.15634301  0.51309666  1
  H  H45  1  0.17617584  0.84365699  0.98690334  1
  H  H46  1  0.32382416  0.84365699  0.48690334  1
  H  H47  1  0.82382416  0.15634301  0.01309666  1
  H  H48  1  0.72477427  0.52271204  0.56944784  1
  H  H49  1  0.22477427  0.47728796  0.93055216  1
  H  H50  1  0.27522573  0.47728796  0.43055216  1
  H  H51  1  0.77522573  0.52271204  0.06944784  1
