# generated using pymatgen
data_Na6NbIn3Si4(SO12)2
_symmetry_space_group_name_H-M   'P 1'
_cell_length_a   9.21631926
_cell_length_b   9.24439096
_cell_length_c   22.62950006
_cell_angle_alpha   89.64603821
_cell_angle_beta   90.28186657
_cell_angle_gamma   120.12111681
_symmetry_Int_Tables_number   1
_chemical_formula_structural   Na6NbIn3Si4(SO12)2
_chemical_formula_sum   'Na18 Nb3 In9 Si12 S6 O72'
_cell_volume   1667.63432868
_cell_formula_units_Z   3
loop_
 _symmetry_equiv_pos_site_id
 _symmetry_equiv_pos_as_xyz
  1  'x, y, z'
loop_
 _atom_site_type_symbol
 _atom_site_label
 _atom_site_symmetry_multiplicity
 _atom_site_fract_x
 _atom_site_fract_y
 _atom_site_fract_z
 _atom_site_occupancy
  Na  Na0  1  0.62287152  0.99900721  0.25269876  1
  Na  Na1  1  0.64353450  0.62706332  0.75277891  1
  Na  Na2  1  0.00475250  0.36486498  0.74108351  1
  Na  Na3  1  0.29707417  0.34918082  0.58483376  1
  Na  Na4  1  0.02348396  0.69076916  0.59095349  1
  Na  Na5  1  0.67902337  0.95979759  0.57244573  1
  Na  Na6  1  0.29701958  0.94597970  0.08771642  1
  Na  Na7  1  0.66898469  0.71227772  0.07343457  1
  Na  Na8  1  0.02986462  0.33980351  0.08114364  1
  Na  Na9  1  0.97903379  0.68777461  0.91312214  1
  Na  Na10  1  0.32442847  0.29111368  0.91001988  1
  Na  Na11  1  0.67784808  0.67260127  0.41381982  1
  Na  Na12  1  0.00210855  0.03329280  0.49362526  1
  Na  Na13  1  0.97666948  0.99102313  0.99206794  1
  Na  Na14  1  0.64839458  0.32069114  0.82802129  1
  Na  Na15  1  0.62290377  0.30462866  0.33063131  1
  Na  Na16  1  0.31074938  0.67957716  0.16952338  1
  Na  Na17  1  0.32605881  0.65515713  0.66514124  1
  Nb  Nb18  1  0.68203782  0.33139711  0.97560357  1
  Nb  Nb19  1  0.67269662  0.33552150  0.47906831  1
  Nb  Nb20  1  0.32665537  0.66414037  0.81951381  1
  In  In21  1  0.01977682  0.01596937  0.35170290  1
  In  In22  1  0.00270684  0.99923990  0.85004577  1
  In  In23  1  0.00655013  0.00310218  0.65007309  1
  In  In24  1  0.00414053  0.98922223  0.14755420  1
  In  In25  1  0.67099831  0.34734805  0.68479099  1
  In  In26  1  0.66005769  0.32310061  0.18455874  1
  In  In27  1  0.33432849  0.67363888  0.01503010  1
  In  In28  1  0.33831564  0.65852157  0.51272656  1
  In  In29  1  0.33990329  0.67627491  0.31949494  1
  Si  Si30  1  0.29810928  0.99503130  0.24750762  1
  Si  Si31  1  0.30069126  0.30365309  0.75072672  1
  Si  Si32  1  0.00614284  0.70388546  0.74984371  1
  Si  Si33  1  0.96386410  0.33667889  0.58613411  1
  Si  Si34  1  0.66803313  0.63423006  0.58386437  1
  Si  Si35  1  0.95648886  0.62208328  0.08362835  1
  Si  Si36  1  0.66838707  0.03651535  0.08584611  1
  Si  Si37  1  0.62947396  0.66489551  0.92015488  1
  Si  Si38  1  0.04061859  0.36634167  0.92021166  1
  Si  Si39  1  0.33722307  0.96471884  0.92009636  1
  Si  Si40  1  0.64013213  0.97079379  0.41605322  1
  Si  Si41  1  0.33421798  0.36774820  0.42040364  1
  S  S42  1  0.70017476  0.70001654  0.25035527  1
  S  S43  1  0.00211846  0.29980797  0.24837967  1
  S  S44  1  0.69508200  0.99388156  0.74922502  1
  S  S45  1  0.38064004  0.04666773  0.58110508  1
  S  S46  1  0.37581653  0.33402226  0.08081964  1
  S  S47  1  0.03095237  0.66221329  0.41930900  1
  O  O48  1  0.19744905  0.00904131  0.30282844  1
  O  O49  1  0.79724029  0.78467544  0.30410505  1
  O  O50  1  0.97307345  0.18666991  0.29913732  1
  O  O51  1  0.21121818  0.20078068  0.80983825  1
  O  O52  1  0.96020740  0.78413514  0.80493352  1
  O  O53  1  0.80635322  0.02448745  0.79986500  1
  O  O54  1  0.76551534  0.96491619  0.69375656  1
  O  O55  1  0.18194937  0.23079413  0.69082193  1
  O  O56  1  0.03040360  0.80556510  0.68738387  1
  O  O57  1  0.77984198  0.80357666  0.19581578  1
  O  O58  1  0.01705554  0.22382334  0.19185351  1
  O  O59  1  0.20790005  0.98269262  0.18253860  1
  O  O60  1  0.88202938  0.35222731  0.64758108  1
  O  O61  1  0.48012928  0.11650938  0.63520216  1
  O  O62  1  0.62660533  0.52122937  0.64340651  1
  O  O63  1  0.86110725  0.50523890  0.13961528  1
  O  O64  1  0.62663320  0.10555975  0.14497253  1
  O  O65  1  0.47363159  0.35631407  0.13494409  1
  O  O66  1  0.46104997  0.31729764  0.02747657  1
  O  O67  1  0.83915235  0.52239372  0.02307448  1
  O  O68  1  0.68562973  0.16667580  0.02879324  1
  O  O69  1  0.46974309  0.15051967  0.52835621  1
  O  O70  1  0.68127245  0.52233443  0.52756970  1
  O  O71  1  0.83242322  0.31944317  0.53176889  1
  O  O72  1  0.55124326  0.68364655  0.98109273  1
  O  O73  1  0.14785376  0.44381321  0.97964997  1
  O  O74  1  0.29467411  0.85819790  0.98068492  1
  O  O75  1  0.55318849  0.85794280  0.47558016  1
  O  O76  1  0.30922265  0.43574694  0.48381783  1
  O  O77  1  0.12560973  0.68434528  0.47460561  1
  O  O78  1  0.10962111  0.63657242  0.36716321  1
  O  O79  1  0.52781474  0.90135083  0.35665459  1
  O  O80  1  0.38022318  0.50547990  0.36759760  1
  O  O81  1  0.13928643  0.49774792  0.86340797  1
  O  O82  1  0.35793680  0.85515484  0.86520642  1
  O  O83  1  0.50116213  0.63990945  0.86324819  1
  O  O84  1  0.99428620  0.79896571  0.41376811  1
  O  O85  1  0.81960592  0.97386235  0.41054211  1
  O  O86  1  0.18183625  0.17836730  0.41485346  1
  O  O87  1  0.01284382  0.18372531  0.91044787  1
  O  O88  1  0.17943575  0.99316130  0.91085321  1
  O  O89  1  0.81942191  0.81659533  0.91180519  1
  O  O90  1  0.97908384  0.16656953  0.58373630  1
  O  O91  1  0.21670607  0.04300500  0.58249709  1
  O  O92  1  0.84735395  0.81369651  0.58394098  1
  O  O93  1  0.96633522  0.80507925  0.08136977  1
  O  O94  1  0.84984186  0.03982790  0.08617834  1
  O  O95  1  0.20636751  0.17902922  0.08222347  1
  O  O96  1  0.67049159  0.13995968  0.74420968  1
  O  O97  1  0.49002420  0.33010892  0.74731896  1
  O  O98  1  0.84985908  0.50761662  0.74967652  1
  O  O99  1  0.68388802  0.53239488  0.24707597  1
  O  O100  1  0.84986813  0.31740939  0.24734763  1
  O  O101  1  0.49044258  0.16263251  0.24867457  1
  O  O102  1  0.63174152  0.48320806  0.92270704  1
  O  O103  1  0.86036673  0.36883121  0.92141412  1
  O  O104  1  0.50999620  0.15082201  0.92267805  1
  O  O105  1  0.66558726  0.16148307  0.42885800  1
  O  O106  1  0.51460654  0.35831084  0.42566202  1
  O  O107  1  0.85926317  0.50365703  0.42349002  1
  O  O108  1  0.35324132  0.48204332  0.07823502  1
  O  O109  1  0.14256323  0.63959023  0.08159098  1
  O  O110  1  0.50999715  0.84698567  0.07906094  1
  O  O111  1  0.35047945  0.87377839  0.57484232  1
  O  O112  1  0.50946474  0.66832984  0.58045096  1
  O  O113  1  0.14456927  0.51213815  0.57936162  1
  O  O114  1  0.32337116  0.82880152  0.25241227  1
  O  O115  1  0.53066093  0.68444621  0.25188175  1
  O  O116  1  0.15602538  0.46590474  0.25476221  1
  O  O117  1  0.32544195  0.49836398  0.75821736  1
  O  O118  1  0.17812250  0.68678894  0.75946534  1
  O  O119  1  0.52962209  0.83713481  0.75715352  1
