# generated using pymatgen
data_RbMgFe(MoO4)2
_symmetry_space_group_name_H-M   'P 1'
_cell_length_a   5.87668050
_cell_length_b   5.87667989
_cell_length_c   10.32316700
_cell_angle_alpha   90.00000000
_cell_angle_beta   90.00000000
_cell_angle_gamma   119.99999738
_symmetry_Int_Tables_number   1
_chemical_formula_structural   RbMgFe(MoO4)2
_chemical_formula_sum   'Rb1 Mg1 Fe1 Mo2 O8'
_cell_volume   308.75052914
_cell_formula_units_Z   1
loop_
 _symmetry_equiv_pos_site_id
 _symmetry_equiv_pos_as_xyz
  1  'x, y, z'
loop_
 _atom_site_type_symbol
 _atom_site_label
 _atom_site_symmetry_multiplicity
 _atom_site_fract_x
 _atom_site_fract_y
 _atom_site_fract_z
 _atom_site_occupancy
  Rb  Rb0  1  0.00000000  -0.00000000  0.62363923  1
  Mg  Mg1  1  0.00000000  -0.00000000  0.24143138  1
  Fe  Fe2  1  0.00000000  -0.00000000  0.97249407  1
  Mo  Mo3  1  0.66666700  0.33333300  0.80973359  1
  Mo  Mo4  1  0.33333300  0.66666700  0.17362816  1
  O  O5  1  0.17508658  0.31943490  0.12579061  1
  O  O6  1  0.79266616  0.66768138  0.86253885  1
  O  O7  1  0.33333300  0.66666700  0.34271049  1
  O  O8  1  0.87501522  0.20733384  0.86253885  1
  O  O9  1  0.66666700  0.33333300  0.63804170  1
  O  O10  1  0.68056510  0.85565168  0.12579061  1
  O  O11  1  0.33231862  0.12498478  0.86253885  1
  O  O12  1  0.14434832  0.82491342  0.12579061  1
