# generated using pymatgen
data_Na4Mg(WO4)2
_symmetry_space_group_name_H-M   'P 1'
_cell_length_a   6.56028938
_cell_length_b   6.56028938
_cell_length_c   6.71828687
_cell_angle_alpha   59.09790876
_cell_angle_beta   59.09790876
_cell_angle_gamma   59.17359731
_symmetry_Int_Tables_number   1
_chemical_formula_structural   Na4Mg(WO4)2
_chemical_formula_sum   'Na4 Mg1 W2 O8'
_cell_volume   200.36449963
_cell_formula_units_Z   1
loop_
 _symmetry_equiv_pos_site_id
 _symmetry_equiv_pos_as_xyz
  1  'x, y, z'
loop_
 _atom_site_type_symbol
 _atom_site_label
 _atom_site_symmetry_multiplicity
 _atom_site_fract_x
 _atom_site_fract_y
 _atom_site_fract_z
 _atom_site_occupancy
  Na  Na0  1  0.00878400  0.00878400  0.51649046  1
  Na  Na1  1  0.89791596  0.45498686  0.06485950  1
  Na  Na2  1  0.45498686  0.89791596  0.06485950  1
  Na  Na3  1  0.00981647  0.00981647  0.94392508  1
  Mg  Mg4  1  0.42407722  0.42407722  0.81619821  1
  W  W5  1  0.31723508  0.31723508  0.42255419  1
  W  W6  1  0.73707471  0.73707471  0.50281923  1
  O  O7  1  0.27075948  0.27075948  0.74909353  1
  O  O8  1  0.16274951  0.67629966  0.31963332  1
  O  O9  1  0.67629966  0.16274951  0.31963332  1
  O  O10  1  0.26993466  0.26993466  0.19051293  1
  O  O11  1  0.76978280  0.76978280  0.19382554  1
  O  O12  1  0.79972166  0.36164674  0.65921476  1
  O  O13  1  0.36164674  0.79972166  0.65921476  1
  O  O14  1  0.76921520  0.76921520  0.74716568  1
