# generated using pymatgen
data_Na2Mg5Sn3(SO4)12
_symmetry_space_group_name_H-M   'P 1'
_cell_length_a   17.36300105
_cell_length_b   8.68083509
_cell_length_c   22.69569014
_cell_angle_alpha   90.05222651
_cell_angle_beta   89.97898514
_cell_angle_gamma   119.98946321
_symmetry_Int_Tables_number   1
_chemical_formula_structural   Na2Mg5Sn3(SO4)12
_chemical_formula_sum   'Na6 Mg15 Sn9 S36 O144'
_cell_volume   2962.82664499
_cell_formula_units_Z   3
loop_
 _symmetry_equiv_pos_site_id
 _symmetry_equiv_pos_as_xyz
  1  'x, y, z'
loop_
 _atom_site_type_symbol
 _atom_site_label
 _atom_site_symmetry_multiplicity
 _atom_site_fract_x
 _atom_site_fract_y
 _atom_site_fract_z
 _atom_site_occupancy
  Na  Na0  1  0.99993400  0.99991141  0.50210228  1
  Na  Na1  1  0.50349387  0.00525605  0.99713192  1
  Na  Na2  1  0.33461778  0.33555944  0.82929932  1
  Na  Na3  1  0.83204282  0.33083416  0.82972146  1
  Na  Na4  1  0.33162315  0.33334160  0.33926997  1
  Na  Na5  1  0.83491168  0.33319158  0.33354313  1
  Mg  Mg6  1  0.99850130  0.00018985  0.35377806  1
  Mg  Mg7  1  0.50075825  0.00073370  0.85000257  1
  Mg  Mg8  1  0.99983514  0.99970849  0.64789135  1
  Mg  Mg9  1  0.50495550  0.00469040  0.14755071  1
  Mg  Mg10  1  0.33209460  0.33055061  0.68530635  1
  Mg  Mg11  1  0.83451830  0.33621214  0.68489422  1
  Mg  Mg12  1  0.83193096  0.33346948  0.18540436  1
  Mg  Mg13  1  0.33439902  0.33465010  0.97812014  1
  Mg  Mg14  1  0.83192073  0.33167633  0.98152956  1
  Mg  Mg15  1  0.33212311  0.33316865  0.48446501  1
  Mg  Mg16  1  0.83478349  0.33401226  0.48373762  1
  Mg  Mg17  1  0.16292287  0.65904603  0.31280570  1
  Mg  Mg18  1  0.67027462  0.67371898  0.31149170  1
  Mg  Mg19  1  0.16782996  0.66726887  0.80763929  1
  Mg  Mg20  1  0.66536388  0.66624788  0.80828589  1
  Sn  Sn21  1  0.50115700  0.99935435  0.35305720  1
  Sn  Sn22  1  0.99926825  0.99950278  0.84840126  1
  Sn  Sn23  1  0.50019676  0.00035249  0.64985752  1
  Sn  Sn24  1  0.99517310  0.99593057  0.14959506  1
  Sn  Sn25  1  0.33405689  0.33314966  0.18355786  1
  Sn  Sn26  1  0.16427497  0.66635191  0.01628988  1
  Sn  Sn27  1  0.66896798  0.66631450  0.01716508  1
  Sn  Sn28  1  0.16521576  0.66533427  0.52065286  1
  Sn  Sn29  1  0.66809760  0.66794259  0.52093353  1
  S  S30  1  0.14627975  0.99874595  0.25066056  1
  S  S31  1  0.64679784  -0.00011807  0.24934895  1
  S  S32  1  0.35302325  0.70895664  0.24862564  1
  S  S33  1  0.85267576  0.70321361  0.25233593  1
  S  S34  1  0.99941867  0.29292305  0.25134947  1
  S  S35  1  0.50108851  0.29373125  0.24925256  1
  S  S36  1  0.14770083  0.29376009  0.74913576  1
  S  S37  1  0.64795555  0.29350527  0.75162408  1
  S  S38  1  0.99958538  0.70435449  0.74901589  1
  S  S39  1  0.49848571  0.70439160  0.75158620  1
  S  S40  1  0.35369571  0.00245478  0.75171425  1
  S  S41  1  0.85241987  0.00120621  0.74882100  1
  S  S42  1  0.47811667  0.33207508  0.58317218  1
  S  S43  1  0.97778198  0.32898042  0.58306116  1
  S  S44  1  0.18707663  0.04394566  0.58260977  1
  S  S45  1  0.68763101  0.04441593  0.58350159  1
  S  S46  1  0.33433375  0.62497257  0.58356784  1
  S  S47  1  0.83513574  0.62557110  0.58263514  1
  S  S48  1  0.47966824  0.62747844  0.08137846  1
  S  S49  1  0.97890908  0.62451586  0.08339066  1
  S  S50  1  0.33400340  0.03983256  0.08120120  1
  S  S51  1  0.83290702  0.04353230  0.08319119  1
  S  S52  1  0.18618497  0.33193789  0.08210743  1
  S  S53  1  0.68727958  0.33200130  0.08243395  1
  S  S54  1  0.31326309  0.66746883  0.91579211  1
  S  S55  1  0.81392446  0.66590813  0.91421393  1
  S  S56  1  0.01951620  0.37334812  0.91455017  1
  S  S57  1  0.51984118  0.37235634  0.91530992  1
  S  S58  1  0.16688351  0.96112109  0.91444551  1
  S  S59  1  0.66651950  0.95949932  0.91568378  1
  S  S60  1  0.31217897  0.95951702  0.41445804  1
  S  S61  1  0.81297216  0.96110721  0.41570802  1
  S  S62  1  0.16755733  0.37385980  0.41543199  1
  S  S63  1  0.66796764  0.37678277  0.41483490  1
  S  S64  1  0.01941143  0.66655078  0.41515006  1
  S  S65  1  0.52010692  0.66230900  0.41517424  1
  O  O66  1  0.10632775  0.03578817  0.30109256  1
  O  O67  1  0.60884963  0.04104484  0.30516802  1
  O  O68  1  0.40981055  0.77964235  0.30368084  1
  O  O69  1  0.91290701  0.79280469  0.30180567  1
  O  O70  1  0.47935291  0.17887324  0.30391492  1
  O  O71  1  0.98450768  0.17497561  0.30146821  1
  O  O72  1  0.11158264  0.18137945  0.80628593  1
  O  O73  1  0.60488398  0.17642905  0.80224116  1
  O  O74  1  0.48314888  0.79035407  0.80236212  1
  O  O75  1  0.97928277  0.77630067  0.80625795  1
  O  O76  1  0.41187578  0.03279089  0.80246859  1
  O  O77  1  0.90903897  0.04283077  0.80604245  1
  O  O78  1  0.39084707  0.96711403  0.69535744  1
  O  O79  1  0.89718085  0.97429447  0.69883961  1
  O  O80  1  0.08996745  0.20501855  0.69889323  1
  O  O81  1  0.59268191  0.21873734  0.69535736  1
  O  O82  1  0.01285142  0.81999220  0.69888506  1
  O  O83  1  0.51640247  0.81452994  0.69533789  1
  O  O84  1  0.39646675  0.81484549  0.19672592  1
  O  O85  1  0.88884530  0.81131790  0.19511707  1
  O  O86  1  0.01857452  0.21888793  0.19463141  1
  O  O87  1  0.50975972  0.20728117  0.19701336  1
  O  O88  1  0.09604345  0.97436125  0.19390333  1
  O  O89  1  0.58929674  0.97271968  0.19864090  1
  O  O90  1  0.43965955  0.36185934  0.63586937  1
  O  O91  1  0.93854788  0.36011834  0.63531611  1
  O  O92  1  0.24174146  0.12233590  0.63497018  1
  O  O93  1  0.74069250  0.12098786  0.63632042  1
  O  O94  1  0.31987049  0.51865682  0.63626667  1
  O  O95  1  0.81977106  0.51689294  0.63507028  1
  O  O96  1  0.44341257  0.51739977  0.13754529  1
  O  O97  1  0.94073805  0.51942148  0.13628853  1
  O  O98  1  0.31496580  0.11224016  0.13726393  1
  O  O99  1  0.81982323  0.12033186  0.13660523  1
  O  O100  1  0.24069930  0.36899069  0.13787147  1
  O  O101  1  0.74085086  0.36155188  0.13536876  1
  O  O102  1  0.22854774  0.30391271  0.03150274  1
  O  O103  1  0.72741479  0.30762535  0.02896639  1
  O  O104  1  0.42269824  0.53940600  0.03104861  1
  O  O105  1  0.92723495  0.54864897  0.02983175  1
  O  O106  1  0.34623220  0.15211978  0.03065267  1
  O  O107  1  0.84714438  0.14863732  0.03011769  1
  O  O108  1  0.22707546  0.14716452  0.52857672  1
  O  O109  1  0.72574943  0.14716607  0.52985942  1
  O  O110  1  0.34835231  0.54886341  0.52996646  1
  O  O111  1  0.84583923  0.54532321  0.52837733  1
  O  O112  1  0.42648866  0.30494794  0.52940039  1
  O  O113  1  0.92655302  0.30631273  0.52893092  1
  O  O114  1  0.27574162  0.70180582  0.97348805  1
  O  O115  1  0.77899198  0.70390746  0.97065561  1
  O  O116  1  0.07383040  0.44305457  0.97141095  1
  O  O117  1  0.57374998  0.44726166  0.97260332  1
  O  O118  1  0.14858742  0.85418799  0.97125520  1
  O  O119  1  0.64923220  0.85025820  0.97306662  1
  O  O120  1  0.27583925  0.85035341  0.46920244  1
  O  O121  1  0.77447003  0.84930316  0.47136475  1
  O  O122  1  0.15132094  0.45145232  0.47122078  1
  O  O123  1  0.64934480  0.44988097  0.46971274  1
  O  O124  1  0.07541285  0.70130673  0.47070882  1
  O  O125  1  0.57484548  0.69870954  0.47002576  1
  O  O126  1  0.06278912  0.64055613  0.36380311  1
  O  O127  1  0.56242964  0.63925882  0.36312276  1
  O  O128  1  0.25824648  0.87514495  0.36223781  1
  O  O129  1  0.75666455  0.87430130  0.36456213  1
  O  O130  1  0.18127810  0.48684033  0.36414903  1
  O  O131  1  0.67887829  0.48394600  0.36286791  1
  O  O132  1  0.06380954  0.48733127  0.86461531  1
  O  O133  1  0.56386350  0.48741616  0.86513014  1
  O  O134  1  0.17987465  0.87293150  0.86426015  1
  O  O135  1  0.67976996  0.87101341  0.86553468  1
  O  O136  1  0.25537999  0.64029915  0.86582491  1
  O  O137  1  0.75741433  0.64055403  0.86387609  1
  O  O138  1  0.01181089  0.82743032  0.41008525  1
  O  O139  1  0.51160508  0.82686576  0.41050277  1
  O  O140  1  0.40272129  0.97487976  0.40921107  1
  O  O141  1  0.90112108  0.97656660  0.41102838  1
  O  O142  1  0.08730039  0.19765567  0.41039322  1
  O  O143  1  0.58465120  0.19622156  0.41032303  1
  O  O144  1  0.01179536  0.19414035  0.90961206  1
  O  O145  1  0.51112206  0.19543669  0.91104756  1
  O  O146  1  0.08521482  0.97682406  0.90955199  1
  O  O147  1  0.58639276  0.97591783  0.91157046  1
  O  O148  1  0.40145588  0.82707604  0.91173360  1
  O  O149  1  0.90370783  0.83013628  0.90956006  1
  O  O150  1  0.49005039  0.17276042  0.58946071  1
  O  O151  1  0.99017895  0.17390181  0.58877297  1
  O  O152  1  0.09711070  0.01848172  0.58852708  1
  O  O153  1  0.59591888  0.02065134  0.58950080  1
  O  O154  1  0.41421520  0.80804374  0.58970332  1
  O  O155  1  0.91233856  0.80574062  0.58835510  1
  O  O156  1  0.48787045  0.80234354  0.08975413  1
  O  O157  1  0.99185743  0.80950763  0.08989725  1
  O  O158  1  0.41221250  0.02086730  0.08994316  1
  O  O159  1  0.91383466  0.02093111  0.08840235  1
  O  O160  1  0.09788925  0.17172603  0.09092593  1
  O  O161  1  0.59680425  0.17609523  0.08834764  1
  O  O162  1  0.34634394  0.16285782  0.74354689  1
  O  O163  1  0.84451657  0.16140594  0.74336903  1
  O  O164  1  0.23578594  0.30979560  0.74394200  1
  O  O165  1  0.73524371  0.30746870  0.74313556  1
  O  O166  1  0.41823868  0.52956763  0.74319085  1
  O  O167  1  0.91939844  0.52827639  0.74380715  1
  O  O168  1  0.34526666  0.52499335  0.24433910  1
  O  O169  1  0.84612064  0.52890724  0.24371019  1
  O  O170  1  0.41665975  0.30893198  0.24520635  1
  O  O171  1  0.91891601  0.30592849  0.24246853  1
  O  O172  1  0.23790726  0.16863194  0.24411674  1
  O  O173  1  0.73456874  0.16051201  0.24396704  1
  O  O174  1  0.31966090  0.50596782  0.92433104  1
  O  O175  1  0.82353386  0.50882992  0.92273851  1
  O  O176  1  0.43226349  0.35848737  0.92349742  1
  O  O177  1  0.93186071  0.35548882  0.92362690  1
  O  O178  1  0.24558963  0.13642436  0.92316192  1
  O  O179  1  0.74714927  0.13470202  0.92398403  1
  O  O180  1  0.32370053  0.13773199  0.42205680  1
  O  O181  1  0.82010477  0.13611812  0.42349672  1
  O  O182  1  0.24796523  0.35855767  0.42298921  1
  O  O183  1  0.74560941  0.35486091  0.42247650  1
  O  O184  1  0.43132910  0.50647228  0.42280879  1
  O  O185  1  0.93189562  0.50600115  0.42283776  1
  O  O186  1  0.17667640  0.49263112  0.07651957  1
  O  O187  1  0.67819393  0.49734720  0.07667498  1
  O  O188  1  0.07124790  0.64718604  0.07715683  1
  O  O189  1  0.56884321  0.64306004  0.07639227  1
  O  O190  1  0.25174412  0.86074908  0.07607907  1
  O  O191  1  0.75276109  0.86000529  0.07721538  1
  O  O192  1  0.17988083  0.86192676  0.57664411  1
  O  O193  1  0.67582829  0.85999798  0.57749065  1
  O  O194  1  0.25382721  0.64695624  0.57696329  1
  O  O195  1  0.75124553  0.64100861  0.57744558  1
  O  O196  1  0.06948815  0.49555701  0.57771356  1
  O  O197  1  0.56967599  0.49377240  0.57668136  1
  O  O198  1  0.15825524  0.84668626  0.25716972  1
  O  O199  1  0.65210680  0.84059982  0.25932542  1
  O  O200  1  0.26626726  0.68834711  0.25809501  1
  O  O201  1  0.76625703  0.68871498  0.25883020  1
  O  O202  1  0.07875098  0.46650253  0.25767513  1
  O  O203  1  0.57748833  0.46713844  0.25859422  1
  O  O204  1  0.15337362  0.46415428  0.75931344  1
  O  O205  1  0.65500730  0.46648884  0.75870836  1
  O  O206  1  0.07908205  0.69330672  0.75936201  1
  O  O207  1  0.57800540  0.69020531  0.75835943  1
  O  O208  1  0.26710570  0.84358901  0.75845052  1
  O  O209  1  0.76751592  0.84209282  0.75932508  1
