# generated using pymatgen
data_Rb3PbCl5
_symmetry_space_group_name_H-M   'P 1'
_cell_length_a   8.34609647
_cell_length_b   8.73026057
_cell_length_c   15.83935249
_cell_angle_alpha   90.00000000
_cell_angle_beta   90.00000000
_cell_angle_gamma   90.00000000
_symmetry_Int_Tables_number   1
_chemical_formula_structural   Rb3PbCl5
_chemical_formula_sum   'Rb12 Pb4 Cl20'
_cell_volume   1154.11219539
_cell_formula_units_Z   4
loop_
 _symmetry_equiv_pos_site_id
 _symmetry_equiv_pos_as_xyz
  1  'x, y, z'
loop_
 _atom_site_type_symbol
 _atom_site_label
 _atom_site_symmetry_multiplicity
 _atom_site_fract_x
 _atom_site_fract_y
 _atom_site_fract_z
 _atom_site_occupancy
  Rb  Rb0  1  0.96721094  0.26233352  0.04608902  1
  Rb  Rb1  1  0.46721094  0.23766648  0.95391098  1
  Rb  Rb2  1  0.53278906  0.76233352  0.45391098  1
  Rb  Rb3  1  0.03278906  0.73766648  0.54608902  1
  Rb  Rb4  1  0.03278906  0.73766648  0.95391098  1
  Rb  Rb5  1  0.53278906  0.76233352  0.04608902  1
  Rb  Rb6  1  0.46721094  0.23766648  0.54608902  1
  Rb  Rb7  1  0.96721094  0.26233352  0.45391098  1
  Rb  Rb8  1  0.13663980  0.08043215  0.75000000  1
  Rb  Rb9  1  0.63663980  0.41956785  0.25000000  1
  Rb  Rb10  1  0.36336020  0.58043215  0.75000000  1
  Rb  Rb11  1  0.86336020  0.91956785  0.25000000  1
  Pb  Pb12  1  0.64222696  0.93310065  0.75000000  1
  Pb  Pb13  1  0.14222696  0.56689935  0.25000000  1
  Pb  Pb14  1  0.85777304  0.43310065  0.75000000  1
  Pb  Pb15  1  0.35777304  0.06689935  0.25000000  1
  Cl  Cl16  1  0.12813452  0.39079083  0.87476769  1
  Cl  Cl17  1  0.62813452  0.10920917  0.12523231  1
  Cl  Cl18  1  0.37186548  0.89079083  0.62523231  1
  Cl  Cl19  1  0.87186548  0.60920917  0.37476769  1
  Cl  Cl20  1  0.87186548  0.60920917  0.12523231  1
  Cl  Cl21  1  0.37186548  0.89079083  0.87476769  1
  Cl  Cl22  1  0.62813452  0.10920917  0.37476769  1
  Cl  Cl23  1  0.12813452  0.39079083  0.62523231  1
  Cl  Cl24  1  0.17657218  0.95188625  0.11337031  1
  Cl  Cl25  1  0.67657218  0.54811375  0.88662969  1
  Cl  Cl26  1  0.32342782  0.45188625  0.38662969  1
  Cl  Cl27  1  0.82342782  0.04811375  0.61337031  1
  Cl  Cl28  1  0.82342782  0.04811375  0.88662969  1
  Cl  Cl29  1  0.32342782  0.45188625  0.11337031  1
  Cl  Cl30  1  0.67657218  0.54811375  0.61337031  1
  Cl  Cl31  1  0.17657218  0.95188625  0.38662969  1
  Cl  Cl32  1  0.02218716  0.27613044  0.25000000  1
  Cl  Cl33  1  0.52218716  0.22386956  0.75000000  1
  Cl  Cl34  1  0.47781284  0.77613044  0.25000000  1
  Cl  Cl35  1  0.97781284  0.72386956  0.75000000  1
