# generated using pymatgen
data_Na4GeSe4
_symmetry_space_group_name_H-M   'P 1'
_cell_length_a   7.22912656
_cell_length_b   9.54941634
_cell_length_c   28.91710840
_cell_angle_alpha   90.00000000
_cell_angle_beta   90.00000000
_cell_angle_gamma   90.00000000
_symmetry_Int_Tables_number   1
_chemical_formula_structural   Na4GeSe4
_chemical_formula_sum   'Na32 Ge8 Se32'
_cell_volume   1996.26190590
_cell_formula_units_Z   8
loop_
 _symmetry_equiv_pos_site_id
 _symmetry_equiv_pos_as_xyz
  1  'x, y, z'
loop_
 _atom_site_type_symbol
 _atom_site_label
 _atom_site_symmetry_multiplicity
 _atom_site_fract_x
 _atom_site_fract_y
 _atom_site_fract_z
 _atom_site_occupancy
  Na  Na0  1  0.53110159  0.75000000  0.86015889  1
  Na  Na1  1  0.03110159  0.25000000  0.63984111  1
  Na  Na2  1  0.46889841  0.25000000  0.13984111  1
  Na  Na3  1  0.96889841  0.75000000  0.36015889  1
  Na  Na4  1  0.54875855  0.25000000  0.89581612  1
  Na  Na5  1  0.04875855  0.75000000  0.60418388  1
  Na  Na6  1  0.45124145  0.75000000  0.10418388  1
  Na  Na7  1  0.95124145  0.25000000  0.39581612  1
  Na  Na8  1  0.40634253  0.44297413  0.75632081  1
  Na  Na9  1  0.90634253  0.55702587  0.74367919  1
  Na  Na10  1  0.59365747  0.94297413  0.24367919  1
  Na  Na11  1  0.09365747  0.05702587  0.25632081  1
  Na  Na12  1  0.59365747  0.55702587  0.24367919  1
  Na  Na13  1  0.09365747  0.44297413  0.25632081  1
  Na  Na14  1  0.40634253  0.05702587  0.75632081  1
  Na  Na15  1  0.90634253  0.94297413  0.74367919  1
  Na  Na16  1  0.24400888  0.45393519  0.52345766  1
  Na  Na17  1  0.74400888  0.54606481  0.97654234  1
  Na  Na18  1  0.75599112  0.95393519  0.47654234  1
  Na  Na19  1  0.25599112  0.04606481  0.02345766  1
  Na  Na20  1  0.75599112  0.54606481  0.47654234  1
  Na  Na21  1  0.25599112  0.45393519  0.02345766  1
  Na  Na22  1  0.24400888  0.04606481  0.52345766  1
  Na  Na23  1  0.74400888  0.95393519  0.97654234  1
  Na  Na24  1  0.57048425  0.49875274  0.63409609  1
  Na  Na25  1  0.07048425  0.50124726  0.86590391  1
  Na  Na26  1  0.42951575  -0.00124726  0.36590391  1
  Na  Na27  1  0.92951575  1.00124726  0.13409609  1
  Na  Na28  1  0.42951575  0.50124726  0.36590391  1
  Na  Na29  1  0.92951575  0.49875274  0.13409609  1
  Na  Na30  1  0.57048425  1.00124726  0.63409609  1
  Na  Na31  1  0.07048425  -0.00124726  0.86590391  1
  Ge  Ge32  1  0.82110820  0.25000000  0.79038759  1
  Ge  Ge33  1  0.32110820  0.75000000  0.70961241  1
  Ge  Ge34  1  0.17889180  0.75000000  0.20961241  1
  Ge  Ge35  1  0.67889180  0.25000000  0.29038759  1
  Ge  Ge36  1  0.70819759  0.25000000  0.54446424  1
  Ge  Ge37  1  0.20819759  0.75000000  0.95553576  1
  Ge  Ge38  1  0.29180241  0.75000000  0.45553576  1
  Ge  Ge39  1  0.79180241  0.25000000  0.04446424  1
  Se  Se40  1  0.71840497  0.25000000  0.71123870  1
  Se  Se41  1  0.21840497  0.75000000  0.78876130  1
  Se  Se42  1  0.28159503  0.75000000  0.28876130  1
  Se  Se43  1  0.78159503  0.25000000  0.21123870  1
  Se  Se44  1  0.64912361  0.75000000  0.69592819  1
  Se  Se45  1  0.14912361  0.25000000  0.80407181  1
  Se  Se46  1  0.35087639  0.25000000  0.30407181  1
  Se  Se47  1  0.85087639  0.75000000  0.19592819  1
  Se  Se48  1  0.19779621  0.54645049  0.67318727  1
  Se  Se49  1  0.69779621  0.45354951  0.82681273  1
  Se  Se50  1  0.80220379  0.04645049  0.32681273  1
  Se  Se51  1  0.30220379  0.95354951  0.17318727  1
  Se  Se52  1  0.80220379  0.45354951  0.32681273  1
  Se  Se53  1  0.30220379  0.54645049  0.17318727  1
  Se  Se54  1  0.19779621  0.95354951  0.67318727  1
  Se  Se55  1  0.69779621  0.04645049  0.82681273  1
  Se  Se56  1  0.35989665  0.75000000  0.53608322  1
  Se  Se57  1  0.85989665  0.25000000  0.96391678  1
  Se  Se58  1  0.64010335  0.25000000  0.46391678  1
  Se  Se59  1  0.14010335  0.75000000  0.03608322  1
  Se  Se60  1  0.41873910  0.25000000  0.58428447  1
  Se  Se61  1  0.91873910  0.75000000  0.91571553  1
  Se  Se62  1  0.58126090  0.75000000  0.41571553  1
  Se  Se63  1  0.08126090  0.25000000  0.08428447  1
  Se  Se64  1  0.37774541  0.54731817  0.93049040  1
  Se  Se65  1  0.87774541  0.45268183  0.56950960  1
  Se  Se66  1  0.62225459  0.04731817  0.06950960  1
  Se  Se67  1  0.12225459  0.95268183  0.43049040  1
  Se  Se68  1  0.62225459  0.45268183  0.06950960  1
  Se  Se69  1  0.12225459  0.54731817  0.43049040  1
  Se  Se70  1  0.37774541  0.95268183  0.93049040  1
  Se  Se71  1  0.87774541  0.04731817  0.56950960  1
