# generated using pymatgen
data_Pr2MgMn2(GeO5)2
_symmetry_space_group_name_H-M   'P 1'
_cell_length_a   5.78854882
_cell_length_b   6.10471301
_cell_length_c   7.42424788
_cell_angle_alpha   107.60651868
_cell_angle_beta   97.01351904
_cell_angle_gamma   107.69184332
_symmetry_Int_Tables_number   1
_chemical_formula_structural   Pr2MgMn2(GeO5)2
_chemical_formula_sum   'Pr2 Mg1 Mn2 Ge2 O10'
_cell_volume   231.52571069
_cell_formula_units_Z   1
loop_
 _symmetry_equiv_pos_site_id
 _symmetry_equiv_pos_as_xyz
  1  'x, y, z'
loop_
 _atom_site_type_symbol
 _atom_site_label
 _atom_site_symmetry_multiplicity
 _atom_site_fract_x
 _atom_site_fract_y
 _atom_site_fract_z
 _atom_site_occupancy
  Pr  Pr0  1  0.35371100  0.20558500  0.73452000  1
  Pr  Pr1  1  0.64628900  0.79441500  0.26548000  1
  Mg  Mg2  1  0.00000000  0.00000000  0.00000000  1
  Mn  Mn3  1  0.00000000  0.50000000  0.00000000  1
  Mn  Mn4  1  0.00000000  0.50000000  0.50000000  1
  Ge  Ge5  1  0.64301600  0.80227100  0.72569800  1
  Ge  Ge6  1  0.35698400  0.19772900  0.27430200  1
  O  O7  1  0.87484400  0.56385200  0.25281000  1
  O  O8  1  0.29762400  0.89448700  0.10432300  1
  O  O9  1  0.04055800  0.13428400  0.31333700  1
  O  O10  1  0.70237600  0.10551300  0.89567700  1
  O  O11  1  0.58327900  0.27178500  0.48304200  1
  O  O12  1  0.31245600  0.34282700  0.09592200  1
  O  O13  1  0.68754400  0.65717300  0.90407800  1
  O  O14  1  0.95944200  0.86571600  0.68666300  1
  O  O15  1  0.12515600  0.43614800  0.74719000  1
  O  O16  1  0.41672100  0.72821500  0.51695800  1
