# generated using pymatgen
data_Na2Zr4Sc4Si3(S3O16)3
_symmetry_space_group_name_H-M   'P 1'
_cell_length_a   17.97761164
_cell_length_b   8.97847267
_cell_length_c   23.31947111
_cell_angle_alpha   89.92552837
_cell_angle_beta   90.13141368
_cell_angle_gamma   120.01993055
_symmetry_Int_Tables_number   1
_chemical_formula_structural   Na2Zr4Sc4Si3(S3O16)3
_chemical_formula_sum   'Na6 Zr12 Sc12 Si9 S27 O144'
_cell_volume   3259.08271312
_cell_formula_units_Z   3
loop_
 _symmetry_equiv_pos_site_id
 _symmetry_equiv_pos_as_xyz
  1  'x, y, z'
loop_
 _atom_site_type_symbol
 _atom_site_label
 _atom_site_symmetry_multiplicity
 _atom_site_fract_x
 _atom_site_fract_y
 _atom_site_fract_z
 _atom_site_occupancy
  Na  Na0  1  0.99692420  0.00469824  0.49969406  1
  Na  Na1  1  0.49746420  0.98907375  0.00372283  1
  Na  Na2  1  0.32961246  0.32623437  0.83903494  1
  Na  Na3  1  0.82921483  0.33114349  0.83304325  1
  Na  Na4  1  0.33103425  0.32856862  0.33182740  1
  Na  Na5  1  0.82496770  0.32643970  0.33576591  1
  Zr  Zr6  1  0.51150713  0.01504805  0.35561352  1
  Zr  Zr7  1  0.00382241  0.99854389  0.85845175  1
  Zr  Zr8  1  0.50607623  0.01963900  0.64426720  1
  Zr  Zr9  1  0.00515834  0.99041214  0.14486309  1
  Zr  Zr10  1  0.33818147  0.33653526  0.68472390  1
  Zr  Zr11  1  0.83446068  0.33527847  0.68523336  1
  Zr  Zr12  1  0.33638143  0.33556333  0.18664608  1
  Zr  Zr13  1  0.83397331  0.33323640  0.18821976  1
  Zr  Zr14  1  0.16333359  0.67741450  0.02329351  1
  Zr  Zr15  1  0.66187818  0.66642907  0.02519040  1
  Zr  Zr16  1  0.16230145  0.65813126  0.52271136  1
  Zr  Zr17  1  0.66267604  0.64938433  0.51992014  1
  Sc  Sc18  1  0.00471902  0.00255137  0.34954604  1
  Sc  Sc19  1  0.50625647  0.00891500  0.85116448  1
  Sc  Sc20  1  0.99839005  0.00950487  0.64555174  1
  Sc  Sc21  1  0.50363048  0.98498896  0.14910220  1
  Sc  Sc22  1  0.33306363  0.33717694  0.98158904  1
  Sc  Sc23  1  0.83770443  0.34481898  0.98381736  1
  Sc  Sc24  1  0.33861057  0.32993542  0.48066315  1
  Sc  Sc25  1  0.83269943  0.32731256  0.47898720  1
  Sc  Sc26  1  0.16740383  0.67633775  0.30782812  1
  Sc  Sc27  1  0.66786394  0.66516985  0.31122400  1
  Sc  Sc28  1  0.16946805  0.68051042  0.81556606  1
  Sc  Sc29  1  0.66576701  0.65658676  0.80883832  1
  Si  Si30  1  0.14749538  0.00327662  0.25190402  1
  Si  Si31  1  0.64701489  0.99544101  0.24989869  1
  Si  Si32  1  0.64775268  0.29247688  0.75180359  1
  Si  Si33  1  0.47877581  0.33511513  0.58143376  1
  Si  Si34  1  0.97529314  0.32710801  0.58207465  1
  Si  Si35  1  0.47435721  0.62633691  0.08182644  1
  Si  Si36  1  0.97635201  0.61965987  0.08341793  1
  Si  Si37  1  0.17326555  0.96488113  0.91605620  1
  Si  Si38  1  0.67210818  0.38198301  0.41424246  1
  S  S39  1  0.35466860  0.71077902  0.25100837  1
  S  S40  1  0.85516910  0.71259162  0.25044681  1
  S  S41  1  0.00075470  0.28946732  0.25076938  1
  S  S42  1  0.50087873  0.28976955  0.24968250  1
  S  S43  1  0.14456823  0.29138116  0.75017860  1
  S  S44  1  0.00129820  0.71222371  0.74974896  1
  S  S45  1  0.49976016  0.71107182  0.75088107  1
  S  S46  1  0.35461434  0.99750847  0.75044569  1
  S  S47  1  0.85527027  0.99922299  0.75061916  1
  S  S48  1  0.18772318  0.04451903  0.58250075  1
  S  S49  1  0.68917035  0.04282758  0.58243237  1
  S  S50  1  0.33405934  0.62265025  0.58248831  1
  S  S51  1  0.83520853  0.62600808  0.58258797  1
  S  S52  1  0.33591422  0.04623565  0.08267831  1
  S  S53  1  0.83434623  0.04617601  0.08264814  1
  S  S54  1  0.18912938  0.33462808  0.08266488  1
  S  S55  1  0.68785408  0.33114572  0.08211809  1
  S  S56  1  0.31286768  0.66818169  0.91584629  1
  S  S57  1  0.80987264  0.66327306  0.91587981  1
  S  S58  1  0.02083388  0.37837913  0.91565320  1
  S  S59  1  0.52176961  0.37638469  0.91611167  1
  S  S60  1  0.66739332  0.95783429  0.91597019  1
  S  S61  1  0.31041355  0.95556257  0.41608381  1
  S  S62  1  0.81318421  0.95727074  0.41618320  1
  S  S63  1  0.16705407  0.37573624  0.41613422  1
  S  S64  1  0.02167278  0.66742185  0.41599286  1
  S  S65  1  0.52039242  0.66371441  0.41590050  1
  O  O66  1  0.10023973  0.03286685  0.30677535  1
  O  O67  1  0.60141135  0.03192350  0.30545468  1
  O  O68  1  0.40817451  0.78819210  0.30244608  1
  O  O69  1  0.90964046  0.79033599  0.30186534  1
  O  O70  1  0.48301365  0.17868391  0.30150840  1
  O  O71  1  0.98435808  0.18016399  0.30221987  1
  O  O72  1  0.10361878  0.17953246  0.80170995  1
  O  O73  1  0.60007117  0.16739797  0.80656260  1
  O  O74  1  0.48309824  0.78638741  0.80220282  1
  O  O75  1  0.98628030  0.79359421  0.80145249  1
  O  O76  1  0.40851162  0.02954122  0.80185252  1
  O  O77  1  0.91021449  0.02878730  0.80197139  1
  O  O78  1  0.39467973  0.97436880  0.69839773  1
  O  O79  1  0.89519955  0.97378830  0.69913032  1
  O  O80  1  0.09243162  0.20741366  0.69871031  1
  O  O81  1  0.58698373  0.19905471  0.69535395  1
  O  O82  1  0.01253207  0.81662794  0.69852273  1
  O  O83  1  0.50998920  0.81089763  0.69849483  1
  O  O84  1  0.39227959  0.81431192  0.19882068  1
  O  O85  1  0.89616995  0.81861407  0.19837685  1
  O  O86  1  0.01128056  0.20924897  0.19857221  1
  O  O87  1  0.51027775  0.20766231  0.19767684  1
  O  O88  1  0.08697274  0.97473737  0.19526534  1
  O  O89  1  0.58781036  0.97489963  0.19425847  1
  O  O90  1  0.43087682  0.36015955  0.63883694  1
  O  O91  1  0.93324018  0.36061881  0.63969176  1
  O  O92  1  0.24145620  0.12527497  0.63509939  1
  O  O93  1  0.74223032  0.12585345  0.63504778  1
  O  O94  1  0.31724486  0.51132211  0.63492455  1
  O  O95  1  0.81987514  0.51790240  0.63510783  1
  O  O96  1  0.43246082  0.50491053  0.13845976  1
  O  O97  1  0.93017366  0.49966516  0.13906482  1
  O  O98  1  0.31908069  0.12187122  0.13459234  1
  O  O99  1  0.81686380  0.12089224  0.13415722  1
  O  O100  1  0.24229881  0.35974742  0.13466289  1
  O  O101  1  0.74109759  0.35988735  0.13385378  1
  O  O102  1  0.22656381  0.30063123  0.03180459  1
  O  O103  1  0.72757143  0.30284417  0.03074332  1
  O  O104  1  0.41769863  0.53008165  0.02576596  1
  O  O105  1  0.91766240  0.53086919  0.02677614  1
  O  O106  1  0.34659880  0.15041130  0.03126169  1
  O  O107  1  0.84594629  0.15086281  0.03109155  1
  O  O108  1  0.22709795  0.15345071  0.53170634  1
  O  O109  1  0.72676983  0.15337581  0.53220248  1
  O  O110  1  0.34570045  0.53977720  0.53180356  1
  O  O111  1  0.84854019  0.54600346  0.53190700  1
  O  O112  1  0.41600079  0.30386265  0.52770263  1
  O  O113  1  0.91722011  0.30181929  0.52665887  1
  O  O114  1  0.27208582  0.69095269  0.96777559  1
  O  O115  1  0.77176337  0.69122974  0.96784851  1
  O  O116  1  0.07398788  0.45224722  0.96760752  1
  O  O117  1  0.57678901  0.45855185  0.96795673  1
  O  O118  1  0.15349188  0.83844647  0.97143311  1
  O  O119  1  0.65566764  0.85010700  0.96824848  1
  O  O120  1  0.26904532  0.85085166  0.46856127  1
  O  O121  1  0.77256634  0.85399529  0.46904009  1
  O  O122  1  0.15563565  0.46081216  0.46873951  1
  O  O123  1  0.65500284  0.46883915  0.47225565  1
  O  O124  1  0.07671228  0.69429330  0.46845317  1
  O  O125  1  0.57352020  0.69334160  0.46848199  1
  O  O126  1  0.06299475  0.64193694  0.36538829  1
  O  O127  1  0.55929041  0.63505399  0.36535145  1
  O  O128  1  0.25549854  0.87359821  0.36528186  1
  O  O129  1  0.76039125  0.87848800  0.36506381  1
  O  O130  1  0.17905432  0.48182550  0.36520552  1
  O  O131  1  0.68250932  0.50010789  0.35969276  1
  O  O132  1  0.06123032  0.48371470  0.86408837  1
  O  O133  1  0.56296778  0.48400647  0.86499916  1
  O  O134  1  0.18136544  0.86644117  0.85973900  1
  O  O135  1  0.67889240  0.87551850  0.86470275  1
  O  O136  1  0.25893763  0.64161067  0.86398612  1
  O  O137  1  0.75692357  0.63986212  0.86441423  1
  O  O138  1  0.01296907  0.82318299  0.41136044  1
  O  O139  1  0.50878273  0.81478997  0.40907990  1
  O  O140  1  0.39532263  0.97361889  0.40862320  1
  O  O141  1  0.90024945  0.97577982  0.41040152  1
  O  O142  1  0.08800665  0.20389196  0.41218774  1
  O  O143  1  0.58323411  0.19440012  0.40919112  1
  O  O144  1  0.01067889  0.20400767  0.90661612  1
  O  O145  1  0.51255780  0.20255032  0.91062825  1
  O  O146  1  0.08499252  0.97692848  0.90529765  1
  O  O147  1  0.58811621  0.97146287  0.91136394  1
  O  O148  1  0.39917282  0.82367355  0.90868503  1
  O  O149  1  0.89650891  0.81811919  0.90710075  1
  O  O150  1  0.48488514  0.16307026  0.59208838  1
  O  O151  1  0.99040605  0.16284685  0.59161176  1
  O  O152  1  0.10100925  0.02056968  0.59126836  1
  O  O153  1  0.60234638  0.01993068  0.59232474  1
  O  O154  1  0.40955055  0.79087287  0.59322288  1
  O  O155  1  0.91284795  0.79761705  0.59164557  1
  O  O156  1  0.48787281  0.81831974  0.08735282  1
  O  O157  1  0.98567333  0.80810857  0.09128947  1
  O  O158  1  0.41246651  0.02883916  0.09051484  1
  O  O159  1  0.90996762  0.02792469  0.09219651  1
  O  O160  1  0.10215598  0.18484690  0.09185647  1
  O  O161  1  0.60041957  0.18308395  0.08872786  1
  O  O162  1  0.34388476  0.15420618  0.74278569  1
  O  O163  1  0.84635486  0.15546831  0.74375428  1
  O  O164  1  0.23165561  0.30713571  0.74331152  1
  O  O165  1  0.74286262  0.31206338  0.74306248  1
  O  O166  1  0.42023359  0.53345048  0.74398577  1
  O  O167  1  0.92211656  0.53844193  0.74454183  1
  O  O168  1  0.34510576  0.53524527  0.24357669  1
  O  O169  1  0.84704965  0.53840139  0.24315298  1
  O  O170  1  0.42131304  0.30695361  0.24408380  1
  O  O171  1  0.92267392  0.30862223  0.24426838  1
  O  O172  1  0.24238002  0.17372175  0.24286105  1
  O  O173  1  0.74156934  0.17162578  0.24203937  1
  O  O174  1  0.32165196  0.51295959  0.92124907  1
  O  O175  1  0.82006804  0.50962773  0.92178394  1
  O  O176  1  0.43603320  0.35815566  0.92272051  1
  O  O177  1  0.93344295  0.35494973  0.92244690  1
  O  O178  1  0.25478657  0.15543385  0.92272247  1
  O  O179  1  0.74367604  0.13095768  0.92353526  1
  O  O180  1  0.31821047  0.12874044  0.42282818  1
  O  O181  1  0.82263852  0.13104901  0.42258712  1
  O  O182  1  0.24357490  0.35643004  0.42462356  1
  O  O183  1  0.75403300  0.35470747  0.42478462  1
  O  O184  1  0.43268009  0.50949287  0.42397423  1
  O  O185  1  0.93635450  0.51420598  0.42347474  1
  O  O186  1  0.18119632  0.48862172  0.07394866  1
  O  O187  1  0.68174329  0.48953798  0.07313737  1
  O  O188  1  0.07044180  0.63783224  0.07459820  1
  O  O189  1  0.57038228  0.64377353  0.07205398  1
  O  O190  1  0.25903569  0.87184818  0.07541119  1
  O  O191  1  0.75775657  0.87229452  0.07334691  1
  O  O192  1  0.18094382  0.87399465  0.57464248  1
  O  O193  1  0.68121523  0.87354223  0.57510469  1
  O  O194  1  0.25726033  0.64203862  0.57448358  1
  O  O195  1  0.75965875  0.64855733  0.57598408  1
  O  O196  1  0.07178282  0.49807265  0.57226366  1
  O  O197  1  0.57152819  0.50586792  0.57550357  1
  O  O198  1  0.15527468  0.83338401  0.26120030  1
  O  O199  1  0.65710543  0.83105605  0.26240058  1
  O  O200  1  0.26798679  0.68623308  0.25948204  1
  O  O201  1  0.77046248  0.69238275  0.25668441  1
  O  O202  1  0.07652355  0.45997647  0.25956219  1
  O  O203  1  0.57479250  0.45956078  0.25806641  1
  O  O204  1  0.15445396  0.46125190  0.75926205  1
  O  O205  1  0.65571291  0.47817519  0.76143336  1
  O  O206  1  0.07587056  0.68950381  0.75882157  1
  O  O207  1  0.57474587  0.68965820  0.75931085  1
  O  O208  1  0.26886890  0.84576638  0.75735319  1
  O  O209  1  0.76941219  0.84913429  0.75923411  1
