# generated using pymatgen
data_NaNbGe3(PO4)6
_symmetry_space_group_name_H-M   'P 1'
_cell_length_a   8.43909763
_cell_length_b   8.43909737
_cell_length_c   21.94699305
_cell_angle_alpha   90.00000000
_cell_angle_beta   90.00000000
_cell_angle_gamma   120.00000096
_symmetry_Int_Tables_number   1
_chemical_formula_structural   NaNbGe3(PO4)6
_chemical_formula_sum   'Na3 Nb3 Ge9 P18 O72'
_cell_volume   1353.62280587
_cell_formula_units_Z   3
loop_
 _symmetry_equiv_pos_site_id
 _symmetry_equiv_pos_as_xyz
  1  'x, y, z'
loop_
 _atom_site_type_symbol
 _atom_site_label
 _atom_site_symmetry_multiplicity
 _atom_site_fract_x
 _atom_site_fract_y
 _atom_site_fract_z
 _atom_site_occupancy
  Na  Na0  1  -0.00000000  -0.00000000  0.99770316  1
  Na  Na1  1  0.66666700  0.33333300  0.83388410  1
  Na  Na2  1  0.66666700  0.33333300  0.33311043  1
  Nb  Nb3  1  -0.00000000  -0.00000000  0.64446097  1
  Nb  Nb4  1  -0.00000000  -0.00000000  0.14554378  1
  Nb  Nb5  1  0.33333300  0.66666700  0.52203739  1
  Ge  Ge6  1  -0.00000000  -0.00000000  0.35436107  1
  Ge  Ge7  1  -0.00000000  -0.00000000  0.85340880  1
  Ge  Ge8  1  0.66666700  0.33333300  0.68815559  1
  Ge  Ge9  1  0.66666700  0.33333300  0.18587988  1
  Ge  Ge10  1  0.66666700  0.33333300  0.97893731  1
  Ge  Ge11  1  0.66666700  0.33333300  0.47846641  1
  Ge  Ge12  1  0.33333300  0.66666700  0.02058044  1
  Ge  Ge13  1  0.33333300  0.66666700  0.31221835  1
  Ge  Ge14  1  0.33333300  0.66666700  0.81306901  1
  P  P15  1  0.29363471  0.99923748  0.25265473  1
  P  P16  1  0.70560276  0.70636529  0.25265473  1
  P  P17  1  0.00076252  0.29439724  0.25265473  1
  P  P18  1  0.29291708  0.29442041  0.75257754  1
  P  P19  1  0.00150332  0.70708292  0.75257754  1
  P  P20  1  0.70557959  0.99849668  0.75257754  1
  P  P21  1  0.94275421  0.33341402  0.58334241  1
  P  P22  1  0.39066081  0.05724579  0.58334241  1
  P  P23  1  0.66658598  0.60933919  0.58334241  1
  P  P24  1  0.95426678  0.61058410  0.08166458  1
  P  P25  1  0.65631833  0.04573322  0.08166458  1
  P  P26  1  0.38941590  0.34368167  0.08166458  1
  P  P27  1  0.62003129  0.66667967  0.91664219  1
  P  P28  1  0.04664738  0.37996871  0.91664219  1
  P  P29  1  0.33332033  0.95335262  0.91664219  1
  P  P30  1  0.62728180  0.95935000  0.41401740  1
  P  P31  1  0.33206720  0.37271820  0.41401740  1
  P  P32  1  0.04065000  0.66793280  0.41401740  1
  O  O33  1  0.20607888  0.03896945  0.30759701  1
  O  O34  1  0.83289057  0.79392112  0.30759701  1
  O  O35  1  0.96103055  0.16710943  0.30759701  1
  O  O36  1  0.20615073  0.16710475  0.80777569  1
  O  O37  1  0.96095402  0.79384927  0.80777569  1
  O  O38  1  0.83289525  0.03904598  0.80777569  1
  O  O39  1  0.79303517  0.96659074  0.69502091  1
  O  O40  1  0.17355557  0.20696483  0.69502091  1
  O  O41  1  0.03340926  0.82644443  0.69502091  1
  O  O42  1  0.79303916  0.82668969  0.19505081  1
  O  O43  1  0.03365053  0.20696084  0.19505081  1
  O  O44  1  0.17331031  0.96634947  0.19505081  1
  O  O45  1  0.86627123  0.36981373  0.64127659  1
  O  O46  1  0.50354349  0.13372877  0.64127659  1
  O  O47  1  0.63018627  0.49645651  0.64127659  1
  O  O48  1  0.87091576  0.49999288  0.14037363  1
  O  O49  1  0.62907811  0.12908424  0.14037363  1
  O  O50  1  0.50000712  0.37092189  0.14037363  1
  O  O51  1  0.46518226  0.29641610  0.02515397  1
  O  O52  1  0.83123485  0.53481774  0.02515397  1
  O  O53  1  0.70358390  0.16876515  0.02515397  1
  O  O54  1  0.46707261  0.17027457  0.52538840  1
  O  O55  1  0.70320297  0.53292739  0.52538840  1
  O  O56  1  0.82972543  0.29679703  0.52538840  1
  O  O57  1  0.53891764  0.70410748  0.97421756  1
  O  O58  1  0.16518884  0.46108236  0.97421756  1
  O  O59  1  0.29589252  0.83481116  0.97421756  1
  O  O60  1  0.54041547  0.84029471  0.47170989  1
  O  O61  1  0.29987824  0.45958453  0.47170989  1
  O  O62  1  0.15970529  0.70012176  0.47170989  1
  O  O63  1  0.12735118  0.62770713  0.35904454  1
  O  O64  1  0.50035495  0.87264882  0.35904454  1
  O  O65  1  0.37229287  0.49964505  0.35904454  1
  O  O66  1  0.12799280  0.49863518  0.85921277  1
  O  O67  1  0.37064137  0.87200720  0.85921277  1
  O  O68  1  0.50136482  0.62935863  0.85921277  1
  O  O69  1  0.02458766  0.83859979  0.40670138  1
  O  O70  1  0.81401213  0.97541234  0.40670138  1
  O  O71  1  0.16140021  0.18598787  0.40670138  1
  O  O72  1  0.02552737  0.18732231  0.90885911  1
  O  O73  1  0.16179494  0.97447263  0.90885911  1
  O  O74  1  0.81267769  0.83820506  0.90885911  1
  O  O75  1  0.96978115  0.16794326  0.59096831  1
  O  O76  1  0.19816210  0.03021885  0.59096831  1
  O  O77  1  0.83205674  0.80183790  0.59096831  1
  O  O78  1  0.97338377  0.80322333  0.08966826  1
  O  O79  1  0.82983956  0.02661623  0.08966826  1
  O  O80  1  0.19677667  0.17016044  0.08966826  1
  O  O81  1  0.69099827  0.17199259  0.74272029  1
  O  O82  1  0.48099532  0.30900173  0.74272029  1
  O  O83  1  0.82800741  0.51900468  0.74272029  1
  O  O84  1  0.69080227  0.51842147  0.24235050  1
  O  O85  1  0.82762019  0.30919773  0.24235050  1
  O  O86  1  0.48157853  0.17237981  0.24235050  1
  O  O87  1  0.64119974  0.49548804  0.92426319  1
  O  O88  1  0.85428930  0.35880026  0.92426319  1
  O  O89  1  0.50451196  0.14571070  0.92426319  1
  O  O90  1  0.64250923  0.14784037  0.42395944  1
  O  O91  1  0.50533213  0.35749077  0.42395944  1
  O  O92  1  0.85215963  0.49466787  0.42395944  1
  O  O93  1  0.36099175  0.50654696  0.07353394  1
  O  O94  1  0.14555421  0.63900825  0.07353394  1
  O  O95  1  0.49345304  0.85444579  0.07353394  1
  O  O96  1  0.36352494  0.86480390  0.57571469  1
  O  O97  1  0.50127797  0.63647506  0.57571469  1
  O  O98  1  0.13519610  0.49872203  0.57571469  1
  O  O99  1  0.30865147  0.82799105  0.26007997  1
  O  O100  1  0.51933858  0.69134853  0.26007997  1
  O  O101  1  0.17200895  0.48066142  0.26007997  1
  O  O102  1  0.30871261  0.48086894  0.76007675  1
  O  O103  1  0.17215533  0.69128739  0.76007675  1
  O  O104  1  0.51913106  0.82784467  0.76007675  1
