# generated using pymatgen
data_HgCl2
_symmetry_space_group_name_H-M   'P 1'
_cell_length_a   4.74463247
_cell_length_b   5.73734896
_cell_length_c   12.47879708
_cell_angle_alpha   90.00000000
_cell_angle_beta   90.00000000
_cell_angle_gamma   90.00000000
_symmetry_Int_Tables_number   1
_chemical_formula_structural   HgCl2
_chemical_formula_sum   'Hg4 Cl8'
_cell_volume   339.69297443
_cell_formula_units_Z   4
loop_
 _symmetry_equiv_pos_site_id
 _symmetry_equiv_pos_as_xyz
  1  'x, y, z'
loop_
 _atom_site_type_symbol
 _atom_site_label
 _atom_site_symmetry_multiplicity
 _atom_site_fract_x
 _atom_site_fract_y
 _atom_site_fract_z
 _atom_site_occupancy
  Hg  Hg0  1  0.53695885  0.75000000  0.37358679  1
  Hg  Hg1  1  0.03695885  0.25000000  0.12641321  1
  Hg  Hg2  1  0.46304115  0.25000000  0.62641321  1
  Hg  Hg3  1  0.96304115  0.75000000  0.87358679  1
  Cl  Cl4  1  0.27607263  0.75000000  0.01563528  1
  Cl  Cl5  1  0.77607263  0.25000000  0.48436472  1
  Cl  Cl6  1  0.72392737  0.25000000  0.98436472  1
  Cl  Cl7  1  0.22392737  0.75000000  0.51563528  1
  Cl  Cl8  1  0.65235781  0.75000000  0.73080046  1
  Cl  Cl9  1  0.15235781  0.25000000  0.76919954  1
  Cl  Cl10  1  0.34764219  0.25000000  0.26919954  1
  Cl  Cl11  1  0.84764219  0.75000000  0.23080046  1
