# generated using pymatgen
data_Ca2Nb2SiS5O24
_symmetry_space_group_name_H-M   'P 1'
_cell_length_a   9.13153422
_cell_length_b   9.13612703
_cell_length_c   23.21187284
_cell_angle_alpha   89.91187243
_cell_angle_beta   90.24917170
_cell_angle_gamma   120.07553064
_symmetry_Int_Tables_number   1
_chemical_formula_structural   Ca2Nb2SiS5O24
_chemical_formula_sum   'Ca6 Nb6 Si3 S15 O72'
_cell_volume   1675.75847794
_cell_formula_units_Z   3
loop_
 _symmetry_equiv_pos_site_id
 _symmetry_equiv_pos_as_xyz
  1  'x, y, z'
loop_
 _atom_site_type_symbol
 _atom_site_label
 _atom_site_symmetry_multiplicity
 _atom_site_fract_x
 _atom_site_fract_y
 _atom_site_fract_z
 _atom_site_occupancy
  Ca  Ca0  1  0.99892343  0.00086156  0.36501889  1
  Ca  Ca1  1  0.00123939  0.00351544  0.85674693  1
  Ca  Ca2  1  0.99595093  0.00556010  0.64171893  1
  Ca  Ca3  1  0.67740015  0.33548782  0.68692683  1
  Ca  Ca4  1  0.66526205  0.33372093  0.19473816  1
  Ca  Ca5  1  0.33134104  0.66507966  0.02709540  1
  Nb  Nb6  1  0.00356274  0.00592872  0.14270179  1
  Nb  Nb7  1  0.65550647  0.33198744  0.97958458  1
  Nb  Nb8  1  0.67369348  0.32452572  0.47720257  1
  Nb  Nb9  1  0.34046728  0.67066003  0.52360345  1
  Nb  Nb10  1  0.34199701  0.67681312  0.31084552  1
  Nb  Nb11  1  0.32759654  0.66075838  0.81304564  1
  Si  Si12  1  0.96404883  0.33718121  0.58301892  1
  Si  Si13  1  0.37653413  0.32595307  0.08606146  1
  Si  Si14  1  0.60917830  0.95641386  0.41730334  1
  S  S15  1  0.27100348  0.97767395  0.25079003  1
  S  S16  1  0.70751117  0.72364499  0.25164636  1
  S  S17  1  0.02071152  0.29089147  0.25039190  1
  S  S18  1  0.29627118  0.30118259  0.75293106  1
  S  S19  1  0.00775289  0.70837542  0.75360366  1
  S  S20  1  0.69378353  0.98795264  0.75374783  1
  S  S21  1  0.38099065  0.04263579  0.57837173  1
  S  S22  1  0.66055304  0.61302751  0.57803554  1
  S  S23  1  0.94108094  0.62853013  0.08413698  1
  S  S24  1  0.68668384  0.06047085  0.08327537  1
  S  S25  1  0.61462319  0.65258251  0.91804753  1
  S  S26  1  0.03506073  0.38873757  0.91796795  1
  S  S27  1  0.35119888  0.96435650  0.91806181  1
  S  S28  1  0.35266083  0.40171828  0.41685205  1
  S  S29  1  0.04808152  0.64931288  0.41645905  1
  O  O30  1  0.19963172  0.00582088  0.30197206  1
  O  O31  1  0.80577798  0.80080217  0.30303989  1
  O  O32  1  0.99285582  0.18707855  0.30053132  1
  O  O33  1  0.21910494  0.20018784  0.80401685  1
  O  O34  1  0.99269153  0.79222563  0.80444235  1
  O  O35  1  0.79940598  0.01544826  0.80423337  1
  O  O36  1  0.75233341  0.94263868  0.70203966  1
  O  O37  1  0.19166990  0.24048963  0.70122339  1
  O  O38  1  0.04822433  0.80840549  0.70106260  1
  O  O39  1  0.78144937  0.83175487  0.19950866  1
  O  O40  1  0.04350438  0.19964170  0.19741599  1
  O  O41  1  0.15815808  0.94823289  0.19888258  1
  O  O42  1  0.89097318  0.39049697  0.63482185  1
  O  O43  1  0.48235860  0.10763413  0.62998441  1
  O  O44  1  0.61716025  0.51223169  0.63002721  1
  O  O45  1  0.87645198  0.52383754  0.13455160  1
  O  O46  1  0.66152112  0.13126528  0.13490788  1
  O  O47  1  0.48432393  0.33933171  0.13994715  1
  O  O48  1  0.47815143  0.29257226  0.02732377  1
  O  O49  1  0.82816432  0.54490103  0.03186521  1
  O  O50  1  0.72091204  0.17559607  0.03147080  1
  O  O51  1  0.47247218  0.15357599  0.52665824  1
  O  O52  1  0.66877705  0.51814507  0.52645883  1
  O  O53  1  0.83083293  0.32040569  0.52375043  1
  O  O54  1  0.54503831  0.68121313  0.96956442  1
  O  O55  1  0.13888840  0.46159090  0.96855669  1
  O  O56  1  0.32252147  0.86816504  0.97026572  1
  O  O57  1  0.49649874  0.83242497  0.46921201  1
  O  O58  1  0.32547410  0.48248958  0.46787424  1
  O  O59  1  0.15071540  0.66559832  0.46775682  1
  O  O60  1  0.12521127  0.61671021  0.36397504  1
  O  O61  1  0.47911596  0.85781620  0.35857823  1
  O  O62  1  0.37195384  0.51055345  0.36410259  1
  O  O63  1  0.12579808  0.50470969  0.86625283  1
  O  O64  1  0.37949279  0.87904905  0.86766540  1
  O  O65  1  0.49860637  0.61785692  0.86729266  1
  O  O66  1  0.03656382  0.80035968  0.40984778  1
  O  O67  1  0.78726402  0.97620277  0.41071650  1
  O  O68  1  0.20689143  0.23522810  0.40929545  1
  O  O69  1  0.00302009  0.21995494  0.90525745  1
  O  O70  1  0.22173196  0.00770146  0.90610976  1
  O  O71  1  0.78565549  0.78567021  0.90600785  1
  O  O72  1  0.97797883  0.17270037  0.58133294  1
  O  O73  1  0.21312737  0.02116395  0.58036826  1
  O  O74  1  0.81024501  0.77834975  0.58112957  1
  O  O75  1  0.93750135  0.79406489  0.09535170  1
  O  O76  1  0.84990038  0.04986511  0.09227141  1
  O  O77  1  0.18541617  0.13662065  0.09765869  1
  O  O78  1  0.65065505  0.11934281  0.74587705  1
  O  O79  1  0.47101739  0.34501829  0.74543914  1
  O  O80  1  0.87128038  0.53500195  0.74901550  1
  O  O81  1  0.67212654  0.55252194  0.24358070  1
  O  O82  1  0.88302689  0.32165923  0.23813559  1
  O  O83  1  0.44462087  0.10648997  0.24060868  1
  O  O84  1  0.62499069  0.48853049  0.92692933  1
  O  O85  1  0.86824172  0.38410200  0.92558640  1
  O  O86  1  0.52139708  0.13608087  0.92675274  1
  O  O87  1  0.61675546  0.14155215  0.42669259  1
  O  O88  1  0.51051071  0.39582007  0.42306472  1
  O  O89  1  0.87360882  0.49815631  0.42321049  1
  O  O90  1  0.32290793  0.45802782  0.07028371  1
  O  O91  1  0.11456053  0.67758290  0.07100283  1
  O  O92  1  0.55177535  0.89105189  0.07082957  1
  O  O93  1  0.36158287  0.86853596  0.56738175  1
  O  O94  1  0.50812895  0.63974587  0.56653149  1
  O  O95  1  0.14924039  0.50534359  0.56216498  1
  O  O96  1  0.27188999  0.80801993  0.25899538  1
  O  O97  1  0.52922240  0.70967908  0.26032916  1
  O  O98  1  0.18269459  0.45808817  0.25735906  1
  O  O99  1  0.30563252  0.47778002  0.76734310  1
  O  O100  1  0.17314575  0.69396314  0.76700139  1
  O  O101  1  0.51880084  0.82358602  0.76937326  1
