# generated using pymatgen
data_MgNi2(PO4)2
_symmetry_space_group_name_H-M   'P 1'
_cell_length_a   4.90639192
_cell_length_b   4.90639367
_cell_length_c   6.30402500
_cell_angle_alpha   90.00000000
_cell_angle_beta   90.00000000
_cell_angle_gamma   66.82734735
_symmetry_Int_Tables_number   1
_chemical_formula_structural   MgNi2(PO4)2
_chemical_formula_sum   'Mg1 Ni2 P2 O8'
_cell_volume   139.51175585
_cell_formula_units_Z   1
loop_
 _symmetry_equiv_pos_site_id
 _symmetry_equiv_pos_as_xyz
  1  'x, y, z'
loop_
 _atom_site_type_symbol
 _atom_site_label
 _atom_site_symmetry_multiplicity
 _atom_site_fract_x
 _atom_site_fract_y
 _atom_site_fract_z
 _atom_site_occupancy
  Mg  Mg0  1  0.32215500  0.32215500  0.75000000  1
  Ni  Ni1  1  0.99353100  0.99353100  0.48414500  1
  Ni  Ni2  1  0.99353100  0.99353100  0.01585600  1
  P  P3  1  0.35403200  0.35403000  0.25000000  1
  P  P4  1  0.65474800  0.65474800  0.75000000  1
  O  O5  1  0.75560400  0.75560500  0.54975200  1
  O  O6  1  0.69854000  0.22636000  0.25000000  1
  O  O7  1  0.22635900  0.69854100  0.25000000  1
  O  O8  1  0.30042400  0.76050500  0.75000000  1
  O  O9  1  0.75560400  0.75560500  0.95024800  1
  O  O10  1  0.24526300  0.24526400  0.45280300  1
  O  O11  1  0.76050500  0.30042400  0.75000000  1
  O  O12  1  0.24526300  0.24526400  0.04719600  1
