# generated using pymatgen
data_Ta3I7
_symmetry_space_group_name_H-M   'P 1'
_cell_length_a   10.75971396
_cell_length_b   10.75971389
_cell_length_c   12.85870987
_cell_angle_alpha   90.00000000
_cell_angle_beta   90.00000000
_cell_angle_gamma   90.27175665
_symmetry_Int_Tables_number   1
_chemical_formula_structural   Ta3I7
_chemical_formula_sum   'Ta12 I28'
_cell_volume   1488.65466119
_cell_formula_units_Z   4
loop_
 _symmetry_equiv_pos_site_id
 _symmetry_equiv_pos_as_xyz
  1  'x, y, z'
loop_
 _atom_site_type_symbol
 _atom_site_label
 _atom_site_symmetry_multiplicity
 _atom_site_fract_x
 _atom_site_fract_y
 _atom_site_fract_z
 _atom_site_occupancy
  Ta  Ta0  1  0.10223102  0.10223102  0.93036919  1
  Ta  Ta1  1  0.39776898  0.39776898  0.43036919  1
  Ta  Ta2  1  0.60223102  0.60223102  0.56963081  1
  Ta  Ta3  1  0.89776898  0.89776898  0.06963081  1
  Ta  Ta4  1  0.94898747  0.15228627  0.10417176  1
  Ta  Ta5  1  0.55101253  0.34771373  0.60417176  1
  Ta  Ta6  1  0.65228627  0.44898747  0.39582824  1
  Ta  Ta7  1  0.84771373  0.05101253  0.89582824  1
  Ta  Ta8  1  0.05101253  0.84771373  0.89582824  1
  Ta  Ta9  1  0.44898747  0.65228627  0.39582824  1
  Ta  Ta10  1  0.34771373  0.55101253  0.60417176  1
  Ta  Ta11  1  0.15228627  0.94898747  0.10417176  1
  I  I12  1  0.88375013  0.38375013  0.25000000  1
  I  I13  1  0.61624987  0.11624987  0.75000000  1
  I  I14  1  0.11624987  0.61624987  0.75000000  1
  I  I15  1  0.38375013  0.88375013  0.25000000  1
  I  I16  1  0.09758396  0.34308601  0.01811399  1
  I  I17  1  0.40241604  0.15691399  0.51811399  1
  I  I18  1  0.84308601  0.59758396  0.48188601  1
  I  I19  1  0.65691399  0.90241604  0.98188601  1
  I  I20  1  0.90241604  0.65691399  0.98188601  1
  I  I21  1  0.59758396  0.84308601  0.48188601  1
  I  I22  1  0.15691399  0.40241604  0.51811399  1
  I  I23  1  0.34308601  0.09758396  0.01811399  1
  I  I24  1  0.25547142  0.74452858  -0.00000000  1
  I  I25  1  0.24452858  0.75547142  0.50000000  1
  I  I26  1  0.74452858  0.25547142  -0.00000000  1
  I  I27  1  0.75547142  0.24452858  0.50000000  1
  I  I28  1  0.12776255  0.12776255  0.26281152  1
  I  I29  1  0.37223745  0.37223745  0.76281152  1
  I  I30  1  0.62776355  0.62776355  0.23718848  1
  I  I31  1  0.87223645  0.87223645  0.73718848  1
  I  I32  1  0.52572683  0.28129833  0.26554179  1
  I  I33  1  0.97427317  0.21870167  0.76554179  1
  I  I34  1  0.78129833  0.02572683  0.23445821  1
  I  I35  1  0.71870167  0.47427317  0.73445821  1
  I  I36  1  0.47427317  0.71870167  0.73445821  1
  I  I37  1  0.02572683  0.78129833  0.23445821  1
  I  I38  1  0.21870167  0.97427317  0.76554179  1
  I  I39  1  0.28129833  0.52572683  0.26554179  1
