# generated using pymatgen
data_NaHfScP2SO12
_symmetry_space_group_name_H-M   'P 1'
_cell_length_a   8.85899357
_cell_length_b   8.85337248
_cell_length_c   23.18454947
_cell_angle_alpha   90.11164865
_cell_angle_beta   90.00000000
_cell_angle_gamma   120.02100481
_symmetry_Int_Tables_number   1
_chemical_formula_structural   NaHfScP2SO12
_chemical_formula_sum   'Na6 Hf6 Sc6 P12 S6 O72'
_cell_volume   1574.45174580
_cell_formula_units_Z   6
loop_
 _symmetry_equiv_pos_site_id
 _symmetry_equiv_pos_as_xyz
  1  'x, y, z'
loop_
 _atom_site_type_symbol
 _atom_site_label
 _atom_site_symmetry_multiplicity
 _atom_site_fract_x
 _atom_site_fract_y
 _atom_site_fract_z
 _atom_site_occupancy
  Na  Na0  1  0.99136208  0.99463546  0.50204718  1
  Na  Na1  1  0.00327338  0.99463546  0.00204718  1
  Na  Na2  1  0.65802908  0.32796846  0.83538018  1
  Na  Na3  1  0.66994038  0.32796846  0.33538018  1
  Na  Na4  1  0.32469508  0.66130246  0.16871418  1
  Na  Na5  1  0.33660638  0.66130246  0.66871418  1
  Hf  Hf6  1  0.99986998  0.00263485  0.35281347  1
  Hf  Hf7  1  0.00276487  0.00263485  0.85281347  1
  Hf  Hf8  1  0.66653698  0.33596785  0.68614647  1
  Hf  Hf9  1  0.66943187  0.33596785  0.18614647  1
  Hf  Hf10  1  0.33320298  0.66930185  0.01948047  1
  Hf  Hf11  1  0.33609787  0.66930185  0.51948047  1
  Sc  Sc12  1  0.99194314  0.00621384  0.64750951  1
  Sc  Sc13  1  0.01427071  0.00621384  0.14750951  1
  Sc  Sc14  1  0.65861014  0.33954684  0.98084251  1
  Sc  Sc15  1  0.68093771  0.33954684  0.48084251  1
  Sc  Sc16  1  0.32527614  0.67288084  0.31417651  1
  Sc  Sc17  1  0.34760371  0.67288084  0.81417651  1
  P  P18  1  0.29160849  0.00088559  0.24982151  1
  P  P19  1  0.00210963  0.29119349  0.24930082  1
  P  P20  1  0.28908387  0.29119349  0.74930082  1
  P  P21  1  0.70927710  0.00088559  0.74982151  1
  P  P22  1  0.95827549  0.33421859  0.58315451  1
  P  P23  1  0.66877663  0.62452649  0.58263382  1
  P  P24  1  0.95575087  0.62452649  0.08263382  1
  P  P25  1  0.37594410  0.33421859  0.08315451  1
  P  P26  1  0.62494149  0.66755259  0.91648851  1
  P  P27  1  0.33544263  0.95786049  0.91596782  1
  P  P28  1  0.62241687  0.95786049  0.41596782  1
  P  P29  1  0.04261010  0.66755259  0.41648851  1
  S  S30  1  0.70890902  0.71068913  0.24935686  1
  S  S31  1  0.00178011  0.71068913  0.74935686  1
  S  S32  1  0.37557602  0.04402213  0.58268986  1
  S  S33  1  0.66844711  0.04402213  0.08268986  1
  S  S34  1  0.04224202  0.37735613  0.91602386  1
  S  S35  1  0.33511311  0.37735613  0.41602386  1
  O  O36  1  0.20408827  0.02839093  0.30416356  1
  O  O37  1  0.81863530  0.79013118  0.30186841  1
  O  O38  1  0.97108291  0.17520835  0.30385412  1
  O  O39  1  0.20412544  0.17520835  0.80385412  1
  O  O40  1  0.97149588  0.79013118  0.80186841  1
  O  O41  1  0.82430266  0.02839093  0.80416356  1
  O  O42  1  0.79203327  0.97061103  0.69628594  1
  O  O43  1  0.17892863  0.20314393  0.69577888  1
  O  O44  1  0.02719774  0.81558985  0.69805134  1
  O  O45  1  0.78839211  0.81558985  0.19805134  1
  O  O46  1  0.02421530  0.20314393  0.19577888  1
  O  O47  1  0.17857776  0.97061103  0.19628594  1
  O  O48  1  0.87075527  0.36172393  0.63749656  1
  O  O49  1  0.48530230  0.12346418  0.63520141  1
  O  O50  1  0.63774991  0.50854135  0.63718712  1
  O  O51  1  0.87079244  0.50854135  0.13718712  1
  O  O52  1  0.63816288  0.12346418  0.13520141  1
  O  O53  1  0.49096966  0.36172393  0.13749656  1
  O  O54  1  0.45870027  0.30394403  0.02961894  1
  O  O55  1  0.84559563  0.53647693  0.02911188  1
  O  O56  1  0.69386474  0.14892285  0.03138434  1
  O  O57  1  0.45505911  0.14892285  0.53138434  1
  O  O58  1  0.69088230  0.53647693  0.52911188  1
  O  O59  1  0.84524476  0.30394403  0.52961894  1
  O  O60  1  0.53742127  0.69505793  0.97083056  1
  O  O61  1  0.15196830  0.45679818  0.96853541  1
  O  O62  1  0.30441591  0.84187535  0.97052112  1
  O  O63  1  0.53745844  0.84187535  0.47052112  1
  O  O64  1  0.30482888  0.45679818  0.46853541  1
  O  O65  1  0.15763566  0.69505793  0.47083056  1
  O  O66  1  0.12536627  0.63727803  0.36295294  1
  O  O67  1  0.51226163  0.86981093  0.36244588  1
  O  O68  1  0.36053074  0.48225685  0.36471834  1
  O  O69  1  0.12172511  0.48225685  0.86471834  1
  O  O70  1  0.35754830  0.86981093  0.86244588  1
  O  O71  1  0.51191076  0.63727803  0.86295294  1
  O  O72  1  0.02592366  0.83387570  0.40923749  1
  O  O73  1  0.80683913  0.97586574  0.40937067  1
  O  O74  1  0.17423901  0.20091164  0.41046514  1
  O  O75  1  0.02667263  0.20091164  0.91046514  1
  O  O76  1  0.16902661  0.97586574  0.90937067  1
  O  O77  1  0.80795204  0.83387570  0.90923749  1
  O  O78  1  0.98069388  0.17352642  0.58937849  1
  O  O79  1  0.20026594  0.02125892  0.59037596  1
  O  O80  1  0.83068462  0.80523394  0.59032067  1
  O  O81  1  0.97454932  0.80523394  0.09032067  1
  O  O82  1  0.82099298  0.02125892  0.09037596  1
  O  O83  1  0.19283255  0.17352642  0.08937849  1
  O  O84  1  0.69259066  0.16720870  0.74257049  1
  O  O85  1  0.47350613  0.30919874  0.74270367  1
  O  O86  1  0.84090601  0.53424464  0.74379814  1
  O  O87  1  0.69333963  0.53424464  0.24379814  1
  O  O88  1  0.83569361  0.30919874  0.24270367  1
  O  O89  1  0.47461904  0.16720870  0.24257049  1
  O  O90  1  0.64736088  0.50685942  0.92271149  1
  O  O91  1  0.86693294  0.35459192  0.92370896  1
  O  O92  1  0.49735162  0.13856694  0.92365367  1
  O  O93  1  0.64121632  0.13856694  0.42365367  1
  O  O94  1  0.48765998  0.35459192  0.42370896  1
  O  O95  1  0.85949955  0.50685942  0.42271149  1
  O  O96  1  0.35925666  0.50054270  0.07590449  1
  O  O97  1  0.14017213  0.64253274  0.07603767  1
  O  O98  1  0.50757201  0.86757864  0.07713214  1
  O  O99  1  0.36000563  0.86757864  0.57713214  1
  O  O100  1  0.50235961  0.64253274  0.57603767  1
  O  O101  1  0.14128504  0.50054270  0.57590449  1
  O  O102  1  0.31402688  0.84019342  0.25604549  1
  O  O103  1  0.53359894  0.68792592  0.25704296  1
  O  O104  1  0.16401762  0.47190094  0.25698767  1
  O  O105  1  0.30788232  0.47190094  0.75698767  1
  O  O106  1  0.15432598  0.68792592  0.75704296  1
  O  O107  1  0.52616555  0.84019342  0.75604549  1
