# generated using pymatgen
data_RbGeCl3
_symmetry_space_group_name_H-M   'P 1'
_cell_length_a   5.83440479
_cell_length_b   6.98791184
_cell_length_c   7.95285224
_cell_angle_alpha   90.00000000
_cell_angle_beta   105.87713937
_cell_angle_gamma   90.00000000
_symmetry_Int_Tables_number   1
_chemical_formula_structural   RbGeCl3
_chemical_formula_sum   'Rb2 Ge2 Cl6'
_cell_volume   311.87063308
_cell_formula_units_Z   2
loop_
 _symmetry_equiv_pos_site_id
 _symmetry_equiv_pos_as_xyz
  1  'x, y, z'
loop_
 _atom_site_type_symbol
 _atom_site_label
 _atom_site_symmetry_multiplicity
 _atom_site_fract_x
 _atom_site_fract_y
 _atom_site_fract_z
 _atom_site_occupancy
  Rb  Rb0  1  0.32577898  0.25000000  0.70653987  1
  Rb  Rb1  1  0.67422102  0.75000000  0.29346013  1
  Ge  Ge2  1  0.06897391  0.25000000  0.11999824  1
  Ge  Ge3  1  0.93102609  0.75000000  0.88000176  1
  Cl  Cl4  1  0.67295693  0.25000000  0.12940101  1
  Cl  Cl5  1  0.32704307  0.75000000  0.87059899  1
  Cl  Cl6  1  0.81374676  0.50504600  0.67780041  1
  Cl  Cl7  1  0.18625424  0.00504600  0.32219959  1
  Cl  Cl8  1  0.81374676  0.99495400  0.67780041  1
  Cl  Cl9  1  0.18625424  0.49495400  0.32219959  1
