# generated using pymatgen
data_Na8Sc3TaSi4(PO12)2
_symmetry_space_group_name_H-M   'P 1'
_cell_length_a   9.17202523
_cell_length_b   9.18654088
_cell_length_c   22.50667926
_cell_angle_alpha   90.01452141
_cell_angle_beta   90.03130962
_cell_angle_gamma   119.98853852
_symmetry_Int_Tables_number   1
_chemical_formula_structural   Na8Sc3TaSi4(PO12)2
_chemical_formula_sum   'Na24 Sc9 Ta3 Si12 P6 O72'
_cell_volume   1642.51486211
_cell_formula_units_Z   3
loop_
 _symmetry_equiv_pos_site_id
 _symmetry_equiv_pos_as_xyz
  1  'x, y, z'
loop_
 _atom_site_type_symbol
 _atom_site_label
 _atom_site_symmetry_multiplicity
 _atom_site_fract_x
 _atom_site_fract_y
 _atom_site_fract_z
 _atom_site_occupancy
  Na  Na0  1  0.63170655  0.99812805  0.25458027  1
  Na  Na1  1  0.36753112  0.36850580  0.25216605  1
  Na  Na2  1  0.00178081  0.63155482  0.25223930  1
  Na  Na3  1  0.64117962  0.63549844  0.74084574  1
  Na  Na4  1  0.99083186  0.35199737  0.74287469  1
  Na  Na5  1  0.36760023  0.01261478  0.74746211  1
  Na  Na6  1  0.29568721  0.33938040  0.58412978  1
  Na  Na7  1  0.03870010  0.70220885  0.58123029  1
  Na  Na8  1  0.66623964  0.95712336  0.58062167  1
  Na  Na9  1  0.29222347  0.95730926  0.08036876  1
  Na  Na10  1  0.66119374  0.70090855  0.08282087  1
  Na  Na11  1  0.04504075  0.34213116  0.08358168  1
  Na  Na12  1  0.97673481  0.68100129  0.91429566  1
  Na  Na13  1  0.70676934  0.02682097  0.91184560  1
  Na  Na14  1  0.31844846  0.29106330  0.91211463  1
  Na  Na15  1  0.98040356  0.30199894  0.41611134  1
  Na  Na16  1  0.32409863  0.02128697  0.41606519  1
  Na  Na17  1  0.69580887  0.67745900  0.41616522  1
  Na  Na18  1  0.99684275  0.99897585  0.49940626  1
  Na  Na19  1  0.00324373  0.99948425  0.99763788  1
  Na  Na20  1  0.66233575  0.32722267  0.82747612  1
  Na  Na21  1  0.66517964  0.33139126  0.33309278  1
  Na  Na22  1  0.32828329  0.66131413  0.16575036  1
  Na  Na23  1  0.33483171  0.66160541  0.65998728  1
  Sc  Sc24  1  0.99996942  -0.00028188  0.35386082  1
  Sc  Sc25  1  0.00117078  0.00465801  0.85069492  1
  Sc  Sc26  1  0.99395428  0.00379678  0.64753942  1
  Sc  Sc27  1  0.00316058  0.99952158  0.14518042  1
  Sc  Sc28  1  0.66769112  0.33541273  0.68467185  1
  Sc  Sc29  1  0.66819199  0.33849313  0.18444696  1
  Sc  Sc30  1  0.33098630  0.66385304  0.01873696  1
  Sc  Sc31  1  0.33340490  0.66314853  0.51590979  1
  Sc  Sc32  1  0.33355432  0.66557635  0.31944387  1
  Ta  Ta33  1  0.66460609  0.33654112  0.97892240  1
  Ta  Ta34  1  0.67148664  0.33730610  0.48051276  1
  Ta  Ta35  1  0.33513925  0.66530310  0.81535448  1
  Si  Si36  1  0.29371757  0.29630934  0.75066635  1
  Si  Si37  1  0.70168726  0.99677763  0.75081989  1
  Si  Si38  1  0.96212732  0.33426519  0.58565118  1
  Si  Si39  1  0.66747700  0.62927581  0.58557849  1
  Si  Si40  1  0.96012124  0.62683884  0.08477327  1
  Si  Si41  1  0.37305515  0.33367458  0.08491075  1
  Si  Si42  1  0.62664683  0.66614698  0.91940884  1
  Si  Si43  1  0.03836385  0.37352674  0.91891417  1
  Si  Si44  1  0.33454867  0.95998550  0.91915013  1
  Si  Si45  1  0.62693752  0.96289969  0.41655987  1
  Si  Si46  1  0.33537446  0.37142051  0.41648939  1
  Si  Si47  1  0.03842353  0.66547357  0.41673812  1
  P  P48  1  0.29511510  0.99764609  0.24895422  1
  P  P49  1  0.70395406  0.70594770  0.24883148  1
  P  P50  1  0.00080280  0.29487385  0.24882895  1
  P  P51  1  0.00563255  0.70811651  0.75126207  1
  P  P52  1  0.37578897  0.04278824  0.58388927  1
  P  P53  1  0.66762650  0.04583519  0.08346054  1
  O  O54  1  0.20951718  0.01928263  0.30504276  1
  O  O55  1  0.81008724  0.79242825  0.30494252  1
  O  O56  1  0.98211032  0.18897113  0.30494296  1
  O  O57  1  0.20971401  0.18278323  0.80967035  1
  O  O58  1  0.98121360  0.78960737  0.80699284  1
  O  O59  1  0.81455812  0.02270053  0.80965403  1
  O  O60  1  0.78299362  0.95864597  0.69232617  1
  O  O61  1  0.17574776  0.21259030  0.69219453  1
  O  O62  1  0.03593905  0.81760733  0.69523067  1
  O  O63  1  0.79121011  0.81117877  0.19255313  1
  O  O64  1  0.01858396  0.20754238  0.19246183  1
  O  O65  1  0.18884708  0.97977586  0.19264096  1
  O  O66  1  0.87330815  0.35534371  0.64470492  1
  O  O67  1  0.47890705  0.12449212  0.64065976  1
  O  O68  1  0.64144802  0.51772901  0.64468693  1
  O  O69  1  0.87450997  0.51267623  0.14344432  1
  O  O70  1  0.64433824  0.12686978  0.13974812  1
  O  O71  1  0.48562232  0.35638399  0.14350536  1
  O  O72  1  0.47380268  0.31005805  0.02521311  1
  O  O73  1  0.83672589  0.52218637  0.02516775  1
  O  O74  1  0.68639029  0.15686661  0.02733802  1
  O  O75  1  0.47017388  0.15349337  0.52818576  1
  O  O76  1  0.68086750  0.52074221  0.52665846  1
  O  O77  1  0.83863049  0.31475058  0.52657022  1
  O  O78  1  0.54673647  0.69854030  0.97821231  1
  O  O79  1  0.15206025  0.45614403  0.97767185  1
  O  O80  1  0.30495754  0.84826599  0.97812586  1
  O  O81  1  0.54450171  0.84538558  0.47458348  1
  O  O82  1  0.30007440  0.45414664  0.47450756  1
  O  O83  1  0.15480177  0.69977783  0.47491795  1
  O  O84  1  0.11780196  0.62551802  0.35840065  1
  O  O85  1  0.50786994  0.88143578  0.35795806  1
  O  O86  1  0.37533706  0.49101129  0.35798641  1
  O  O87  1  0.13384697  0.49925408  0.86058025  1
  O  O88  1  0.36203220  0.86246221  0.86076456  1
  O  O89  1  0.49861179  0.63587501  0.86140288  1
  O  O90  1  0.00650026  0.82422354  0.40990160  1
  O  O91  1  0.81773558  0.99304672  0.40982842  1
  O  O92  1  0.17404408  0.18160703  0.40986055  1
  O  O93  1  0.01164831  0.18581981  0.91245385  1
  O  O94  1  0.17389096  0.98689940  0.91232373  1
  O  O95  1  0.81525125  0.82139566  0.91108637  1
  O  O96  1  0.97445222  0.16257930  0.58540704  1
  O  O97  1  0.20180546  0.02994714  0.58556675  1
  O  O98  1  0.84347625  0.80920980  0.58537594  1
  O  O99  1  0.96673781  0.80860987  0.08458259  1
  O  O100  1  0.82960245  0.03339037  0.08509281  1
  O  O101  1  0.18742124  0.16330717  0.08485024  1
  O  O102  1  0.67512684  0.15929591  0.74625925  1
  O  O103  1  0.48467546  0.32691586  0.74684518  1
  O  O104  1  0.85163995  0.52988509  0.74695221  1
  O  O105  1  0.68604260  0.52755101  0.24705303  1
  O  O106  1  0.83990343  0.31174203  0.24699574  1
  O  O107  1  0.47458052  0.15548277  0.24643576  1
  O  O108  1  0.63412852  0.48769119  0.92238387  1
  O  O109  1  0.85048134  0.36015242  0.92259037  1
  O  O110  1  0.51167025  0.14630101  0.92251612  1
  O  O111  1  0.64491178  0.15206894  0.42451260  1
  O  O112  1  0.50405387  0.34940822  0.42465272  1
  O  O113  1  0.84695781  0.49401095  0.42449938  1
  O  O114  1  0.35650787  0.50195829  0.08086092  1
  O  O115  1  0.14845683  0.65207802  0.08025812  1
  O  O116  1  0.51123103  0.86877355  0.07915891  1
  O  O117  1  0.35750216  0.86690556  0.57903939  1
  O  O118  1  0.50331748  0.65260184  0.57971940  1
  O  O119  1  0.14654682  0.50265582  0.58015772  1
  O  O120  1  0.31032524  0.83745654  0.25205250  1
  O  O121  1  0.52729625  0.68840534  0.25192420  1
  O  O122  1  0.16014338  0.47156092  0.25181046  1
  O  O123  1  0.30860187  0.48683980  0.75818870  1
  O  O124  1  0.16709037  0.69071037  0.75778473  1
  O  O125  1  0.50895221  0.82487478  0.75834036  1
