# generated using pymatgen
data_Na3TiInSi(PO6)2
_symmetry_space_group_name_H-M   'P 1'
_cell_length_a   15.63704884
_cell_length_b   9.06369340
_cell_length_c   8.99998758
_cell_angle_alpha   90.00003791
_cell_angle_beta   125.35870805
_cell_angle_gamma   90.00000221
_symmetry_Int_Tables_number   1
_chemical_formula_structural   Na3TiInSi(PO6)2
_chemical_formula_sum   'Na12 Ti4 In4 Si4 P8 O48'
_cell_volume   1040.27909346
_cell_formula_units_Z   4
loop_
 _symmetry_equiv_pos_site_id
 _symmetry_equiv_pos_as_xyz
  1  'x, y, z'
loop_
 _atom_site_type_symbol
 _atom_site_label
 _atom_site_symmetry_multiplicity
 _atom_site_fract_x
 _atom_site_fract_y
 _atom_site_fract_z
 _atom_site_occupancy
  Na  Na0  1  0.25367700  0.72580676  0.99858274  1
  Na  Na1  1  0.75367701  0.77419328  0.49858259  1
  Na  Na2  1  0.75367696  0.22580682  0.99858281  1
  Na  Na3  1  0.25367705  0.27419323  0.49858275  1
  Na  Na4  1  0.50408895  0.10105208  0.75314686  1
  Na  Na5  1  0.50408910  0.89894791  0.25314690  1
  Na  Na6  1  0.00408895  0.60105194  0.75314688  1
  Na  Na7  1  0.00408891  0.39894801  0.25314688  1
  Na  Na8  1  0.19009722  0.93156117  0.29611041  1
  Na  Na9  1  0.19009725  0.06843902  0.79611032  1
  Na  Na10  1  0.69009719  0.43156099  0.29611036  1
  Na  Na11  1  0.69009726  0.56843885  0.79611046  1
  Ti  Ti12  1  0.89702350  0.75841989  0.93662546  1
  Ti  Ti13  1  0.89702338  0.24158028  0.43662509  1
  Ti  Ti14  1  0.39702305  0.25842001  0.93662478  1
  Ti  Ti15  1  0.39702305  0.74157973  0.43662495  1
  In  In16  1  0.10155992  0.74660453  0.55784663  1
  In  In17  1  0.10156009  0.25339585  0.05784698  1
  In  In18  1  0.60155964  0.24660428  0.55784637  1
  In  In19  1  0.60155992  0.75339577  0.05784677  1
  Si  Si20  1  0.64855379  0.89209953  0.74419889  1
  Si  Si21  1  0.64855406  0.10790096  0.24419899  1
  Si  Si22  1  0.14855383  0.39209936  0.74419892  1
  Si  Si23  1  0.14855416  0.60790032  0.24419928  1
  P  P24  1  0.99471992  0.95800173  0.75148545  1
  P  P25  1  0.99472006  0.04199884  0.25148639  1
  P  P26  1  0.49471975  0.45800120  0.75148538  1
  P  P27  1  0.49471982  0.54199859  0.25148562  1
  P  P28  1  0.35195239  0.90547410  0.75318898  1
  P  P29  1  0.35195250  0.09452617  0.25318937  1
  P  P30  1  0.85195259  0.40547398  0.75318934  1
  P  P31  1  0.85195255  0.59452566  0.25318925  1
  O  O32  1  0.15440486  0.57080211  0.74659893  1
  O  O33  1  0.85114321  0.57930554  0.75191862  1
  O  O34  1  0.85114325  0.42069459  0.25191843  1
  O  O35  1  0.15440481  0.42919722  0.24659887  1
  O  O36  1  0.65440480  0.07080244  0.74659863  1
  O  O37  1  0.35114324  0.07930552  0.75191850  1
  O  O38  1  0.35114331  0.92069411  0.25191882  1
  O  O39  1  0.65440471  0.92919711  0.24659856  1
  O  O40  1  0.43476288  0.56845110  0.58745333  1
  O  O41  1  0.56467802  0.54086387  0.93197173  1
  O  O42  1  0.56467777  0.45913596  0.43197144  1
  O  O43  1  0.43476300  0.43154940  0.08745338  1
  O  O44  1  0.93476323  0.06845010  0.58745416  1
  O  O45  1  0.06467811  0.04086367  0.93197178  1
  O  O46  1  0.06467850  0.95913551  0.43197260  1
  O  O47  1  0.93476272  0.93154884  0.08745266  1
  O  O48  1  0.25496373  0.85715228  0.74540802  1
  O  O49  1  0.74745317  0.80722699  0.75925377  1
  O  O50  1  0.74745237  0.19277270  0.25925308  1
  O  O51  1  0.25496356  0.14284779  0.24540832  1
  O  O52  1  0.75496422  0.35715247  0.74540831  1
  O  O53  1  0.24745307  0.30722739  0.75925386  1
  O  O54  1  0.24745292  0.69277263  0.25925338  1
  O  O55  1  0.75496364  0.64284766  0.24540818  1
  O  O56  1  0.35354838  0.85853969  0.58682481  1
  O  O57  1  0.65045099  0.84581804  0.91692306  1
  O  O58  1  0.65045072  0.15418244  0.41692344  1
  O  O59  1  0.35354834  0.14146038  0.08682432  1
  O  O60  1  0.85354823  0.35853994  0.58682496  1
  O  O61  1  0.15045085  0.34581767  0.91692316  1
  O  O62  1  0.15045076  0.65418238  0.41692338  1
  O  O63  1  0.85354836  0.64146045  0.08682440  1
  O  O64  1  0.44880949  0.84924774  0.93392552  1
  O  O65  1  0.53508350  0.82339775  0.55910361  1
  O  O66  1  0.53508317  0.17660253  0.05910303  1
  O  O67  1  0.44880938  0.15075262  0.43392574  1
  O  O68  1  0.94880916  0.34924786  0.93392552  1
  O  O69  1  0.03508337  0.32339762  0.55910342  1
  O  O70  1  0.03508272  0.67660266  0.05910252  1
  O  O71  1  0.94880965  0.65075245  0.43392596  1
  O  O72  1  0.06940990  0.85697703  0.73760107  1
  O  O73  1  0.91361967  0.85891855  0.75183178  1
  O  O74  1  0.91361975  0.14108136  0.25183179  1
  O  O75  1  0.06941025  0.14302304  0.23760137  1
  O  O76  1  0.56941011  0.35697721  0.73760179  1
  O  O77  1  0.41361956  0.35891856  0.75183174  1
  O  O78  1  0.41361963  0.64108152  0.25183191  1
  O  O79  1  0.56941011  0.64302267  0.23760150  1
