# generated using pymatgen
data_Na8Zn3Si3Sn(SO8)3
_symmetry_space_group_name_H-M   'P 1'
_cell_length_a   9.14675929
_cell_length_b   9.16013623
_cell_length_c   22.24342470
_cell_angle_alpha   89.53427853
_cell_angle_beta   89.66759900
_cell_angle_gamma   119.55773661
_symmetry_Int_Tables_number   1
_chemical_formula_structural   Na8Zn3Si3Sn(SO8)3
_chemical_formula_sum   'Na24 Zn9 Si9 Sn3 S9 O72'
_cell_volume   1620.98032390
_cell_formula_units_Z   3
loop_
 _symmetry_equiv_pos_site_id
 _symmetry_equiv_pos_as_xyz
  1  'x, y, z'
loop_
 _atom_site_type_symbol
 _atom_site_label
 _atom_site_symmetry_multiplicity
 _atom_site_fract_x
 _atom_site_fract_y
 _atom_site_fract_z
 _atom_site_occupancy
  Na  Na0  1  0.62980614  0.99669230  0.25671528  1
  Na  Na1  1  0.36953162  0.36939230  0.24539558  1
  Na  Na2  1  0.00162605  0.62534515  0.25114249  1
  Na  Na3  1  0.64499301  0.64437949  0.73502972  1
  Na  Na4  1  0.98197650  0.34863853  0.74985666  1
  Na  Na5  1  0.38570057  0.01373287  0.74147265  1
  Na  Na6  1  0.30850794  0.33345618  0.58319509  1
  Na  Na7  1  0.04039735  0.71396117  0.57524917  1
  Na  Na8  1  0.65406979  0.94655319  0.58440595  1
  Na  Na9  1  0.28539680  0.95768489  0.07658224  1
  Na  Na10  1  0.66391796  0.69035098  0.08499215  1
  Na  Na11  1  0.05169989  0.34692707  0.08229648  1
  Na  Na12  1  0.98457932  0.67796371  0.92046427  1
  Na  Na13  1  0.70745727  0.03898736  0.90756304  1
  Na  Na14  1  0.31182374  0.28459366  0.92258432  1
  Na  Na15  1  0.96825923  0.30160209  0.41277130  1
  Na  Na16  1  0.32519270  0.01219015  0.42184022  1
  Na  Na17  1  0.70966964  0.68638534  0.42507055  1
  Na  Na18  1  0.99175915  0.98190336  0.50131970  1
  Na  Na19  1  0.01819860  0.00937611  0.00064640  1
  Na  Na20  1  0.66764916  0.31645042  0.82968168  1
  Na  Na21  1  0.67646740  0.33345984  0.33552788  1
  Na  Na22  1  0.32223785  0.65457302  0.16077445  1
  Na  Na23  1  0.35117145  0.68190555  0.65739953  1
  Zn  Zn24  1  0.98945546  0.98497295  0.35403147  1
  Zn  Zn25  1  0.00291503  0.01678928  0.85133929  1
  Zn  Zn26  1  0.97816563  0.97619873  0.64465912  1
  Zn  Zn27  1  0.01433182  0.99930492  0.14472349  1
  Zn  Zn28  1  0.65390390  0.31841205  0.67505380  1
  Zn  Zn29  1  0.66641472  0.34834429  0.17101926  1
  Zn  Zn30  1  0.30285301  0.65248856  0.01769975  1
  Zn  Zn31  1  0.34977105  0.69928581  0.51608870  1
  Zn  Zn32  1  0.33161028  0.68733251  0.33673615  1
  Si  Si33  1  0.70659536  0.00053973  0.75125540  1
  Si  Si34  1  0.36197327  0.03443131  0.58687049  1
  Si  Si35  1  0.66112789  0.62421214  0.58524205  1
  Si  Si36  1  0.96217655  0.63048386  0.08635161  1
  Si  Si37  1  0.36819370  0.33772313  0.08520943  1
  Si  Si38  1  0.03687311  0.36875395  0.91849158  1
  Si  Si39  1  0.33332504  0.96688485  0.91958330  1
  Si  Si40  1  0.63759652  0.96940825  0.41591853  1
  Si  Si41  1  0.03459640  0.66178547  0.41684362  1
  Sn  Sn42  1  0.66636128  0.33303460  0.98396294  1
  Sn  Sn43  1  0.66353207  0.33161003  0.48407950  1
  Sn  Sn44  1  0.33469487  0.67921312  0.81924546  1
  S  S45  1  0.29742660  0.00115856  0.24978723  1
  S  S46  1  0.70263800  0.70414514  0.24979813  1
  S  S47  1  -0.00032141  0.29057486  0.24911502  1
  S  S48  1  0.29802730  0.30179839  0.75229010  1
  S  S49  1  0.00250737  0.70473679  0.75233611  1
  S  S50  1  0.96450214  0.33393256  0.58471621  1
  S  S51  1  0.66851186  0.03813937  0.08602312  1
  S  S52  1  0.62646648  0.66412997  0.91778144  1
  S  S53  1  0.33369420  0.37248483  0.41479115  1
  O  O54  1  0.21625280  0.02532968  0.30403171  1
  O  O55  1  0.80478727  0.78562076  0.30379153  1
  O  O56  1  0.98438438  0.19044484  0.30423882  1
  O  O57  1  0.21944573  0.19896590  0.80712643  1
  O  O58  1  0.98479562  0.78372793  0.80737867  1
  O  O59  1  0.81231334  0.02193891  0.81239245  1
  O  O60  1  0.78661451  0.96130509  0.69199155  1
  O  O61  1  0.19724096  0.22783768  0.69798044  1
  O  O62  1  0.03232617  0.80920611  0.69774975  1
  O  O63  1  0.78338929  0.80783724  0.19469747  1
  O  O64  1  0.01572920  0.20646979  0.19418480  1
  O  O65  1  0.19616876  0.98158906  0.19506511  1
  O  O66  1  0.88575434  0.36110390  0.63870903  1
  O  O67  1  0.48201711  0.10998313  0.64494164  1
  O  O68  1  0.64273210  0.51456250  0.64613294  1
  O  O69  1  0.88493942  0.50814790  0.14532164  1
  O  O70  1  0.63949191  0.11756045  0.13902138  1
  O  O71  1  0.47510910  0.36129282  0.14636750  1
  O  O72  1  0.45471224  0.29470422  0.02540516  1
  O  O73  1  0.84109064  0.54275004  0.02509842  1
  O  O74  1  0.69952712  0.14540339  0.02947783  1
  O  O75  1  0.45027462  0.15571483  0.52510199  1
  O  O76  1  0.69904511  0.53909244  0.52467684  1
  O  O77  1  0.85627115  0.30449911  0.52954734  1
  O  O78  1  0.54666906  0.68879313  0.97111743  1
  O  O79  1  0.15624062  0.44840112  0.97527333  1
  O  O80  1  0.30928974  0.85187759  0.97791107  1
  O  O81  1  0.55893771  0.84560177  0.47347269  1
  O  O82  1  0.30843579  0.44800588  0.46929669  1
  O  O83  1  0.15054916  0.68738866  0.47488303  1
  O  O84  1  0.10097012  0.61343621  0.35468396  1
  O  O85  1  0.52493463  0.89852425  0.35441521  1
  O  O86  1  0.36101169  0.47706703  0.35949989  1
  O  O87  1  0.12028196  0.49153540  0.85635093  1
  O  O88  1  0.38065183  0.89329076  0.85787783  1
  O  O89  1  0.52055265  0.63469342  0.86204925  1
  O  O90  1  0.01940042  0.83370982  0.41178309  1
  O  O91  1  0.83180025  0.00621434  0.41035764  1
  O  O92  1  0.18743479  0.20110919  0.40899148  1
  O  O93  1  0.00675730  0.17883157  0.91383495  1
  O  O94  1  0.16344768  0.98203632  0.91083817  1
  O  O95  1  0.79675069  0.80846877  0.91033305  1
  O  O96  1  0.97936605  0.18039038  0.58837368  1
  O  O97  1  0.17990759  0.03071415  0.59014657  1
  O  O98  1  0.82989591  0.81140803  0.58254999  1
  O  O99  1  0.96579707  0.81236621  0.08689250  1
  O  O100  1  0.82313561  0.02501091  0.08975712  1
  O  O101  1  0.17947203  0.17035701  0.08571324  1
  O  O102  1  0.68298610  0.16851621  0.74731169  1
  O  O103  1  0.47114480  0.32745330  0.74940381  1
  O  O104  1  0.85468613  0.53434197  0.74830676  1
  O  O105  1  0.68895076  0.53378167  0.24776635  1
  O  O106  1  0.84332251  0.30594062  0.24799407  1
  O  O107  1  0.46994453  0.15219118  0.24556717  1
  O  O108  1  0.63798790  0.50533126  0.91937806  1
  O  O109  1  0.84891076  0.36178660  0.92074870  1
  O  O110  1  0.50769853  0.15826906  0.92092075  1
  O  O111  1  0.64413147  0.15631462  0.42217237  1
  O  O112  1  0.49182218  0.35723636  0.41764840  1
  O  O113  1  0.83984370  0.49241080  0.42120691  1
  O  O114  1  0.36532589  0.51450665  0.07848558  1
  O  O115  1  0.15230982  0.65812155  0.08296312  1
  O  O116  1  0.51950222  0.87102108  0.07919099  1
  O  O117  1  0.33812864  0.84619056  0.58156342  1
  O  O118  1  0.48562496  0.63084523  0.57969362  1
  O  O119  1  0.13156859  0.48352627  0.57705200  1
  O  O120  1  0.31225425  0.84542265  0.25291805  1
  O  O121  1  0.53025021  0.68383380  0.25406110  1
  O  O122  1  0.15316351  0.46052857  0.25023836  1
  O  O123  1  0.31000722  0.47473297  0.75716450  1
  O  O124  1  0.16138428  0.68584641  0.75397412  1
  O  O125  1  0.51093920  0.81871624  0.75441661  1
