# generated using pymatgen
data_Sr4MgNi2(ClO3)2
_symmetry_space_group_name_H-M   'P 1'
_cell_length_a   3.87187200
_cell_length_b   3.87787300
_cell_length_c   16.87287500
_cell_angle_alpha   90.00000000
_cell_angle_beta   90.00000000
_cell_angle_gamma   90.00000000
_symmetry_Int_Tables_number   1
_chemical_formula_structural   Sr4MgNi2(ClO3)2
_chemical_formula_sum   'Sr4 Mg1 Ni2 Cl2 O6'
_cell_volume   253.33993953
_cell_formula_units_Z   1
loop_
 _symmetry_equiv_pos_site_id
 _symmetry_equiv_pos_as_xyz
  1  'x, y, z'
loop_
 _atom_site_type_symbol
 _atom_site_label
 _atom_site_symmetry_multiplicity
 _atom_site_fract_x
 _atom_site_fract_y
 _atom_site_fract_z
 _atom_site_occupancy
  Sr  Sr0  1  0.25000000  0.25000000  0.95245500  1
  Sr  Sr1  1  0.75000000  0.75000000  0.13240000  1
  Sr  Sr2  1  0.25000000  0.25000000  0.61061400  1
  Sr  Sr3  1  0.75000000  0.75000000  0.33684600  1
  Mg  Mg4  1  0.25000000  0.25000000  0.77536200  1
  Ni  Ni5  1  0.75000000  0.75000000  0.78368300  1
  Ni  Ni6  1  0.25000000  0.25000000  0.23589500  1
  Cl  Cl7  1  0.75000000  0.75000000  0.55977500  1
  Cl  Cl8  1  0.25000000  0.25000000  0.43054400  1
  O  O9  1  0.25000000  0.75000000  0.74363300  1
  O  O10  1  0.75000000  0.25000000  0.74363500  1
  O  O11  1  0.75000000  0.25000000  0.24312600  1
  O  O12  1  0.25000000  0.75000000  0.24352800  1
  O  O13  1  0.75000000  0.75000000  0.90675100  1
  O  O14  1  0.25000000  0.25000000  0.08300100  1
