# generated using pymatgen
data_Na3Zn3Ga(SO4)6
_symmetry_space_group_name_H-M   'P 1'
_cell_length_a   8.69547051
_cell_length_b   8.68399461
_cell_length_c   22.41279409
_cell_angle_alpha   90.02385006
_cell_angle_beta   90.05593507
_cell_angle_gamma   120.01963794
_symmetry_Int_Tables_number   1
_chemical_formula_structural   Na3Zn3Ga(SO4)6
_chemical_formula_sum   'Na9 Zn9 Ga3 S18 O72'
_cell_volume   1465.38872762
_cell_formula_units_Z   3
loop_
 _symmetry_equiv_pos_site_id
 _symmetry_equiv_pos_as_xyz
  1  'x, y, z'
loop_
 _atom_site_type_symbol
 _atom_site_label
 _atom_site_symmetry_multiplicity
 _atom_site_fract_x
 _atom_site_fract_y
 _atom_site_fract_z
 _atom_site_occupancy
  Na  Na0  1  0.63533439  0.99880621  0.24911690  1
  Na  Na1  1  0.36449276  0.36297767  0.24880798  1
  Na  Na2  1  0.03378353  0.70061071  0.58610547  1
  Na  Na3  1  0.99878783  0.01139111  0.49921688  1
  Na  Na4  1  0.99996226  0.99931162  0.99788356  1
  Na  Na5  1  0.66594572  0.33250096  0.83138854  1
  Na  Na6  1  0.68030663  0.34576031  0.33686374  1
  Na  Na7  1  0.31911930  0.66517509  0.15922807  1
  Na  Na8  1  0.34625873  0.66535381  0.66974882  1
  Zn  Zn9  1  -0.00011225  0.99689613  0.35195786  1
  Zn  Zn10  1  0.00001515  0.00040579  0.84894196  1
  Zn  Zn11  1  0.99893562  0.00951623  0.65685283  1
  Zn  Zn12  1  0.99996306  0.99625351  0.14521536  1
  Zn  Zn13  1  0.66306237  0.32962823  0.68646653  1
  Zn  Zn14  1  0.67348121  0.33977025  0.17611769  1
  Zn  Zn15  1  0.33344507  0.66697760  0.01515747  1
  Zn  Zn16  1  0.34048363  0.66588944  0.51425611  1
  Zn  Zn17  1  0.32515441  0.66583461  0.32511754  1
  Ga  Ga18  1  0.66705552  0.33373439  0.98170601  1
  Ga  Ga19  1  0.66403314  0.33017756  0.48434505  1
  Ga  Ga20  1  0.33385287  0.66675539  0.81863972  1
  S  S21  1  0.29294926  0.99636950  0.24990055  1
  S  S22  1  0.70653488  0.70403247  0.25043265  1
  S  S23  1  0.00052689  0.29643382  0.25015014  1
  S  S24  1  0.29724599  0.30310115  0.75219187  1
  S  S25  1  0.00589315  0.70248749  0.75059465  1
  S  S26  1  0.69709302  0.99383622  0.75205745  1
  S  S27  1  0.95652128  0.33043174  0.58197112  1
  S  S28  1  0.37491030  0.04218879  0.58222798  1
  S  S29  1  0.66490751  0.62378139  0.58273884  1
  S  S30  1  0.96070197  0.62643651  0.08111095  1
  S  S31  1  0.66595909  0.03956753  0.08277328  1
  S  S32  1  0.37338211  0.33382392  0.08267958  1
  S  S33  1  0.62588295  0.66237558  0.91744323  1
  S  S34  1  0.03664772  0.37423837  0.91727720  1
  S  S35  1  0.33756916  0.96348025  0.91733242  1
  S  S36  1  0.63302554  0.97151413  0.41718310  1
  S  S37  1  0.33835466  0.36693294  0.41715158  1
  S  S38  1  0.02813867  0.66136386  0.42007228  1
  O  O39  1  0.21435301  0.02845561  0.30354650  1
  O  O40  1  0.81027070  0.78408251  0.30495398  1
  O  O41  1  0.96865931  0.18456288  0.30394984  1
  O  O42  1  0.21386966  0.19370841  0.80513421  1
  O  O43  1  0.98110764  0.79079263  0.80242138  1
  O  O44  1  0.80640074  0.02021849  0.80515012  1
  O  O45  1  0.76988044  0.96125666  0.69654744  1
  O  O46  1  0.19303687  0.22990262  0.69648964  1
  O  O47  1  0.03499342  0.80371011  0.69349716  1
  O  O48  1  0.78634966  0.81555196  0.19697279  1
  O  O49  1  0.03187265  0.21541140  0.19648277  1
  O  O50  1  0.18862736  0.97339619  0.19550378  1
  O  O51  1  0.87608032  0.36308534  0.63483984  1
  O  O52  1  0.48119893  0.12345582  0.63575749  1
  O  O53  1  0.64115145  0.51757314  0.63636047  1
  O  O54  1  0.88723195  0.52621609  0.13711259  1
  O  O55  1  0.64118797  0.11225454  0.14025021  1
  O  O56  1  0.46982310  0.35695425  0.14028001  1
  O  O57  1  0.46760156  0.31105921  0.03076345  1
  O  O58  1  0.84657601  0.53676975  0.02792503  1
  O  O59  1  0.68903996  0.15663022  0.03076152  1
  O  O60  1  0.45783080  0.14988594  0.52704723  1
  O  O61  1  0.69728875  0.54032911  0.52815457  1
  O  O62  1  0.84763189  0.30541627  0.52668611  1
  O  O63  1  0.54669412  0.68884997  0.97140280  1
  O  O64  1  0.14224476  0.45356601  0.97133258  1
  O  O65  1  0.31139808  0.85814201  0.97134054  1
  O  O66  1  0.54466637  0.85963738  0.46912573  1
  O  O67  1  0.31285848  0.45442554  0.46909500  1
  O  O68  1  0.13345567  0.68572435  0.47471483  1
  O  O69  1  0.10592854  0.63050593  0.36570532  1
  O  O70  1  0.53190793  0.89888776  0.36030118  1
  O  O71  1  0.36844914  0.46905836  0.36041976  1
  O  O72  1  0.11863130  0.48710743  0.86292595  1
  O  O73  1  0.36869652  0.88184317  0.86291740  1
  O  O74  1  0.51335015  0.63144267  0.86298958  1
  O  O75  1  0.00852651  0.82018458  0.41418477  1
  O  O76  1  0.81235701  0.99308180  0.41293817  1
  O  O77  1  0.18002214  0.18762287  0.41262924  1
  O  O78  1  0.01415717  0.19527832  0.91028785  1
  O  O79  1  0.18116785  0.98558952  0.91017807  1
  O  O80  1  0.80467164  0.81870906  0.91037242  1
  O  O81  1  0.97402408  0.17059517  0.58686115  1
  O  O82  1  0.19386206  0.02126514  0.58579883  1
  O  O83  1  0.83026856  0.80141359  0.58627015  1
  O  O84  1  0.97362087  0.80314406  0.08384587  1
  O  O85  1  0.82945604  0.02663694  0.08501918  1
  O  O86  1  0.19649932  0.17054095  0.08465797  1
  O  O87  1  0.67563366  0.15215579  0.74646861  1
  O  O88  1  0.47710539  0.32540613  0.74679249  1
  O  O89  1  0.84775961  0.52234428  0.74594914  1
  O  O90  1  0.68010314  0.52138523  0.24471328  1
  O  O91  1  0.83851841  0.31282699  0.24394736  1
  O  O92  1  0.47596877  0.15998526  0.24534406  1
  O  O93  1  0.63934278  0.49561006  0.92240390  1
  O  O94  1  0.85643935  0.36017324  0.92221951  1
  O  O95  1  0.50418684  0.14394653  0.92248475  1
  O  O96  1  0.64743246  0.15092547  0.42366034  1
  O  O97  1  0.50292410  0.35255319  0.42398760  1
  O  O98  1  0.84806444  0.49700331  0.42515242  1
  O  O99  1  0.35799840  0.49496750  0.07681046  1
  O  O100  1  0.13793854  0.64399787  0.07525411  1
  O  O101  1  0.50529475  0.86277737  0.07676450  1
  O  O102  1  0.35221899  0.86023485  0.57642606  1
  O  O103  1  0.50652762  0.64241239  0.57559819  1
  O  O104  1  0.13414905  0.49488378  0.57557574  1
  O  O105  1  0.31851568  0.83949875  0.25587834  1
  O  O106  1  0.52375491  0.68514205  0.25540759  1
  O  O107  1  0.16343095  0.47479141  0.25687658  1
  O  O108  1  0.31314805  0.48401418  0.75880989  1
  O  O109  1  0.17068016  0.68750380  0.75776903  1
  O  O110  1  0.51624741  0.82933956  0.75871363  1
