# generated using pymatgen
data_Na5In2SiSn2P5O24
_symmetry_space_group_name_H-M   'P 1'
_cell_length_a   9.03019156
_cell_length_b   9.02890197
_cell_length_c   22.55573952
_cell_angle_alpha   90.00451154
_cell_angle_beta   89.82987230
_cell_angle_gamma   120.16247627
_symmetry_Int_Tables_number   1
_chemical_formula_structural   Na5In2SiSn2P5O24
_chemical_formula_sum   'Na15 In6 Si3 Sn6 P15 O72'
_cell_volume   1590.02423083
_cell_formula_units_Z   3
loop_
 _symmetry_equiv_pos_site_id
 _symmetry_equiv_pos_as_xyz
  1  'x, y, z'
loop_
 _atom_site_type_symbol
 _atom_site_label
 _atom_site_symmetry_multiplicity
 _atom_site_fract_x
 _atom_site_fract_y
 _atom_site_fract_z
 _atom_site_occupancy
  Na  Na0  1  0.00351440  0.64408645  0.25282011  1
  Na  Na1  1  0.62988022  0.64167426  0.75308776  1
  Na  Na2  1  0.37101890  0.99715187  0.75251208  1
  Na  Na3  1  0.66096613  0.97249808  0.58857791  1
  Na  Na4  1  0.30045573  0.97503446  0.08188775  1
  Na  Na5  1  0.68329638  0.69831201  0.07910807  1
  Na  Na6  1  0.02486535  0.33172052  0.08454164  1
  Na  Na7  1  0.96472889  0.29948094  0.41638246  1
  Na  Na8  1  0.33676679  0.03365424  0.42138689  1
  Na  Na9  1  0.00546788  0.98197931  0.50123605  1
  Na  Na10  1  0.00132279  0.99218717  0.99654264  1
  Na  Na11  1  0.68869818  0.32793000  0.83841867  1
  Na  Na12  1  0.64851437  0.33733436  0.33416756  1
  Na  Na13  1  0.34670595  0.66675514  0.17193545  1
  Na  Na14  1  0.30491830  0.64478641  0.66792095  1
  In  In15  1  0.99626640  0.99676288  0.34951992  1
  In  In16  1  0.99799919  0.99931318  0.15379903  1
  In  In17  1  0.66783745  0.33904027  0.97815563  1
  In  In18  1  0.66120057  0.33701180  0.48552420  1
  In  In19  1  0.33965254  0.66593491  0.31498581  1
  In  In20  1  0.33120474  0.66672268  0.81576664  1
  Si  Si21  1  0.71125730  0.00753264  0.74895736  1
  Si  Si22  1  0.36235490  0.03079054  0.58186835  1
  Si  Si23  1  0.96440401  0.62987067  0.08372454  1
  Sn  Sn24  1  0.99762383  0.00265090  0.85394424  1
  Sn  Sn25  1  0.00362414  0.00276374  0.64739677  1
  Sn  Sn26  1  0.67031953  0.33219710  0.68361734  1
  Sn  Sn27  1  0.66737068  0.32978357  0.18459193  1
  Sn  Sn28  1  0.33003848  0.66603752  0.01274585  1
  Sn  Sn29  1  0.33451625  0.66595003  0.52064868  1
  P  P30  1  0.30733627  0.00524921  0.25061639  1
  P  P31  1  0.69773953  0.69271809  0.24566661  1
  P  P32  1  0.99469328  0.30104007  0.25003307  1
  P  P33  1  0.29314520  0.28967994  0.74914176  1
  P  P34  1  0.99437153  0.70721289  0.75014153  1
  P  P35  1  0.96604134  0.33576218  0.58177786  1
  P  P36  1  0.66633824  0.63093568  0.58586837  1
  P  P37  1  0.66208423  0.03762195  0.08127638  1
  P  P38  1  0.37555969  0.33723053  0.08261142  1
  P  P39  1  0.63567294  0.67214611  0.91409783  1
  P  P40  1  0.03742219  0.36338664  0.91722969  1
  P  P41  1  0.32873138  0.96787127  0.91392913  1
  P  P42  1  0.63159239  0.96203345  0.41990850  1
  P  P43  1  0.33228341  0.37140997  0.41692643  1
  P  P44  1  0.03926085  0.66685253  0.41541687  1
  O  O45  1  0.22495520  0.02403627  0.30794178  1
  O  O46  1  0.82308236  0.78709197  0.29660204  1
  O  O47  1  0.98379684  0.20237134  0.30680463  1
  O  O48  1  0.21304795  0.16885654  0.80333365  1
  O  O49  1  0.96060521  0.78716090  0.80581966  1
  O  O50  1  0.82906641  0.03200271  0.80655527  1
  O  O51  1  0.79276242  0.97522746  0.68838059  1
  O  O52  1  0.18962535  0.21011878  0.69218967  1
  O  O53  1  0.03071028  0.82410974  0.69539036  1
  O  O54  1  0.77036012  0.78042000  0.18489489  1
  O  O55  1  0.00489588  0.21589425  0.19186673  1
  O  O56  1  0.20103990  0.98385020  0.19406004  1
  O  O57  1  0.88081822  0.36766025  0.63636907  1
  O  O58  1  0.49250704  0.12537979  0.63865431  1
  O  O59  1  0.64788145  0.53111988  0.64450575  1
  O  O60  1  0.88967210  0.50860927  0.14457479  1
  O  O61  1  0.61591840  0.11037346  0.13718124  1
  O  O62  1  0.49181907  0.37257281  0.13820833  1
  O  O63  1  0.44184167  0.28446852  0.02940061  1
  O  O64  1  0.82671076  0.54675507  0.03141919  1
  O  O65  1  0.69689471  0.15058699  0.02772467  1
  O  O66  1  0.44021377  0.12871750  0.51965575  1
  O  O67  1  0.69652729  0.55187057  0.53134665  1
  O  O68  1  0.86530541  0.30965469  0.52419634  1
  O  O69  1  0.54338231  0.68662817  0.97208424  1
  O  O70  1  0.13324831  0.44495798  0.97791440  1
  O  O71  1  0.31089704  0.85955359  0.97174078  1
  O  O72  1  0.55398954  0.86408160  0.47978404  1
  O  O73  1  0.31144259  0.46215469  0.47281042  1
  O  O74  1  0.16348056  0.69428089  0.46803388  1
  O  O75  1  0.11119311  0.64095351  0.35631152  1
  O  O76  1  0.51216238  0.87226745  0.36765545  1
  O  O77  1  0.34492034  0.46779488  0.36001196  1
  O  O78  1  0.13317973  0.47272124  0.86425127  1
  O  O79  1  0.34110375  0.88371292  0.85666550  1
  O  O80  1  0.54227228  0.66686912  0.85710787  1
  O  O81  1  0.03024941  0.83386274  0.41477455  1
  O  O82  1  0.81225863  0.98345431  0.41490419  1
  O  O83  1  0.16580170  0.19042438  0.41705660  1
  O  O84  1  0.03184713  0.18727349  0.91629758  1
  O  O85  1  0.15911795  0.97543191  0.91411253  1
  O  O86  1  0.81566434  0.83873767  0.91645220  1
  O  O87  1  0.97145556  0.16695531  0.58842751  1
  O  O88  1  0.17121082  0.00668381  0.58815260  1
  O  O89  1  0.81890621  0.81860582  0.58883938  1
  O  O90  1  0.00179402  0.82726282  0.08899863  1
  O  O91  1  0.81987771  0.01573293  0.08954467  1
  O  O92  1  0.18845979  0.19223666  0.09191036  1
  O  O93  1  0.68679943  0.17728501  0.74578012  1
  O  O94  1  0.47589605  0.30807223  0.74420292  1
  O  O95  1  0.82362985  0.53203150  0.74363885  1
  O  O96  1  0.68840205  0.51350652  0.24594381  1
  O  O97  1  0.82764116  0.31528515  0.24924030  1
  O  O98  1  0.48742461  0.16957511  0.24611496  1
  O  O99  1  0.65201960  0.51188664  0.91605118  1
  O  O100  1  0.85683251  0.33796712  0.91878899  1
  O  O101  1  0.48631695  0.14642211  0.91794757  1
  O  O102  1  0.65297008  0.14472936  0.42104066  1
  O  O103  1  0.48947815  0.34674144  0.41944990  1
  O  O104  1  0.86299853  0.50330143  0.42265768  1
  O  O105  1  0.37397759  0.51041462  0.07549549  1
  O  O106  1  0.15476953  0.64215976  0.07639707  1
  O  O107  1  0.49896895  0.85326288  0.07542119  1
  O  O108  1  0.35358646  0.84167078  0.58185329  1
  O  O109  1  0.50027248  0.64459007  0.58214181  1
  O  O110  1  0.15055285  0.49174358  0.57936643  1
  O  O111  1  0.32165210  0.84119197  0.25200863  1
  O  O112  1  0.51918052  0.67061302  0.25162241  1
  O  O113  1  0.14933463  0.48666438  0.25011032  1
  O  O114  1  0.31969539  0.47078855  0.75458092  1
  O  O115  1  0.15112917  0.68425268  0.75420826  1
  O  O116  1  0.51746957  0.83696506  0.75127098  1
