# generated using pymatgen
data_Na3SiSn4P5O24
_symmetry_space_group_name_H-M   'P 1'
_cell_length_a   8.80697056
_cell_length_b   8.78619956
_cell_length_c   22.86590012
_cell_angle_alpha   90.13222900
_cell_angle_beta   89.76206665
_cell_angle_gamma   119.95250324
_symmetry_Int_Tables_number   1
_chemical_formula_structural   Na3SiSn4P5O24
_chemical_formula_sum   'Na9 Si3 Sn12 P15 O72'
_cell_volume   1533.02924297
_cell_formula_units_Z   3
loop_
 _symmetry_equiv_pos_site_id
 _symmetry_equiv_pos_as_xyz
  1  'x, y, z'
loop_
 _atom_site_type_symbol
 _atom_site_label
 _atom_site_symmetry_multiplicity
 _atom_site_fract_x
 _atom_site_fract_y
 _atom_site_fract_z
 _atom_site_occupancy
  Na  Na0  1  0.36833044  0.00072197  0.74911902  1
  Na  Na1  1  0.66458490  0.96916938  0.58492357  1
  Na  Na2  1  0.66981592  0.69669744  0.08271833  1
  Na  Na3  1  0.01009695  0.00104457  0.49980701  1
  Na  Na4  1  0.00631439  0.00340407  0.99963938  1
  Na  Na5  1  0.67391890  0.33734962  0.83369267  1
  Na  Na6  1  0.66669478  0.33335978  0.33330731  1
  Na  Na7  1  0.32271201  0.66544962  0.16694290  1
  Na  Na8  1  0.32960870  0.65897648  0.66659082  1
  Si  Si9  1  0.71090753  0.00049875  0.74974214  1
  Si  Si10  1  0.37143697  0.04222121  0.58309489  1
  Si  Si11  1  0.96003322  0.62368801  0.08375928  1
  Sn  Sn12  1  0.00074736  0.00044662  0.35235011  1
  Sn  Sn13  1  0.99595286  0.00009306  0.85293470  1
  Sn  Sn14  1  0.00263675  0.99936920  0.64797232  1
  Sn  Sn15  1  0.00498402  0.00168776  0.14843849  1
  Sn  Sn16  1  0.66979127  0.33327052  0.68523249  1
  Sn  Sn17  1  0.66991538  0.33394714  0.18624949  1
  Sn  Sn18  1  0.66945327  0.33551109  0.98091135  1
  Sn  Sn19  1  0.66288586  0.33226448  0.48017339  1
  Sn  Sn20  1  0.32577525  0.66627165  0.01841125  1
  Sn  Sn21  1  0.32917673  0.66555429  0.51806000  1
  Sn  Sn22  1  0.33253532  0.66614848  0.31431914  1
  Sn  Sn23  1  0.33690954  0.66523317  0.81505410  1
  P  P24  1  0.29306358  0.00069204  0.25040910  1
  P  P25  1  0.70744708  0.70820830  0.25024015  1
  P  P26  1  0.99975139  0.29073096  0.25047051  1
  P  P27  1  0.28995726  0.29238972  0.75039034  1
  P  P28  1  0.99738469  0.70653916  0.75102110  1
  P  P29  1  0.95956209  0.33615174  0.58259493  1
  P  P30  1  0.66648902  0.62219671  0.58288132  1
  P  P31  1  0.66675115  0.04365112  0.08335198  1
  P  P32  1  0.37541109  0.33117282  0.08302231  1
  P  P33  1  0.62482929  0.66536617  0.91776555  1
  P  P34  1  0.04214142  0.37471596  0.91626266  1
  P  P35  1  0.33333611  0.96124646  0.91600287  1
  P  P36  1  0.62584658  0.95841631  0.41641303  1
  P  P37  1  0.33345540  0.37581701  0.41616888  1
  P  P38  1  0.04038257  0.66606628  0.41625242  1
  O  O39  1  0.21387265  0.03495108  0.30555842  1
  O  O40  1  0.82274337  0.79008431  0.30448977  1
  O  O41  1  0.96720753  0.17770896  0.30546353  1
  O  O42  1  0.21559055  0.17295596  0.80479882  1
  O  O43  1  0.96744211  0.78729474  0.80630271  1
  O  O44  1  0.82895366  0.03725964  0.80737475  1
  O  O45  1  0.78617340  0.96341444  0.68912351  1
  O  O46  1  0.17966729  0.21395999  0.69508942  1
  O  O47  1  0.04229949  0.82456898  0.69629574  1
  O  O48  1  0.78329348  0.81800413  0.19362750  1
  O  O49  1  0.03431772  0.21259130  0.19485610  1
  O  O50  1  0.18085547  0.96600194  0.19527269  1
  O  O51  1  0.88397332  0.37241510  0.63816992  1
  O  O52  1  0.49224825  0.11662269  0.64229421  1
  O  O53  1  0.63383991  0.51252733  0.63859779  1
  O  O54  1  0.87588346  0.50620162  0.14185975  1
  O  O55  1  0.62790650  0.11736918  0.13860718  1
  O  O56  1  0.49066285  0.37057177  0.13798820  1
  O  O57  1  0.45214313  0.29572891  0.02768601  1
  O  O58  1  0.83313277  0.54715552  0.02653392  1
  O  O59  1  0.69938625  0.15341610  0.02788659  1
  O  O60  1  0.45824211  0.16077051  0.52551095  1
  O  O61  1  0.70342199  0.54668479  0.52771858  1
  O  O62  1  0.84255783  0.29698713  0.52821023  1
  O  O63  1  0.54651819  0.69836435  0.97422306  1
  O  O64  1  0.15508716  0.45345871  0.97131212  1
  O  O65  1  0.30006380  0.84709744  0.97060237  1
  O  O66  1  0.55009546  0.84880531  0.47302718  1
  O  O67  1  0.29906865  0.45400022  0.47176091  1
  O  O68  1  0.15264806  0.70075527  0.47136800  1
  O  O69  1  0.11966745  0.63184570  0.36109463  1
  O  O70  1  0.51053786  0.87658370  0.36218611  1
  O  O71  1  0.36621579  0.48893293  0.36118917  1
  O  O72  1  0.12163360  0.48878398  0.86115509  1
  O  O73  1  0.36548679  0.88360321  0.85950779  1
  O  O74  1  0.51139587  0.63288169  0.86313914  1
  O  O75  1  0.02271230  0.83233047  0.41029717  1
  O  O76  1  0.80891537  0.97500567  0.41044929  1
  O  O77  1  0.16751026  0.19185108  0.41062954  1
  O  O78  1  0.02721842  0.19207099  0.91171746  1
  O  O79  1  0.16718024  0.97810929  0.91026083  1
  O  O80  1  0.80821260  0.83075989  0.91257184  1
  O  O81  1  0.96856214  0.16485965  0.58850206  1
  O  O82  1  0.17840899  0.02105975  0.58854882  1
  O  O83  1  0.82686049  0.81030022  0.58824839  1
  O  O84  1  0.96944146  0.81572854  0.08944682  1
  O  O85  1  0.83020473  0.02135843  0.08999401  1
  O  O86  1  0.19086258  0.17078827  0.08940495  1
  O  O87  1  0.68223568  0.17138441  0.74564261  1
  O  O88  1  0.47322288  0.30895445  0.74420241  1
  O  O89  1  0.83237233  0.52600808  0.74409638  1
  O  O90  1  0.68736367  0.52352339  0.24515046  1
  O  O91  1  0.83299083  0.30635296  0.24563636  1
  O  O92  1  0.47639235  0.16654305  0.24402421  1
  O  O93  1  0.63951842  0.49770315  0.92191179  1
  O  O94  1  0.85823291  0.35581549  0.92159460  1
  O  O95  1  0.49974147  0.14379599  0.92239785  1
  O  O96  1  0.64566100  0.14299608  0.42152199  1
  O  O97  1  0.50010140  0.35993530  0.42095686  1
  O  O98  1  0.85706566  0.50025436  0.42252148  1
  O  O99  1  0.36744115  0.50360051  0.07649133  1
  O  O100  1  0.15349973  0.64512829  0.07860170  1
  O  O101  1  0.50778764  0.85414242  0.07662242  1
  O  O102  1  0.36415290  0.85125230  0.57731845  1
  O  O103  1  0.50273310  0.64443151  0.57672904  1
  O  O104  1  0.14357112  0.49745864  0.57680984  1
  O  O105  1  0.31078413  0.83448920  0.25636990  1
  O  O106  1  0.52432500  0.69169674  0.25623226  1
  O  O107  1  0.16578461  0.47472048  0.25600775  1
  O  O108  1  0.30601905  0.47397489  0.75657379  1
  O  O109  1  0.16557645  0.69201210  0.75718637  1
  O  O110  1  0.51071017  0.83017221  0.75542185  1
