# generated using pymatgen
data_Na6Ta4Zn2Si3(PO6)6
_symmetry_space_group_name_H-M   'P 1'
_cell_length_a   8.93581689
_cell_length_b   8.93581659
_cell_length_c   22.49988499
_cell_angle_alpha   90.14706053
_cell_angle_beta   89.85293947
_cell_angle_gamma   120.29318023
_symmetry_Int_Tables_number   1
_chemical_formula_structural   Na6Ta4Zn2Si3(PO6)6
_chemical_formula_sum   'Na12 Ta8 Zn4 Si6 P12 O72'
_cell_volume   1551.26828098
_cell_formula_units_Z   2
loop_
 _symmetry_equiv_pos_site_id
 _symmetry_equiv_pos_as_xyz
  1  'x, y, z'
loop_
 _atom_site_type_symbol
 _atom_site_label
 _atom_site_symmetry_multiplicity
 _atom_site_fract_x
 _atom_site_fract_y
 _atom_site_fract_z
 _atom_site_occupancy
  Na  Na0  1  0.36990180  0.35659251  0.24287665  1
  Na  Na1  1  0.98179129  0.62766401  0.24125937  1
  Na  Na2  1  0.64340749  0.63009820  0.74287665  1
  Na  Na3  1  0.37233599  0.01820871  0.74125937  1
  Na  Na4  1  0.71382444  0.03360703  0.91205606  1
  Na  Na5  1  0.96639297  0.28617556  0.41205606  1
  Na  Na6  1  0.00641629  0.99139439  0.49198657  1
  Na  Na7  1  0.00860561  0.99358371  0.99198657  1
  Na  Na8  1  0.68221750  0.34672318  0.82566577  1
  Na  Na9  1  0.65327682  0.31778250  0.32566577  1
  Na  Na10  1  0.34570834  0.69154726  0.16224569  1
  Na  Na11  1  0.30845274  0.65429166  0.66224569  1
  Ta  Ta12  1  0.00205844  0.00484395  0.64388016  1
  Ta  Ta13  1  0.99515605  0.99794156  0.14388016  1
  Ta  Ta14  1  0.66965535  0.34079907  0.98197257  1
  Ta  Ta15  1  0.65920093  0.33034465  0.48197257  1
  Ta  Ta16  1  0.33719967  0.66844034  0.02170601  1
  Ta  Ta17  1  0.33155966  0.66280033  0.52170601  1
  Ta  Ta18  1  0.34022192  0.67061170  0.31238832  1
  Ta  Ta19  1  0.32938830  0.65977808  0.81238832  1
  Zn  Zn20  1  0.00807558  0.00014402  0.35417855  1
  Zn  Zn21  1  0.99985598  0.99192442  0.85417855  1
  Zn  Zn22  1  0.67506241  0.32818814  0.67896100  1
  Zn  Zn23  1  0.67181186  0.32493759  0.17896100  1
  Si  Si24  1  0.95334703  0.33277963  0.58427497  1
  Si  Si25  1  0.37536503  0.04060349  0.58804346  1
  Si  Si26  1  0.95939651  0.62463497  0.08804346  1
  Si  Si27  1  0.66722037  0.04665297  0.08427497  1
  Si  Si28  1  0.62627396  0.66181983  0.91557236  1
  Si  Si29  1  0.33818017  0.37372604  0.41557236  1
  P  P30  1  0.29108986  0.00286969  0.25130762  1
  P  P31  1  0.71284633  0.71619605  0.25256265  1
  P  P32  1  0.99737294  0.28905057  0.25436448  1
  P  P33  1  0.28380395  0.28715367  0.75256265  1
  P  P34  1  0.99713031  0.70891014  0.75130762  1
  P  P35  1  0.71094943  0.00262706  0.75436448  1
  P  P36  1  0.66574611  0.62358850  0.58606570  1
  P  P37  1  0.37641150  0.33425389  0.08606570  1
  P  P38  1  0.04181302  0.37848202  0.91803890  1
  P  P39  1  0.33379267  0.95625687  0.91692910  1
  P  P40  1  0.62151798  0.95818698  0.41803890  1
  P  P41  1  0.04374314  0.66620733  0.41692910  1
  O  O42  1  0.20973351  0.02689425  0.30682772  1
  O  O43  1  0.82262230  0.79920523  0.30666011  1
  O  O44  1  0.98436951  0.19598392  0.31193851  1
  O  O45  1  0.20079477  0.17737770  0.80666011  1
  O  O46  1  0.97310575  0.79026649  0.80682772  1
  O  O47  1  0.80401608  0.01563049  0.81193851  1
  O  O48  1  0.80167882  0.97081221  0.69942787  1
  O  O49  1  0.17227044  0.19783678  0.69513262  1
  O  O50  1  0.02929119  0.83044589  0.69591462  1
  O  O51  1  0.80216322  0.82772956  0.19513262  1
  O  O52  1  0.02918779  0.19832118  0.19942787  1
  O  O53  1  0.16955411  0.97070881  0.19591462  1
  O  O54  1  0.88725560  0.38095939  0.64176817  1
  O  O55  1  0.47586961  0.11174060  0.64868262  1
  O  O56  1  0.62619666  0.52182749  0.64299960  1
  O  O57  1  0.88825940  0.52413039  0.14868262  1
  O  O58  1  0.61904061  0.11274440  0.14176817  1
  O  O59  1  0.47817251  0.37380334  0.14299960  1
  O  O60  1  0.46928949  0.30553690  0.03121647  1
  O  O61  1  0.82992848  0.52458454  0.03004662  1
  O  O62  1  0.69423553  0.16258864  0.02325918  1
  O  O63  1  0.47541546  0.17007152  0.53004662  1
  O  O64  1  0.69446310  0.53071051  0.53121647  1
  O  O65  1  0.83741136  0.30576447  0.52325918  1
  O  O66  1  0.51240681  0.67526156  0.97030697  1
  O  O67  1  0.15033328  0.47674916  0.97197587  1
  O  O68  1  0.31990272  0.84186129  0.97084451  1
  O  O69  1  0.52325084  0.84966672  0.47197587  1
  O  O70  1  0.32473844  0.48759319  0.47030697  1
  O  O71  1  0.15813871  0.68009728  0.47084451  1
  O  O72  1  0.13579192  0.64135368  0.36007025  1
  O  O73  1  0.50621400  0.86752257  0.36135290  1
  O  O74  1  0.36160436  0.49814204  0.35576346  1
  O  O75  1  0.13247743  0.49378600  0.86135290  1
  O  O76  1  0.35864632  0.86420808  0.86007025  1
  O  O77  1  0.50185796  0.63839564  0.85576346  1
  O  O78  1  0.02302925  0.82191748  0.41413510  1
  O  O79  1  0.79980953  0.98060931  0.41429196  1
  O  O80  1  0.16369734  0.19174902  0.41477639  1
  O  O81  1  0.01939069  0.20019047  0.91429196  1
  O  O82  1  0.17808252  0.97697075  0.91413510  1
  O  O83  1  0.80825098  0.83630266  0.91477639  1
  O  O84  1  0.96786840  0.15552992  0.59220254  1
  O  O85  1  0.18103721  0.02081247  0.59118961  1
  O  O86  1  0.83158985  0.80538984  0.59085228  1
  O  O87  1  0.97918753  0.81896279  0.09118961  1
  O  O88  1  0.84447008  0.03213160  0.09220254  1
  O  O89  1  0.19461016  0.16841015  0.09085228  1
  O  O90  1  0.67424617  0.15012286  0.74834548  1
  O  O91  1  0.46991855  0.32554543  0.74595135  1
  O  O92  1  0.84031853  0.52942214  0.74358085  1
  O  O93  1  0.67445457  0.53008145  0.24595135  1
  O  O94  1  0.84987714  0.32575383  0.24834548  1
  O  O95  1  0.47057786  0.15968147  0.24358085  1
  O  O96  1  0.63348146  0.48254986  0.92268325  1
  O  O97  1  0.85986565  0.36469314  0.92203307  1
  O  O98  1  0.50821296  0.13083129  0.92183024  1
  O  O99  1  0.63530686  0.14013435  0.42203307  1
  O  O100  1  0.51745014  0.36651854  0.42268325  1
  O  O101  1  0.86916871  0.49178704  0.42183024  1
  O  O102  1  0.34561037  0.48634981  0.07183736  1
  O  O103  1  0.15117634  0.65159566  0.07331646  1
  O  O104  1  0.50781334  0.84631086  0.07180513  1
  O  O105  1  0.34840434  0.84882366  0.57331646  1
  O  O106  1  0.51365019  0.65438963  0.57183736  1
  O  O107  1  0.15368914  0.49218666  0.57180513  1
  O  O108  1  0.29726948  0.82728658  0.25583587  1
  O  O109  1  0.52885112  0.70615878  0.25578208  1
  O  O110  1  0.17529740  0.47751829  0.25569395  1
  O  O111  1  0.29384122  0.47114888  0.75578208  1
  O  O112  1  0.17271342  0.70273052  0.75583587  1
  O  O113  1  0.52248171  0.82470260  0.75569395  1
