# generated using pymatgen
data_Na30Ca20Nb4Si9(S3O16)9
_symmetry_space_group_name_H-M   'P 1'
_cell_length_a   18.72722542
_cell_length_b   9.37775315
_cell_length_c   23.32610045
_cell_angle_alpha   89.98387669
_cell_angle_beta   90.15111700
_cell_angle_gamma   120.11937586
_symmetry_Int_Tables_number   1
_chemical_formula_structural   Na30Ca20Nb4Si9(S3O16)9
_chemical_formula_sum   'Na30 Ca20 Nb4 Si9 S27 O144'
_cell_volume   3543.39450283
_cell_formula_units_Z   1
loop_
 _symmetry_equiv_pos_site_id
 _symmetry_equiv_pos_as_xyz
  1  'x, y, z'
loop_
 _atom_site_type_symbol
 _atom_site_label
 _atom_site_symmetry_multiplicity
 _atom_site_fract_x
 _atom_site_fract_y
 _atom_site_fract_z
 _atom_site_occupancy
  Na  Na0  1  0.80920852  0.00370749  0.23484359  1
  Na  Na1  1  0.00231185  0.63251048  0.23806338  1
  Na  Na2  1  0.50196550  0.62903183  0.23539575  1
  Na  Na3  1  0.00181448  0.37046859  0.73361557  1
  Na  Na4  1  0.50066848  0.37280878  0.73530875  1
  Na  Na5  1  0.18125951  0.01169356  0.75094795  1
  Na  Na6  1  0.66147749  0.34694611  0.58424810  1
  Na  Na7  1  0.66983520  0.97502023  0.08922353  1
  Na  Na8  1  0.83559483  0.68598796  0.07800015  1
  Na  Na9  1  0.00734540  0.34027349  0.08418257  1
  Na  Na10  1  0.48164742  0.65962834  0.92944670  1
  Na  Na11  1  0.84957765  0.03566557  0.92971978  1
  Na  Na12  1  0.16436840  0.29647068  0.90794461  1
  Na  Na13  1  0.66417909  0.30039814  0.90556519  1
  Na  Na14  1  0.48051944  0.30212020  0.42892991  1
  Na  Na15  1  0.98627696  0.30655254  0.43070664  1
  Na  Na16  1  0.16478269  0.02945690  0.40624104  1
  Na  Na17  1  0.66352458  0.02878841  0.40639790  1
  Na  Na18  1  0.98938263  0.98922667  0.50257533  1
  Na  Na19  1  0.47567193  0.96450478  0.50109469  1
  Na  Na20  1  0.00196902  0.96919806  0.99928252  1
  Na  Na21  1  0.47633799  0.98818282  0.00321891  1
  Na  Na22  1  0.32271468  0.33642508  0.82811303  1
  Na  Na23  1  0.82253595  0.34832717  0.82303075  1
  Na  Na24  1  0.31086057  0.30741156  0.32430914  1
  Na  Na25  1  0.81511499  0.32966854  0.32731278  1
  Na  Na26  1  0.16990996  0.70513655  0.16323330  1
  Na  Na27  1  0.65764264  0.66878442  0.16029496  1
  Na  Na28  1  0.16284816  0.62600327  0.66005051  1
  Na  Na29  1  0.66227161  0.65380788  0.66462200  1
  Ca  Ca30  1  0.00392305  0.99985304  0.34978683  1
  Ca  Ca31  1  0.49898350  0.99852163  0.34914968  1
  Ca  Ca32  1  0.00156318  0.99322544  0.84975813  1
  Ca  Ca33  1  0.50025439  0.00311097  0.84786664  1
  Ca  Ca34  1  0.33385063  0.34174505  0.67851377  1
  Ca  Ca35  1  0.83200404  0.33289516  0.68218998  1
  Ca  Ca36  1  0.32961584  0.32605213  0.18121977  1
  Ca  Ca37  1  0.82972627  0.32674520  0.18151726  1
  Ca  Ca38  1  0.33832352  0.33443007  0.99247532  1
  Ca  Ca39  1  0.84331658  0.34532996  0.99016102  1
  Ca  Ca40  1  0.33692247  0.33909834  0.49206866  1
  Ca  Ca41  1  0.84090119  0.33904021  0.49083276  1
  Ca  Ca42  1  0.16793459  0.67722577  0.01748885  1
  Ca  Ca43  1  0.66100126  0.66444927  0.02038891  1
  Ca  Ca44  1  0.16555718  0.66085715  0.52084235  1
  Ca  Ca45  1  0.66562901  0.66744330  0.51923076  1
  Ca  Ca46  1  0.17170593  0.67677683  0.31021249  1
  Ca  Ca47  1  0.66690623  0.66358320  0.31203778  1
  Ca  Ca48  1  0.16933474  0.66000428  0.81210620  1
  Ca  Ca49  1  0.66883707  0.66362959  0.80831264  1
  Nb  Nb50  1  0.00483860  0.01611125  0.64904322  1
  Nb  Nb51  1  0.50258478  0.01101301  0.65063220  1
  Nb  Nb52  1  0.00866339  0.00011454  0.14883984  1
  Nb  Nb53  1  0.50293474  0.99426743  0.15174125  1
  Si  Si54  1  0.15263629  0.00073436  0.25512078  1
  Si  Si55  1  0.65089519  0.99966515  0.25530830  1
  Si  Si56  1  0.15138963  0.29909617  0.75384641  1
  Si  Si57  1  0.65186828  0.30433400  0.75414260  1
  Si  Si58  1  0.48914702  0.33899835  0.58610033  1
  Si  Si59  1  0.98851736  0.33992863  0.58605371  1
  Si  Si60  1  0.48599287  0.63885235  0.08661624  1
  Si  Si61  1  0.98612786  0.63603720  0.09060420  1
  Si  Si62  1  0.83757074  0.02445591  0.08506227  1
  S  S63  1  0.35456521  0.70921453  0.24674042  1
  S  S64  1  0.85600108  0.71437277  0.24622931  1
  S  S65  1  0.00020420  0.29388245  0.24939624  1
  S  S66  1  0.50011579  0.29460817  0.24919696  1
  S  S67  1  0.00156532  0.70789286  0.74738019  1
  S  S68  1  0.49951464  0.70578841  0.74959574  1
  S  S69  1  0.35304536  0.99955641  0.74614304  1
  S  S70  1  0.85623337  -0.00030777  0.74849597  1
  S  S71  1  0.17485141  0.02695315  0.58647813  1
  S  S72  1  0.67547347  0.03114065  0.58474342  1
  S  S73  1  0.33983386  0.65194764  0.58621582  1
  S  S74  1  0.83881841  0.64699206  0.58556520  1
  S  S75  1  0.34015540  0.02956896  0.08687205  1
  S  S76  1  0.17789153  0.32673779  0.08304510  1
  S  S77  1  0.67529100  0.31943770  0.08353059  1
  S  S78  1  0.31709663  0.65976991  0.91748599  1
  S  S79  1  0.81384697  0.66280628  0.91849876  1
  S  S80  1  0.01494084  0.36202385  0.91579637  1
  S  S81  1  0.51594183  0.36815435  0.91409738  1
  S  S82  1  0.16923020  0.97667718  0.91445758  1
  S  S83  1  0.66702847  0.96837133  0.91733431  1
  S  S84  1  0.31605849  0.97253049  0.41824306  1
  S  S85  1  0.81609745  0.97264859  0.41506391  1
  S  S86  1  0.16633162  0.36527944  0.41628908  1
  S  S87  1  0.66616332  0.36240483  0.41893422  1
  S  S88  1  0.01698399  0.66294956  0.41490068  1
  S  S89  1  0.51608420  0.66388166  0.41503085  1
  O  O90  1  0.11281957  0.00572340  0.31611893  1
  O  O91  1  0.60815020  0.00446471  0.31438111  1
  O  O92  1  0.39969699  0.78995277  0.29937642  1
  O  O93  1  0.90323135  0.79543754  0.29767241  1
  O  O94  1  0.49459564  0.21190242  0.30421841  1
  O  O95  1  0.99191307  0.19962625  0.30188307  1
  O  O96  1  0.11048394  0.20057489  0.81263626  1
  O  O97  1  0.61012234  0.21442286  0.81392585  1
  O  O98  1  0.49377176  0.77705663  0.80448334  1
  O  O99  1  0.99102177  0.77829461  0.80059216  1
  O  O100  1  0.39817070  0.01081862  0.79877971  1
  O  O101  1  0.89781148  0.00726155  0.80307744  1
  O  O102  1  0.39990490  0.98430412  0.69547022  1
  O  O103  1  0.90676280  0.98766483  0.69928962  1
  O  O104  1  0.08406125  0.16684777  0.69913329  1
  O  O105  1  0.58224924  0.16497170  0.69961188  1
  O  O106  1  0.00269046  0.80748971  0.69692442  1
  O  O107  1  0.49825895  0.80850233  0.70041647  1
  O  O108  1  0.40494620  0.82128954  0.19624345  1
  O  O109  1  0.90173765  0.81624953  0.19371375  1
  O  O110  1  0.00238914  0.20035177  0.19741615  1
  O  O111  1  0.49999899  0.18909876  0.20024067  1
  O  O112  1  0.08417223  0.00455238  0.20272600  1
  O  O113  1  0.58586116  0.00007484  0.19892724  1
  O  O114  1  0.44499816  0.35143925  0.64307306  1
  O  O115  1  0.94132477  0.34575415  0.64243477  1
  O  O116  1  0.22301618  0.10940839  0.63817194  1
  O  O117  1  0.72646474  0.11897005  0.63380607  1
  O  O118  1  0.32583226  0.54709643  0.63610787  1
  O  O119  1  0.82225738  0.53500780  0.63420971  1
  O  O120  1  0.44150228  0.53648213  0.14299597  1
  O  O121  1  0.94632902  0.53755561  0.14913187  1
  O  O122  1  0.32693409  0.10892995  0.13560786  1
  O  O123  1  0.81272924  0.10394791  0.13781891  1
  O  O124  1  0.22924286  0.34621193  0.13189465  1
  O  O125  1  0.72890071  0.34389985  0.13276205  1
  O  O126  1  0.20793161  0.29305264  0.02883252  1
  O  O127  1  0.70674636  0.28034411  0.03072594  1
  O  O128  1  0.43740206  0.57749085  0.02578241  1
  O  O129  1  0.91947065  0.57531140  0.03825668  1
  O  O130  1  0.35421138  0.12287761  0.03271550  1
  O  O131  1  0.86124435  0.13938318  0.02720497  1
  O  O132  1  0.20874851  0.12883825  0.53442937  1
  O  O133  1  0.70647096  0.13114264  0.53128045  1
  O  O134  1  0.35393708  0.58321272  0.53333494  1
  O  O135  1  0.85309673  0.57939917  0.53237881  1
  O  O136  1  0.43911722  0.30220341  0.52601156  1
  O  O137  1  0.93851786  0.29819853  0.52548599  1
  O  O138  1  0.27656610  0.67293478  0.96928394  1
  O  O139  1  0.77529869  0.67563216  0.97229207  1
  O  O140  1  0.06320234  0.44667278  0.96785542  1
  O  O141  1  0.56902375  0.45487663  0.96378012  1
  O  O142  1  0.16777687  0.87857022  0.96390633  1
  O  O143  1  0.66236190  0.87987496  0.97114839  1
  O  O144  1  0.27640473  0.87784806  0.47001905  1
  O  O145  1  0.77329889  0.87274163  0.46550322  1
  O  O146  1  0.16256971  0.45329341  0.46740902  1
  O  O147  1  0.66380810  0.44553566  0.47248418  1
  O  O148  1  0.07012370  0.68000762  0.46435725  1
  O  O149  1  0.57047306  0.68323867  0.46418132  1
  O  O150  1  0.05473685  0.64709056  0.36107382  1
  O  O151  1  0.55427011  0.64773953  0.36122055  1
  O  O152  1  0.26995686  0.88785086  0.36578830  1
  O  O153  1  0.77164131  0.89054414  0.36113316  1
  O  O154  1  0.17274534  0.45595920  0.36329844  1
  O  O155  1  0.67270050  0.46079345  0.36793062  1
  O  O156  1  0.05727562  0.45479653  0.86357984  1
  O  O157  1  0.55455531  0.46139483  0.86060115  1
  O  O158  1  0.17200841  0.89993063  0.85920083  1
  O  O159  1  0.67495589  0.88160201  0.86728818  1
  O  O160  1  0.27034218  0.65226890  0.86520209  1
  O  O161  1  0.76281379  0.65190184  0.86824270  1
  O  O162  1  0.00771332  0.81235815  0.41512438  1
  O  O163  1  0.50758429  0.81410299  0.41477589  1
  O  O164  1  0.40366397  0.00625884  0.41647108  1
  O  O165  1  0.90317286  0.00680416  0.41468788  1
  O  O166  1  0.08648648  0.19946232  0.41701000  1
  O  O167  1  0.58647849  0.19850181  0.41800140  1
  O  O168  1  0.00628987  0.19278364  0.91590027  1
  O  O169  1  0.50635012  0.19985087  0.91360593  1
  O  O170  1  0.09316664  0.99283972  0.91817990  1
  O  O171  1  0.58957043  0.97889102  0.91496590  1
  O  O172  1  0.40422805  0.80182506  0.91596387  1
  O  O173  1  0.89704985  0.81507104  0.91552721  1
  O  O174  1  0.49662266  0.15736095  0.59937311  1
  O  O175  1  0.99461097  0.15553283  0.59886803  1
  O  O176  1  0.08725919  0.00360458  0.59342432  1
  O  O177  1  0.58931387  0.01280167  0.59298865  1
  O  O178  1  0.41920836  0.81830604  0.59502816  1
  O  O179  1  0.91436372  0.81378352  0.59555620  1
  O  O180  1  0.49552567  0.83770497  0.09939493  1
  O  O181  1  0.00384898  0.83496905  0.10114058  1
  O  O182  1  0.41895192  0.02007590  0.09542362  1
  O  O183  1  0.92514244  0.01770306  0.09996873  1
  O  O184  1  0.09057342  0.17492438  0.09163214  1
  O  O185  1  0.59036618  0.16794272  0.09336373  1
  O  O186  1  0.34815758  0.15243912  0.74134231  1
  O  O187  1  0.85404141  0.15439269  0.74353237  1
  O  O188  1  0.23815883  0.30293394  0.74553328  1
  O  O189  1  0.74119384  0.32379507  0.74583059  1
  O  O190  1  0.42825060  0.53404701  0.74627540  1
  O  O191  1  0.93451246  0.53354503  0.74352151  1
  O  O192  1  0.35170707  0.55006207  0.24169664  1
  O  O193  1  0.84577640  0.54818162  0.24284509  1
  O  O194  1  0.42965742  0.32372875  0.24517713  1
  O  O195  1  0.92536441  0.31221103  0.24635045  1
  O  O196  1  0.24187747  0.16066777  0.24662396  1
  O  O197  1  0.74283972  0.15682555  0.24969498  1
  O  O198  1  0.32091816  0.50232712  0.91810557  1
  O  O199  1  0.81939854  0.50891965  0.91836061  1
  O  O200  1  0.43364657  0.35731727  0.91903205  1
  O  O201  1  0.92973041  0.33785476  0.91679941  1
  O  O202  1  0.24228998  0.14873681  0.91660372  1
  O  O203  1  0.74050422  0.14006680  0.91887943  1
  O  O204  1  0.32005502  0.13809029  0.41937840  1
  O  O205  1  0.81832308  0.13616027  0.41722537  1
  O  O206  1  0.23632912  0.33068090  0.41935514  1
  O  O207  1  0.73649229  0.32932409  0.41953140  1
  O  O208  1  0.43392658  0.51146568  0.42044536  1
  O  O209  1  0.93400010  0.50958615  0.41951813  1
  O  O210  1  0.16224030  0.46618469  0.07818238  1
  O  O211  1  0.66543535  0.46397627  0.07742026  1
  O  O212  1  0.07346829  0.64442371  0.08014372  1
  O  O213  1  0.58330773  0.69463869  0.08482601  1
  O  O214  1  0.27033427  0.85772462  0.08177276  1
  O  O215  1  0.76404736  0.83304036  0.07895532  1
  O  O216  1  0.16450534  0.86200743  0.58134133  1
  O  O217  1  0.66412278  0.86526797  0.57973764  1
  O  O218  1  0.27172706  0.68699415  0.58088522  1
  O  O219  1  0.76599080  0.66989843  0.57995740  1
  O  O220  1  0.08350737  0.48420329  0.58459275  1
  O  O221  1  0.58684416  0.47864685  0.58400706  1
  O  O222  1  0.14480273  0.82088921  0.24349554  1
  O  O223  1  0.64961700  0.82497581  0.24369912  1
  O  O224  1  0.27264567  0.69246059  0.24310065  1
  O  O225  1  0.77460090  0.70715379  0.24494869  1
  O  O226  1  0.07500245  0.45898332  0.24863750  1
  O  O227  1  0.57829359  0.45692400  0.24498071  1
  O  O228  1  0.14593344  0.46564361  0.74533058  1
  O  O229  1  0.64334901  0.46706516  0.74172507  1
  O  O230  1  0.08309203  0.71265772  0.74718027  1
  O  O231  1  0.57709247  0.69892343  0.74533342  1
  O  O232  1  0.26835017  0.85543261  0.74466119  1
  O  O233  1  0.77311737  0.85312864  0.74427657  1
