# generated using pymatgen
data_Na3YAl(PO4)3
_symmetry_space_group_name_H-M   'P 1'
_cell_length_a   15.64724416
_cell_length_b   8.95116539
_cell_length_c   8.98987645
_cell_angle_alpha   90.03699356
_cell_angle_beta   124.94771278
_cell_angle_gamma   90.02217079
_symmetry_Int_Tables_number   1
_chemical_formula_structural   Na3YAl(PO4)3
_chemical_formula_sum   'Na12 Y4 Al4 P12 O48'
_cell_volume   1032.07831328
_cell_formula_units_Z   4
loop_
 _symmetry_equiv_pos_site_id
 _symmetry_equiv_pos_as_xyz
  1  'x, y, z'
loop_
 _atom_site_type_symbol
 _atom_site_label
 _atom_site_symmetry_multiplicity
 _atom_site_fract_x
 _atom_site_fract_y
 _atom_site_fract_z
 _atom_site_occupancy
  Na  Na0  1  0.23883018  0.78065708  0.99560353  1
  Na  Na1  1  0.74868553  0.71439999  0.50553781  1
  Na  Na2  1  0.74883820  0.27443850  0.00695667  1
  Na  Na3  1  0.23788399  0.21026459  0.49104587  1
  Na  Na4  1  0.50411424  0.09116394  0.76958231  1
  Na  Na5  1  0.50323326  0.90690755  0.24330217  1
  Na  Na6  1  0.00474704  0.62308981  0.75054629  1
  Na  Na7  1  0.99964797  0.38353132  0.23813766  1
  Na  Na8  1  0.81763414  0.93823721  0.23111611  1
  Na  Na9  1  0.81702621  0.07238968  0.72124108  1
  Na  Na10  1  0.29698904  0.43280353  0.19371716  1
  Na  Na11  1  0.30792942  0.55265425  0.73766221  1
  Y  Y12  1  0.10795951  0.76447477  0.55381930  1
  Y  Y13  1  0.60148135  0.26055923  0.55505336  1
  Y  Y14  1  0.39665459  0.74997475  0.43996540  1
  Y  Y15  1  0.60871263  0.73821789  0.05982180  1
  Al  Al16  1  0.90021869  0.74637133  0.94513143  1
  Al  Al17  1  0.90016847  0.25331823  0.44653308  1
  Al  Al18  1  0.09833782  0.24728849  0.04602323  1
  Al  Al19  1  0.38770173  0.25385406  0.93533275  1
  P  P20  1  0.99671018  0.96939854  0.75084574  1
  P  P21  1  0.99806153  0.04995713  0.23145351  1
  P  P22  1  0.48654035  0.43250547  0.74544535  1
  P  P23  1  0.48547873  0.54721151  0.22423543  1
  P  P24  1  0.36050483  0.90961185  0.78154212  1
  P  P25  1  0.66485288  0.88784280  0.75167673  1
  P  P26  1  0.65725622  0.11682269  0.24602911  1
  P  P27  1  0.34733128  0.11276735  0.24293337  1
  P  P28  1  0.86752461  0.40298577  0.75604346  1
  P  P29  1  0.14298746  0.37997082  0.74788742  1
  P  P30  1  0.14187880  0.59707281  0.23054011  1
  P  P31  1  0.86432186  0.59337252  0.26034354  1
  O  O32  1  0.15293159  0.55375373  0.74397256  1
  O  O33  1  0.86590006  0.57693790  0.77018417  1
  O  O34  1  0.86139465  0.41981674  0.26571909  1
  O  O35  1  0.14578118  0.42375801  0.21300430  1
  O  O36  1  0.67644320  0.05977509  0.74740853  1
  O  O37  1  0.34754018  0.08054831  0.78446609  1
  O  O38  1  0.34267053  0.93999665  0.23034662  1
  O  O39  1  0.67064582  0.94361799  0.24351871  1
  O  O40  1  0.42230533  0.52215093  0.56604848  1
  O  O41  1  0.54210471  0.54314084  0.90240626  1
  O  O42  1  0.53610831  0.45762296  0.39929087  1
  O  O43  1  0.43072308  0.44297704  0.05592229  1
  O  O44  1  0.92618460  0.06164512  0.57063818  1
  O  O45  1  0.05763118  0.07424486  0.91239934  1
  O  O46  1  0.07594025  0.96901836  0.41037110  1
  O  O47  1  0.93047464  0.93522136  0.07618449  1
  O  O48  1  0.27353989  0.81912230  0.77116918  1
  O  O49  1  0.75866890  0.80723336  0.77081870  1
  O  O50  1  0.75407730  0.18995402  0.26493858  1
  O  O51  1  0.24815360  0.18201664  0.21519299  1
  O  O52  1  0.77240615  0.33589307  0.74318426  1
  O  O53  1  0.24153554  0.31532046  0.76834889  1
  O  O54  1  0.23118861  0.66689013  0.22751531  1
  O  O55  1  0.76978672  0.66270243  0.24624148  1
  O  O56  1  0.36394192  0.87449224  0.61581526  1
  O  O57  1  0.66201455  0.85901420  0.91705556  1
  O  O58  1  0.65937470  0.14260452  0.41797880  1
  O  O59  1  0.36753771  0.17223096  0.10275050  1
  O  O60  1  0.86770673  0.36525694  0.58704505  1
  O  O61  1  0.14035144  0.34848075  0.91398840  1
  O  O62  1  0.16021736  0.62256666  0.41700899  1
  O  O63  1  0.87076571  0.63983576  0.10033033  1
  O  O64  1  0.46379392  0.86325965  0.95541502  1
  O  O65  1  0.56211364  0.83552883  0.57484803  1
  O  O66  1  0.55287907  0.17086343  0.07534191  1
  O  O67  1  0.44273380  0.15404877  0.43565013  1
  O  O68  1  0.96593679  0.33743366  0.92653437  1
  O  O69  1  0.04306554  0.32002446  0.57004244  1
  O  O70  1  0.03762134  0.66725997  0.07525430  1
  O  O71  1  0.95882249  0.65383654  0.44121923  1
  O  O72  1  0.07357204  0.86456980  0.74572004  1
  O  O73  1  0.92156197  0.86457704  0.76785530  1
  O  O74  1  0.92075338  0.14393921  0.25279907  1
  O  O75  1  0.06521311  0.15785834  0.20313352  1
  O  O76  1  0.56986953  0.32878013  0.75985175  1
  O  O77  1  0.40665626  0.33668001  0.75665215  1
  O  O78  1  0.39857659  0.64702840  0.20661488  1
  O  O79  1  0.57054171  0.65235593  0.24669939  1
