# generated using pymatgen
data_Na4NbIn3Si3(SO8)3
_symmetry_space_group_name_H-M   'P 1'
_cell_length_a   9.10421273
_cell_length_b   9.11012320
_cell_length_c   22.98357231
_cell_angle_alpha   89.98570757
_cell_angle_beta   90.10367103
_cell_angle_gamma   119.86989073
_symmetry_Int_Tables_number   1
_chemical_formula_structural   Na4NbIn3Si3(SO8)3
_chemical_formula_sum   'Na12 Nb3 In9 Si9 S9 O72'
_cell_volume   1653.03433408
_cell_formula_units_Z   3
loop_
 _symmetry_equiv_pos_site_id
 _symmetry_equiv_pos_as_xyz
  1  'x, y, z'
loop_
 _atom_site_type_symbol
 _atom_site_label
 _atom_site_symmetry_multiplicity
 _atom_site_fract_x
 _atom_site_fract_y
 _atom_site_fract_z
 _atom_site_occupancy
  Na  Na0  1  0.64025695  0.00159212  0.25191582  1
  Na  Na1  1  0.36094183  0.35899309  0.25165827  1
  Na  Na2  1  0.99784876  0.63611852  0.25283930  1
  Na  Na3  1  0.30507447  0.34382024  0.58634995  1
  Na  Na4  1  0.66257051  0.96148850  0.58632441  1
  Na  Na5  1  0.29016341  0.95765564  0.08501544  1
  Na  Na6  1  0.00076404  0.98747502  0.50334530  1
  Na  Na7  1  0.98525063  0.00082879  0.98820606  1
  Na  Na8  1  0.66668757  0.33305115  0.82593173  1
  Na  Na9  1  0.66747490  0.33352205  0.32586370  1
  Na  Na10  1  0.33389693  0.65224375  0.17638039  1
  Na  Na11  1  0.31479918  0.66745741  0.65833554  1
  Nb  Nb12  1  0.66880400  0.33480358  0.97068554  1
  Nb  Nb13  1  0.67008412  0.33569069  0.48739084  1
  Nb  Nb14  1  0.33399942  0.66722370  0.82258093  1
  In  In15  1  0.99996991  0.00035703  0.34369978  1
  In  In16  1  0.00142109  0.99979953  0.85383001  1
  In  In17  1  0.00241808  0.99314204  0.64367298  1
  In  In18  1  0.99413378  0.00049211  0.15765855  1
  In  In19  1  0.66974807  0.33722411  0.67959417  1
  In  In20  1  0.66984259  0.33690650  0.18447613  1
  In  In21  1  0.33358906  0.66241188  0.01131039  1
  In  In22  1  0.32511662  0.66598908  0.51820588  1
  In  In23  1  0.33300326  0.66844622  0.31680013  1
  Si  Si24  1  0.29615702  0.99990526  0.24658007  1
  Si  Si25  1  0.70331563  0.70398189  0.25051229  1
  Si  Si26  1  0.00124174  0.29631673  0.25026288  1
  Si  Si27  1  0.96265532  0.33474340  0.58692202  1
  Si  Si28  1  0.37623587  0.04062557  0.58551843  1
  Si  Si29  1  0.66472076  0.62693957  0.58460626  1
  Si  Si30  1  0.62984607  0.67153359  0.91959617  1
  Si  Si31  1  0.04172991  0.37062382  0.91902850  1
  Si  Si32  1  0.32971390  0.95844460  0.92216135  1
  S  S33  1  0.29789957  0.30295544  0.75034926  1
  S  S34  1  0.00553161  0.70360735  0.75128332  1
  S  S35  1  0.69661946  0.99473415  0.75055455  1
  S  S36  1  0.95922975  0.62562915  0.08070217  1
  S  S37  1  0.66707986  0.04316014  0.08074405  1
  S  S38  1  0.37731640  0.33461802  0.08066098  1
  S  S39  1  0.63540706  0.97146562  0.41825618  1
  S  S40  1  0.33624059  0.36403553  0.41795471  1
  S  S41  1  0.02795798  0.66422714  0.41686431  1
  O  O42  1  0.21719999  0.05095703  0.30103210  1
  O  O43  1  0.82981665  0.77560542  0.30624380  1
  O  O44  1  0.94585972  0.17075964  0.30621085  1
  O  O45  1  0.20807793  0.19496289  0.80034779  1
  O  O46  1  0.98698883  0.78891392  0.80264249  1
  O  O47  1  0.80491482  0.01137708  0.80040846  1
  O  O48  1  0.76769954  0.97256113  0.69498743  1
  O  O49  1  0.20420488  0.23018575  0.69476855  1
  O  O50  1  0.02806269  0.80141529  0.69707468  1
  O  O51  1  0.77014456  0.82541412  0.19269020  1
  O  O52  1  0.05758947  0.22957543  0.19271096  1
  O  O53  1  0.18601428  0.95528571  0.18506178  1
  O  O54  1  0.89063537  0.37220429  0.64479737  1
  O  O55  1  0.49297892  0.11229075  0.64266956  1
  O  O56  1  0.61401878  0.50676346  0.64093751  1
  O  O57  1  0.88318636  0.53755078  0.13601627  1
  O  O58  1  0.64902184  0.12063750  0.13536716  1
  O  O59  1  0.46643295  0.34774773  0.13632389  1
  O  O60  1  0.48051088  0.32648138  0.03113462  1
  O  O61  1  0.85322324  0.52394594  0.03029949  1
  O  O62  1  0.67528088  0.15137346  0.03018594  1
  O  O63  1  0.48298655  0.17050080  0.52825550  1
  O  O64  1  0.68839864  0.52190003  0.52743996  1
  O  O65  1  0.83516849  0.31462128  0.52916038  1
  O  O66  1  0.55708008  0.70368259  0.97785633  1
  O  O67  1  0.14369414  0.44435003  0.97772106  1
  O  O68  1  0.30450559  0.86347680  0.98317210  1
  O  O69  1  0.54797009  0.86860123  0.47017767  1
  O  O70  1  0.32088764  0.45066385  0.47023777  1
  O  O71  1  0.13459356  0.68097069  0.46759025  1
  O  O72  1  0.10208479  0.64183639  0.36229375  1
  O  O73  1  0.53569897  0.89428984  0.36440204  1
  O  O74  1  0.35661764  0.46363841  0.36444145  1
  O  O75  1  0.14123405  0.50350094  0.86260992  1
  O  O76  1  0.36201383  0.85405220  0.86680234  1
  O  O77  1  0.49571434  0.63548538  0.86299327  1
  O  O78  1  0.00881128  0.81620693  0.41533470  1
  O  O79  1  0.80611845  0.99001668  0.41601936  1
  O  O80  1  0.18501669  0.19270046  0.41547019  1
  O  O81  1  -0.00015057  0.18302759  0.90639152  1
  O  O82  1  0.18209353  0.99695545  0.90823629  1
  O  O83  1  0.81668589  0.81682452  0.90647486  1
  O  O84  1  0.95899609  0.15308718  0.58602935  1
  O  O85  1  0.20196832  0.04879923  0.58501588  1
  O  O86  1  0.83383236  0.81157180  0.58520877  1
  O  O87  1  0.97242798  0.79517947  0.07882684  1
  O  O88  1  0.82191818  0.02987720  0.08059875  1
  O  O89  1  0.21258476  0.17205858  0.07908613  1
  O  O90  1  0.67529851  0.14655842  0.74961575  1
  O  O91  1  0.47113867  0.32412593  0.74918276  1
  O  O92  1  0.85336889  0.53103448  0.74873704  1
  O  O93  1  0.67831280  0.51465266  0.24274389  1
  O  O94  1  0.83685349  0.32128577  0.24211194  1
  O  O95  1  0.48663198  0.16336768  0.24119637  1
  O  O96  1  0.63263828  0.48804397  0.92595610  1
  O  O97  1  0.85517818  0.36773667  0.92487094  1
  O  O98  1  0.51292824  0.14524931  0.92648825  1
  O  O99  1  0.65013826  0.14368828  0.42324676  1
  O  O100  1  0.49421679  0.34982367  0.42275598  1
  O  O101  1  0.85720157  0.50679749  0.42292710  1
  O  O102  1  0.35514734  0.48415796  0.07775480  1
  O  O103  1  0.13303540  0.64722299  0.07894154  1
  O  O104  1  0.50866022  0.87480586  0.07828353  1
  O  O105  1  0.36220349  0.85977247  0.57415700  1
  O  O106  1  0.50103209  0.64801835  0.57236903  1
  O  O107  1  0.15400889  0.48627765  0.57588113  1
  O  O108  1  0.31389841  0.83173533  0.25679914  1
  O  O109  1  0.51511313  0.68160631  0.25949623  1
  O  O110  1  0.16625688  0.48437197  0.25947167  1
  O  O111  1  0.31221027  0.47483943  0.75721595  1
  O  O112  1  0.16285218  0.68796101  0.75749696  1
  O  O113  1  0.52350542  0.83810140  0.75791305  1
