# generated using pymatgen
data_Na14Ta5Al3(SiO4)12
_symmetry_space_group_name_H-M   'P 1'
_cell_length_a   17.93715876
_cell_length_b   8.96950247
_cell_length_c   22.15107785
_cell_angle_alpha   90.03133405
_cell_angle_beta   89.89792732
_cell_angle_gamma   120.07119748
_symmetry_Int_Tables_number   1
_chemical_formula_structural   Na14Ta5Al3(SiO4)12
_chemical_formula_sum   'Na42 Ta15 Al9 Si36 O144'
_cell_volume   3084.14474750
_cell_formula_units_Z   3
loop_
 _symmetry_equiv_pos_site_id
 _symmetry_equiv_pos_as_xyz
  1  'x, y, z'
loop_
 _atom_site_type_symbol
 _atom_site_label
 _atom_site_symmetry_multiplicity
 _atom_site_fract_x
 _atom_site_fract_y
 _atom_site_fract_z
 _atom_site_occupancy
  Na  Na0  1  0.31978205  0.00945115  0.24755849  1
  Na  Na1  1  0.81598192  0.00855086  0.24613437  1
  Na  Na2  1  0.18865570  0.36853793  0.24593121  1
  Na  Na3  1  0.68492747  0.36042514  0.24766838  1
  Na  Na4  1  0.99575728  0.62519557  0.24659745  1
  Na  Na5  1  0.49483031  0.62758208  0.24723581  1
  Na  Na6  1  0.31761824  0.62671208  0.74715402  1
  Na  Na7  1  0.81749782  0.62651652  0.74737388  1
  Na  Na8  1  0.99549495  0.36519691  0.74741299  1
  Na  Na9  1  0.49537386  0.36491241  0.74732611  1
  Na  Na10  1  0.18730242  0.00878837  0.74713504  1
  Na  Na11  1  0.68701798  0.00863151  0.74714678  1
  Na  Na12  1  0.15231635  0.34428997  0.57997829  1
  Na  Na13  1  0.65182100  0.34273283  0.58007136  1
  Na  Na14  1  0.01998009  0.69596315  0.57985885  1
  Na  Na15  1  0.51918964  0.69569000  0.58005854  1
  Na  Na16  1  0.32836864  0.96010893  0.57984543  1
  Na  Na17  1  0.82836278  0.96083239  0.58059441  1
  Na  Na18  1  0.15298826  0.96167265  0.08009763  1
  Na  Na19  1  0.65187672  0.96100723  0.08067047  1
  Na  Na20  1  0.32894908  0.69706920  0.08113428  1
  Na  Na21  1  0.82811522  0.69529198  0.08046072  1
  Na  Na22  1  0.01949818  0.34363249  0.07982441  1
  Na  Na23  1  0.51919601  0.34255323  0.08058575  1
  Na  Na24  1  0.34832440  0.03028832  0.91957963  1
  Na  Na25  1  0.84822708  0.03026659  0.91949125  1
  Na  Na26  1  0.48415428  0.29331832  0.41474835  1
  Na  Na27  1  0.66137323  0.03200235  0.41457222  1
  Na  Na28  1  0.35363055  0.67714463  0.41502426  1
  Na  Na29  1  0.84742314  0.66512538  0.41786295  1
  Na  Na30  1  0.00376733  0.00712264  0.49752051  1
  Na  Na31  1  0.49943314  0.99981885  0.49387200  1
  Na  Na32  1  0.00347991  0.99976331  0.99806541  1
  Na  Na33  1  0.50337912  0.99979994  0.99896686  1
  Na  Na34  1  0.33315324  0.33899510  0.83260728  1
  Na  Na35  1  0.83312690  0.33898737  0.83255585  1
  Na  Na36  1  0.33123173  0.32906544  0.32961264  1
  Na  Na37  1  0.83523239  0.33151376  0.32969405  1
  Na  Na38  1  0.16755529  0.66714497  0.16112091  1
  Na  Na39  1  0.66596819  0.66638151  0.16091921  1
  Na  Na40  1  0.16696281  0.66689904  0.66133896  1
  Na  Na41  1  0.66657445  0.66675969  0.66153404  1
  Ta  Ta42  1  0.00289617  0.00438638  0.35556411  1
  Ta  Ta43  1  0.00196047  0.00003866  0.85655200  1
  Ta  Ta44  1  0.50189816  0.99994547  0.85659346  1
  Ta  Ta45  1  0.00004164  0.99972438  0.64525516  1
  Ta  Ta46  1  0.50001781  0.99982754  0.64474784  1
  Ta  Ta47  1  0.00001540  0.00034358  0.14481908  1
  Ta  Ta48  1  0.49992326  0.00011459  0.14641720  1
  Ta  Ta49  1  0.33339732  0.33744138  0.97856092  1
  Ta  Ta50  1  0.83317782  0.33747603  0.97846413  1
  Ta  Ta51  1  0.33040199  0.32864399  0.47846202  1
  Ta  Ta52  1  0.83619063  0.33372329  0.47888838  1
  Ta  Ta53  1  0.16770612  0.66850336  0.31431210  1
  Ta  Ta54  1  0.66537165  0.66530219  0.31335051  1
  Ta  Ta55  1  0.16636980  0.66578070  0.81500772  1
  Ta  Ta56  1  0.66619065  0.66558479  0.81502579  1
  Al  Al57  1  0.49935793  0.99988693  0.35234000  1
  Al  Al58  1  0.33342508  0.33336226  0.68483123  1
  Al  Al59  1  0.83326727  0.33305223  0.68486283  1
  Al  Al60  1  0.33440701  0.33497703  0.18486965  1
  Al  Al61  1  0.83205445  0.33184156  0.18465910  1
  Al  Al62  1  0.16649649  0.66677007  0.02015090  1
  Al  Al63  1  0.66610611  0.66615366  0.02016636  1
  Al  Al64  1  0.16696679  0.66746296  0.51934552  1
  Al  Al65  1  0.66582167  0.66544872  0.51922642  1
  Si  Si66  1  0.14892343  0.00541192  0.24854817  1
  Si  Si67  1  0.64577954  0.00653723  0.25247639  1
  Si  Si68  1  0.35711972  0.70767718  0.25259249  1
  Si  Si69  1  0.85446049  0.70299656  0.24978342  1
  Si  Si70  1  0.99728251  0.29131311  0.24934592  1
  Si  Si71  1  0.49646584  0.28524343  0.25246959  1
  Si  Si72  1  0.14859028  0.29197675  0.74901918  1
  Si  Si73  1  0.64849674  0.29170248  0.74894034  1
  Si  Si74  1  0.99726500  0.70301511  0.74939346  1
  Si  Si75  1  0.49726347  0.70330341  0.74929819  1
  Si  Si76  1  0.35434013  0.00558230  0.74981017  1
  Si  Si77  1  0.85422170  0.00553093  0.74990055  1
  Si  Si78  1  0.47870776  0.34047607  0.58507591  1
  Si  Si79  1  0.97968433  0.34060984  0.58614748  1
  Si  Si80  1  0.19082873  0.04103216  0.58615705  1
  Si  Si81  1  0.69150482  0.04245624  0.58505905  1
  Si  Si82  1  0.32973984  0.61691074  0.58515632  1
  Si  Si83  1  0.82968420  0.61745697  0.58540938  1
  Si  Si84  1  0.47935281  0.61850956  0.08568686  1
  Si  Si85  1  0.97899614  0.61715142  0.08592652  1
  Si  Si86  1  0.33005661  0.04271732  0.08521134  1
  Si  Si87  1  0.82971836  0.04272475  0.08488474  1
  Si  Si88  1  0.19163124  0.34073525  0.08559279  1
  Si  Si89  1  0.69096983  0.34011529  0.08564052  1
  Si  Si90  1  0.30852886  0.66348125  0.92023649  1
  Si  Si91  1  0.80847519  0.66369166  0.92023533  1
  Si  Si92  1  0.02461503  0.38276443  0.92104578  1
  Si  Si93  1  0.52458926  0.38260211  0.92106137  1
  Si  Si94  1  0.16544276  0.95045409  0.92108050  1
  Si  Si95  1  0.66537890  0.95025959  0.92111654  1
  Si  Si96  1  0.31220524  0.95303251  0.41954998  1
  Si  Si97  1  0.80970092  0.95213844  0.41973059  1
  Si  Si98  1  0.16509484  0.38135958  0.42074154  1
  Si  Si99  1  0.66336630  0.37383544  0.41932583  1
  Si  Si100  1  0.02582116  0.66825123  0.42021317  1
  Si  Si101  1  0.52321152  0.67313118  0.41974354  1
  O  O102  1  0.09831221  0.03255359  0.30580906  1
  O  O103  1  0.59927343  0.03443912  0.31022809  1
  O  O104  1  0.41756933  0.80110992  0.31017585  1
  O  O105  1  0.91608162  0.79874942  0.30843511  1
  O  O106  1  0.48299317  0.16480840  0.31015306  1
  O  O107  1  0.98316719  0.16199190  0.30618610  1
  O  O108  1  0.09806984  0.16300518  0.80562692  1
  O  O109  1  0.59819897  0.16315578  0.80562595  1
  O  O110  1  0.48290485  0.80359299  0.80586183  1
  O  O111  1  0.98282513  0.80361899  0.80583928  1
  O  O112  1  0.41611105  0.03373397  0.80802572  1
  O  O113  1  0.91611899  0.03376462  0.80796727  1
  O  O114  1  0.39951073  0.96479115  0.69167017  1
  O  O115  1  0.89925631  0.96462371  0.69170613  1
  O  O116  1  0.08337629  0.20243098  0.69074487  1
  O  O117  1  0.58349140  0.20254627  0.69062250  1
  O  O118  1  0.01784212  0.83335318  0.69093676  1
  O  O119  1  0.51800949  0.83373428  0.69087144  1
  O  O120  1  0.39920038  0.83408395  0.19227094  1
  O  O121  1  0.89948502  0.83400755  0.19191518  1
  O  O122  1  0.01776826  0.20191687  0.19116264  1
  O  O123  1  0.51782128  0.20151528  0.19218760  1
  O  O124  1  0.08318340  0.96430686  0.19084228  1
  O  O125  1  0.58297408  0.96465716  0.19221640  1
  O  O126  1  0.43324401  0.36817537  0.64362471  1
  O  O127  1  0.93338897  0.36795428  0.64433845  1
  O  O128  1  0.25041918  0.13258390  0.64450369  1
  O  O129  1  0.75100470  0.13369512  0.64343070  1
  O  O130  1  0.31613220  0.49794666  0.64358144  1
  O  O131  1  0.81608402  0.49827868  0.64366735  1
  O  O132  1  0.43371136  0.49963125  0.14423374  1
  O  O133  1  0.93328475  0.49867419  0.14462384  1
  O  O134  1  0.31596277  0.13416885  0.14363765  1
  O  O135  1  0.81661583  0.13438635  0.14355822  1
  O  O136  1  0.25040317  0.36767582  0.14433467  1
  O  O137  1  0.75055883  0.36905883  0.14423979  1
  O  O138  1  0.23424970  0.29593392  0.02699502  1
  O  O139  1  0.73464730  0.29656828  0.02723854  1
  O  O140  1  0.41425296  0.53063022  0.02719966  1
  O  O141  1  0.91414565  0.53075819  0.02734097  1
  O  O142  1  0.35129195  0.16715583  0.02493324  1
  O  O143  1  0.85182613  0.16745758  0.02475539  1
  O  O144  1  0.23396590  0.17137131  0.52759288  1
  O  O145  1  0.73292550  0.16858017  0.52523657  1
  O  O146  1  0.35161784  0.53474556  0.52529211  1
  O  O147  1  0.85115694  0.53511103  0.52530155  1
  O  O148  1  0.41589609  0.29776327  0.52543718  1
  O  O149  1  0.91444237  0.29733047  0.52753849  1
  O  O150  1  0.26615551  0.70272742  0.97700205  1
  O  O151  1  0.76627869  0.70290424  0.97706407  1
  O  O152  1  0.08307222  0.47052953  0.97841937  1
  O  O153  1  0.58313920  0.47043176  0.97828205  1
  O  O154  1  0.15262129  0.83481117  0.97864290  1
  O  O155  1  0.65288788  0.83492321  0.97861196  1
  O  O156  1  0.26623490  0.83080560  0.47699813  1
  O  O157  1  0.76607796  0.83024551  0.47742125  1
  O  O158  1  0.15254561  0.47018966  0.47917545  1
  O  O159  1  0.64977133  0.46808764  0.47682544  1
  O  O160  1  0.08254681  0.69488836  0.47876874  1
  O  O161  1  0.58481916  0.70205363  0.47680869  1
  O  O162  1  0.06702949  0.63779727  0.35777763  1
  O  O163  1  0.56649919  0.63285225  0.35928925  1
  O  O164  1  0.25166996  0.86591817  0.35838200  1
  O  O165  1  0.75043825  0.86755016  0.35831303  1
  O  O166  1  0.18240445  0.49861020  0.35870711  1
  O  O167  1  0.68428577  0.50121104  0.35899999  1
  O  O168  1  0.06731060  0.49587749  0.85795600  1
  O  O169  1  0.56733613  0.49596136  0.85793507  1
  O  O170  1  0.18216326  0.86576242  0.85856463  1
  O  O171  1  0.68231693  0.86588176  0.85851304  1
  O  O172  1  0.25197522  0.63851725  0.85748119  1
  O  O173  1  0.75201409  0.63858478  0.85745316  1
  O  O174  1  0.00925295  0.83270918  0.41074116  1
  O  O175  1  0.51187677  0.83992555  0.41053320  1
  O  O176  1  0.40760660  0.97574071  0.41037969  1
  O  O177  1  0.90436232  0.96851551  0.41060032  1
  O  O178  1  0.08167611  0.18767131  0.41085700  1
  O  O179  1  0.57982181  0.18422702  0.41039825  1
  O  O180  1  0.00961433  0.18575363  0.91049397  1
  O  O181  1  0.50962746  0.18574084  0.91042654  1
  O  O182  1  0.08122774  0.97460650  0.91050122  1
  O  O183  1  0.58126745  0.97461020  0.91049708  1
  O  O184  1  0.40372308  0.83950917  0.90975355  1
  O  O185  1  0.90375209  0.83957802  0.90979635  1
  O  O186  1  0.48674845  0.16259542  0.58952351  1
  O  O187  1  0.98666064  0.16162985  0.58949789  1
  O  O188  1  0.09419948  0.02632122  0.58961066  1
  O  O189  1  0.59468907  0.02682569  0.58946115  1
  O  O190  1  0.41903736  0.81123358  0.58961424  1
  O  O191  1  0.91894472  0.81155967  0.58945332  1
  O  O192  1  0.48701291  0.81203122  0.08936764  1
  O  O193  1  0.98662953  0.81107965  0.08958481  1
  O  O194  1  0.41909883  0.02637315  0.08961860  1
  O  O195  1  0.91896390  0.02625479  0.08954834  1
  O  O196  1  0.09438059  0.16225432  0.08954210  1
  O  O197  1  0.59421319  0.16199017  0.08954032  1
  O  O198  1  0.34505045  0.17410687  0.74314708  1
  O  O199  1  0.84494512  0.17396156  0.74310340  1
  O  O200  1  0.24207317  0.31004542  0.74309714  1
  O  O201  1  0.74205605  0.30987637  0.74300767  1
  O  O202  1  0.41284546  0.51608903  0.74309015  1
  O  O203  1  0.91270532  0.51603567  0.74309355  1
  O  O204  1  0.34489409  0.51753288  0.24373375  1
  O  O205  1  0.84517537  0.51591717  0.24371344  1
  O  O206  1  0.41376834  0.31004016  0.24377551  1
  O  O207  1  0.91272654  0.30884081  0.24365262  1
  O  O208  1  0.24233956  0.17461514  0.24344805  1
  O  O209  1  0.74117585  0.17253545  0.24354754  1
  O  O210  1  0.32044242  0.49486940  0.92209812  1
  O  O211  1  0.82053498  0.49513614  0.92208896  1
  O  O212  1  0.42582822  0.35165203  0.92243730  1
  O  O213  1  0.92583219  0.35177605  0.92250554  1
  O  O214  1  0.25380732  0.14111374  0.92254786  1
  O  O215  1  0.75382042  0.14117306  0.92264658  1
  O  O216  1  0.32346843  0.14810069  0.42274968  1
  O  O217  1  0.81691510  0.14191282  0.42264245  1
  O  O218  1  0.25373862  0.36703198  0.42305222  1
  O  O219  1  0.75212764  0.35931961  0.42282883  1
  O  O220  1  0.42750693  0.49559958  0.42281251  1
  O  O221  1  0.92635352  0.49976685  0.42279147  1
  O  O222  1  0.17872467  0.50559778  0.07722638  1
  O  O223  1  0.67881625  0.50586525  0.07715362  1
  O  O224  1  0.07455304  0.64367965  0.07795480  1
  O  O225  1  0.57468126  0.64370644  0.07769406  1
  O  O226  1  0.24740111  0.85078259  0.07776479  1
  O  O227  1  0.74747916  0.85082087  0.07782274  1
  O  O228  1  0.17841281  0.85089643  0.57752058  1
  O  O229  1  0.67850137  0.85125623  0.57694271  1
  O  O230  1  0.24764788  0.64432755  0.57781817  1
  O  O231  1  0.74700200  0.64320824  0.57730125  1
  O  O232  1  0.07489148  0.50566494  0.57799133  1
  O  O233  1  0.57458071  0.50608842  0.57697787  1
  O  O234  1  0.15405924  0.82826208  0.25495945  1
  O  O235  1  0.65381939  0.82916534  0.25638174  1
  O  O236  1  0.26051054  0.69190444  0.25600288  1
  O  O237  1  0.76027409  0.69220020  0.25543385  1
  O  O238  1  0.08580092  0.47926683  0.25559367  1
  O  O239  1  0.58565993  0.47845157  0.25626988  1
  O  O240  1  0.15422577  0.47992196  0.75487018  1
  O  O241  1  0.65438236  0.47997984  0.75486206  1
  O  O242  1  0.08561639  0.69181532  0.75533438  1
  O  O243  1  0.58562781  0.69175869  0.75534507  1
  O  O244  1  0.25977360  0.82867430  0.75489056  1
  O  O245  1  0.75974683  0.82854905  0.75480452  1
