# generated using pymatgen
data_Ta5Zn(PO4)9
_symmetry_space_group_name_H-M   'P 1'
_cell_length_a   8.76118663
_cell_length_b   8.76118636
_cell_length_c   22.59689231
_cell_angle_alpha   90.00000000
_cell_angle_beta   90.00000000
_cell_angle_gamma   120.00000107
_symmetry_Int_Tables_number   1
_chemical_formula_structural   Ta5Zn(PO4)9
_chemical_formula_sum   'Ta10 Zn2 P18 O72'
_cell_volume   1502.12195155
_cell_formula_units_Z   2
loop_
 _symmetry_equiv_pos_site_id
 _symmetry_equiv_pos_as_xyz
  1  'x, y, z'
loop_
 _atom_site_type_symbol
 _atom_site_label
 _atom_site_symmetry_multiplicity
 _atom_site_fract_x
 _atom_site_fract_y
 _atom_site_fract_z
 _atom_site_occupancy
  Ta  Ta0  1  -0.00000000  0.00000000  0.35470100  1
  Ta  Ta1  1  -0.00000000  0.00000000  0.85470100  1
  Ta  Ta2  1  -0.00000000  0.00000000  0.64349666  1
  Ta  Ta3  1  -0.00000000  0.00000000  0.14349666  1
  Ta  Ta4  1  0.66666700  0.33333300  0.97861429  1
  Ta  Ta5  1  0.66666700  0.33333300  0.47861429  1
  Ta  Ta6  1  0.33333300  0.66666700  0.02379739  1
  Ta  Ta7  1  0.33333300  0.66666700  0.52379739  1
  Ta  Ta8  1  0.33333300  0.66666700  0.30738437  1
  Ta  Ta9  1  0.33333300  0.66666700  0.80738437  1
  Zn  Zn10  1  0.66666700  0.33333300  0.68913300  1
  Zn  Zn11  1  0.66666700  0.33333300  0.18913300  1
  P  P12  1  0.28992245  0.00481929  0.24952702  1
  P  P13  1  0.71489684  0.71007755  0.24952702  1
  P  P14  1  0.99518071  0.28510316  0.24952702  1
  P  P15  1  0.28992245  0.28510316  0.74952702  1
  P  P16  1  0.99518071  0.71007755  0.74952702  1
  P  P17  1  0.71489684  0.00481929  0.74952702  1
  P  P18  1  0.95123289  0.33345617  0.58500711  1
  P  P19  1  0.38222428  0.04876711  0.58500711  1
  P  P20  1  0.66654383  0.61777572  0.58500711  1
  P  P21  1  0.95123289  0.61777572  0.08500711  1
  P  P22  1  0.66654383  0.04876711  0.08500711  1
  P  P23  1  0.38222428  0.33345617  0.08500711  1
  P  P24  1  0.61803148  0.66625238  0.91618101  1
  P  P25  1  0.04821990  0.38196852  0.91618101  1
  P  P26  1  0.33374762  0.95178010  0.91618101  1
  P  P27  1  0.61803148  0.95178010  0.41618101  1
  P  P28  1  0.33374762  0.38196852  0.41618101  1
  P  P29  1  0.04821990  0.66625238  0.41618101  1
  O  O30  1  0.19136179  0.02137337  0.30522274  1
  O  O31  1  0.83001158  0.80863821  0.30522274  1
  O  O32  1  0.97862663  0.16998842  0.30522274  1
  O  O33  1  0.19136179  0.16998842  0.80522274  1
  O  O34  1  0.97862663  0.80863821  0.80522274  1
  O  O35  1  0.83001158  0.02137337  0.80522274  1
  O  O36  1  0.80141491  0.96662372  0.69523207  1
  O  O37  1  0.16520881  0.19858509  0.69523207  1
  O  O38  1  0.03337628  0.83479119  0.69523207  1
  O  O39  1  0.80141491  0.83479119  0.19523207  1
  O  O40  1  0.03337628  0.19858509  0.19523207  1
  O  O41  1  0.16520881  0.96662372  0.19523207  1
  O  O42  1  0.88067447  0.37302919  0.63852350  1
  O  O43  1  0.49235572  0.11932553  0.63852350  1
  O  O44  1  0.62697081  0.50764428  0.63852350  1
  O  O45  1  0.88067447  0.50764428  0.13852350  1
  O  O46  1  0.62697081  0.11932553  0.13852350  1
  O  O47  1  0.49235572  0.37302919  0.13852350  1
  O  O48  1  0.46739345  0.30318986  0.02798808  1
  O  O49  1  0.83579741  0.53260655  0.02798808  1
  O  O50  1  0.69681014  0.16420259  0.02798808  1
  O  O51  1  0.46739345  0.16420259  0.52798808  1
  O  O52  1  0.69681014  0.53260655  0.52798808  1
  O  O53  1  0.83579741  0.30318986  0.52798808  1
  O  O54  1  0.53240221  0.69635769  0.97111480  1
  O  O55  1  0.16395448  0.46759779  0.97111480  1
  O  O56  1  0.30364231  0.83604552  0.97111480  1
  O  O57  1  0.53240221  0.83604552  0.47111480  1
  O  O58  1  0.30364231  0.46759779  0.47111480  1
  O  O59  1  0.16395448  0.69635769  0.47111480  1
  O  O60  1  0.13426621  0.63526131  0.36165637  1
  O  O61  1  0.50099409  0.86573379  0.36165637  1
  O  O62  1  0.36473869  0.49900590  0.36165637  1
  O  O63  1  0.13426621  0.49900590  0.86165637  1
  O  O64  1  0.36473869  0.86573379  0.86165637  1
  O  O65  1  0.50099410  0.63526131  0.86165637  1
  O  O66  1  0.02582375  0.82831711  0.40670516  1
  O  O67  1  0.80249337  0.97417625  0.40670516  1
  O  O68  1  0.17168289  0.19750663  0.40670516  1
  O  O69  1  0.02582375  0.19750663  0.90670516  1
  O  O70  1  0.17168289  0.97417625  0.90670516  1
  O  O71  1  0.80249337  0.82831711  0.90670516  1
  O  O72  1  0.97490116  0.16923280  0.59191684  1
  O  O73  1  0.19433164  0.02509884  0.59191684  1
  O  O74  1  0.83076720  0.80566836  0.59191684  1
  O  O75  1  0.97490116  0.80566836  0.09191684  1
  O  O76  1  0.83076720  0.02509884  0.09191684  1
  O  O77  1  0.19433164  0.16923280  0.09191684  1
  O  O78  1  0.69433107  0.16086511  0.74406268  1
  O  O79  1  0.46653504  0.30566893  0.74406268  1
  O  O80  1  0.83913489  0.53346496  0.74406268  1
  O  O81  1  0.69433107  0.53346496  0.24406268  1
  O  O82  1  0.83913489  0.30566893  0.24406268  1
  O  O83  1  0.46653504  0.16086511  0.24406268  1
  O  O84  1  0.63939786  0.50362911  0.92700460  1
  O  O85  1  0.86423225  0.36060214  0.92700460  1
  O  O86  1  0.49637089  0.13576775  0.92700460  1
  O  O87  1  0.63939786  0.13576775  0.42700460  1
  O  O88  1  0.49637089  0.36060214  0.42700460  1
  O  O89  1  0.86423225  0.50362911  0.42700460  1
  O  O90  1  0.35318749  0.49222007  0.07013824  1
  O  O91  1  0.13903158  0.64681251  0.07013824  1
  O  O92  1  0.50777993  0.86096842  0.07013824  1
  O  O93  1  0.35318749  0.86096842  0.57013824  1
  O  O94  1  0.50777993  0.64681251  0.57013824  1
  O  O95  1  0.13903158  0.49222007  0.57013824  1
  O  O96  1  0.29822556  0.83155423  0.26067755  1
  O  O97  1  0.53332766  0.70177444  0.26067755  1
  O  O98  1  0.16844577  0.46667234  0.26067755  1
  O  O99  1  0.29822556  0.46667234  0.76067755  1
  O  O100  1  0.16844577  0.70177444  0.76067755  1
  O  O101  1  0.53332766  0.83155423  0.76067755  1
