# generated using pymatgen
data_Ba2As2S5
_symmetry_space_group_name_H-M   'P 1'
_cell_length_a   9.36991973
_cell_length_b   12.05603551
_cell_length_c   17.55208457
_cell_angle_alpha   90.00000000
_cell_angle_beta   90.00000000
_cell_angle_gamma   90.00000000
_symmetry_Int_Tables_number   1
_chemical_formula_structural   Ba2As2S5
_chemical_formula_sum   'Ba16 As16 S40'
_cell_volume   1982.75517313
_cell_formula_units_Z   8
loop_
 _symmetry_equiv_pos_site_id
 _symmetry_equiv_pos_as_xyz
  1  'x, y, z'
loop_
 _atom_site_type_symbol
 _atom_site_label
 _atom_site_symmetry_multiplicity
 _atom_site_fract_x
 _atom_site_fract_y
 _atom_site_fract_z
 _atom_site_occupancy
  Ba  Ba0  1  0.00351652  0.97898852  0.42745032  1
  Ba  Ba1  1  0.99648348  0.47898852  0.57254968  1
  Ba  Ba2  1  0.99648348  0.97898852  0.92745032  1
  Ba  Ba3  1  0.00351652  0.47898852  0.07254968  1
  Ba  Ba4  1  0.49988903  0.82403032  0.17611183  1
  Ba  Ba5  1  0.50011097  0.32403032  0.82388817  1
  Ba  Ba6  1  0.50011097  0.82403032  0.67611183  1
  Ba  Ba7  1  0.49988903  0.32403032  0.32388817  1
  Ba  Ba8  1  0.98591579  0.83200822  0.17850982  1
  Ba  Ba9  1  0.01408421  0.33200822  0.82149018  1
  Ba  Ba10  1  0.01408421  0.83200822  0.67850982  1
  Ba  Ba11  1  0.98591579  0.33200822  0.32149018  1
  Ba  Ba12  1  0.50410692  0.98993170  0.42419838  1
  Ba  Ba13  1  0.49589308  0.48993170  0.57580162  1
  Ba  Ba14  1  0.49589308  0.98993170  0.92419838  1
  Ba  Ba15  1  0.50410692  0.48993170  0.07580162  1
  As  As16  1  0.27878006  0.75148346  0.50723627  1
  As  As17  1  0.72121994  0.25148346  0.49276373  1
  As  As18  1  0.72121994  0.75148346  0.00723627  1
  As  As19  1  0.27878006  0.25148346  0.99276373  1
  As  As20  1  0.27086955  0.56244361  0.24012855  1
  As  As21  1  0.72913045  0.06244361  0.75987145  1
  As  As22  1  0.72913045  0.56244361  0.74012855  1
  As  As23  1  0.27086955  0.06244361  0.25987145  1
  As  As24  1  0.77615575  0.68046429  0.37004596  1
  As  As25  1  0.22384425  0.18046429  0.62995404  1
  As  As26  1  0.22384425  0.68046429  0.87004596  1
  As  As27  1  0.77615575  0.18046429  0.12995404  1
  As  As28  1  0.13999965  0.13858625  0.12671537  1
  As  As29  1  0.86000035  0.63858625  0.87328463  1
  As  As30  1  0.86000035  0.13858625  0.62671537  1
  As  As31  1  0.13999965  0.63858625  0.37328463  1
  S  S32  1  0.20397644  0.47709372  0.42533423  1
  S  S33  1  0.79602356  0.97709372  0.57466577  1
  S  S34  1  0.79602356  0.47709372  0.92533423  1
  S  S35  1  0.20397644  0.97709372  0.07466577  1
  S  S36  1  0.95230802  0.20749126  0.04004863  1
  S  S37  1  0.04769198  0.70749126  0.95995137  1
  S  S38  1  0.04769198  0.20749126  0.54004863  1
  S  S39  1  0.95230802  0.70749126  0.45995137  1
  S  S40  1  0.94719018  0.59924904  0.28895808  1
  S  S41  1  0.05280982  0.09924904  0.71104192  1
  S  S42  1  0.05280982  0.59924904  0.78895808  1
  S  S43  1  0.94719018  0.09924904  0.21104192  1
  S  S44  1  0.23863937  0.15711598  0.88398511  1
  S  S45  1  0.76136063  0.65711598  0.11601489  1
  S  S46  1  0.76136063  0.15711598  0.38398511  1
  S  S47  1  0.23863937  0.65711598  0.61601489  1
  S  S48  1  0.24321044  0.38588819  0.19790940  1
  S  S49  1  0.23393482  0.65698762  0.13312404  1
  S  S50  1  0.75678956  0.88588819  0.80209060  1
  S  S51  1  0.24321044  0.88588819  0.30209060  1
  S  S52  1  0.51432546  0.24160714  0.00193480  1
  S  S53  1  0.48567454  0.74160714  0.99806520  1
  S  S54  1  0.48567454  0.24160714  0.50193480  1
  S  S55  1  0.51432546  0.74160714  0.49806520  1
  S  S56  1  0.75643453  0.35059678  0.18003227  1
  S  S57  1  0.24356547  0.85059678  0.81996773  1
  S  S58  1  0.24356547  0.35059678  0.68003227  1
  S  S59  1  0.75643453  0.85059678  0.31996773  1
  S  S60  1  0.25104001  0.42631655  0.94857996  1
  S  S61  1  0.74895999  0.92631655  0.05142004  1
  S  S62  1  0.74895999  0.42631655  0.44857996  1
  S  S63  1  0.25104001  0.92631655  0.55142004  1
  S  S64  1  0.50347061  0.07431835  0.24462450  1
  S  S65  1  0.49652939  0.57431835  0.75537550  1
  S  S66  1  0.49652939  0.07431835  0.74462450  1
  S  S67  1  0.50347061  0.57431835  0.25537550  1
  S  S68  1  0.23393482  0.15698762  0.36687596  1
  S  S69  1  0.76606518  0.65698762  0.63312404  1
  S  S70  1  0.76606518  0.15698762  0.86687596  1
  S  S71  1  0.75678956  0.38588819  0.69790940  1
