# generated using pymatgen
data_Na7Y2In2SiP5O24
_symmetry_space_group_name_H-M   'P 1'
_cell_length_a   9.29405781
_cell_length_b   9.31105365
_cell_length_c   23.00634396
_cell_angle_alpha   89.89008292
_cell_angle_beta   89.87559912
_cell_angle_gamma   120.03135337
_symmetry_Int_Tables_number   1
_chemical_formula_structural   Na7Y2In2SiP5O24
_chemical_formula_sum   'Na21 Y6 In6 Si3 P15 O72'
_cell_volume   1723.61991095
_cell_formula_units_Z   3
loop_
 _symmetry_equiv_pos_site_id
 _symmetry_equiv_pos_as_xyz
  1  'x, y, z'
loop_
 _atom_site_type_symbol
 _atom_site_label
 _atom_site_symmetry_multiplicity
 _atom_site_fract_x
 _atom_site_fract_y
 _atom_site_fract_z
 _atom_site_occupancy
  Na  Na0  1  0.36417808  0.36075050  0.24960238  1
  Na  Na1  1  0.99494179  0.63084150  0.24578886  1
  Na  Na2  1  0.63837399  0.63964849  0.74716475  1
  Na  Na3  1  0.99124156  0.35849894  0.75174589  1
  Na  Na4  1  0.37597763  0.00566985  0.74578193  1
  Na  Na5  1  0.29859100  0.32265274  0.58242788  1
  Na  Na6  1  0.03611978  0.70590856  0.58424275  1
  Na  Na7  1  0.66556894  0.97049829  0.58894285  1
  Na  Na8  1  0.29615006  0.96352388  0.08311919  1
  Na  Na9  1  0.67353528  0.69589566  0.08158492  1
  Na  Na10  1  0.02906867  0.33989354  0.08526540  1
  Na  Na11  1  0.96679528  0.66508440  0.92022601  1
  Na  Na12  1  0.69966034  0.03253067  0.91338502  1
  Na  Na13  1  0.96950032  0.30619717  0.41679726  1
  Na  Na14  1  0.33727469  0.03531719  0.42084602  1
  Na  Na15  1  0.99390798  0.98880825  0.50136439  1
  Na  Na16  1  0.01219022  0.00597493  0.99638552  1
  Na  Na17  1  0.65489523  0.32779083  0.83442216  1
  Na  Na18  1  0.66674698  0.33366470  0.33352327  1
  Na  Na19  1  0.33807452  0.67811572  0.16737016  1
  Na  Na20  1  0.34126346  0.68069065  0.66696777  1
  Y  Y21  1  0.98961529  0.99158275  0.34887306  1
  Y  Y22  1  0.99390384  0.99663993  0.15103280  1
  Y  Y23  1  0.33021905  0.66252754  0.01391049  1
  Y  Y24  1  0.33949377  0.67006094  0.51620930  1
  Y  Y25  1  0.34355706  0.67491636  0.31832797  1
  Y  Y26  1  0.33678650  0.66743746  0.81832981  1
  In  In27  1  0.00328480  0.00584878  0.84811084  1
  In  In28  1  0.00091429  0.00075944  0.65149876  1
  In  In29  1  0.66592325  0.32787573  0.68227825  1
  In  In30  1  0.67007368  0.32816913  0.18227013  1
  In  In31  1  0.66343424  0.33646812  0.98364486  1
  In  In32  1  0.66060041  0.33581443  0.48554432  1
  Si  Si33  1  0.70534033  0.00383436  0.74903745  1
  Si  Si34  1  0.36401851  0.03525890  0.58474771  1
  Si  Si35  1  0.96353087  0.62975384  0.08293697  1
  P  P36  1  0.30590828  0.00499077  0.24909679  1
  P  P37  1  0.69375395  0.68662514  0.24621422  1
  P  P38  1  0.99809018  0.30595505  0.25020150  1
  P  P39  1  0.29791970  0.29500134  0.74776633  1
  P  P40  1  0.99653956  0.70170428  0.74970874  1
  P  P41  1  0.96140219  0.33126935  0.58332611  1
  P  P42  1  0.67161742  0.62885406  0.58633053  1
  P  P43  1  0.66446396  0.03990039  0.08063293  1
  P  P44  1  0.37402917  0.33299797  0.08533695  1
  P  P45  1  0.64452402  0.66799425  0.91591526  1
  P  P46  1  0.02265755  0.35637048  0.91678596  1
  P  P47  1  0.33287637  0.97512610  0.91631533  1
  P  P48  1  0.63904751  0.98000795  0.42082607  1
  P  P49  1  0.33559390  0.36108090  0.41674054  1
  P  P50  1  0.02695099  0.66066624  0.41794048  1
  O  O51  1  0.21922845  0.02654846  0.30349998  1
  O  O52  1  0.80889653  0.78183205  0.29743900  1
  O  O53  1  0.98553888  0.20350266  0.30484643  1
  O  O54  1  0.21562138  0.17701607  0.79970108  1
  O  O55  1  0.97241683  0.78335974  0.80464560  1
  O  O56  1  0.81759213  0.03250365  0.80744786  1
  O  O57  1  0.78615745  0.97023307  0.69061720  1
  O  O58  1  0.19745611  0.22347112  0.69090652  1
  O  O59  1  0.03088318  0.81016974  0.69444293  1
  O  O60  1  0.76947205  0.78241897  0.18902621  1
  O  O61  1  0.01820396  0.22260969  0.19492196  1
  O  O62  1  0.19859541  0.98232120  0.19443366  1
  O  O63  1  0.88747149  0.36530066  0.63873747  1
  O  O64  1  0.47842001  0.11592563  0.64275056  1
  O  O65  1  0.64638120  0.52844709  0.64311372  1
  O  O66  1  0.88156630  0.51671934  0.14165058  1
  O  O67  1  0.62821813  0.11785457  0.13359119  1
  O  O68  1  0.47365035  0.35772917  0.14201729  1
  O  O69  1  0.45350921  0.29701989  0.03273661  1
  O  O70  1  0.85068661  0.54692255  0.02459472  1
  O  O71  1  0.68928624  0.14016582  0.02404415  1
  O  O72  1  0.44511542  0.14933508  0.52615123  1
  O  O73  1  0.70299014  0.54664266  0.53366885  1
  O  O74  1  0.85566302  0.30892638  0.52858586  1
  O  O75  1  0.55961576  0.68915577  0.97066547  1
  O  O76  1  0.12323775  0.44230895  0.97210594  1
  O  O77  1  0.30719227  0.86547584  0.97088621  1
  O  O78  1  0.56281087  0.88314450  0.47774362  1
  O  O79  1  0.31509368  0.44499517  0.47181486  1
  O  O80  1  0.13574811  0.68416094  0.47227080  1
  O  O81  1  0.11274956  0.63857431  0.36331698  1
  O  O82  1  0.52440143  0.88650142  0.36928205  1
  O  O83  1  0.34891296  0.46343115  0.36196072  1
  O  O84  1  0.10978932  0.46427116  0.86251716  1
  O  O85  1  0.35822449  0.88963719  0.86237638  1
  O  O86  1  0.54245468  0.65396526  0.86110821  1
  O  O87  1  0.01651882  0.82141326  0.41348250  1
  O  O88  1  0.81702633  0.00691923  0.41460439  1
  O  O89  1  0.17601277  0.18529289  0.41376325  1
  O  O90  1  0.00043017  0.17948571  0.91420853  1
  O  O91  1  0.16991048  0.98262250  0.91116179  1
  O  O92  1  0.82062888  0.82819831  0.91333650  1
  O  O93  1  0.97315025  0.17008122  0.58737651  1
  O  O94  1  0.17675875  0.01671114  0.58802140  1
  O  O95  1  0.82620625  0.80672988  0.58844285  1
  O  O96  1  0.98513769  0.81719809  0.08546908  1
  O  O97  1  0.82574866  0.02915393  0.08708069  1
  O  O98  1  0.19373665  0.18224288  0.08886927  1
  O  O99  1  0.69000310  0.17387379  0.74677861  1
  O  O100  1  0.47756965  0.32215090  0.74484529  1
  O  O101  1  0.83528883  0.52874857  0.74479066  1
  O  O102  1  0.68041797  0.51257508  0.24650581  1
  O  O103  1  0.84334545  0.32848559  0.24850826  1
  O  O104  1  0.47743753  0.16661321  0.24526924  1
  O  O105  1  0.66668321  0.51334209  0.91818793  1
  O  O106  1  0.84690469  0.34127336  0.91874276  1
  O  O107  1  0.49460976  0.14610594  0.92085748  1
  O  O108  1  0.65232339  0.15416302  0.42132814  1
  O  O109  1  0.49020406  0.33833163  0.41877224  1
  O  O110  1  0.85582247  0.49872133  0.42252997  1
  O  O111  1  0.36302268  0.49401013  0.07837645  1
  O  O112  1  0.15092545  0.65007936  0.08018799  1
  O  O113  1  0.51327231  0.86024354  0.07694165  1
  O  O114  1  0.34244801  0.84802256  0.58142961  1
  O  O115  1  0.51143624  0.64239900  0.58063405  1
  O  O116  1  0.14058216  0.48329191  0.57854758  1
  O  O117  1  0.31624903  0.84417335  0.25339977  1
  O  O118  1  0.51589796  0.66039832  0.25226739  1
  O  O119  1  0.15768362  0.48185802  0.25302912  1
  O  O120  1  0.31030656  0.46730491  0.75514982  1
  O  O121  1  0.14913500  0.67547278  0.75500019  1
  O  O122  1  0.51712132  0.83823323  0.75230528  1
