# generated using pymatgen
data_Na4YGaSi2SO12
_symmetry_space_group_name_H-M   'P 1'
_cell_length_a   9.24059034
_cell_length_b   9.22443343
_cell_length_c   22.65453512
_cell_angle_alpha   89.63234644
_cell_angle_beta   90.15070539
_cell_angle_gamma   119.59867654
_symmetry_Int_Tables_number   1
_chemical_formula_structural   Na4YGaSi2SO12
_chemical_formula_sum   'Na24 Y6 Ga6 Si12 S6 O72'
_cell_volume   1679.02940062
_cell_formula_units_Z   6
loop_
 _symmetry_equiv_pos_site_id
 _symmetry_equiv_pos_as_xyz
  1  'x, y, z'
loop_
 _atom_site_type_symbol
 _atom_site_label
 _atom_site_symmetry_multiplicity
 _atom_site_fract_x
 _atom_site_fract_y
 _atom_site_fract_z
 _atom_site_occupancy
  Na  Na0  1  0.64050210  0.00120722  0.25457034  1
  Na  Na1  1  0.36192991  0.37334201  0.24562128  1
  Na  Na2  1  0.99624230  0.62508974  0.25627448  1
  Na  Na3  1  0.62583194  0.62839706  0.73633633  1
  Na  Na4  1  0.99570378  0.35167261  0.75166569  1
  Na  Na5  1  0.38196315  0.01408041  0.75110257  1
  Na  Na6  1  0.30865986  0.33052721  0.58903768  1
  Na  Na7  1  0.03737511  0.71532222  0.57696449  1
  Na  Na8  1  0.66425567  0.95456194  0.58830333  1
  Na  Na9  1  0.28790237  0.96821825  0.07655429  1
  Na  Na10  1  0.67065534  0.68627861  0.09110125  1
  Na  Na11  1  0.04672303  0.34127386  0.09001436  1
  Na  Na12  1  0.98736613  0.66568904  0.92299754  1
  Na  Na13  1  0.69712670  0.04563951  0.90632880  1
  Na  Na14  1  0.32020034  0.28544958  0.92118453  1
  Na  Na15  1  0.95590886  0.29988115  0.40931600  1
  Na  Na16  1  0.33020786  0.02293146  0.41934447  1
  Na  Na17  1  0.70806858  0.67125231  0.42058546  1
  Na  Na18  1  0.99277888  0.98096793  0.49927784  1
  Na  Na19  1  0.02522414  0.01115278  0.00067720  1
  Na  Na20  1  0.65863505  0.30979566  0.83043082  1
  Na  Na21  1  0.68102857  0.33915651  0.33449228  1
  Na  Na22  1  0.32292910  0.64541007  0.17145773  1
  Na  Na23  1  0.35508160  0.67612808  0.66498886  1
  Y  Y24  1  0.00755356  0.01451998  0.84549875  1
  Y  Y25  1  0.99738524  0.00130008  0.15694615  1
  Y  Y26  1  0.66624611  0.33315871  0.98518907  1
  Y  Y27  1  0.32145429  0.65614057  0.01948396  1
  Y  Y28  1  0.34144706  0.67975653  0.51605375  1
  Y  Y29  1  0.33373886  0.66752815  0.81246724  1
  Ga  Ga30  1  0.95514922  0.97575153  0.34923780  1
  Ga  Ga31  1  0.00150423  0.99989722  0.64753285  1
  Ga  Ga32  1  0.63394738  0.31120048  0.68133288  1
  Ga  Ga33  1  0.68881278  0.37537132  0.18775151  1
  Ga  Ga34  1  0.66541797  0.33471319  0.48410110  1
  Ga  Ga35  1  0.32859262  0.66947441  0.31943219  1
  Si  Si36  1  0.68590153  0.69630772  0.25306784  1
  Si  Si37  1  0.00024744  0.30353237  0.25372644  1
  Si  Si38  1  0.29959442  0.29384098  0.74280772  1
  Si  Si39  1  0.70872747  0.01113585  0.74125769  1
  Si  Si40  1  0.37073675  0.04650807  0.58278566  1
  Si  Si41  1  0.67600630  0.61955768  0.58533637  1
  Si  Si42  1  0.96504306  0.63397664  0.08598593  1
  Si  Si43  1  0.37662115  0.33270160  0.08923544  1
  Si  Si44  1  0.02772778  0.36077959  0.91517541  1
  Si  Si45  1  0.33296838  0.96960628  0.91616471  1
  Si  Si46  1  0.63037618  0.96998188  0.41496710  1
  Si  Si47  1  0.03182611  0.67111583  0.41389104  1
  S  S48  1  0.30094436  0.99852431  0.25392460  1
  S  S49  1  0.99396887  0.70089818  0.74589331  1
  S  S50  1  0.95211364  0.32820450  0.58313809  1
  S  S51  1  0.66675324  0.03758953  0.08743117  1
  S  S52  1  0.63592879  0.66817288  0.91623183  1
  S  S53  1  0.33310693  0.36792813  0.41507747  1
  O  O54  1  0.21685804  0.02424027  0.30466066  1
  O  O55  1  0.81918245  0.78318654  0.30732856  1
  O  O56  1  0.96806755  0.16919930  0.30858944  1
  O  O57  1  0.23067940  0.18961584  0.80431339  1
  O  O58  1  0.97039739  0.77381448  0.80084010  1
  O  O59  1  0.80683080  0.03910087  0.80404248  1
  O  O60  1  0.80652649  0.97547754  0.68702309  1
  O  O61  1  0.17147807  0.19376873  0.68791749  1
  O  O62  1  0.01925145  0.81077233  0.69423246  1
  O  O63  1  0.75732352  0.80758606  0.19311517  1
  O  O64  1  0.04432927  0.23735117  0.19362366  1
  O  O65  1  0.20139542  0.97233019  0.19892934  1
  O  O66  1  0.87730084  0.35541043  0.63609330  1
  O  O67  1  0.48807112  0.12194434  0.64108561  1
  O  O68  1  0.65499167  0.50415032  0.64389734  1
  O  O69  1  0.87418245  0.51137996  0.14343232  1
  O  O70  1  0.64596311  0.12123688  0.13893227  1
  O  O71  1  0.49734770  0.34673923  0.14615608  1
  O  O72  1  0.44653426  0.30479639  0.02681143  1
  O  O73  1  0.86243329  0.55630181  0.02507502  1
  O  O74  1  0.68719458  0.13186180  0.03160797  1
  O  O75  1  0.46185123  0.16639951  0.52422886  1
  O  O76  1  0.70457840  0.53543520  0.52481664  1
  O  O77  1  0.85255225  0.30771163  0.52862448  1
  O  O78  1  0.55768550  0.69097493  0.97004483  1
  O  O79  1  0.14257573  0.44481241  0.97378971  1
  O  O80  1  0.32042810  0.86443038  0.97633578  1
  O  O81  1  0.56375960  0.85374243  0.47399825  1
  O  O82  1  0.30439948  0.44114118  0.46931143  1
  O  O83  1  0.14388903  0.70911088  0.47373448  1
  O  O84  1  0.12686485  0.63480476  0.35869824  1
  O  O85  1  0.50377406  0.87608593  0.35877426  1
  O  O86  1  0.35837572  0.47765819  0.36316718  1
  O  O87  1  0.11937785  0.47227795  0.85639140  1
  O  O88  1  0.36090492  0.88289230  0.85756426  1
  O  O89  1  0.53286894  0.64908970  0.86317348  1
  O  O90  1  0.01755312  0.84513084  0.40446007  1
  O  O91  1  0.82050581  0.99354161  0.40858240  1
  O  O92  1  0.18691222  0.19951826  0.40879349  1
  O  O93  1  0.00250612  0.17222451  0.91554513  1
  O  O94  1  0.15615331  0.97096087  0.91485522  1
  O  O95  1  0.80167007  0.81501862  0.91108892  1
  O  O96  1  0.96839501  0.17461100  0.58609423  1
  O  O97  1  0.18158157  0.02874400  0.58839458  1
  O  O98  1  0.84221738  0.81158431  0.59022132  1
  O  O99  1  0.98030981  0.81806202  0.08995481  1
  O  O100  1  0.82037806  0.02297209  0.08993470  1
  O  O101  1  0.18729797  0.17223184  0.09180904  1
  O  O102  1  0.69848241  0.18688952  0.73551813  1
  O  O103  1  0.49011265  0.31852162  0.74061921  1
  O  O104  1  0.84918205  0.53289215  0.74115101  1
  O  O105  1  0.67098906  0.50911832  0.24881329  1
  O  O106  1  0.82355200  0.31362690  0.24668035  1
  O  O107  1  0.46966693  0.14558996  0.24828779  1
  O  O108  1  0.64806163  0.51550441  0.91897775  1
  O  O109  1  0.84593657  0.35001566  0.91646934  1
  O  O110  1  0.49404714  0.15818239  0.91625304  1
  O  O111  1  0.64582429  0.15721868  0.42349958  1
  O  O112  1  0.48886524  0.35693698  0.41989449  1
  O  O113  1  0.84469913  0.50018951  0.42085215  1
  O  O114  1  0.37211931  0.50892367  0.08912033  1
  O  O115  1  0.15148326  0.65339418  0.08717269  1
  O  O116  1  0.52005672  0.86866741  0.08333419  1
  O  O117  1  0.34542692  0.85660257  0.58074821  1
  O  O118  1  0.50380826  0.63313733  0.58296035  1
  O  O119  1  0.12367399  0.47578008  0.57779164  1
  O  O120  1  0.31437646  0.84304447  0.25795286  1
  O  O121  1  0.50038353  0.67788312  0.26372506  1
  O  O122  1  0.16575318  0.49081416  0.26316255  1
  O  O123  1  0.31490610  0.47914808  0.74436347  1
  O  O124  1  0.14900305  0.68821421  0.74886158  1
  O  O125  1  0.52174297  0.84567334  0.74394385  1
