# generated using pymatgen
data_Sn3(PO4)2
_symmetry_space_group_name_H-M   'P 1'
_cell_length_a   4.84567482
_cell_length_b   11.11051549
_cell_length_c   16.41405811
_cell_angle_alpha   86.14057870
_cell_angle_beta   90.00000000
_cell_angle_gamma   90.00000000
_symmetry_Int_Tables_number   1
_chemical_formula_structural   Sn3(PO4)2
_chemical_formula_sum   'Sn12 P8 O32'
_cell_volume   881.69510662
_cell_formula_units_Z   4
loop_
 _symmetry_equiv_pos_site_id
 _symmetry_equiv_pos_as_xyz
  1  'x, y, z'
loop_
 _atom_site_type_symbol
 _atom_site_label
 _atom_site_symmetry_multiplicity
 _atom_site_fract_x
 _atom_site_fract_y
 _atom_site_fract_z
 _atom_site_occupancy
  Sn  Sn0  1  0.87237613  0.14452155  0.03799808  1
  Sn  Sn1  1  0.37237613  0.85547845  0.46200192  1
  Sn  Sn2  1  0.12762387  0.85547845  0.96200192  1
  Sn  Sn3  1  0.62762387  0.14452155  0.53799808  1
  Sn  Sn4  1  0.71870634  0.47920592  0.36274693  1
  Sn  Sn5  1  0.21870634  0.52079408  0.13725307  1
  Sn  Sn6  1  0.28129366  0.52079408  0.63725307  1
  Sn  Sn7  1  0.78129366  0.47920592  0.86274693  1
  Sn  Sn8  1  0.75558062  0.79998843  0.21490248  1
  Sn  Sn9  1  0.25558062  0.20001157  0.28509752  1
  Sn  Sn10  1  0.24441938  0.20001157  0.78509752  1
  Sn  Sn11  1  0.74441938  0.79998843  0.71490248  1
  P  P12  1  0.69341263  0.64831107  0.02630440  1
  P  P13  1  0.19341263  0.35168893  0.47369560  1
  P  P14  1  0.30658737  0.35168893  0.97369560  1
  P  P15  1  0.80658737  0.64831107  0.52630440  1
  P  P16  1  0.78938757  0.02243227  0.35184738  1
  P  P17  1  0.28938757  0.97756773  0.14815262  1
  P  P18  1  0.21061243  0.97756773  0.64815262  1
  P  P19  1  0.71061243  0.02243227  0.85184738  1
  O  O20  1  0.38232743  0.64956491  0.04739177  1
  O  O21  1  0.88232743  0.35043509  0.45260823  1
  O  O22  1  0.61767257  0.35043509  0.95260823  1
  O  O23  1  0.11767257  0.64956491  0.54739177  1
  O  O24  1  0.73573575  0.62528843  0.93618116  1
  O  O25  1  0.23573575  0.37471157  0.56381884  1
  O  O26  1  0.26426425  0.37471157  0.06381884  1
  O  O27  1  0.76426425  0.62528843  0.43618116  1
  O  O28  1  0.82546904  0.55023349  0.08406024  1
  O  O29  1  0.32546904  0.44976651  0.41593976  1
  O  O30  1  0.17453096  0.44976651  0.91593976  1
  O  O31  1  0.67453096  0.55023349  0.58406024  1
  O  O32  1  0.81421771  0.77368604  0.04037234  1
  O  O33  1  0.31421771  0.22631396  0.45962766  1
  O  O34  1  0.18578229  0.22631396  0.95962766  1
  O  O35  1  0.68578229  0.77368604  0.54037234  1
  O  O36  1  0.10151306  0.04391049  0.35198004  1
  O  O37  1  0.60151306  0.95608951  0.14801996  1
  O  O38  1  0.89848694  0.95608951  0.64801996  1
  O  O39  1  0.39848694  0.04391049  0.85198004  1
  O  O40  1  0.84178132  0.12936909  0.80236542  1
  O  O41  1  0.34178132  0.87063091  0.69763458  1
  O  O42  1  0.15821868  0.87063091  0.19763458  1
  O  O43  1  0.65821868  0.12936909  0.30236542  1
  O  O44  1  0.82319812  0.01397661  0.94111438  1
  O  O45  1  0.32319812  0.98602339  0.55888562  1
  O  O46  1  0.17680188  0.98602339  0.05888562  1
  O  O47  1  0.67680188  0.01397661  0.44111438  1
  O  O48  1  0.78588952  0.89973276  0.82137659  1
  O  O49  1  0.28588952  0.10026724  0.67862341  1
  O  O50  1  0.21411048  0.10026724  0.17862341  1
  O  O51  1  0.71411048  0.89973276  0.32137659  1
