# generated using pymatgen
data_Na6Ta3Al(SiO4)6
_symmetry_space_group_name_H-M   'P 1'
_cell_length_a   8.97460899
_cell_length_b   8.97546374
_cell_length_c   22.25985931
_cell_angle_alpha   90.04564804
_cell_angle_beta   90.00442816
_cell_angle_gamma   119.97078573
_symmetry_Int_Tables_number   1
_chemical_formula_structural   Na6Ta3Al(SiO4)6
_chemical_formula_sum   'Na18 Ta9 Al3 Si18 O72'
_cell_volume   1553.29180058
_cell_formula_units_Z   3
loop_
 _symmetry_equiv_pos_site_id
 _symmetry_equiv_pos_as_xyz
  1  'x, y, z'
loop_
 _atom_site_type_symbol
 _atom_site_label
 _atom_site_symmetry_multiplicity
 _atom_site_fract_x
 _atom_site_fract_y
 _atom_site_fract_z
 _atom_site_occupancy
  Na  Na0  1  0.00902166  0.00062686  0.49781763  1
  Na  Na1  1  0.98883535  0.98966961  0.99661811  1
  Na  Na2  1  0.66661850  0.33249009  0.83278744  1
  Na  Na3  1  0.66678136  0.33285386  0.32566649  1
  Na  Na4  1  0.34498599  0.66771195  0.16336634  1
  Na  Na5  1  0.32262886  0.65628848  0.66502136  1
  Na  Na6  1  0.63625412  0.01275085  0.24459785  1
  Na  Na7  1  0.37579387  0.36292263  0.24375731  1
  Na  Na8  1  0.98786205  0.62347743  0.24419254  1
  Na  Na9  1  0.63536822  0.62371086  0.74521310  1
  Na  Na10  1  0.98735502  0.36354359  0.74564710  1
  Na  Na11  1  0.37706551  0.01156803  0.74613916  1
  Na  Na12  1  0.66615926  0.96932766  0.58693532  1
  Na  Na13  1  0.30452921  0.97400686  0.08380597  1
  Na  Na14  1  0.02896138  0.33603338  0.08389283  1
  Na  Na15  1  0.96591121  0.28826340  0.41136095  1
  Na  Na16  1  0.32299850  0.03301380  0.41152513  1
  Na  Na17  1  0.71122477  0.67837573  0.41185231  1
  Ta  Ta18  1  0.00098291  0.00075427  0.85572599  1
  Ta  Ta19  1  0.00428818  0.00020687  0.64307676  1
  Ta  Ta20  1  0.99608795  0.99657862  0.14548282  1
  Ta  Ta21  1  0.66724263  0.33445824  0.97710936  1
  Ta  Ta22  1  0.66645962  0.33452563  0.48073554  1
  Ta  Ta23  1  0.33750816  0.66695589  0.02166936  1
  Ta  Ta24  1  0.32959115  0.66291755  0.52339324  1
  Ta  Ta25  1  0.33288730  0.66650781  0.31109910  1
  Ta  Ta26  1  0.33390689  0.66692044  0.81302660  1
  Al  Al27  1  0.99950577  0.99973088  0.35197861  1
  Al  Al28  1  0.66715671  0.33395883  0.68739396  1
  Al  Al29  1  0.66613345  0.33331996  0.18730827  1
  Si  Si30  1  0.28959404  0.00649192  0.25286360  1
  Si  Si31  1  0.71661194  0.70986768  0.25354702  1
  Si  Si32  1  0.99371836  0.28290664  0.25254399  1
  Si  Si33  1  0.29415170  0.28896536  0.74875773  1
  Si  Si34  1  0.99436045  0.70517752  0.74917860  1
  Si  Si35  1  0.71098352  0.00511678  0.74828051  1
  Si  Si36  1  0.95209953  0.33700244  0.58792561  1
  Si  Si37  1  0.38238025  0.05048677  0.58669896  1
  Si  Si38  1  0.66541020  0.61575602  0.58776138  1
  Si  Si39  1  0.94676303  0.61554380  0.08685971  1
  Si  Si40  1  0.66566693  0.05091558  0.08707075  1
  Si  Si41  1  0.38783670  0.33738072  0.08782960  1
  Si  Si42  1  0.62489804  0.66673582  0.91603580  1
  Si  Si43  1  0.04238765  0.37605763  0.91700545  1
  Si  Si44  1  0.33298707  0.95710906  0.91742846  1
  Si  Si45  1  0.62871815  0.95695125  0.41666959  1
  Si  Si46  1  0.32860697  0.37162747  0.41546757  1
  Si  Si47  1  0.04363434  0.67193573  0.41591878  1
  O  O48  1  0.19797388  0.03302909  0.31111648  1
  O  O49  1  0.83349643  0.79904309  0.31231266  1
  O  O50  1  0.96619252  0.16466370  0.31088148  1
  O  O51  1  0.19794459  0.16253678  0.80632281  1
  O  O52  1  0.96570029  0.80286924  0.80656007  1
  O  O53  1  0.83944297  0.03393038  0.80510960  1
  O  O54  1  0.79561235  0.96383764  0.68920660  1
  O  O55  1  0.16033054  0.19773016  0.69197744  1
  O  O56  1  0.03482223  0.83811717  0.69221239  1
  O  O57  1  0.80587690  0.83976044  0.19534984  1
  O  O58  1  0.03487351  0.20053762  0.19243139  1
  O  O59  1  0.16643471  0.96676524  0.19267089  1
  O  O60  1  0.86296297  0.35902799  0.64639617  1
  O  O61  1  0.50307704  0.13475651  0.64413486  1
  O  O62  1  0.64002949  0.50253187  0.64580144  1
  O  O63  1  0.86571245  0.49770906  0.14580212  1
  O  O64  1  0.63213861  0.13296923  0.14653764  1
  O  O65  1  0.49567640  0.35984923  0.14796518  1
  O  O66  1  0.47307174  0.29972697  0.02878524  1
  O  O67  1  0.83146321  0.52586902  0.02699577  1
  O  O68  1  0.70042331  0.17219542  0.02793567  1
  O  O69  1  0.47095945  0.16261663  0.52434739  1
  O  O70  1  0.69057692  0.52838188  0.52521398  1
  O  O71  1  0.83412795  0.30587870  0.52602138  1
  O  O72  1  0.52350673  0.68969932  0.97381446  1
  O  O73  1  0.15970758  0.47093907  0.97685067  1
  O  O74  1  0.30898122  0.83920875  0.97711671  1
  O  O75  1  0.53415517  0.83482623  0.47514122  1
  O  O76  1  0.30206429  0.47310330  0.47213862  1
  O  O77  1  0.17252568  0.70010817  0.47235930  1
  O  O78  1  0.13142160  0.63188900  0.35707345  1
  O  O79  1  0.49866153  0.86545902  0.35843503  1
  O  O80  1  0.36760270  0.49922381  0.35681777  1
  O  O81  1  0.13832622  0.49456763  0.85732375  1
  O  O82  1  0.35665427  0.86184140  0.85758301  1
  O  O83  1  0.50781450  0.64275741  0.85583915  1
  O  O84  1  0.02504227  0.84090134  0.41049359  1
  O  O85  1  0.81669532  0.97628162  0.41030910  1
  O  O86  1  0.15960436  0.18401961  0.41027751  1
  O  O87  1  0.02782725  0.18833347  0.91081731  1
  O  O88  1  0.16032279  0.97216992  0.91093172  1
  O  O89  1  0.81206891  0.83989751  0.91079909  1
  O  O90  1  0.96429630  0.15913362  0.58890449  1
  O  O91  1  0.18991360  0.02848759  0.58833506  1
  O  O92  1  0.83350315  0.81301608  0.58864551  1
  O  O93  1  0.98003802  0.81423561  0.08988795  1
  O  O94  1  0.84095747  0.03426521  0.09055726  1
  O  O95  1  0.19065887  0.16365758  0.09076906  1
  O  O96  1  0.68891606  0.17247589  0.74446143  1
  O  O97  1  0.48205530  0.30848155  0.74323404  1
  O  O98  1  0.82686626  0.51664676  0.74433312  1
  O  O99  1  0.69143829  0.51907323  0.24515381  1
  O  O100  1  0.82818170  0.30920908  0.24510357  1
  O  O101  1  0.48192724  0.17113781  0.24613267  1
  O  O102  1  0.63878561  0.49395974  0.92211038  1
  O  O103  1  0.85406706  0.35954791  0.92152254  1
  O  O104  1  0.50554178  0.14452437  0.92242878  1
  O  O105  1  0.64252425  0.14691841  0.42118027  1
  O  O106  1  0.50451091  0.35838638  0.42115472  1
  O  O107  1  0.85483021  0.49593496  0.42190440  1
  O  O108  1  0.35155278  0.50021653  0.07992875  1
  O  O109  1  0.14373290  0.64109615  0.07947449  1
  O  O110  1  0.49278497  0.85883166  0.07918667  1
  O  O111  1  0.36720006  0.86004127  0.57700550  1
  O  O112  1  0.49865428  0.64618243  0.57808938  1
  O  O113  1  0.14469329  0.50517754  0.57785829  1
  O  O114  1  0.30520871  0.82787777  0.25597793  1
  O  O115  1  0.52320670  0.69517203  0.25582366  1
  O  O116  1  0.17199876  0.47701877  0.25595023  1
  O  O117  1  0.30833624  0.47940693  0.75414618  1
  O  O118  1  0.17102908  0.69123451  0.75415028  1
  O  O119  1  0.51977291  0.82899466  0.75433998  1
