# generated using pymatgen
data_CaSn(SO4)3
_symmetry_space_group_name_H-M   'P 1'
_cell_length_a   9.07619049
_cell_length_b   9.07619019
_cell_length_c   22.71245516
_cell_angle_alpha   90.00000000
_cell_angle_beta   90.00000000
_cell_angle_gamma   120.00000114
_symmetry_Int_Tables_number   1
_chemical_formula_structural   CaSn(SO4)3
_chemical_formula_sum   'Ca6 Sn6 S18 O72'
_cell_volume   1620.32412968
_cell_formula_units_Z   6
loop_
 _symmetry_equiv_pos_site_id
 _symmetry_equiv_pos_as_xyz
  1  'x, y, z'
loop_
 _atom_site_type_symbol
 _atom_site_label
 _atom_site_symmetry_multiplicity
 _atom_site_fract_x
 _atom_site_fract_y
 _atom_site_fract_z
 _atom_site_occupancy
  Ca  Ca0  1  -0.00000000  0.00000000  0.36284135  1
  Ca  Ca1  1  -0.00000000  0.00000000  0.86284135  1
  Ca  Ca2  1  0.66666700  0.33333300  0.69617435  1
  Ca  Ca3  1  0.66666700  0.33333300  0.19617435  1
  Ca  Ca4  1  0.33333300  0.66666700  0.02950835  1
  Ca  Ca5  1  0.33333300  0.66666700  0.52950835  1
  Sn  Sn6  1  -0.00000000  0.00000000  0.65074996  1
  Sn  Sn7  1  -0.00000000  0.00000000  0.15074996  1
  Sn  Sn8  1  0.66666700  0.33333300  0.98408296  1
  Sn  Sn9  1  0.66666700  0.33333300  0.48408296  1
  Sn  Sn10  1  0.33333300  0.66666700  0.31741696  1
  Sn  Sn11  1  0.33333300  0.66666700  0.81741696  1
  S  S12  1  0.27509064  0.97071732  0.25094755  1
  S  S13  1  0.69562668  0.72490936  0.25094755  1
  S  S14  1  0.02928268  0.30437332  0.25094755  1
  S  S15  1  0.27509064  0.30437332  0.75094755  1
  S  S16  1  0.02928268  0.72490936  0.75094755  1
  S  S17  1  0.69562668  0.97071732  0.75094755  1
  S  S18  1  0.94175764  0.30405032  0.58428055  1
  S  S19  1  0.36229368  0.05824236  0.58428055  1
  S  S20  1  0.69594968  0.63770632  0.58428055  1
  S  S21  1  0.94175764  0.63770632  0.08428055  1
  S  S22  1  0.69594968  0.05824236  0.08428055  1
  S  S23  1  0.36229368  0.30405032  0.08428055  1
  S  S24  1  0.60842364  0.63738432  0.91761455  1
  S  S25  1  0.02895968  0.39157636  0.91761455  1
  S  S26  1  0.36261568  0.97104032  0.91761455  1
  S  S27  1  0.60842364  0.97104032  0.41761455  1
  S  S28  1  0.36261568  0.39157636  0.41761455  1
  S  S29  1  0.02895968  0.63738432  0.41761455  1
  O  O30  1  0.19521737  0.99691825  0.30178403  1
  O  O31  1  0.80170088  0.80478263  0.30178403  1
  O  O32  1  0.00308175  0.19829912  0.30178403  1
  O  O33  1  0.19521737  0.19829912  0.80178403  1
  O  O34  1  0.00308175  0.80478263  0.80178403  1
  O  O35  1  0.80170088  0.99691825  0.80178403  1
  O  O36  1  0.77149238  0.93739979  0.69517676  1
  O  O37  1  0.16590741  0.22850762  0.69517676  1
  O  O38  1  0.06260021  0.83409259  0.69517676  1
  O  O39  1  0.77149238  0.83409259  0.19517676  1
  O  O40  1  0.06260021  0.22850762  0.19517676  1
  O  O41  1  0.16590741  0.93739979  0.19517676  1
  O  O42  1  0.86188437  0.33025125  0.63511703  1
  O  O43  1  0.46836788  0.13811563  0.63511703  1
  O  O44  1  0.66974875  0.53163212  0.63511703  1
  O  O45  1  0.86188437  0.53163212  0.13511703  1
  O  O46  1  0.66974875  0.13811563  0.13511703  1
  O  O47  1  0.46836788  0.33025125  0.13511703  1
  O  O48  1  0.43815938  0.27073279  0.02850976  1
  O  O49  1  0.83257441  0.56184062  0.02850976  1
  O  O50  1  0.72926721  0.16742559  0.02850976  1
  O  O51  1  0.43815938  0.16742559  0.52850976  1
  O  O52  1  0.72926721  0.56184062  0.52850976  1
  O  O53  1  0.83257441  0.27073279  0.52850976  1
  O  O54  1  0.52855037  0.66358525  0.96845103  1
  O  O55  1  0.13503388  0.47144963  0.96845103  1
  O  O56  1  0.33641475  0.86496612  0.96845103  1
  O  O57  1  0.52855037  0.86496612  0.46845103  1
  O  O58  1  0.33641475  0.47144963  0.46845103  1
  O  O59  1  0.13503388  0.66358525  0.46845103  1
  O  O60  1  0.10482538  0.60406679  0.36184376  1
  O  O61  1  0.49924041  0.89517462  0.36184376  1
  O  O62  1  0.39593321  0.50075959  0.36184376  1
  O  O63  1  0.10482538  0.50075959  0.86184376  1
  O  O64  1  0.39593321  0.89517462  0.86184376  1
  O  O65  1  0.49924041  0.60406679  0.86184376  1
  O  O66  1  0.00043485  0.77955920  0.40800726  1
  O  O67  1  0.77912435  0.99956515  0.40800726  1
  O  O68  1  0.22044080  0.22087565  0.40800726  1
  O  O69  1  0.00043485  0.22087565  0.90800726  1
  O  O70  1  0.22044080  0.99956515  0.90800726  1
  O  O71  1  0.77912435  0.77955920  0.90800726  1
  O  O72  1  0.94779363  0.14058448  0.58955396  1
  O  O73  1  0.19279084  0.05220637  0.58955396  1
  O  O74  1  0.85941552  0.80720916  0.58955396  1
  O  O75  1  0.94779363  0.80720916  0.08955396  1
  O  O76  1  0.85941552  0.05220637  0.08955396  1
  O  O77  1  0.19279084  0.14058448  0.08955396  1
  O  O78  1  0.66710185  0.11289220  0.74134026  1
  O  O79  1  0.44579135  0.33289815  0.74134026  1
  O  O80  1  0.88710780  0.55420865  0.74134026  1
  O  O81  1  0.66710185  0.55420865  0.24134026  1
  O  O82  1  0.88710780  0.33289815  0.24134026  1
  O  O83  1  0.44579135  0.11289220  0.24134026  1
  O  O84  1  0.61446063  0.47391748  0.92288696  1
  O  O85  1  0.85945784  0.38553937  0.92288696  1
  O  O86  1  0.52608252  0.14054216  0.92288696  1
  O  O87  1  0.61446063  0.14054216  0.42288696  1
  O  O88  1  0.52608252  0.38553937  0.42288696  1
  O  O89  1  0.85945784  0.47391748  0.42288696  1
  O  O90  1  0.33376785  0.44622620  0.07467426  1
  O  O91  1  0.11245735  0.66623215  0.07467426  1
  O  O92  1  0.55377380  0.88754265  0.07467426  1
  O  O93  1  0.33376785  0.88754265  0.57467426  1
  O  O94  1  0.55377380  0.66623215  0.57467426  1
  O  O95  1  0.11245735  0.44622620  0.57467426  1
  O  O96  1  0.28112663  0.80725148  0.25622096  1
  O  O97  1  0.52612384  0.71887337  0.25622096  1
  O  O98  1  0.19274852  0.47387616  0.25622096  1
  O  O99  1  0.28112663  0.47387616  0.75622096  1
  O  O100  1  0.19274852  0.71887337  0.75622096  1
  O  O101  1  0.52612384  0.80725148  0.75622096  1
