# generated using pymatgen
data_NaCa2Nb2P3(SO8)3
_symmetry_space_group_name_H-M   'P 1'
_cell_length_a   9.02809965
_cell_length_b   9.01682566
_cell_length_c   23.27934414
_cell_angle_alpha   90.19413360
_cell_angle_beta   89.85496105
_cell_angle_gamma   120.03979275
_symmetry_Int_Tables_number   1
_chemical_formula_structural   NaCa2Nb2P3(SO8)3
_chemical_formula_sum   'Na3 Ca6 Nb6 P9 S9 O72'
_cell_volume   1640.49311324
_cell_formula_units_Z   3
loop_
 _symmetry_equiv_pos_site_id
 _symmetry_equiv_pos_as_xyz
  1  'x, y, z'
loop_
 _atom_site_type_symbol
 _atom_site_label
 _atom_site_symmetry_multiplicity
 _atom_site_fract_x
 _atom_site_fract_y
 _atom_site_fract_z
 _atom_site_occupancy
  Na  Na0  1  0.98403712  0.00000440  0.99974633  1
  Na  Na1  1  0.68209003  0.35052751  0.83501732  1
  Na  Na2  1  0.65679472  0.32510317  0.34133595  1
  Ca  Ca3  1  0.99447666  0.99855956  0.85913046  1
  Ca  Ca4  1  0.99603824  0.99735840  0.14607125  1
  Ca  Ca5  1  0.67817228  0.33747045  0.68054585  1
  Ca  Ca6  1  0.67152600  0.33781958  0.97444920  1
  Ca  Ca7  1  0.66943649  0.32670699  0.48642251  1
  Ca  Ca8  1  0.33926805  0.66904722  0.30854331  1
  Nb  Nb9  1  0.99711983  0.99266452  0.35522610  1
  Nb  Nb10  1  0.00102255  0.99725907  0.64788932  1
  Nb  Nb11  1  0.66048871  0.32267491  0.19051132  1
  Nb  Nb12  1  0.33922728  0.66584181  0.02516239  1
  Nb  Nb13  1  0.33442665  0.65653463  0.51341182  1
  Nb  Nb14  1  0.32582047  0.65966438  0.81051087  1
  P  P15  1  0.28695514  0.00645142  0.24966919  1
  P  P16  1  0.71773473  0.70346698  0.24905106  1
  P  P17  1  0.00322705  0.71220769  0.75252878  1
  P  P18  1  0.97608040  0.33514666  0.58371442  1
  P  P19  1  0.66250586  0.04467226  0.08092902  1
  P  P20  1  0.60948951  0.66620823  0.91613088  1
  P  P21  1  0.05539847  0.38880183  0.91809501  1
  P  P22  1  0.62812813  0.95726431  0.41406799  1
  P  P23  1  0.32911807  0.36597450  0.41239399  1
  S  S24  1  0.98840984  0.28288460  0.25063677  1
  S  S25  1  0.28900089  0.29216646  0.75100015  1
  S  S26  1  0.70475820  0.99316532  0.75087379  1
  S  S27  1  0.35939249  0.02248623  0.58367504  1
  S  S28  1  0.66478893  0.64024495  0.58356011  1
  S  S29  1  0.96107193  0.61927010  0.08232541  1
  S  S30  1  0.38192257  0.33972729  0.08276382  1
  S  S31  1  0.33325436  0.94246508  0.91702828  1
  S  S32  1  0.04469937  0.67187299  0.41545593  1
  O  O33  1  0.19813497  0.03919064  0.30404600  1
  O  O34  1  0.84132477  0.79900902  0.30379795  1
  O  O35  1  0.95625650  0.16973557  0.30207564  1
  O  O36  1  0.21146329  0.19374386  0.80230141  1
  O  O37  1  0.98428749  0.79776261  0.80469261  1
  O  O38  1  0.80859532  0.02286081  0.80156465  1
  O  O39  1  0.79412025  0.97065875  0.69875641  1
  O  O40  1  0.17804583  0.20693690  0.69896915  1
  O  O41  1  0.02634363  0.83116011  0.69769593  1
  O  O42  1  0.79619997  0.80573589  0.19650821  1
  O  O43  1  0.01145761  0.21114936  0.19826566  1
  O  O44  1  0.19665224  0.99632085  0.19549774  1
  O  O45  1  0.91347495  0.38143860  0.63670597  1
  O  O46  1  0.46367231  0.09171431  0.63483865  1
  O  O47  1  0.62486164  0.53388930  0.63426060  1
  O  O48  1  0.87829380  0.51151900  0.13425278  1
  O  O49  1  0.63791938  0.13826867  0.13675456  1
  O  O50  1  0.48989749  0.36596271  0.13516948  1
  O  O51  1  0.45953537  0.31925049  0.03128592  1
  O  O52  1  0.85988865  0.54392091  0.03102145  1
  O  O53  1  0.67969905  0.14779105  0.02889015  1
  O  O54  1  0.42149553  0.13350322  0.53399819  1
  O  O55  1  0.70992448  0.57726678  0.53313481  1
  O  O56  1  0.86383976  0.28189847  0.53170397  1
  O  O57  1  0.50789124  0.67222742  0.97187238  1
  O  O58  1  0.16290842  0.49434349  0.97146308  1
  O  O59  1  0.32490456  0.84331539  0.96950851  1
  O  O60  1  0.52935122  0.83439705  0.46892483  1
  O  O61  1  0.30655673  0.46740481  0.46848633  1
  O  O62  1  0.15610763  0.69573284  0.46798454  1
  O  O63  1  0.11815175  0.64479917  0.36452310  1
  O  O64  1  0.52048816  0.87673977  0.36276034  1
  O  O65  1  0.34926743  0.47405719  0.36210136  1
  O  O66  1  0.15717060  0.49659980  0.86131690  1
  O  O67  1  0.34100709  0.85085761  0.86339408  1
  O  O68  1  0.50273760  0.66471189  0.86172189  1
  O  O69  1  0.04000019  0.83770683  0.41043277  1
  O  O70  1  0.80644680  0.96085602  0.40540411  1
  O  O71  1  0.15554375  0.18928085  0.40564043  1
  O  O72  1  0.05335228  0.22081180  0.91902078  1
  O  O73  1  0.17776653  0.95341334  0.91701554  1
  O  O74  1  0.77967996  0.82993391  0.91953620  1
  O  O75  1  0.00416571  0.17718729  0.60211348  1
  O  O76  1  0.18179072  0.00141146  0.59795036  1
  O  O77  1  0.81672596  0.81837574  0.59732013  1
  O  O78  1  0.99684990  0.79485559  0.08816366  1
  O  O79  1  0.80608047  0.00813432  0.08814574  1
  O  O80  1  0.20759878  0.19991688  0.08894295  1
  O  O81  1  0.67291686  0.13466942  0.74193614  1
  O  O82  1  0.46103609  0.32199205  0.74169750  1
  O  O83  1  0.85724766  0.53277442  0.74319201  1
  O  O84  1  0.71273721  0.52133827  0.23964825  1
  O  O85  1  0.82033674  0.29112577  0.24410258  1
  O  O86  1  0.47626517  0.18397409  0.24134656  1
  O  O87  1  0.61173366  0.50025352  0.91355548  1
  O  O88  1  0.88581552  0.38249766  0.91331225  1
  O  O89  1  0.48932508  0.10871295  0.91574743  1
  O  O90  1  0.66514830  0.13707909  0.42499273  1
  O  O91  1  0.47587733  0.33771960  0.42557283  1
  O  O92  1  0.87105712  0.53190942  0.42538300  1
  O  O93  1  0.37107343  0.50430351  0.07693903  1
  O  O94  1  0.13458112  0.62887377  0.07500699  1
  O  O95  1  0.48935877  0.86152000  0.07326086  1
  O  O96  1  0.32933084  0.84816866  0.57064207  1
  O  O97  1  0.51664079  0.66758858  0.57120590  1
  O  O98  1  0.15921316  0.49033883  0.56641830  1
  O  O99  1  0.32692143  0.86962749  0.26075671  1
  O  O100  1  0.53962357  0.65900600  0.26097293  1
  O  O101  1  0.12298043  0.45493571  0.25992935  1
  O  O102  1  0.29925179  0.46611723  0.75645003  1
  O  O103  1  0.17583375  0.70285437  0.76011525  1
  O  O104  1  0.53521945  0.82981372  0.75667680  1
