# generated using pymatgen
data_Na5Sc3NbSiP5O24
_symmetry_space_group_name_H-M   'P 1'
_cell_length_a   8.99756741
_cell_length_b   9.00804655
_cell_length_c   22.76439750
_cell_angle_alpha   90.02739684
_cell_angle_beta   89.98007584
_cell_angle_gamma   120.02152663
_symmetry_Int_Tables_number   1
_chemical_formula_structural   Na5Sc3NbSiP5O24
_chemical_formula_sum   'Na15 Sc9 Nb3 Si3 P15 O72'
_cell_volume   1597.52706003
_cell_formula_units_Z   3
loop_
 _symmetry_equiv_pos_site_id
 _symmetry_equiv_pos_as_xyz
  1  'x, y, z'
loop_
 _atom_site_type_symbol
 _atom_site_label
 _atom_site_symmetry_multiplicity
 _atom_site_fract_x
 _atom_site_fract_y
 _atom_site_fract_z
 _atom_site_occupancy
  Na  Na0  1  0.63621608  0.99973261  0.25088248  1
  Na  Na1  1  0.36353204  0.36377632  0.25038328  1
  Na  Na2  1  0.00044159  0.63612256  0.25060318  1
  Na  Na3  1  0.30359200  0.33664743  0.58592572  1
  Na  Na4  1  0.03212507  0.70063951  0.58459533  1
  Na  Na5  1  0.66645510  0.96419059  0.58464130  1
  Na  Na6  1  0.29855479  0.96294287  0.08155569  1
  Na  Na7  1  0.97366995  0.67367666  0.91488421  1
  Na  Na8  1  0.70135187  0.02617807  0.91366383  1
  Na  Na9  1  0.99794721  0.99791260  0.49715072  1
  Na  Na10  1  0.00443598  0.01058752  0.99823078  1
  Na  Na11  1  0.65906358  0.33181522  0.82665643  1
  Na  Na12  1  0.66669893  0.33224491  0.33492525  1
  Na  Na13  1  0.33369886  0.65912528  0.16298250  1
  Na  Na14  1  0.33691869  0.66601510  0.66820129  1
  Sc  Sc15  1  0.99912057  0.99967800  0.35418798  1
  Sc  Sc16  1  0.00972842  0.00947505  0.85046192  1
  Sc  Sc17  1  0.99656869  0.99681746  0.65227474  1
  Sc  Sc18  1  0.99379752  0.00038755  0.14630139  1
  Sc  Sc19  1  0.66462222  0.33624005  0.68774694  1
  Sc  Sc20  1  0.66829758  0.33566160  0.18243670  1
  Sc  Sc21  1  0.32879200  0.65863268  0.01797290  1
  Sc  Sc22  1  0.33680750  0.66686427  0.51541316  1
  Sc  Sc23  1  0.33382676  0.66719630  0.31970001  1
  Nb  Nb24  1  0.66418309  0.33159101  0.97900781  1
  Nb  Nb25  1  0.66836919  0.33865867  0.47901990  1
  Nb  Nb26  1  0.32987068  0.66736878  0.81246859  1
  Si  Si27  1  0.66613975  0.62691280  0.58459833  1
  Si  Si28  1  0.04597742  0.37279794  0.91753280  1
  Si  Si29  1  0.32903584  0.95548451  0.91837278  1
  P  P30  1  0.29111636  0.99954579  0.24946499  1
  P  P31  1  0.70852605  0.70908560  0.25029686  1
  P  P32  1  0.00055466  0.29132366  0.25023480  1
  P  P33  1  0.29467542  0.29477939  0.74962950  1
  P  P34  1  0.99884753  0.70589734  0.75102890  1
  P  P35  1  0.70535737  0.00012395  0.75098589  1
  P  P36  1  0.95612778  0.33432973  0.58327063  1
  P  P37  1  0.37826517  0.04421539  0.58321414  1
  P  P38  1  0.95967788  0.62633828  0.08373922  1
  P  P39  1  0.66770454  0.04124642  0.08359645  1
  P  P40  1  0.37524057  0.33593409  0.08444878  1
  P  P41  1  0.62004220  0.66526824  0.91685196  1
  P  P42  1  0.62910735  0.96260611  0.41709812  1
  P  P43  1  0.33169989  0.37054141  0.41703937  1
  P  P44  1  0.03982943  0.66802914  0.41727121  1
  O  O45  1  0.20700736  0.03215969  0.30277836  1
  O  O46  1  0.82385866  0.79063007  0.30406018  1
  O  O47  1  0.96665164  0.17604356  0.30403099  1
  O  O48  1  0.20658544  0.18369981  0.80339093  1
  O  O49  1  0.97670828  0.78898788  0.80641897  1
  O  O50  1  0.81122889  0.02115166  0.80631424  1
  O  O51  1  0.78348611  0.96855739  0.69443593  1
  O  O52  1  0.18703355  0.22011115  0.69276080  1
  O  O53  1  0.03259097  0.81518189  0.69458453  1
  O  O54  1  0.79017339  0.82360710  0.19577282  1
  O  O55  1  0.03339175  0.20967860  0.19567421  1
  O  O56  1  0.18099775  0.96765652  0.19337443  1
  O  O57  1  0.87350965  0.36593819  0.63669425  1
  O  O58  1  0.49403228  0.12314981  0.63663864  1
  O  O59  1  0.62836387  0.49744070  0.63826953  1
  O  O60  1  0.87482014  0.51800912  0.13915236  1
  O  O61  1  0.63868439  0.12546731  0.13849909  1
  O  O62  1  0.48187200  0.35639141  0.14024428  1
  O  O63  1  0.47349572  0.31024799  0.03042792  1
  O  O64  1  0.84307165  0.53179186  0.02868691  1
  O  O65  1  0.68864283  0.15918398  0.02821422  1
  O  O66  1  0.47009571  0.16258723  0.52832115  1
  O  O67  1  0.69465823  0.52470715  0.52679011  1
  O  O68  1  0.83686045  0.30421638  0.52817503  1
  O  O69  1  0.54297206  0.69973570  0.97103715  1
  O  O70  1  0.15846699  0.46210595  0.97430022  1
  O  O71  1  0.30386252  0.84487367  0.97680610  1
  O  O72  1  0.54397654  0.85423448  0.47228916  1
  O  O73  1  0.30945988  0.45519530  0.47237750  1
  O  O74  1  0.14530977  0.68938770  0.47277602  1
  O  O75  1  0.11694752  0.63500324  0.36118872  1
  O  O76  1  0.51837891  0.88374201  0.36110349  1
  O  O77  1  0.36611932  0.48142957  0.36117160  1
  O  O78  1  0.13606717  0.50443470  0.86061665  1
  O  O79  1  0.37144384  0.86474907  0.86154730  1
  O  O80  1  0.50511038  0.63333694  0.86193951  1
  O  O81  1  0.01536454  0.82352151  0.41097705  1
  O  O82  1  0.80811358  0.98341954  0.41095349  1
  O  O83  1  0.17535294  0.19103410  0.41090619  1
  O  O84  1  -0.00005578  0.17674005  0.91049444  1
  O  O85  1  0.15945796  0.97015463  0.91008832  1
  O  O86  1  0.80223180  0.81958865  0.90891803  1
  O  O87  1  0.97415380  0.17208025  0.58690264  1
  O  O88  1  0.20003804  0.03127578  0.58703396  1
  O  O89  1  0.84138793  0.81491879  0.58658491  1
  O  O90  1  0.97800054  0.80647613  0.08695649  1
  O  O91  1  0.83115094  0.02953501  0.08662438  1
  O  O92  1  0.20211045  0.16515185  0.08691506  1
  O  O93  1  0.68183457  0.15653849  0.74467294  1
  O  O94  1  0.47436004  0.31567962  0.74522218  1
  O  O95  1  0.84413889  0.52450116  0.74501188  1
  O  O96  1  0.68724452  0.52623365  0.24410783  1
  O  O97  1  0.83878882  0.31265337  0.24391284  1
  O  O98  1  0.47475404  0.16114198  0.24404366  1
  O  O99  1  0.64275748  0.50309419  0.92494234  1
  O  O100  1  0.85331993  0.36420929  0.92522486  1
  O  O101  1  0.50921635  0.14635720  0.92518662  1
  O  O102  1  0.64450356  0.14360757  0.42503695  1
  O  O103  1  0.49840197  0.35419170  0.42492653  1
  O  O104  1  0.85751836  0.49919365  0.42444233  1
  O  O105  1  0.35968766  0.49530506  0.07844487  1
  O  O106  1  0.14050239  0.64881036  0.07909107  1
  O  O107  1  0.50253659  0.86724555  0.07743135  1
  O  O108  1  0.35386868  0.86233071  0.57511183  1
  O  O109  1  0.49619774  0.64656924  0.57643476  1
  O  O110  1  0.13566753  0.49552364  0.57522433  1
  O  O111  1  0.31185010  0.83759307  0.25607069  1
  O  O112  1  0.52543766  0.68774734  0.25626334  1
  O  O113  1  0.16238163  0.47422641  0.25633666  1
  O  O114  1  0.31189461  0.47728967  0.75852436  1
  O  O115  1  0.16791389  0.69150623  0.75788998  1
  O  O116  1  0.52340343  0.83175738  0.75794483  1
