# generated using pymatgen
data_CsXeF7
_symmetry_space_group_name_H-M   'P 1'
_cell_length_a   8.51868932
_cell_length_b   8.51868932
_cell_length_c   8.51868932
_cell_angle_alpha   90.00000000
_cell_angle_beta   90.00000000
_cell_angle_gamma   90.00000000
_symmetry_Int_Tables_number   1
_chemical_formula_structural   CsXeF7
_chemical_formula_sum   'Cs4 Xe4 F28'
_cell_volume   618.18482355
_cell_formula_units_Z   4
loop_
 _symmetry_equiv_pos_site_id
 _symmetry_equiv_pos_as_xyz
  1  'x, y, z'
loop_
 _atom_site_type_symbol
 _atom_site_label
 _atom_site_symmetry_multiplicity
 _atom_site_fract_x
 _atom_site_fract_y
 _atom_site_fract_z
 _atom_site_occupancy
  Cs  Cs0  1  0.89866698  0.60133302  0.39866698  1
  Cs  Cs1  1  0.60133302  0.39866698  0.89866698  1
  Cs  Cs2  1  0.39866698  0.89866698  0.60133302  1
  Cs  Cs3  1  0.10133302  0.10133302  0.10133302  1
  Xe  Xe4  1  0.59823496  0.90176504  0.09823496  1
  Xe  Xe5  1  0.90176504  0.09823496  0.59823496  1
  Xe  Xe6  1  0.09823496  0.59823496  0.90176504  1
  Xe  Xe7  1  0.40176504  0.40176504  0.40176504  1
  F  F8  1  0.10953555  0.69972684  0.11982684  1
  F  F9  1  0.60953555  0.80027316  0.88017316  1
  F  F10  1  0.89046445  0.19972684  0.38017316  1
  F  F11  1  0.80027316  0.88017316  0.60953555  1
  F  F12  1  0.38017316  0.89046445  0.19972684  1
  F  F13  1  0.88017316  0.60953555  0.80027316  1
  F  F14  1  0.69972684  0.11982684  0.10953555  1
  F  F15  1  0.11982684  0.10953555  0.69972684  1
  F  F16  1  0.17041853  0.34407130  0.41305395  1
  F  F17  1  0.41305395  0.17041853  0.34407130  1
  F  F18  1  0.34407130  0.41305395  0.17041853  1
  F  F19  1  0.15592870  0.58694605  0.67041853  1
  F  F20  1  0.91305395  0.32958147  0.65592870  1
  F  F21  1  0.65592870  0.91305395  0.32958147  1
  F  F22  1  0.08694605  0.82958147  0.84407130  1
  F  F23  1  0.58694605  0.67041853  0.15592870  1
  F  F24  1  0.84407130  0.08694605  0.82958147  1
  F  F25  1  0.67041853  0.15592870  0.58694605  1
  F  F26  1  0.82958147  0.84407130  0.08694605  1
  F  F27  1  0.32958147  0.65592870  0.91305395  1
  F  F28  1  0.54512690  0.54512690  0.54512690  1
  F  F29  1  0.95487310  0.45487310  0.04512690  1
  F  F30  1  0.04512690  0.95487310  0.45487310  1
  F  F31  1  0.45487310  0.04512690  0.95487310  1
  F  F32  1  0.39046445  0.30027316  0.61982684  1
  F  F33  1  0.61982684  0.39046445  0.30027316  1
  F  F34  1  0.30027316  0.61982684  0.39046445  1
  F  F35  1  0.19972684  0.38017316  0.89046445  1
