# generated using pymatgen
data_Na3Ti2Si2PO12
_symmetry_space_group_name_H-M   'P 1'
_cell_length_a   15.44386933
_cell_length_b   8.90033046
_cell_length_c   8.89397826
_cell_angle_alpha   90.00000000
_cell_angle_beta   125.08724139
_cell_angle_gamma   90.00000000
_symmetry_Int_Tables_number   1
_chemical_formula_structural   Na3Ti2Si2PO12
_chemical_formula_sum   'Na12 Ti8 Si8 P4 O48'
_cell_volume   1000.36629432
_cell_formula_units_Z   4
loop_
 _symmetry_equiv_pos_site_id
 _symmetry_equiv_pos_as_xyz
  1  'x, y, z'
loop_
 _atom_site_type_symbol
 _atom_site_label
 _atom_site_symmetry_multiplicity
 _atom_site_fract_x
 _atom_site_fract_y
 _atom_site_fract_z
 _atom_site_occupancy
  Na  Na0  1  0.24503175  0.77024598  0.99635582  1
  Na  Na1  1  0.74503175  0.72975402  0.49635582  1
  Na  Na2  1  0.74503175  0.27024598  0.99635582  1
  Na  Na3  1  0.24503175  0.22975402  0.49635582  1
  Na  Na4  1  0.50325474  0.11893091  0.75311438  1
  Na  Na5  1  0.50325474  0.88106909  0.25311438  1
  Na  Na6  1  0.00325474  0.61893091  0.75311438  1
  Na  Na7  1  0.00325474  0.38106909  0.25311438  1
  Na  Na8  1  0.81028906  0.93755887  0.22307270  1
  Na  Na9  1  0.81028906  0.06244113  0.72307270  1
  Na  Na10  1  0.31028906  0.43755887  0.22307270  1
  Na  Na11  1  0.31028906  0.56244113  0.72307270  1
  Ti  Ti12  1  0.10633795  0.74841997  0.56163550  1
  Ti  Ti13  1  0.89358620  0.74192817  0.93436507  1
  Ti  Ti14  1  0.89358620  0.25807183  0.43436507  1
  Ti  Ti15  1  0.10633795  0.25158003  0.06163550  1
  Ti  Ti16  1  0.60633795  0.24841997  0.56163550  1
  Ti  Ti17  1  0.39358620  0.24192817  0.93436507  1
  Ti  Ti18  1  0.39358620  0.75807183  0.43436507  1
  Ti  Ti19  1  0.60633795  0.75158003  0.06163550  1
  Si  Si20  1  0.35556129  0.89444642  0.75547146  1
  Si  Si21  1  0.64598709  0.89139570  0.74400215  1
  Si  Si22  1  0.64598709  0.10860430  0.24400215  1
  Si  Si23  1  0.35556129  0.10555358  0.25547146  1
  Si  Si24  1  0.85556129  0.39444642  0.75547146  1
  Si  Si25  1  0.14598709  0.39139570  0.74400215  1
  Si  Si26  1  0.14598709  0.60860430  0.24400215  1
  Si  Si27  1  0.85556129  0.60555358  0.25547146  1
  P  P28  1  0.00214762  0.96398810  0.74662429  1
  P  P29  1  0.00214762  0.03601190  0.24662429  1
  P  P30  1  0.50214762  0.46398810  0.74662429  1
  P  P31  1  0.50214762  0.53601190  0.24662429  1
  O  O32  1  0.15071163  0.57660698  0.74041503  1
  O  O33  1  0.85285458  0.57762936  0.75631722  1
  O  O34  1  0.85285458  0.42237064  0.25631722  1
  O  O35  1  0.15071163  0.42339302  0.24041503  1
  O  O36  1  0.65071163  0.07660698  0.74041503  1
  O  O37  1  0.35285458  0.07762936  0.75631722  1
  O  O38  1  0.35285458  0.92237064  0.25631722  1
  O  O39  1  0.65071163  0.92339302  0.24041503  1
  O  O40  1  0.43441229  0.55879016  0.56949271  1
  O  O41  1  0.56324350  0.56910555  0.91612259  1
  O  O42  1  0.56324350  0.43089445  0.41612259  1
  O  O43  1  0.43441229  0.44120984  0.06949271  1
  O  O44  1  0.93441229  0.05879016  0.56949271  1
  O  O45  1  0.06324350  0.06910555  0.91612259  1
  O  O46  1  0.06324350  0.93089445  0.41612259  1
  O  O47  1  0.93441229  0.94120984  0.06949271  1
  O  O48  1  0.25549679  0.81505970  0.73762096  1
  O  O49  1  0.74973034  0.82787504  0.75861378  1
  O  O50  1  0.74973034  0.17212496  0.25861378  1
  O  O51  1  0.25549679  0.18494030  0.23762096  1
  O  O52  1  0.75549679  0.31505970  0.73762096  1
  O  O53  1  0.24973034  0.32787504  0.75861378  1
  O  O54  1  0.24973034  0.67212496  0.25861378  1
  O  O55  1  0.75549679  0.68494030  0.23762096  1
  O  O56  1  0.36074109  0.84685380  0.58054662  1
  O  O57  1  0.64516534  0.85513266  0.92525919  1
  O  O58  1  0.64516534  0.14486734  0.42525919  1
  O  O59  1  0.36074109  0.15314620  0.08054662  1
  O  O60  1  0.86074109  0.34685380  0.58054662  1
  O  O61  1  0.14516534  0.35513266  0.92525919  1
  O  O62  1  0.14516534  0.64486734  0.42525919  1
  O  O63  1  0.86074109  0.65314620  0.08054662  1
  O  O64  1  0.46431816  0.82813542  0.93941607  1
  O  O65  1  0.53723488  0.82582252  0.56079024  1
  O  O66  1  0.53723488  0.17417748  0.06079024  1
  O  O67  1  0.46431816  0.17186458  0.43941607  1
  O  O68  1  0.96431816  0.32813542  0.93941607  1
  O  O69  1  0.03723488  0.32582252  0.56079024  1
  O  O70  1  0.03723488  0.67417748  0.06079024  1
  O  O71  1  0.96431816  0.67186458  0.43941607  1
  O  O72  1  0.08163357  0.85978883  0.74554384  1
  O  O73  1  0.92226215  0.86452292  0.75522038  1
  O  O74  1  0.92226215  0.13547708  0.25522038  1
  O  O75  1  0.08163357  0.14021117  0.24554384  1
  O  O76  1  0.58163357  0.35978883  0.74554384  1
  O  O77  1  0.42226215  0.36452292  0.75522038  1
  O  O78  1  0.42226215  0.63547708  0.25522038  1
  O  O79  1  0.58163357  0.64021117  0.24554384  1
