# generated using pymatgen
data_MnO2
_symmetry_space_group_name_H-M   'P 1'
_cell_length_a   2.85658295
_cell_length_b   2.85657341
_cell_length_c   4.60137406
_cell_angle_alpha   90.00552040
_cell_angle_beta   89.99344925
_cell_angle_gamma   119.99959064
_symmetry_Int_Tables_number   1
_chemical_formula_structural   MnO2
_chemical_formula_sum   'Mn1 O2'
_cell_volume   32.51712861
_cell_formula_units_Z   1
loop_
 _symmetry_equiv_pos_site_id
 _symmetry_equiv_pos_as_xyz
  1  'x, y, z'
loop_
 _atom_site_type_symbol
 _atom_site_label
 _atom_site_symmetry_multiplicity
 _atom_site_fract_x
 _atom_site_fract_y
 _atom_site_fract_z
 _atom_site_occupancy
  Mn  Mn0  1  0.99996000  0.99999828  -0.00000391  1
  O  O1  1  0.66666609  0.33331748  0.79370352  1
  O  O2  1  0.33327291  0.66668224  0.20630139  1
