# generated using pymatgen
data_Na2Ta4Ga4Si5S7O48
_symmetry_space_group_name_H-M   'P 1'
_cell_length_a   17.47053807
_cell_length_b   8.72501808
_cell_length_c   22.58002004
_cell_angle_alpha   90.22298518
_cell_angle_beta   89.63464575
_cell_angle_gamma   120.02828020
_symmetry_Int_Tables_number   1
_chemical_formula_structural   Na2Ta4Ga4Si5S7O48
_chemical_formula_sum   'Na6 Ta12 Ga12 Si15 S21 O144'
_cell_volume   2979.85250243
_cell_formula_units_Z   3
loop_
 _symmetry_equiv_pos_site_id
 _symmetry_equiv_pos_as_xyz
  1  'x, y, z'
loop_
 _atom_site_type_symbol
 _atom_site_label
 _atom_site_symmetry_multiplicity
 _atom_site_fract_x
 _atom_site_fract_y
 _atom_site_fract_z
 _atom_site_occupancy
  Na  Na0  1  0.00037969  0.99375754  0.49765368  1
  Na  Na1  1  0.49697335  0.00284196  0.99576471  1
  Na  Na2  1  0.33267354  0.32629419  0.84163159  1
  Na  Na3  1  0.83265601  0.33867840  0.83866573  1
  Na  Na4  1  0.32981254  0.32382695  0.33595368  1
  Na  Na5  1  0.83812202  0.33873887  0.33832226  1
  Ta  Ta6  1  0.50163916  0.01054858  0.35344242  1
  Ta  Ta7  1  0.00613729  0.99234352  0.85674004  1
  Ta  Ta8  1  0.50557686  0.01160176  0.63949307  1
  Ta  Ta9  1  0.00718768  0.00299052  0.13872615  1
  Ta  Ta10  1  0.33408121  0.34540585  0.68964147  1
  Ta  Ta11  1  0.82982066  0.32921384  0.69259376  1
  Ta  Ta12  1  0.33151172  0.32940764  0.18999319  1
  Ta  Ta13  1  0.83311771  0.32363996  0.18792319  1
  Ta  Ta14  1  0.16505588  0.66935404  0.02409535  1
  Ta  Ta15  1  0.66353238  0.66136580  0.02247742  1
  Ta  Ta16  1  0.16392958  0.66681747  0.52267696  1
  Ta  Ta17  1  0.66668241  0.66820315  0.52507999  1
  Ga  Ga18  1  0.00720536  0.98418245  0.35448646  1
  Ga  Ga19  1  0.50361881  0.02546774  0.85544186  1
  Ga  Ga20  1  0.00901500  0.01376843  0.66090062  1
  Ga  Ga21  1  0.50797407  0.00837835  0.15458183  1
  Ga  Ga22  1  0.32589280  0.31756705  0.97179430  1
  Ga  Ga23  1  0.84030861  0.33150854  0.98547858  1
  Ga  Ga24  1  0.33815125  0.34423900  0.48700602  1
  Ga  Ga25  1  0.83770589  0.33575295  0.48059165  1
  Ga  Ga26  1  0.15016556  0.66844416  0.31195011  1
  Ga  Ga27  1  0.66485607  0.66934884  0.30400694  1
  Ga  Ga28  1  0.16385427  0.67468679  0.80589374  1
  Ga  Ga29  1  0.65288092  0.63485999  0.81257169  1
  Si  Si30  1  0.14022129  0.99167868  0.25299594  1
  Si  Si31  1  0.64489130  0.99764460  0.24862239  1
  Si  Si32  1  0.50433150  0.29449101  0.24770382  1
  Si  Si33  1  0.14428459  0.30057049  0.75110335  1
  Si  Si34  1  0.63841135  0.28734301  0.75399001  1
  Si  Si35  1  0.00387965  0.71684158  0.74711297  1
  Si  Si36  1  0.47105553  0.32898539  0.57980009  1
  Si  Si37  1  0.69828700  0.06388539  0.57829889  1
  Si  Si38  1  0.33199555  0.61851204  0.58140354  1
  Si  Si39  1  0.97201289  0.61335666  0.07993288  1
  Si  Si40  1  0.83234430  0.04374928  0.08111111  1
  Si  Si41  1  0.19976728  0.34010447  0.07861938  1
  Si  Si42  1  0.51652583  0.37277612  0.91655478  1
  Si  Si43  1  0.17291923  0.95059067  0.91254354  1
  Si  Si44  1  0.01473656  0.65899761  0.41698401  1
  S  S45  1  0.35263720  0.71220800  0.25140204  1
  S  S46  1  0.85725358  0.71549386  0.25181950  1
  S  S47  1  0.00121426  0.28378778  0.25357946  1
  S  S48  1  0.50233807  0.72057891  0.75329347  1
  S  S49  1  0.35780892  0.00010235  0.74993725  1
  S  S50  1  0.85228489  0.99159965  0.75169385  1
  S  S51  1  0.97648498  0.32252223  0.58310664  1
  S  S52  1  0.18654925  0.04852854  0.58169333  1
  S  S53  1  0.83906070  0.63024342  0.58232786  1
  S  S54  1  0.47575265  0.63017763  0.08276086  1
  S  S55  1  0.34026313  0.04652337  0.08294962  1
  S  S56  1  0.68698418  0.32573440  0.08149500  1
  S  S57  1  0.31386944  0.67240078  0.91420199  1
  S  S58  1  0.80777671  0.65908831  0.91579481  1
  S  S59  1  0.01852672  0.37706466  0.91584634  1
  S  S60  1  0.66868457  0.95667434  0.91516242  1
  S  S61  1  0.30835899  0.95738784  0.41599012  1
  S  S62  1  0.81126158  0.95196506  0.41360120  1
  S  S63  1  0.16837323  0.37982185  0.41491045  1
  S  S64  1  0.66884862  0.38449734  0.41425828  1
  S  S65  1  0.52123832  0.66120243  0.41543976  1
  O  O66  1  0.10619370  0.04858224  0.31088273  1
  O  O67  1  0.59331268  0.02878476  0.30738699  1
  O  O68  1  0.41196051  0.79569132  0.30479458  1
  O  O69  1  0.91156345  0.78858723  0.30574883  1
  O  O70  1  0.47929741  0.15817387  0.30737291  1
  O  O71  1  0.98063271  0.17321689  0.30658173  1
  O  O72  1  0.09289670  0.16095224  0.80708604  1
  O  O73  1  0.60253243  0.15991378  0.81051695  1
  O  O74  1  0.48150325  0.79005299  0.80606453  1
  O  O75  1  0.97863565  0.80051065  0.80575478  1
  O  O76  1  0.41170707  0.03772235  0.80370576  1
  O  O77  1  0.90969416  0.02916100  0.80353476  1
  O  O78  1  0.40209530  0.97995400  0.69688721  1
  O  O79  1  0.89099815  0.96656669  0.69666118  1
  O  O80  1  0.08751871  0.22464784  0.69113440  1
  O  O81  1  0.58096466  0.18941160  0.69483249  1
  O  O82  1  0.01103605  0.82349315  0.68766928  1
  O  O83  1  0.50924923  0.81840581  0.69867485  1
  O  O84  1  0.39178099  0.81709145  0.19790912  1
  O  O85  1  0.89771146  0.82345085  0.19887776  1
  O  O86  1  0.00859801  0.19924402  0.19936350  1
  O  O87  1  0.51231428  0.19955049  0.18967132  1
  O  O88  1  0.07965239  0.97097609  0.19568847  1
  O  O89  1  0.58579424  0.96017099  0.19091869  1
  O  O90  1  0.42734288  0.36278176  0.63846683  1
  O  O91  1  0.93952124  0.36076623  0.63614375  1
  O  O92  1  0.24114884  0.12653605  0.63502842  1
  O  O93  1  0.75933326  0.14832774  0.63655303  1
  O  O94  1  0.31209256  0.48990582  0.63990745  1
  O  O95  1  0.82222848  0.51687952  0.63533422  1
  O  O96  1  0.43991446  0.52068156  0.13731666  1
  O  O97  1  0.92581524  0.49402109  0.13946807  1
  O  O98  1  0.32571825  0.13181708  0.13714424  1
  O  O99  1  0.81177970  0.13230184  0.14061272  1
  O  O100  1  0.25826979  0.37082897  0.13910233  1
  O  O101  1  0.74077352  0.35428294  0.13568701  1
  O  O102  1  0.24291430  0.29724863  0.02437604  1
  O  O103  1  0.72721966  0.30071680  0.02801654  1
  O  O104  1  0.42366770  0.54907898  0.03061497  1
  O  O105  1  0.91335032  0.53861664  0.02224642  1
  O  O106  1  0.35693233  0.15452776  0.03060934  1
  O  O107  1  0.84972729  0.15995750  0.02349212  1
  O  O108  1  0.22641537  0.15174876  0.52742178  1
  O  O109  1  0.73950112  0.18358947  0.52112341  1
  O  O110  1  0.34980435  0.53978275  0.52260187  1
  O  O111  1  0.85520594  0.55391446  0.52908169  1
  O  O112  1  0.41458860  0.28881944  0.52101462  1
  O  O113  1  0.92429096  0.29772138  0.52940554  1
  O  O114  1  0.27068702  0.69678944  0.96880152  1
  O  O115  1  0.76636190  0.68354794  0.97096068  1
  O  O116  1  0.07225347  0.45542411  0.97070355  1
  O  O117  1  0.58277187  0.47317164  0.97494083  1
  O  O118  1  0.15846513  0.83409549  0.97329839  1
  O  O119  1  0.66110733  0.84522781  0.96935194  1
  O  O120  1  0.26719792  0.85038564  0.47084566  1
  O  O121  1  0.76774340  0.83971951  0.46809022  1
  O  O122  1  0.16060539  0.47616812  0.46912070  1
  O  O123  1  0.65603072  0.46497418  0.46923920  1
  O  O124  1  0.07954514  0.68676562  0.47518718  1
  O  O125  1  0.57579023  0.68782644  0.46983854  1
  O  O126  1  0.05670855  0.61754894  0.35979471  1
  O  O127  1  0.56440576  0.63772304  0.36369453  1
  O  O128  1  0.25615515  0.87049023  0.36347761  1
  O  O129  1  0.75681714  0.86408964  0.36192163  1
  O  O130  1  0.18398356  0.48891089  0.36221302  1
  O  O131  1  0.68005767  0.49230042  0.36265255  1
  O  O132  1  0.06001532  0.48277537  0.86376089  1
  O  O133  1  0.55952096  0.49691097  0.85933926  1
  O  O134  1  0.18502650  0.85510564  0.85668531  1
  O  O135  1  0.68472343  0.87921305  0.86211330  1
  O  O136  1  0.26120695  0.64559192  0.86186414  1
  O  O137  1  0.75486714  0.63811927  0.86326415  1
  O  O138  1  0.00787157  0.83879525  0.41444233  1
  O  O139  1  0.51232386  0.82216234  0.40993329  1
  O  O140  1  0.39707078  0.97035756  0.41133438  1
  O  O141  1  0.90050785  0.97319262  0.41045067  1
  O  O142  1  0.08400558  0.20962872  0.41441338  1
  O  O143  1  0.58419577  0.20564109  0.40959307  1
  O  O144  1  0.00619981  0.19549359  0.91006472  1
  O  O145  1  0.51005660  0.17972560  0.91441697  1
  O  O146  1  0.07945600  0.96046093  0.90742614  1
  O  O147  1  0.58490819  0.95835622  0.91459268  1
  O  O148  1  0.40357116  0.83452630  0.91064684  1
  O  O149  1  0.89514148  0.82390795  0.91120703  1
  O  O150  1  0.48699441  0.16460978  0.59196551  1
  O  O151  1  0.98659451  0.16614509  0.58994961  1
  O  O152  1  0.09717361  0.02199118  0.58785514  1
  O  O153  1  0.59935051  0.02636892  0.59241180  1
  O  O154  1  0.41544817  0.80586233  0.59932733  1
  O  O155  1  0.91143379  0.81081572  0.59023924  1
  O  O156  1  0.48691231  0.80881545  0.09115536  1
  O  O157  1  0.98684527  0.80932900  0.09270333  1
  O  O158  1  0.41438141  0.01462076  0.09226932  1
  O  O159  1  0.91599963  0.02578373  0.10003615  1
  O  O160  1  0.10044628  0.17457854  0.09355842  1
  O  O161  1  0.59730130  0.17218353  0.08761535  1
  O  O162  1  0.34814074  0.16164508  0.74104863  1
  O  O163  1  0.84802703  0.16281666  0.74448736  1
  O  O164  1  0.23932834  0.29877714  0.74308850  1
  O  O165  1  0.73809530  0.30517346  0.74053401  1
  O  O166  1  0.42165421  0.53209768  0.74534342  1
  O  O167  1  0.91371445  0.51833284  0.73981716  1
  O  O168  1  0.35030886  0.53693204  0.24606867  1
  O  O169  1  0.84770317  0.53541943  0.24346330  1
  O  O170  1  0.41679333  0.31779247  0.24190567  1
  O  O171  1  0.92128853  0.31192755  0.24581806  1
  O  O172  1  0.23997309  0.17131760  0.23972490  1
  O  O173  1  0.73943882  0.18787153  0.24491383  1
  O  O174  1  0.32446232  0.51604594  0.92206874  1
  O  O175  1  0.81816536  0.50247540  0.92178668  1
  O  O176  1  0.42399522  0.36487251  0.92823502  1
  O  O177  1  0.92884127  0.35859613  0.92143691  1
  O  O178  1  0.25281803  0.14898551  0.91707353  1
  O  O179  1  0.74551615  0.13806949  0.92301326  1
  O  O180  1  0.31892458  0.13533640  0.42180482  1
  O  O181  1  0.81708909  0.12601808  0.42064395  1
  O  O182  1  0.24497022  0.35187491  0.42263838  1
  O  O183  1  0.74364255  0.35525142  0.41972267  1
  O  O184  1  0.43210230  0.50332284  0.42088364  1
  O  O185  1  0.91736142  0.48294933  0.42616654  1
  O  O186  1  0.18838718  0.51134603  0.06847978  1
  O  O187  1  0.68075426  0.49075284  0.07572124  1
  O  O188  1  0.06977453  0.63167816  0.07299818  1
  O  O189  1  0.56723317  0.65085087  0.07507227  1
  O  O190  1  0.25660477  0.87132145  0.07741175  1
  O  O191  1  0.74650595  0.84874627  0.07171136  1
  O  O192  1  0.18039105  0.87004365  0.57450516  1
  O  O193  1  0.68672162  0.86534205  0.56797160  1
  O  O194  1  0.24601544  0.64260997  0.57062950  1
  O  O195  1  0.75413299  0.63612870  0.57328260  1
  O  O196  1  0.06683146  0.48431687  0.57421996  1
  O  O197  1  0.57113738  0.50387667  0.56937506  1
  O  O198  1  0.15768871  0.82904156  0.25814691  1
  O  O199  1  0.66422955  0.84396977  0.26296529  1
  O  O200  1  0.26497613  0.68242550  0.26323430  1
  O  O201  1  0.76916964  0.69221478  0.25944382  1
  O  O202  1  0.08185073  0.45705017  0.25834633  1
  O  O203  1  0.59026257  0.47340593  0.26341170  1
  O  O204  1  0.16528000  0.49265375  0.76687622  1
  O  O205  1  0.65742924  0.48601207  0.75772209  1
  O  O206  1  0.08574646  0.69265815  0.75688151  1
  O  O207  1  0.58201235  0.70651491  0.75770534  1
  O  O208  1  0.27139478  0.84447122  0.75385195  1
  O  O209  1  0.76325868  0.84624210  0.76080542  1
