# generated using pymatgen
data_Na6Zn4Si3Ge4(S3O16)3
_symmetry_space_group_name_H-M   'P 1'
_cell_length_a   17.35104208
_cell_length_b   8.65014146
_cell_length_c   22.13406496
_cell_angle_alpha   90.21132436
_cell_angle_beta   89.67238939
_cell_angle_gamma   120.01007744
_symmetry_Int_Tables_number   1
_chemical_formula_structural   Na6Zn4Si3Ge4(S3O16)3
_chemical_formula_sum   'Na18 Zn12 Si9 Ge12 S27 O144'
_cell_volume   2876.66424973
_cell_formula_units_Z   3
loop_
 _symmetry_equiv_pos_site_id
 _symmetry_equiv_pos_as_xyz
  1  'x, y, z'
loop_
 _atom_site_type_symbol
 _atom_site_label
 _atom_site_symmetry_multiplicity
 _atom_site_fract_x
 _atom_site_fract_y
 _atom_site_fract_z
 _atom_site_occupancy
  Na  Na0  1  0.99986633  0.63424739  0.25092894  1
  Na  Na1  1  0.49960716  0.62338033  0.24561623  1
  Na  Na2  1  0.00201943  0.37366477  0.74483995  1
  Na  Na3  1  0.50027320  0.36943516  0.75044236  1
  Na  Na4  1  0.67144882  0.31490341  0.91328644  1
  Na  Na5  1  0.17014411  0.03009641  0.41595693  1
  Na  Na6  1  0.99444434  0.00179565  0.50162700  1
  Na  Na7  1  0.50201216  0.00446197  0.50098194  1
  Na  Na8  1  0.00238012  0.99984269  0.99744433  1
  Na  Na9  1  0.49400305  0.98527352  0.99914941  1
  Na  Na10  1  0.31797993  0.31705755  0.83313634  1
  Na  Na11  1  0.83581671  0.34759328  0.83468675  1
  Na  Na12  1  0.33240165  0.32073570  0.33678512  1
  Na  Na13  1  0.82450660  0.32824920  0.33753260  1
  Na  Na14  1  0.17437804  0.66209485  0.16389019  1
  Na  Na15  1  0.66708768  0.66425318  0.16423307  1
  Na  Na16  1  0.16536753  0.65899623  0.66900530  1
  Na  Na17  1  0.67581317  0.68952589  0.66558724  1
  Zn  Zn18  1  0.99558480  0.00010207  0.35287815  1
  Zn  Zn19  1  0.49512124  0.99041085  0.85189607  1
  Zn  Zn20  1  0.31950479  0.32735320  0.68626721  1
  Zn  Zn21  1  0.83366803  0.31844787  0.67488988  1
  Zn  Zn22  1  0.33172768  0.34731624  0.17241090  1
  Zn  Zn23  1  0.82956623  0.32746658  0.18050897  1
  Zn  Zn24  1  0.83862716  0.34640768  0.98188958  1
  Zn  Zn25  1  0.33740100  0.33059405  0.48439147  1
  Zn  Zn26  1  0.17173306  0.67162040  0.31894282  1
  Zn  Zn27  1  0.67369376  0.65937709  0.32132431  1
  Zn  Zn28  1  0.17129394  0.67476632  0.81408693  1
  Zn  Zn29  1  0.67538091  0.67569525  0.81620452  1
  Si  Si30  1  0.14465729  0.28892974  0.75390243  1
  Si  Si31  1  0.98074746  0.33922059  0.58144365  1
  Si  Si32  1  0.68379109  0.02881044  0.58441109  1
  Si  Si33  1  0.48169670  0.61999678  0.08205453  1
  Si  Si34  1  0.18466180  0.34228486  0.08389991  1
  Si  Si35  1  0.81449637  0.67288003  0.91515868  1
  Si  Si36  1  0.17322028  0.95858823  0.91819156  1
  Si  Si37  1  0.31086071  0.95585444  0.41660613  1
  Si  Si38  1  0.67363240  0.38159819  0.41861109  1
  Ge  Ge39  1  0.50133689  0.01744844  0.36249991  1
  Ge  Ge40  1  0.01080192  0.99099073  0.85951337  1
  Ge  Ge41  1  0.00191772  0.02728585  0.64802392  1
  Ge  Ge42  1  0.50557160  0.99870096  0.64682293  1
  Ge  Ge43  1  0.00636997  0.01248212  0.14542104  1
  Ge  Ge44  1  0.49699083  0.98666531  0.14346848  1
  Ge  Ge45  1  0.32284338  0.33449125  0.98485503  1
  Ge  Ge46  1  0.82281126  0.31515728  0.48811836  1
  Ge  Ge47  1  0.16449069  0.65871359  0.01357877  1
  Ge  Ge48  1  0.66844812  0.67665790  0.01489487  1
  Ge  Ge49  1  0.16945826  0.66444718  0.51868612  1
  Ge  Ge50  1  0.66636347  0.66347622  0.51827136  1
  S  S51  1  0.14755185  0.00509302  0.24946367  1
  S  S52  1  0.64294792  0.00293680  0.25097481  1
  S  S53  1  0.35819417  0.71876838  0.25152333  1
  S  S54  1  0.85505588  0.71382966  0.24684944  1
  S  S55  1  0.99926997  0.29034899  0.24937420  1
  S  S56  1  0.49904823  0.27926646  0.24924471  1
  S  S57  1  0.64705375  0.28983866  0.74976669  1
  S  S58  1  0.99666021  0.71731122  0.74810122  1
  S  S59  1  0.50145105  0.71036886  0.74925688  1
  S  S60  1  0.35846338  0.99939141  0.74640576  1
  S  S61  1  0.85610705  0.99750129  0.75083479  1
  S  S62  1  0.48227918  0.33242071  0.58641963  1
  S  S63  1  0.18198996  0.03159264  0.58298635  1
  S  S64  1  0.33404157  0.63194861  0.58367604  1
  S  S65  1  0.83399416  0.62889575  0.58378200  1
  S  S66  1  0.98318877  0.63395315  0.08645320  1
  S  S67  1  0.33362158  0.03890228  0.08442853  1
  S  S68  1  0.83329473  0.03547471  0.08441037  1
  S  S69  1  0.68278622  0.33213654  0.08430841  1
  S  S70  1  0.31400215  0.66501895  0.91800796  1
  S  S71  1  0.01999375  0.37066563  0.91543719  1
  S  S72  1  0.51740309  0.37570016  0.91700861  1
  S  S73  1  0.66535482  0.95843292  0.91675830  1
  S  S74  1  0.81249787  0.96181061  0.41762483  1
  S  S75  1  0.16582131  0.37417654  0.41661691  1
  S  S76  1  0.01712284  0.65942930  0.41685387  1
  S  S77  1  0.52131843  0.66976921  0.41374335  1
  O  O78  1  0.10610221  0.02521613  0.30560782  1
  O  O79  1  0.59985994  0.02771162  0.30587234  1
  O  O80  1  0.41848611  0.80845098  0.30443232  1
  O  O81  1  0.91021012  0.78970760  0.30157442  1
  O  O82  1  0.48804426  0.17128312  0.30524516  1
  O  O83  1  0.98632743  0.18429759  0.30354017  1
  O  O84  1  0.09130005  0.15765549  0.81202213  1
  O  O85  1  0.60628605  0.18780635  0.80597091  1
  O  O86  1  0.48812458  0.79018267  0.80385280  1
  O  O87  1  0.98258009  0.79437554  0.80549532  1
  O  O88  1  0.41272707  0.03187811  0.80114109  1
  O  O89  1  0.91196923  0.02087576  0.80362842  1
  O  O90  1  0.40355062  0.97038091  0.69066491  1
  O  O91  1  0.89458322  0.96686439  0.69231530  1
  O  O92  1  0.08057825  0.20298511  0.69207122  1
  O  O93  1  0.58425971  0.19878774  0.69574270  1
  O  O94  1  0.00794938  0.82818891  0.69290222  1
  O  O95  1  0.51487512  0.82192311  0.69319474  1
  O  O96  1  0.39904310  0.82751120  0.19395412  1
  O  O97  1  0.90097102  0.82798094  0.19140971  1
  O  O98  1  0.01237132  0.20592499  0.19302379  1
  O  O99  1  0.51318970  0.19412775  0.19355786  1
  O  O100  1  0.08439567  0.96989263  0.19540965  1
  O  O101  1  0.58533689  0.96808821  0.19491691  1
  O  O102  1  0.44367143  0.36198227  0.64142936  1
  O  O103  1  0.95156805  0.38411272  0.64491979  1
  O  O104  1  0.23788475  0.11017516  0.63572143  1
  O  O105  1  0.73976445  0.09725400  0.64461669  1
  O  O106  1  0.32086931  0.52771707  0.63803863  1
  O  O107  1  0.81563283  0.52279156  0.63816309  1
  O  O108  1  0.45268108  0.52044868  0.14652441  1
  O  O109  1  0.94541708  0.53033690  0.14292726  1
  O  O110  1  0.31880535  0.11052765  0.13997398  1
  O  O111  1  0.81898479  0.11175267  0.14011119  1
  O  O112  1  0.23935232  0.38594179  0.14510094  1
  O  O113  1  0.73633218  0.36075554  0.13862458  1
  O  O114  1  0.22578685  0.29301250  0.02521774  1
  O  O115  1  0.71810093  0.29373230  0.02918141  1
  O  O116  1  0.41326448  0.52254586  0.02503674  1
  O  O117  1  0.92833329  0.55485487  0.03333646  1
  O  O118  1  0.35196499  0.15170081  0.02994801  1
  O  O119  1  0.84872425  0.14441381  0.03021672  1
  O  O120  1  0.21748225  0.13869666  0.52702654  1
  O  O121  1  0.72354935  0.15668040  0.52468514  1
  O  O122  1  0.34944512  0.55621053  0.52807523  1
  O  O123  1  0.85014728  0.54871856  0.52827648  1
  O  O124  1  0.42972287  0.30272972  0.53158420  1
  O  O125  1  0.91325904  0.30345388  0.52345870  1
  O  O126  1  0.27156772  0.69149273  0.97381844  1
  O  O127  1  0.76581735  0.70682207  0.97755985  1
  O  O128  1  0.07722504  0.45389967  0.97154897  1
  O  O129  1  0.58047185  0.46279758  0.96988400  1
  O  O130  1  0.15240653  0.82830245  0.97939552  1
  O  O131  1  0.64821066  0.84482080  0.97255094  1
  O  O132  1  0.26348270  0.82433698  0.47684304  1
  O  O133  1  0.76924107  0.84724281  0.47195059  1
  O  O134  1  0.14976757  0.45590213  0.47165261  1
  O  O135  1  0.65012809  0.47301626  0.47713868  1
  O  O136  1  0.08000376  0.69772288  0.46862387  1
  O  O137  1  0.57826557  0.70206039  0.46802554  1
  O  O138  1  0.05169329  0.63026641  0.35894935  1
  O  O139  1  0.55925466  0.64366993  0.35708675  1
  O  O140  1  0.24846998  0.88453836  0.35807384  1
  O  O141  1  0.76101598  0.89150283  0.36175616  1
  O  O142  1  0.17570526  0.47218431  0.36077450  1
  O  O143  1  0.69249131  0.48574941  0.35634566  1
  O  O144  1  0.05840412  0.47722446  0.86089870  1
  O  O145  1  0.55289138  0.47512223  0.86011496  1
  O  O146  1  0.19117961  0.88143098  0.85782819  1
  O  O147  1  0.67491824  0.87662677  0.86165621  1
  O  O148  1  0.26229316  0.63329683  0.86320022  1
  O  O149  1  0.74618759  0.61063483  0.85972292  1
  O  O150  1  0.01157336  0.82672952  0.41373654  1
  O  O151  1  0.51529983  0.83790667  0.40949250  1
  O  O152  1  0.40873495  0.96479037  0.41077041  1
  O  O153  1  0.90131657  0.97729542  0.41446226  1
  O  O154  1  0.08630454  0.18999289  0.41462710  1
  O  O155  1  0.58299053  0.17932941  0.41249753  1
  O  O156  1  0.01338454  0.19339701  0.91334190  1
  O  O157  1  0.51169877  0.19751867  0.91448773  1
  O  O158  1  0.08295038  0.97788349  0.91571254  1
  O  O159  1  0.58633461  0.98360492  0.91508912  1
  O  O160  1  0.40309755  0.82619702  0.91589838  1
  O  O161  1  0.91203994  0.85746884  0.90739425  1
  O  O162  1  0.49142430  0.16743274  0.59196868  1
  O  O163  1  0.98807100  0.15271441  0.58641936  1
  O  O164  1  0.08969295  0.00576489  0.59032910  1
  O  O165  1  0.58298929  0.00936264  0.59066202  1
  O  O166  1  0.41424965  0.81758241  0.58973343  1
  O  O167  1  0.91553264  0.80981797  0.58848044  1
  O  O168  1  0.49168358  0.82491195  0.08904572  1
  O  O169  1  0.99065529  0.81654463  0.09234861  1
  O  O170  1  0.41817141  0.02312406  0.08929786  1
  O  O171  1  0.91384703  0.01222348  0.09102123  1
  O  O172  1  0.08376033  0.15874336  0.09030557  1
  O  O173  1  0.59001780  0.16866003  0.09188012  1
  O  O174  1  0.35364723  0.16350464  0.73923361  1
  O  O175  1  0.85107067  0.16374915  0.74759805  1
  O  O176  1  0.23933067  0.29982063  0.75004465  1
  O  O177  1  0.73484256  0.30873181  0.74240604  1
  O  O178  1  0.42328442  0.53027046  0.74261967  1
  O  O179  1  0.91680219  0.53744536  0.74535014  1
  O  O180  1  0.35261271  0.54279085  0.24859860  1
  O  O181  1  0.84702201  0.53430609  0.24083369  1
  O  O182  1  0.41831363  0.29382322  0.24686616  1
  O  O183  1  0.91965576  0.31219708  0.24354145  1
  O  O184  1  0.23539377  0.16218922  0.24241247  1
  O  O185  1  0.73083863  0.16277999  0.24509971  1
  O  O186  1  0.32374577  0.50215342  0.92477475  1
  O  O187  1  0.82340943  0.49698417  0.92544309  1
  O  O188  1  0.42962805  0.35831491  0.92709929  1
  O  O189  1  0.93127920  0.34968096  0.92431206  1
  O  O190  1  0.26311375  0.16004425  0.92939275  1
  O  O191  1  0.74614710  0.13462382  0.92407789  1
  O  O192  1  0.32328281  0.15296182  0.42517929  1
  O  O193  1  0.82232748  0.14298369  0.42447625  1
  O  O194  1  0.24636676  0.35812682  0.42321200  1
  O  O195  1  0.76249938  0.36136344  0.42997052  1
  O  O196  1  0.43187786  0.51558382  0.42162266  1
  O  O197  1  0.92896592  0.50137728  0.42593999  1
  O  O198  1  0.17155935  0.51717194  0.06985389  1
  O  O199  1  0.67325056  0.49293831  0.07775224  1
  O  O200  1  0.07348581  0.65548462  0.08030331  1
  O  O201  1  0.58357520  0.65171477  0.06876811  1
  O  O202  1  0.25629024  0.85639078  0.07616128  1
  O  O203  1  0.75155487  0.85424263  0.07905659  1
  O  O204  1  0.17351218  0.85014840  0.57599832  1
  O  O205  1  0.67091298  0.82722905  0.56968585  1
  O  O206  1  0.25198512  0.64966137  0.57836756  1
  O  O207  1  0.75399922  0.65231122  0.57475380  1
  O  O208  1  0.08253656  0.51209882  0.56813728  1
  O  O209  1  0.57381539  0.49379709  0.57985788  1
  O  O210  1  0.14986736  0.83561926  0.24942683  1
  O  O211  1  0.64962653  0.83871501  0.25483586  1
  O  O212  1  0.27032559  0.70209638  0.25424993  1
  O  O213  1  0.76770104  0.70162828  0.24916957  1
  O  O214  1  0.07985351  0.47116595  0.25189845  1
  O  O215  1  0.57886055  0.45986203  0.25199074  1
  O  O216  1  0.14885721  0.48086540  0.75628355  1
  O  O217  1  0.64920658  0.46372156  0.74987229  1
  O  O218  1  0.07767341  0.70230303  0.75081482  1
  O  O219  1  0.58276716  0.69393502  0.75204281  1
  O  O220  1  0.27078873  0.83870135  0.74790458  1
  O  O221  1  0.76655752  0.83859376  0.75233585  1
