# generated using pymatgen
data_Rb6Sn2S7
_symmetry_space_group_name_H-M   'P 1'
_cell_length_a   9.98624413
_cell_length_b   13.56160615
_cell_length_c   14.99564812
_cell_angle_alpha   90.00000000
_cell_angle_beta   90.00000000
_cell_angle_gamma   90.00000000
_symmetry_Int_Tables_number   1
_chemical_formula_structural   Rb6Sn2S7
_chemical_formula_sum   'Rb24 Sn8 S28'
_cell_volume   2030.85327416
_cell_formula_units_Z   4
loop_
 _symmetry_equiv_pos_site_id
 _symmetry_equiv_pos_as_xyz
  1  'x, y, z'
loop_
 _atom_site_type_symbol
 _atom_site_label
 _atom_site_symmetry_multiplicity
 _atom_site_fract_x
 _atom_site_fract_y
 _atom_site_fract_z
 _atom_site_occupancy
  Rb  Rb0  1  0.93680226  0.18322788  0.88082860  1
  Rb  Rb1  1  0.96967768  0.83589883  0.18904356  1
  Rb  Rb2  1  0.46967768  0.66410117  0.81095644  1
  Rb  Rb3  1  0.03032232  0.33589883  0.31095644  1
  Rb  Rb4  1  0.53032232  0.16410117  0.68904356  1
  Rb  Rb5  1  0.72242690  0.86608310  0.93395862  1
  Rb  Rb6  1  0.22242690  0.63391690  0.06604138  1
  Rb  Rb7  1  0.27757310  0.36608310  0.56604138  1
  Rb  Rb8  1  0.85179857  0.42992210  0.08734239  1
  Rb  Rb9  1  0.35179857  0.07007790  0.91265761  1
  Rb  Rb10  1  0.14820143  0.92992210  0.41265761  1
  Rb  Rb11  1  0.64820143  0.57007790  0.58734239  1
  Rb  Rb12  1  0.85698440  0.34734418  0.64439041  1
  Rb  Rb13  1  0.35698440  0.15265582  0.35560959  1
  Rb  Rb14  1  0.14301560  0.84734418  0.85560959  1
  Rb  Rb15  1  0.64301560  0.65265582  0.14439041  1
  Rb  Rb16  1  0.77757310  0.13391690  0.43395862  1
  Rb  Rb17  1  0.75323333  0.88414275  0.62362150  1
  Rb  Rb18  1  0.06319774  0.68322788  0.61917140  1
  Rb  Rb19  1  0.56319774  0.81677212  0.38082860  1
  Rb  Rb20  1  0.74676667  0.11585725  0.12362150  1
  Rb  Rb21  1  0.24676667  0.38414275  0.87637850  1
  Rb  Rb22  1  0.25323333  0.61585725  0.37637850  1
  Rb  Rb23  1  0.43680226  0.31677212  0.11917140  1
  Sn  Sn24  1  0.87790451  0.60383098  0.38171543  1
  Sn  Sn25  1  0.92300949  0.60827606  0.86349206  1
  Sn  Sn26  1  0.42300949  0.89172394  0.13650794  1
  Sn  Sn27  1  0.07699051  0.10827606  0.63650794  1
  Sn  Sn28  1  0.57699051  0.39172394  0.36349206  1
  Sn  Sn29  1  0.62209549  0.39616902  0.88171543  1
  Sn  Sn30  1  0.12209549  0.10383098  0.11828457  1
  Sn  Sn31  1  0.37790451  0.89616902  0.61828457  1
  S  S32  1  0.61492786  0.23028721  0.93526755  1
  S  S33  1  0.11492786  0.26971279  0.06473245  1
  S  S34  1  0.38507214  0.73028721  0.56473245  1
  S  S35  1  0.88507214  0.76971279  0.43526755  1
  S  S36  1  0.59543490  0.32661989  0.50908081  1
  S  S37  1  0.09543490  0.17338011  0.49091919  1
  S  S38  1  0.40456510  0.82661989  0.99091919  1
  S  S39  1  0.90456510  0.67338011  0.00908081  1
  S  S40  1  0.70562568  0.30078975  0.25897825  1
  S  S41  1  0.20562568  0.19921025  0.74102175  1
  S  S42  1  0.29437432  0.80078975  0.24102175  1
  S  S43  1  0.79437432  0.69921025  0.75897825  1
  S  S44  1  0.84729949  0.10368967  0.67803250  1
  S  S45  1  0.34729949  0.39631033  0.32196750  1
  S  S46  1  0.15270051  0.60368967  0.82196750  1
  S  S47  1  0.65270051  0.89631033  0.17803250  1
  S  S48  1  0.97727720  0.49646998  0.48908638  1
  S  S49  1  0.47727720  0.00353002  0.51091362  1
  S  S50  1  0.02272280  0.99646998  0.01091362  1
  S  S51  1  0.52272280  0.50353002  0.98908638  1
  S  S52  1  0.52584837  0.41481336  0.73899349  1
  S  S53  1  0.02584837  0.08518664  0.26100651  1
  S  S54  1  0.47415163  0.91481336  0.76100651  1
  S  S55  1  0.97415163  0.58518664  0.23899349  1
  S  S56  1  0.86765658  0.42894651  0.86349189  1
  S  S57  1  0.63234342  0.57105349  0.36349189  1
  S  S58  1  0.13234342  0.92894651  0.63650811  1
  S  S59  1  0.36765658  0.07105349  0.13650811  1
