# generated using pymatgen
data_Na6ZnSi2Ge3(PO6)4
_symmetry_space_group_name_H-M   'P 1'
_cell_length_a   8.73610388
_cell_length_b   8.74768639
_cell_length_c   21.60582502
_cell_angle_alpha   90.30157164
_cell_angle_beta   90.00078611
_cell_angle_gamma   120.08281603
_symmetry_Int_Tables_number   1
_chemical_formula_structural   Na6ZnSi2Ge3(PO6)4
_chemical_formula_sum   'Na18 Zn3 Si6 Ge9 P12 O72'
_cell_volume   1428.70115939
_cell_formula_units_Z   3
loop_
 _symmetry_equiv_pos_site_id
 _symmetry_equiv_pos_as_xyz
  1  'x, y, z'
loop_
 _atom_site_type_symbol
 _atom_site_label
 _atom_site_symmetry_multiplicity
 _atom_site_fract_x
 _atom_site_fract_y
 _atom_site_fract_z
 _atom_site_occupancy
  Na  Na0  1  0.00852977  0.00152699  0.50038018  1
  Na  Na1  1  0.00053205  0.00073980  0.99904639  1
  Na  Na2  1  0.65079249  0.30175130  0.83088997  1
  Na  Na3  1  0.65107125  0.33546082  0.32500823  1
  Na  Na4  1  0.32941992  0.66767137  0.16232556  1
  Na  Na5  1  0.32429599  0.66633718  0.66535465  1
  Na  Na6  1  0.64480761  0.01409528  0.24412384  1
  Na  Na7  1  0.98756787  0.62765158  0.24205027  1
  Na  Na8  1  0.62704113  0.61245024  0.74564771  1
  Na  Na9  1  0.98993749  0.37130178  0.74685894  1
  Na  Na10  1  0.66564541  0.97459317  0.58750483  1
  Na  Na11  1  0.66322828  0.68748427  0.08024054  1
  Na  Na12  1  0.02401530  0.33805203  0.08490479  1
  Na  Na13  1  0.96762339  0.67010647  0.91787771  1
  Na  Na14  1  0.33428213  0.30182683  0.91784501  1
  Na  Na15  1  0.96277004  0.28379754  0.41325244  1
  Na  Na16  1  0.32683936  0.03757595  0.41215015  1
  Na  Na17  1  0.71844832  0.68255315  0.41657778  1
  Zn  Zn18  1  0.99681685  0.99841639  0.35152611  1
  Zn  Zn19  1  0.65639630  0.32833913  0.68208109  1
  Zn  Zn20  1  0.66871357  0.33601741  0.17714543  1
  Si  Si21  1  0.66621538  0.62466394  0.58598352  1
  Si  Si22  1  0.96840084  0.63246689  0.08343239  1
  Si  Si23  1  0.61828977  0.66965458  0.91552387  1
  Si  Si24  1  0.04259466  0.37876141  0.91507817  1
  Si  Si25  1  0.34116142  0.95898377  0.91533042  1
  Si  Si26  1  0.61685615  0.95919359  0.41913771  1
  Ge  Ge27  1  0.99762474  0.00251648  0.85761810  1
  Ge  Ge28  1  0.00196975  0.99187083  0.64584536  1
  Ge  Ge29  1  0.00659807  0.99959046  0.14796903  1
  Ge  Ge30  1  0.66963832  0.33752341  0.97777760  1
  Ge  Ge31  1  0.66566137  0.33129932  0.48512168  1
  Ge  Ge32  1  0.32873514  0.67095531  0.01400509  1
  Ge  Ge33  1  0.33815967  0.66482045  0.52229792  1
  Ge  Ge34  1  0.33748854  0.67083741  0.31298521  1
  Ge  Ge35  1  0.33463421  0.67580847  0.81627847  1
  P  P36  1  0.29016517  0.99644671  0.25349998  1
  P  P37  1  0.70039598  0.70692599  0.25176590  1
  P  P38  1  0.01324435  0.29794724  0.25245769  1
  P  P39  1  0.27777575  0.28148069  0.75178295  1
  P  P40  1  0.01499498  0.72341552  0.75227636  1
  P  P41  1  0.71069504  0.99117931  0.75076562  1
  P  P42  1  0.96731739  0.33753114  0.58503538  1
  P  P43  1  0.36854829  0.03721025  0.58244338  1
  P  P44  1  0.66268427  0.03827352  0.08394016  1
  P  P45  1  0.37068356  0.33149015  0.08213940  1
  P  P46  1  0.34342546  0.38976600  0.41797956  1
  P  P47  1  0.04753635  0.65562924  0.41846925  1
  O  O48  1  0.21283238  0.01166430  0.31467260  1
  O  O49  1  0.80255030  0.78246887  0.31212113  1
  O  O50  1  0.98984903  0.19474267  0.31122510  1
  O  O51  1  0.19056192  0.17957946  0.81212039  1
  O  O52  1  0.98825140  0.81102643  0.81080808  1
  O  O53  1  0.83184870  0.01851878  0.80698782  1
  O  O54  1  0.79265560  0.96152645  0.68990793  1
  O  O55  1  0.15495968  0.19056738  0.69452848  1
  O  O56  1  0.03636971  0.83259962  0.69305855  1
  O  O57  1  0.79188539  0.83279273  0.19431762  1
  O  O58  1  0.03224714  0.20540576  0.19206239  1
  O  O59  1  0.16115165  0.96228822  0.19759529  1
  O  O60  1  0.89375280  0.36604697  0.64446501  1
  O  O61  1  0.49527710  0.10838387  0.63634089  1
  O  O62  1  0.63290547  0.52037217  0.64869843  1
  O  O63  1  0.90229100  0.51502976  0.14472867  1
  O  O64  1  0.63514826  0.10372828  0.14574037  1
  O  O65  1  0.48601510  0.36965701  0.13844044  1
  O  O66  1  0.44908032  0.29903427  0.02200226  1
  O  O67  1  0.82724339  0.54021218  0.02485618  1
  O  O68  1  0.70172984  0.17071025  0.03049628  1
  O  O69  1  0.44938051  0.15091884  0.52193080  1
  O  O70  1  0.69915602  0.53133347  0.52383964  1
  O  O71  1  0.83633557  0.29293803  0.52752922  1
  O  O72  1  0.53271657  0.70179601  0.97739565  1
  O  O73  1  0.17354341  0.46025216  0.97479536  1
  O  O74  1  0.28177371  0.82047970  0.97207033  1
  O  O75  1  0.52448436  0.83413532  0.47854262  1
  O  O76  1  0.30624988  0.47083291  0.47521426  1
  O  O77  1  0.16842443  0.68202995  0.47321946  1
  O  O78  1  0.12291099  0.62046557  0.35699746  1
  O  O79  1  0.49075816  0.87588789  0.35644992  1
  O  O80  1  0.37869202  0.50942286  0.35999204  1
  O  O81  1  0.12385691  0.50801904  0.85437967  1
  O  O82  1  0.38517399  0.87821991  0.85414263  1
  O  O83  1  0.48805857  0.61858896  0.85485029  1
  O  O84  1  0.02584123  0.81822625  0.41687946  1
  O  O85  1  0.81244288  0.98364538  0.41739136  1
  O  O86  1  0.18538191  0.20317265  0.41433662  1
  O  O87  1  0.02484184  0.18342865  0.91022584  1
  O  O88  1  0.16508513  0.98267839  0.90997314  1
  O  O89  1  0.81979328  0.83813975  0.91002208  1
  O  O90  1  0.98350581  0.16719179  0.58693861  1
  O  O91  1  0.18792255  0.02938588  0.58953087  1
  O  O92  1  0.84436881  0.82869570  0.58746497  1
  O  O93  1  0.97574839  0.82573994  0.09083234  1
  O  O94  1  0.83730329  0.02290430  0.08725542  1
  O  O95  1  0.17863770  0.16665651  0.08873957  1
  O  O96  1  0.69333214  0.15493469  0.74744019  1
  O  O97  1  0.46126314  0.30378422  0.74996908  1
  O  O98  1  0.85241066  0.53787169  0.75143992  1
  O  O99  1  0.67691162  0.52448880  0.24333439  1
  O  O100  1  0.85086446  0.32157827  0.24807202  1
  O  O101  1  0.47644787  0.14892105  0.24572748  1
  O  O102  1  0.63906005  0.49231604  0.92192168  1
  O  O103  1  0.85103142  0.36566620  0.92416211  1
  O  O104  1  0.51114068  0.15591109  0.92548729  1
  O  O105  1  0.63132929  0.15692685  0.42477740  1
  O  O106  1  0.51749037  0.38007670  0.42203156  1
  O  O107  1  0.86159976  0.48440177  0.42298549  1
  O  O108  1  0.34864895  0.49795705  0.07602419  1
  O  O109  1  0.16200510  0.64810821  0.07301196  1
  O  O110  1  0.50455324  0.84899265  0.07449861  1
  O  O111  1  0.33595064  0.84619721  0.57377340  1
  O  O112  1  0.49609309  0.65920607  0.57784572  1
  O  O113  1  0.14971968  0.50322546  0.57411534  1
  O  O114  1  0.29355356  0.81452295  0.25263956  1
  O  O115  1  0.51908029  0.70676410  0.25380563  1
  O  O116  1  0.18641677  0.48525374  0.25384233  1
  O  O117  1  0.28866529  0.46771534  0.75252430  1
  O  O118  1  0.18699514  0.70915260  0.75390035  1
  O  O119  1  0.53023957  0.81322922  0.75415864  1
