# generated using pymatgen
data_PdBr2
_symmetry_space_group_name_H-M   'P 1'
_cell_length_a   4.11482591
_cell_length_b   6.59962970
_cell_length_c   26.02391517
_cell_angle_alpha   86.93617250
_cell_angle_beta   90.00000000
_cell_angle_gamma   90.00000000
_symmetry_Int_Tables_number   1
_chemical_formula_structural   PdBr2
_chemical_formula_sum   'Pd8 Br16'
_cell_volume   705.70378956
_cell_formula_units_Z   8
loop_
 _symmetry_equiv_pos_site_id
 _symmetry_equiv_pos_as_xyz
  1  'x, y, z'
loop_
 _atom_site_type_symbol
 _atom_site_label
 _atom_site_symmetry_multiplicity
 _atom_site_fract_x
 _atom_site_fract_y
 _atom_site_fract_z
 _atom_site_occupancy
  Pd  Pd0  1  0.75000000  0.12500000  0.37500000  1
  Pd  Pd1  1  0.25000000  0.87500000  0.12500000  1
  Pd  Pd2  1  0.25000000  0.87500000  0.62500000  1
  Pd  Pd3  1  0.75000000  0.12500000  0.87500000  1
  Pd  Pd4  1  0.75000000  0.62500000  0.37500000  1
  Pd  Pd5  1  0.25000000  0.37500000  0.12500000  1
  Pd  Pd6  1  0.25000000  0.37500000  0.62500000  1
  Pd  Pd7  1  0.75000000  0.62500000  0.87500000  1
  Br  Br8  1  0.58119581  0.38830811  0.81062680  1
  Br  Br9  1  0.08119581  0.61169189  0.68937320  1
  Br  Br10  1  0.41880419  0.61169189  0.18937320  1
  Br  Br11  1  0.91880419  0.38830811  0.31062680  1
  Br  Br12  1  0.58119581  0.88830811  0.31062680  1
  Br  Br13  1  0.08119581  0.11169189  0.18937320  1
  Br  Br14  1  0.41880419  0.11169189  0.68937320  1
  Br  Br15  1  0.91880419  0.88830811  0.81062680  1
  Br  Br16  1  0.91880419  0.86169189  0.93937320  1
  Br  Br17  1  0.41880419  0.13830811  0.56062680  1
  Br  Br18  1  0.08119581  0.13830811  0.06062680  1
  Br  Br19  1  0.58119581  0.86169189  0.43937320  1
  Br  Br20  1  0.91880419  0.36169189  0.43937320  1
  Br  Br21  1  0.41880419  0.63830811  0.06062680  1
  Br  Br22  1  0.08119581  0.63830811  0.56062680  1
  Br  Br23  1  0.58119581  0.36169189  0.93937320  1
