# generated using pymatgen
data_Na7ZnGa3(PO4)6
_symmetry_space_group_name_H-M   'P 1'
_cell_length_a   8.82060026
_cell_length_b   8.83392438
_cell_length_c   21.78085270
_cell_angle_alpha   90.08284461
_cell_angle_beta   90.03344386
_cell_angle_gamma   119.95804681
_symmetry_Int_Tables_number   1
_chemical_formula_structural   Na7ZnGa3(PO4)6
_chemical_formula_sum   'Na21 Zn3 Ga9 P18 O72'
_cell_volume   1470.41465599
_cell_formula_units_Z   3
loop_
 _symmetry_equiv_pos_site_id
 _symmetry_equiv_pos_as_xyz
  1  'x, y, z'
loop_
 _atom_site_type_symbol
 _atom_site_label
 _atom_site_symmetry_multiplicity
 _atom_site_fract_x
 _atom_site_fract_y
 _atom_site_fract_z
 _atom_site_occupancy
  Na  Na0  1  0.63734715  0.00649355  0.24581158  1
  Na  Na1  1  0.36839121  0.36108704  0.24600738  1
  Na  Na2  1  0.99290838  0.63109556  0.24564556  1
  Na  Na3  1  0.63306972  0.62630908  0.74739690  1
  Na  Na4  1  0.99340867  0.36682204  0.74780663  1
  Na  Na5  1  0.37518241  0.00650436  0.74753823  1
  Na  Na6  1  0.02754883  0.69499411  0.58438142  1
  Na  Na7  1  0.66484455  0.97133673  0.58396363  1
  Na  Na8  1  0.30723865  0.97169353  0.08408641  1
  Na  Na9  1  0.66745991  0.69384894  0.08443870  1
  Na  Na10  1  0.69811961  0.03300915  0.91923433  1
  Na  Na11  1  0.33194656  0.30039749  0.91870698  1
  Na  Na12  1  0.96654280  0.29347994  0.41411507  1
  Na  Na13  1  0.32688433  0.03370773  0.41413641  1
  Na  Na14  1  0.70785635  0.67378616  0.41391641  1
  Na  Na15  1  0.01095091  0.01205555  0.49975445  1
  Na  Na16  1  0.99982922  0.99913258  0.00097739  1
  Na  Na17  1  0.67806709  0.34621969  0.83401627  1
  Na  Na18  1  0.66679691  0.33330485  0.32955187  1
  Na  Na19  1  0.31993303  0.65203220  0.16355732  1
  Na  Na20  1  0.33188941  0.65250281  0.66457284  1
  Zn  Zn21  1  0.00017380  0.00086262  0.34803868  1
  Zn  Zn22  1  0.66462581  0.33405064  0.67994231  1
  Zn  Zn23  1  0.67058098  0.33493788  0.17776208  1
  Ga  Ga24  1  0.99971387  0.99454401  0.85292786  1
  Ga  Ga25  1  0.00590341  0.00585036  0.64816843  1
  Ga  Ga26  1  0.00092753  0.00668229  0.14884248  1
  Ga  Ga27  1  0.67501693  0.34000865  0.98427148  1
  Ga  Ga28  1  0.66394717  0.33258227  0.48517292  1
  Ga  Ga29  1  0.32709101  0.66232768  0.01631498  1
  Ga  Ga30  1  0.33273673  0.66155695  0.51841326  1
  Ga  Ga31  1  0.33334702  0.66585896  0.31569138  1
  Ga  Ga32  1  0.32989480  0.66463253  0.81747551  1
  P  P33  1  0.29336912  0.99644531  0.25105293  1
  P  P34  1  0.70302590  0.70673085  0.25115643  1
  P  P35  1  0.00347927  0.29617897  0.25221270  1
  P  P36  1  0.28669615  0.29120942  0.75261991  1
  P  P37  1  0.00423344  0.71299885  0.75042931  1
  P  P38  1  0.70862490  0.99554410  0.75152597  1
  P  P39  1  0.96533329  0.33323488  0.58363661  1
  P  P40  1  0.36839725  0.03712433  0.58320462  1
  P  P41  1  0.66456508  0.62976026  0.58406220  1
  P  P42  1  0.96518194  0.63010043  0.08408151  1
  P  P43  1  0.66823496  0.03644932  0.08199639  1
  P  P44  1  0.36806720  0.33378273  0.08222311  1
  P  P45  1  0.62735387  0.66558803  0.91672792  1
  P  P46  1  0.03862277  0.37558937  0.91548271  1
  P  P47  1  0.33170857  0.95870343  0.91684562  1
  P  P48  1  0.62123462  0.96015351  0.41847279  1
  P  P49  1  0.33880484  0.37907759  0.41742675  1
  P  P50  1  0.04002140  0.66144218  0.41854318  1
  O  O51  1  0.21681887  0.02543657  0.30999361  1
  O  O52  1  0.80885377  0.78392310  0.31008472  1
  O  O53  1  0.97316834  0.19398644  0.31226612  1
  O  O54  1  0.20538594  0.18241310  0.81166451  1
  O  O55  1  0.97438636  0.80215865  0.80587514  1
  O  O56  1  0.82206844  0.02375911  0.80935695  1
  O  O57  1  0.79127410  0.96512432  0.69276193  1
  O  O58  1  0.16714977  0.20491132  0.69625442  1
  O  O59  1  0.03499197  0.82247448  0.69065257  1
  O  O60  1  0.79143858  0.82413981  0.19358097  1
  O  O61  1  0.03689254  0.20500323  0.19712995  1
  O  O62  1  0.17572718  0.96705001  0.19341610  1
  O  O63  1  0.88914295  0.36768534  0.64171866  1
  O  O64  1  0.47921265  0.11196051  0.64106915  1
  O  O65  1  0.63970741  0.52914500  0.64323842  1
  O  O66  1  0.89514545  0.53327663  0.14421592  1
  O  O67  1  0.63217165  0.11076996  0.13976267  1
  O  O68  1  0.47828947  0.36910010  0.14036495  1
  O  O69  1  0.45604754  0.30051040  0.02507704  1
  O  O70  1  0.83865135  0.54028737  0.02963468  1
  O  O71  1  0.69121222  0.14747852  0.02373245  1
  O  O72  1  0.45582001  0.14784235  0.52483178  1
  O  O73  1  0.69739182  0.54263668  0.52700675  1
  O  O74  1  0.84466594  0.30058783  0.52631050  1
  O  O75  1  0.54184789  0.69880601  0.97337619  1
  O  O76  1  0.16405967  0.46354544  0.96931798  1
  O  O77  1  0.30979215  0.85064981  0.97460536  1
  O  O78  1  0.53379613  0.84763398  0.47593842  1
  O  O79  1  0.30839165  0.46883379  0.47238091  1
  O  O80  1  0.15371372  0.68903747  0.47602215  1
  O  O81  1  0.12312170  0.63093893  0.35988342  1
  O  O82  1  0.50798208  0.87637147  0.35973491  1
  O  O83  1  0.37077882  0.48897773  0.35763369  1
  O  O84  1  0.11623208  0.47926358  0.85493005  1
  O  O85  1  0.36400925  0.87555583  0.85862274  1
  O  O86  1  0.51078451  0.63208963  0.85828054  1
  O  O87  1  0.01840982  0.82420786  0.41530634  1
  O  O88  1  0.80551165  0.98111517  0.41570858  1
  O  O89  1  0.17721193  0.19382859  0.41447520  1
  O  O90  1  0.01797887  0.18786140  0.91225869  1
  O  O91  1  0.16936972  0.98451804  0.91238573  1
  O  O92  1  0.80962922  0.83495369  0.91146951  1
  O  O93  1  0.97613025  0.16233298  0.58791833  1
  O  O94  1  0.18100427  0.01349697  0.58720534  1
  O  O95  1  0.83435077  0.81633814  0.58648762  1
  O  O96  1  0.98367451  0.81748679  0.08714592  1
  O  O97  1  0.83143994  0.01166865  0.08695703  1
  O  O98  1  0.18620011  0.16313668  0.08726549  1
  O  O99  1  0.68685227  0.15831264  0.74774326  1
  O  O100  1  0.47095410  0.31201986  0.74789951  1
  O  O101  1  0.84257477  0.52778676  0.74716170  1
  O  O102  1  0.67783871  0.52140646  0.24543315  1
  O  O103  1  0.84205057  0.31907309  0.24498690  1
  O  O104  1  0.47849950  0.15685406  0.24483969  1
  O  O105  1  0.64106688  0.49744209  0.92268873  1
  O  O106  1  0.85194412  0.35053481  0.92232628  1
  O  O107  1  0.49939546  0.14531731  0.92059258  1
  O  O108  1  0.63754265  0.14559794  0.42217973  1
  O  O109  1  0.50849458  0.36399553  0.42279945  1
  O  O110  1  0.85477311  0.49221984  0.42287254  1
  O  O111  1  0.35215454  0.50073083  0.07395106  1
  O  O112  1  0.15318232  0.65807903  0.07513286  1
  O  O113  1  0.50221376  0.84839370  0.07567067  1
  O  O114  1  0.34611780  0.84920600  0.57751569  1
  O  O115  1  0.50530894  0.65936989  0.57699535  1
  O  O116  1  0.14827016  0.49958079  0.57635816  1
  O  O117  1  0.30611868  0.82461243  0.25416655  1
  O  O118  1  0.51838102  0.69428368  0.25396159  1
  O  O119  1  0.17398973  0.48156594  0.25488829  1
  O  O120  1  0.30513174  0.47802449  0.75583571  1
  O  O121  1  0.17450882  0.69808706  0.75526250  1
  O  O122  1  0.52310444  0.82604183  0.75575712  1
