# generated using pymatgen
data_MgTl4(MoO4)2
_symmetry_space_group_name_H-M   'P 1'
_cell_length_a   6.35102900
_cell_length_b   6.35102972
_cell_length_c   9.83911000
_cell_angle_alpha   90.00000000
_cell_angle_beta   90.00000000
_cell_angle_gamma   120.00000144
_symmetry_Int_Tables_number   1
_chemical_formula_structural   MgTl4(MoO4)2
_chemical_formula_sum   'Mg1 Tl4 Mo2 O8'
_cell_volume   343.69616193
_cell_formula_units_Z   1
loop_
 _symmetry_equiv_pos_site_id
 _symmetry_equiv_pos_as_xyz
  1  'x, y, z'
loop_
 _atom_site_type_symbol
 _atom_site_label
 _atom_site_symmetry_multiplicity
 _atom_site_fract_x
 _atom_site_fract_y
 _atom_site_fract_z
 _atom_site_occupancy
  Mg  Mg0  1  0.00000000  0.00000000  0.25131100  1
  Tl  Tl1  1  0.33333300  0.66666700  0.75639400  1
  Tl  Tl2  1  0.00000000  0.00000000  0.92951800  1
  Tl  Tl3  1  0.66666700  0.33333300  0.22899800  1
  Tl  Tl4  1  0.00000000  0.00000000  0.55529200  1
  Mo  Mo5  1  0.66666700  0.33333300  0.68310800  1
  Mo  Mo6  1  0.33333300  0.66666700  0.32954400  1
  O  O7  1  0.17068600  0.34137200  0.25071700  1
  O  O8  1  0.66666700  0.33333300  0.50394300  1
  O  O9  1  0.82257600  0.17742400  0.74492000  1
  O  O10  1  0.82257600  0.64515100  0.74492000  1
  O  O11  1  0.65862800  0.82931400  0.25071700  1
  O  O12  1  0.35484900  0.17742400  0.74492000  1
  O  O13  1  0.17068600  0.82931400  0.25071700  1
  O  O14  1  0.33333300  0.66666700  0.52498200  1
