# generated using pymatgen
data_Na7La2Zr2Si3(PO8)3
_symmetry_space_group_name_H-M   'P 1'
_cell_length_a   9.46844286
_cell_length_b   9.47759030
_cell_length_c   23.19188226
_cell_angle_alpha   90.02595506
_cell_angle_beta   90.06023216
_cell_angle_gamma   120.03427299
_symmetry_Int_Tables_number   1
_chemical_formula_structural   Na7La2Zr2Si3(PO8)3
_chemical_formula_sum   'Na21 La6 Zr6 Si9 P9 O72'
_cell_volume   1801.74163515
_cell_formula_units_Z   3
loop_
 _symmetry_equiv_pos_site_id
 _symmetry_equiv_pos_as_xyz
  1  'x, y, z'
loop_
 _atom_site_type_symbol
 _atom_site_label
 _atom_site_symmetry_multiplicity
 _atom_site_fract_x
 _atom_site_fract_y
 _atom_site_fract_z
 _atom_site_occupancy
  Na  Na0  1  0.63345232  0.00411308  0.25645100  1
  Na  Na1  1  0.36430714  0.37173913  0.24679305  1
  Na  Na2  1  0.00180133  0.61848210  0.25127470  1
  Na  Na3  1  0.63572468  0.63456585  0.74494106  1
  Na  Na4  1  0.98770311  0.36299122  0.74336779  1
  Na  Na5  1  0.37783408  0.00226151  0.74098002  1
  Na  Na6  1  0.03442534  0.69152446  0.58106830  1
  Na  Na7  1  0.65955953  0.97158968  0.57966960  1
  Na  Na8  1  0.67228066  0.68831108  0.08242549  1
  Na  Na9  1  0.02941965  0.34345028  0.08814414  1
  Na  Na10  1  0.95513930  0.66148567  0.92589342  1
  Na  Na11  1  0.70083794  0.03231211  0.91990133  1
  Na  Na12  1  0.34289542  0.30640921  0.92314584  1
  Na  Na13  1  0.96657790  0.31017646  0.41729581  1
  Na  Na14  1  0.33540513  0.02573570  0.42096089  1
  Na  Na15  1  0.00137709  0.99832940  0.50051272  1
  Na  Na16  1  0.01368057  0.99294601  0.00407731  1
  Na  Na17  1  0.66682773  0.33398215  0.83276513  1
  Na  Na18  1  0.68054595  0.34758710  0.33750817  1
  Na  Na19  1  0.31949980  0.66564484  0.16350617  1
  Na  Na20  1  0.33335504  0.65824519  0.66198565  1
  La  La21  1  0.99297960  0.99736300  0.84984987  1
  La  La22  1  0.66493113  0.32962626  0.66949858  1
  La  La23  1  0.66761305  0.33233939  0.18058888  1
  La  La24  1  0.66101147  0.33426445  0.99400584  1
  La  La25  1  0.33105984  0.66325813  0.32409669  1
  La  La26  1  0.34036386  0.66926355  0.81540439  1
  Zr  Zr27  1  0.99035153  0.99675920  0.35620586  1
  Zr  Zr28  1  0.00282114  0.00722178  0.64484575  1
  Zr  Zr29  1  0.00946170  0.00641070  0.14900287  1
  Zr  Zr30  1  0.66602672  0.33207762  0.48658035  1
  Zr  Zr31  1  0.33521005  0.66897419  0.01804945  1
  Zr  Zr32  1  0.33334693  0.66717061  0.51260372  1
  Si  Si33  1  0.99925411  0.28869979  0.25211856  1
  Si  Si34  1  0.70132521  0.00303670  0.74626265  1
  Si  Si35  1  0.97761044  0.33644850  0.58255666  1
  Si  Si36  1  0.35723220  0.02007091  0.58189036  1
  Si  Si37  1  0.98541991  0.65194404  0.08386714  1
  Si  Si38  1  0.34902448  0.33692631  0.08300188  1
  Si  Si39  1  0.63372928  0.66305780  0.91811338  1
  Si  Si40  1  0.63710646  0.97662145  0.41690251  1
  Si  Si41  1  0.02417286  0.66431295  0.41670631  1
  P  P42  1  0.28353612  0.00078441  0.25401088  1
  P  P43  1  0.71669328  0.71687107  0.25001175  1
  P  P44  1  0.29511581  0.29471668  0.74733612  1
  P  P45  1  0.99751378  0.70294201  0.74527789  1
  P  P46  1  0.66589146  0.64124640  0.58368619  1
  P  P47  1  0.66892858  0.01343323  0.08469377  1
  P  P48  1  0.03627347  0.37011083  0.91904223  1
  P  P49  1  0.33561171  0.96442604  0.91736028  1
  P  P50  1  0.33500940  0.35996300  0.41604181  1
  O  O51  1  0.19300538  0.00547734  0.30906422  1
  O  O52  1  0.82056710  0.81432307  0.30345149  1
  O  O53  1  0.99645976  0.18200669  0.30926916  1
  O  O54  1  0.22729326  0.21191317  0.80606807  1
  O  O55  1  0.99148824  0.78106134  0.80312002  1
  O  O56  1  0.79188993  0.01745172  0.80801351  1
  O  O57  1  0.81738649  0.99766852  0.69294910  1
  O  O58  1  0.18319233  0.17998116  0.69787618  1
  O  O59  1  0.00226989  0.81237535  0.69395038  1
  O  O60  1  0.80669284  0.81035249  0.19510612  1
  O  O61  1  -0.00009157  0.18573746  0.19517941  1
  O  O62  1  0.18161976  0.99599681  0.20078689  1
  O  O63  1  0.92260496  0.38295863  0.64290624  1
  O  O64  1  0.45854366  0.07891839  0.64217008  1
  O  O65  1  0.63536598  0.56074376  0.64355395  1
  O  O66  1  0.90416074  0.52493549  0.13854950  1
  O  O67  1  0.64024601  0.09181217  0.13832824  1
  O  O68  1  0.47166290  0.37586250  0.13822930  1
  O  O69  1  0.41933723  0.30362599  0.02397598  1
  O  O70  1  0.86864781  0.57795302  0.02686165  1
  O  O71  1  0.70638902  0.12234650  0.03086987  1
  O  O72  1  0.46516935  0.14938567  0.53041629  1
  O  O73  1  0.68945851  0.53302731  0.53865506  1
  O  O74  1  0.83765868  0.30783962  0.53326000  1
  O  O75  1  0.51734487  0.66575928  0.97107278  1
  O  O76  1  0.14303274  0.48022030  0.96982003  1
  O  O77  1  0.33275733  0.85016956  0.96596019  1
  O  O78  1  0.53377523  0.85094181  0.46925184  1
  O  O79  1  0.30989884  0.46473374  0.46180470  1
  O  O80  1  0.16052652  0.69069765  0.46686824  1
  O  O81  1  0.08249292  0.61685979  0.35679134  1
  O  O82  1  0.53529165  0.91332697  0.35658708  1
  O  O83  1  0.36498706  0.44366318  0.35665627  1
  O  O84  1  0.10757726  0.45774701  0.86118365  1
  O  O85  1  0.34179047  0.89220101  0.85823728  1
  O  O86  1  0.54303903  0.65071184  0.85657316  1
  O  O87  1  0.02573190  0.83900014  0.41259913  1
  O  O88  1  0.82378646  0.00297233  0.41338859  1
  O  O89  1  0.17485565  0.18849836  0.41462706  1
  O  O90  1  0.03674476  0.20699317  0.92333486  1
  O  O91  1  0.18042722  0.97880000  0.92322235  1
  O  O92  1  0.81145019  0.83184149  0.92419773  1
  O  O93  1  0.97726548  0.16179836  0.58649220  1
  O  O94  1  0.17106132  0.99241857  0.58635059  1
  O  O95  1  0.82746529  0.81140964  0.58488926  1
  O  O96  1  0.99374640  0.82653053  0.09475080  1
  O  O97  1  0.81908717  0.99011774  0.09280169  1
  O  O98  1  0.16305022  0.18199383  0.09216689  1
  O  O99  1  0.68205751  0.16612181  0.74395161  1
  O  O100  1  0.47017938  0.32249953  0.74244903  1
  O  O101  1  0.84070633  0.53274265  0.74369646  1
  O  O102  1  0.70044732  0.54547347  0.25194058  1
  O  O103  1  0.83231872  0.30212202  0.25444249  1
  O  O104  1  0.45342698  0.15800095  0.25243416  1
  O  O105  1  0.65403982  0.50060170  0.91958076  1
  O  O106  1  0.85996448  0.33999596  0.92296913  1
  O  O107  1  0.49256800  0.13373775  0.92096327  1
  O  O108  1  0.65808377  0.15966726  0.42799156  1
  O  O109  1  0.47900150  0.33163274  0.42974395  1
  O  O110  1  0.84612880  0.50477398  0.43202667  1
  O  O111  1  0.32905143  0.50005667  0.07689077  1
  O  O112  1  0.16384686  0.66759267  0.07448635  1
  O  O113  1  0.51885942  0.84108797  0.07618756  1
  O  O114  1  0.33989590  0.83891244  0.57016603  1
  O  O115  1  0.52320542  0.67074625  0.56917081  1
  O  O116  1  0.15492057  0.49376923  0.56645923  1
  O  O117  1  0.30028673  0.84604341  0.25144492  1
  O  O118  1  0.54636667  0.70302339  0.25109268  1
  O  O119  1  0.16623281  0.46921303  0.24905262  1
  O  O120  1  0.29385999  0.45718828  0.74213222  1
  O  O121  1  0.15333104  0.68845142  0.74172273  1
  O  O122  1  0.52437398  0.83312868  0.74115277  1
