# generated using pymatgen
data_Na21Mg10Ta2P15(SO24)3
_symmetry_space_group_name_H-M   'P 1'
_cell_length_a   8.98033159
_cell_length_b   8.99373675
_cell_length_c   22.13825228
_cell_angle_alpha   89.86630375
_cell_angle_beta   89.92394053
_cell_angle_gamma   120.05071124
_symmetry_Int_Tables_number   1
_chemical_formula_structural   Na21Mg10Ta2P15(SO24)3
_chemical_formula_sum   'Na21 Mg10 Ta2 P15 S3 O72'
_cell_volume   1547.68070592
_cell_formula_units_Z   1
loop_
 _symmetry_equiv_pos_site_id
 _symmetry_equiv_pos_as_xyz
  1  'x, y, z'
loop_
 _atom_site_type_symbol
 _atom_site_label
 _atom_site_symmetry_multiplicity
 _atom_site_fract_x
 _atom_site_fract_y
 _atom_site_fract_z
 _atom_site_occupancy
  Na  Na0  1  0.36399509  0.35473642  0.24798816  1
  Na  Na1  1  0.98813192  0.35441116  0.74281515  1
  Na  Na2  1  0.36506728  0.01008890  0.74293522  1
  Na  Na3  1  0.29440798  0.32648623  0.58110280  1
  Na  Na4  1  0.03930463  0.69925984  0.58317017  1
  Na  Na5  1  0.66719111  0.97674504  0.58231806  1
  Na  Na6  1  0.30093816  0.97599150  0.08676953  1
  Na  Na7  1  0.66090988  0.69185160  0.08885692  1
  Na  Na8  1  0.04001426  0.33220259  0.08749895  1
  Na  Na9  1  0.96471456  0.66870901  0.91423374  1
  Na  Na10  1  0.70465039  0.03572041  0.91466876  1
  Na  Na11  1  0.33161830  0.29494215  0.91763192  1
  Na  Na12  1  0.96372447  0.29572505  0.41659243  1
  Na  Na13  1  0.33176432  0.03687567  0.41711808  1
  Na  Na14  1  0.70414445  0.66841492  0.41367669  1
  Na  Na15  1  0.00522123  0.00611885  0.49877426  1
  Na  Na16  1  0.00668480  0.00566109  0.99933614  1
  Na  Na17  1  0.66590257  0.34155618  0.82905589  1
  Na  Na18  1  0.67533703  0.33300954  0.32927533  1
  Na  Na19  1  0.33327081  0.66850860  0.16842854  1
  Na  Na20  1  0.33489517  0.66680460  0.65979332  1
  Mg  Mg21  1  0.99807146  0.99945560  0.34786646  1
  Mg  Mg22  1  0.99981983  0.99848271  0.84834029  1
  Mg  Mg23  1  0.00356635  0.00422426  0.65113097  1
  Mg  Mg24  1  0.00441807  0.00421054  0.15810233  1
  Mg  Mg25  1  0.66745251  0.33328797  0.68330081  1
  Mg  Mg26  1  0.66655590  0.33549584  0.18910411  1
  Mg  Mg27  1  0.66008046  0.33158824  0.98138147  1
  Mg  Mg28  1  0.66513470  0.32605385  0.48204782  1
  Mg  Mg29  1  0.33388507  0.66153483  0.01560303  1
  Mg  Mg30  1  0.32861861  0.66711879  0.51604279  1
  Ta  Ta31  1  0.33296758  0.67021767  0.31279330  1
  Ta  Ta32  1  0.33635906  0.66629640  0.81303289  1
  P  P33  1  0.29452101  0.00090120  0.24991850  1
  P  P34  1  0.70841928  0.70615300  0.25019131  1
  P  P35  1  0.99496134  0.29342263  0.25063666  1
  P  P36  1  0.29636140  0.29288650  0.75111044  1
  P  P37  1  0.99397827  0.70430973  0.75142351  1
  P  P38  1  0.70934445  0.00087086  0.75059159  1
  P  P39  1  0.96200214  0.33298811  0.58352844  1
  P  P40  1  0.37094689  0.03829253  0.58378659  1
  P  P41  1  0.37090673  0.33245238  0.08295759  1
  P  P42  1  0.62950063  0.66986087  0.91893575  1
  P  P43  1  0.03895496  0.37158692  0.91856534  1
  P  P44  1  0.33200206  0.95823329  0.91888157  1
  P  P45  1  0.62747305  0.95794495  0.41869782  1
  P  P46  1  0.33302251  0.37353095  0.41833202  1
  P  P47  1  0.03924903  0.66868760  0.41835472  1
  S  S48  1  0.66733552  0.62590477  0.58298076  1
  S  S49  1  0.95876826  0.62537897  0.08242286  1
  S  S50  1  0.66689197  0.04143675  0.08268862  1
  O  O51  1  0.21072883  0.02748964  0.30575957  1
  O  O52  1  0.81147283  0.78963369  0.30677439  1
  O  O53  1  0.97805993  0.19039230  0.30742897  1
  O  O54  1  0.21465969  0.18665525  0.80836472  1
  O  O55  1  0.97726003  0.78617209  0.80928704  1
  O  O56  1  0.81541560  0.02737060  0.80764365  1
  O  O57  1  0.78202644  0.96657235  0.69382118  1
  O  O58  1  0.18122987  0.22298529  0.69541187  1
  O  O59  1  0.03819112  0.81849110  0.69544143  1
  O  O60  1  0.77985814  0.81193941  0.19184281  1
  O  O61  1  0.04076082  0.22525029  0.19346205  1
  O  O62  1  0.18791872  0.96380055  0.19181761  1
  O  O63  1  0.88091479  0.36382983  0.64043345  1
  O  O64  1  0.48090800  0.12118186  0.64077014  1
  O  O65  1  0.63962513  0.51636095  0.63620585  1
  O  O66  1  0.87615138  0.51488458  0.13450015  1
  O  O67  1  0.64236854  0.12558796  0.13471324  1
  O  O68  1  0.48522373  0.36086163  0.13809985  1
  O  O69  1  0.45200621  0.30369932  0.02518638  1
  O  O70  1  0.85723911  0.54832153  0.02615326  1
  O  O71  1  0.69571736  0.14496119  0.02635395  1
  O  O72  1  0.45281261  0.15159444  0.52726576  1
  O  O73  1  0.69438735  0.54995717  0.52760908  1
  O  O74  1  0.85106988  0.30655683  0.52699133  1
  O  O75  1  0.54837478  0.69986982  0.97461688  1
  O  O76  1  0.15076242  0.45501725  0.97378876  1
  O  O77  1  0.30388717  0.84598275  0.97427348  1
  O  O78  1  0.54603160  0.84716594  0.47483119  1
  O  O79  1  0.30501650  0.45711432  0.47391499  1
  O  O80  1  0.14973459  0.69872288  0.47438888  1
  O  O81  1  0.13905221  0.64322567  0.36305011  1
  O  O82  1  0.50320126  0.85797320  0.36340278  1
  O  O83  1  0.35690269  0.49323624  0.36133193  1
  O  O84  1  0.13468488  0.49256622  0.86164214  1
  O  O85  1  0.35604120  0.86203745  0.86207665  1
  O  O86  1  0.50404580  0.64397297  0.86358161  1
  O  O87  1  0.02132457  0.82872098  0.40960186  1
  O  O88  1  0.80640994  0.97748819  0.41022459  1
  O  O89  1  0.17277032  0.19440708  0.41061535  1
  O  O90  1  0.02067009  0.19322616  0.91053953  1
  O  O91  1  0.17237240  0.97776806  0.91101570  1
  O  O92  1  0.80788340  0.82948046  0.91014094  1
  O  O93  1  0.97818601  0.16816650  0.58879318  1
  O  O94  1  0.18669980  0.01485165  0.58909295  1
  O  O95  1  0.82286372  0.80023752  0.58914539  1
  O  O96  1  0.97570367  0.79953763  0.08746040  1
  O  O97  1  0.82094672  0.01870270  0.08779854  1
  O  O98  1  0.18685502  0.16927329  0.08783174  1
  O  O99  1  0.67874522  0.15517307  0.74590806  1
  O  O100  1  0.47586585  0.31586414  0.74407530  1
  O  O101  1  0.84660594  0.51909052  0.74559354  1
  O  O102  1  0.67119958  0.52025547  0.24505178  1
  O  O103  1  0.84377029  0.32232904  0.24286555  1
  O  O104  1  0.47435377  0.15933973  0.24367873  1
  O  O105  1  0.64101525  0.50432479  0.91986526  1
  O  O106  1  0.86136089  0.35995439  0.92050856  1
  O  O107  1  0.49871691  0.13518782  0.91956069  1
  O  O108  1  0.63782609  0.13443968  0.41908980  1
  O  O109  1  0.49941833  0.36287278  0.41972335  1
  O  O110  1  0.86200478  0.50305521  0.41989250  1
  O  O111  1  0.35122190  0.49643296  0.07832604  1
  O  O112  1  0.13625890  0.64866018  0.07756293  1
  O  O113  1  0.50890629  0.86667419  0.07762647  1
  O  O114  1  0.35521595  0.85728079  0.57896007  1
  O  O115  1  0.51178718  0.64563237  0.57830085  1
  O  O116  1  0.14658757  0.49405369  0.57893409  1
  O  O117  1  0.31420380  0.83456261  0.25905740  1
  O  O118  1  0.51732536  0.68449326  0.25811180  1
  O  O119  1  0.16996065  0.47998847  0.25880462  1
  O  O120  1  0.31142336  0.47882026  0.76024036  1
  O  O121  1  0.16835171  0.68697493  0.75948667  1
  O  O122  1  0.51859003  0.83521683  0.75948789  1
