# generated using pymatgen
data_MgNiHO2
_symmetry_space_group_name_H-M   'P 1'
_cell_length_a   3.38094863
_cell_length_b   2.98451607
_cell_length_c   5.73648536
_cell_angle_alpha   90.00000345
_cell_angle_beta   81.27315406
_cell_angle_gamma   63.80848493
_symmetry_Int_Tables_number   1
_chemical_formula_structural   MgNiHO2
_chemical_formula_sum   'Mg1 Ni1 H1 O2'
_cell_volume   51.19280022
_cell_formula_units_Z   1
loop_
 _symmetry_equiv_pos_site_id
 _symmetry_equiv_pos_as_xyz
  1  'x, y, z'
loop_
 _atom_site_type_symbol
 _atom_site_label
 _atom_site_symmetry_multiplicity
 _atom_site_fract_x
 _atom_site_fract_y
 _atom_site_fract_z
 _atom_site_occupancy
  Mg  Mg0  1  0.98552370  0.00723815  0.61034734  1
  Ni  Ni1  1  0.38669268  0.80665416  0.05491630  1
  H  H2  1  0.88353638  0.55823131  0.26113374  1
  O  O3  1  0.17776707  0.41111646  0.31623921  1
  O  O4  1  0.56648018  0.71675991  0.72411341  1
