# generated using pymatgen
data_LaHfP(SO6)2
_symmetry_space_group_name_H-M   'P 1'
_cell_length_a   9.31001948
_cell_length_b   9.31598730
_cell_length_c   23.20430903
_cell_angle_alpha   90.02144852
_cell_angle_beta   90.00000000
_cell_angle_gamma   119.97881138
_symmetry_Int_Tables_number   1
_chemical_formula_structural   LaHfP(SO6)2
_chemical_formula_sum   'La6 Hf6 P6 S12 O72'
_cell_volume   1743.29705413
_cell_formula_units_Z   6
loop_
 _symmetry_equiv_pos_site_id
 _symmetry_equiv_pos_as_xyz
  1  'x, y, z'
loop_
 _atom_site_type_symbol
 _atom_site_label
 _atom_site_symmetry_multiplicity
 _atom_site_fract_x
 _atom_site_fract_y
 _atom_site_fract_z
 _atom_site_occupancy
  La  La0  1  0.00217814  0.00151456  0.36502853  1
  La  La1  1  0.99933642  0.00151456  0.86502853  1
  La  La2  1  0.67862645  0.33852397  0.69819631  1
  La  La3  1  0.65989852  0.33852397  0.19819631  1
  La  La4  1  0.32782030  0.65255909  0.03129180  1
  La  La5  1  0.32473780  0.65255909  0.53129180  1
  Hf  Hf6  1  0.00007569  0.00011723  0.64600569  1
  Hf  Hf7  1  0.00004154  0.00011723  0.14600569  1
  Hf  Hf8  1  0.66440173  0.33134111  0.97979538  1
  Hf  Hf9  1  0.66694038  0.33134111  0.47979538  1
  Hf  Hf10  1  0.34619694  0.66332258  0.31255734  1
  Hf  Hf11  1  0.31712464  0.66332258  0.81255734  1
  P  P12  1  0.70748187  0.73796248  0.24992049  1
  P  P13  1  0.03048061  0.73796248  0.74992049  1
  P  P14  1  0.92985972  0.29598667  0.58267815  1
  P  P15  1  0.36612796  0.29598667  0.08267815  1
  P  P16  1  0.02998142  0.39833480  0.91614459  1
  P  P17  1  0.36835238  0.39833480  0.41614459  1
  S  S18  1  0.26763128  0.96223088  0.24955801  1
  S  S19  1  0.03282160  0.30233762  0.24864928  1
  S  S20  1  0.26951602  0.30233762  0.74864928  1
  S  S21  1  0.69459960  0.96223088  0.74955801  1
  S  S22  1  0.36600405  0.06446112  0.58302205  1
  S  S23  1  0.70006549  0.63547072  0.58264643  1
  S  S24  1  0.93540624  0.63547072  0.08264643  1
  S  S25  1  0.69845807  0.06446112  0.08302205  1
  S  S26  1  0.60140448  0.63345643  0.91600643  1
  S  S27  1  0.36694777  0.96686461  0.91673022  1
  S  S28  1  0.59991584  0.96686461  0.41673022  1
  S  S29  1  0.03205095  0.63345643  0.41600643  1
  O  O30  1  0.20287198  0.00148598  0.30089573  1
  O  O31  1  0.81153576  0.81175084  0.30358996  1
  O  O32  1  0.99665689  0.20134730  0.30042484  1
  O  O33  1  0.20469041  0.20134730  0.80042484  1
  O  O34  1  0.00021508  0.81175084  0.80358996  1
  O  O35  1  0.79861400  0.00148598  0.80089573  1
  O  O36  1  0.78396248  0.94412435  0.69822953  1
  O  O37  1  0.15870190  0.21485585  0.69780653  1
  O  O38  1  0.05202487  0.85160248  0.69669430  1
  O  O39  1  0.79957761  0.85160248  0.19669430  1
  O  O40  1  0.05615396  0.21485585  0.19780653  1
  O  O41  1  0.16016187  0.94412435  0.19822953  1
  O  O42  1  0.85825348  0.33202026  0.63611504  1
  O  O43  1  0.46604090  0.13282392  0.63497460  1
  O  O44  1  0.65960375  0.53228983  0.63420903  1
  O  O45  1  0.87268708  0.53228983  0.13420903  1
  O  O46  1  0.66678402  0.13282392  0.13497460  1
  O  O47  1  0.47376778  0.33202026  0.13611504  1
  O  O48  1  0.46157784  0.27635895  0.02982132  1
  O  O49  1  0.82666218  0.54704010  0.03179938  1
  O  O50  1  0.72143115  0.17433537  0.03193020  1
  O  O51  1  0.45290522  0.17433537  0.53193020  1
  O  O52  1  0.72037892  0.54704010  0.53179938  1
  O  O53  1  0.81478211  0.27635895  0.52982132  1
  O  O54  1  0.53690271  0.67076896  0.96804926  1
  O  O55  1  0.14052933  0.47079553  0.96876437  1
  O  O56  1  0.33577736  0.86646662  0.96842743  1
  O  O57  1  0.53068826  0.86646662  0.46842743  1
  O  O58  1  0.33026519  0.47079553  0.46876437  1
  O  O59  1  0.13386525  0.67076896  0.46804926  1
  O  O60  1  0.11894867  0.61354865  0.36512938  1
  O  O61  1  0.49281539  0.87947335  0.36517738  1
  O  O62  1  0.39095244  0.51575745  0.36298044  1
  O  O63  1  0.12480401  0.51575745  0.86298044  1
  O  O64  1  0.38665696  0.87947335  0.86517738  1
  O  O65  1  0.49459898  0.61354865  0.86512938  1
  O  O66  1  0.99455695  0.76704006  0.40698099  1
  O  O67  1  0.76967793  0.00149711  0.40749139  1
  O  O68  1  0.22895486  0.22356268  0.40356670  1
  O  O69  1  0.99460782  0.22356268  0.90356670  1
  O  O70  1  0.23181918  0.00149711  0.90749139  1
  O  O71  1  0.77248310  0.76704006  0.90698099  1
  O  O72  1  0.93685215  0.13349407  0.59330153  1
  O  O73  1  0.20279821  0.05983803  0.59055491  1
  O  O74  1  0.86028512  0.79491604  0.59104336  1
  O  O75  1  0.93463092  0.79491604  0.09104336  1
  O  O76  1  0.85703982  0.05983803  0.09055491  1
  O  O77  1  0.19664193  0.13349407  0.09330153  1
  O  O78  1  0.65663350  0.09544893  0.73948320  1
  O  O79  1  0.43835884  0.33640842  0.73731367  1
  O  O80  1  0.88910260  0.56214635  0.73974912  1
  O  O81  1  0.67304475  0.56214635  0.23974912  1
  O  O82  1  0.89805058  0.33640842  0.23731367  1
  O  O83  1  0.43881643  0.09544893  0.23948320  1
  O  O84  1  0.60437182  0.47475686  0.92500224  1
  O  O85  1  0.86193391  0.39317485  0.92761504  1
  O  O86  1  0.52607992  0.12922909  0.92348743  1
  O  O87  1  0.60315018  0.12922909  0.42348743  1
  O  O88  1  0.53124193  0.39317485  0.42761504  1
  O  O89  1  0.87038604  0.47475686  0.42500224  1
  O  O90  1  0.33171852  0.43747197  0.07237105  1
  O  O91  1  0.10674450  0.67611548  0.07216037  1
  O  O92  1  0.56249131  0.89639415  0.07233791  1
  O  O93  1  0.33390183  0.89639415  0.57233791  1
  O  O94  1  0.56936998  0.67611548  0.57216037  1
  O  O95  1  0.10575245  0.43747197  0.57237105  1
  O  O96  1  0.26798426  0.80347912  0.25818267  1
  O  O97  1  0.53499744  0.72924970  0.25923698  1
  O  O98  1  0.19087807  0.46444740  0.25687202  1
  O  O99  1  0.27356833  0.46444740  0.75687202  1
  O  O100  1  0.19425127  0.72924970  0.75923698  1
  O  O101  1  0.53549387  0.80347912  0.75818267  1
