# generated using pymatgen
data_Na2La4Ta4Si5S7O48
_symmetry_space_group_name_H-M   'P 1'
_cell_length_a   18.38192385
_cell_length_b   9.21163868
_cell_length_c   23.89768619
_cell_angle_alpha   89.93015291
_cell_angle_beta   90.03358610
_cell_angle_gamma   120.24197392
_symmetry_Int_Tables_number   1
_chemical_formula_structural   Na2La4Ta4Si5S7O48
_chemical_formula_sum   'Na6 La12 Ta12 Si15 S21 O144'
_cell_volume   3495.82683459
_cell_formula_units_Z   3
loop_
 _symmetry_equiv_pos_site_id
 _symmetry_equiv_pos_as_xyz
  1  'x, y, z'
loop_
 _atom_site_type_symbol
 _atom_site_label
 _atom_site_symmetry_multiplicity
 _atom_site_fract_x
 _atom_site_fract_y
 _atom_site_fract_z
 _atom_site_occupancy
  Na  Na0  1  0.00145794  0.98848705  0.49639509  1
  Na  Na1  1  0.49768492  0.00839508  0.99471817  1
  Na  Na2  1  0.33131723  0.30922324  0.84425535  1
  Na  Na3  1  0.83284880  0.33687327  0.83345309  1
  Na  Na4  1  0.32977924  0.32567811  0.32798340  1
  Na  Na5  1  0.84645138  0.35524339  0.33336373  1
  La  La6  1  0.00864593  0.98691125  0.35451223  1
  La  La7  1  0.50569272  0.02860715  0.85529143  1
  La  La8  1  0.00394533  0.00462161  0.65021859  1
  La  La9  1  0.50394577  0.00265109  0.14834966  1
  La  La10  1  0.32164254  0.32202688  0.98080856  1
  La  La11  1  0.84838908  0.33843738  0.98678270  1
  La  La12  1  0.34696875  0.35702805  0.48734745  1
  La  La13  1  0.82561542  0.32470093  0.48232825  1
  La  La14  1  0.15478355  0.67499790  0.30248120  1
  La  La15  1  0.67294139  0.67140332  0.29880297  1
  La  La16  1  0.17251296  0.67978911  0.79985066  1
  La  La17  1  0.65446916  0.63392768  0.80253068  1
  Ta  Ta18  1  0.50351251  0.01477582  0.34853994  1
  Ta  Ta19  1  0.01057501  0.99134874  0.85321187  1
  Ta  Ta20  1  0.50378832  0.00911746  0.64209509  1
  Ta  Ta21  1  0.00520528  0.00306334  0.14161249  1
  Ta  Ta22  1  0.33267001  0.34563269  0.68080403  1
  Ta  Ta23  1  0.83125591  0.32631218  0.68802460  1
  Ta  Ta24  1  0.33049511  0.32846343  0.18239579  1
  Ta  Ta25  1  0.83167545  0.32104894  0.17910615  1
  Ta  Ta26  1  0.15637868  0.65849733  0.02248733  1
  Ta  Ta27  1  0.67308483  0.67091767  0.02011764  1
  Ta  Ta28  1  0.17196948  0.67343822  0.52096752  1
  Ta  Ta29  1  0.65811152  0.67364753  0.52768498  1
  Si  Si30  1  0.14679761  0.01973864  0.24432653  1
  Si  Si31  1  0.65753538  0.03885399  0.25131365  1
  Si  Si32  1  0.48395044  0.27906754  0.24949547  1
  Si  Si33  1  0.15728605  0.27848054  0.75193025  1
  Si  Si34  1  0.64581997  0.27390940  0.74486028  1
  Si  Si35  1  0.98522288  0.69290310  0.75059842  1
  Si  Si36  1  0.48003941  0.33103791  0.58583437  1
  Si  Si37  1  0.68646579  0.03985776  0.58770857  1
  Si  Si38  1  0.33195284  0.63666839  0.58682335  1
  Si  Si39  1  0.98111741  0.63173619  0.08584270  1
  Si  Si40  1  0.83213049  0.02631115  0.08685774  1
  Si  Si41  1  0.18647364  0.34631199  0.08632335  1
  Si  Si42  1  0.52316898  0.37456967  0.92245612  1
  Si  Si43  1  0.16142895  0.94229074  0.91612614  1
  Si  Si44  1  0.02236647  0.67017568  0.42225697  1
  S  S45  1  0.36059342  0.69074730  0.25444081  1
  S  S46  1  0.86329003  0.69605542  0.24003036  1
  S  S47  1  0.98670650  0.27333080  0.24282153  1
  S  S48  1  0.48800116  0.70289811  0.74264869  1
  S  S49  1  0.36306613  0.02944376  0.73864904  1
  S  S50  1  0.85689051  0.02522017  0.75233361  1
  S  S51  1  0.99059883  0.35973217  0.58216836  1
  S  S52  1  0.18982803  0.02654579  0.58008307  1
  S  S53  1  0.82046646  0.62425012  0.58184216  1
  S  S54  1  0.49080208  0.61896871  0.08164321  1
  S  S55  1  0.32057454  0.02312542  0.08431460  1
  S  S56  1  0.69144657  0.35452595  0.08041195  1
  S  S57  1  0.31079992  0.68525333  0.92352608  1
  S  S58  1  0.81629846  0.68618578  0.91633417  1
  S  S59  1  0.02911897  0.36558116  0.91507657  1
  S  S60  1  0.66382688  0.94303998  0.92182148  1
  S  S61  1  0.31759177  0.94787035  0.41603176  1
  S  S62  1  0.80894421  0.93402303  0.42396488  1
  S  S63  1  0.16393504  0.38507964  0.42209462  1
  S  S64  1  0.65302315  0.36179546  0.41522754  1
  S  S65  1  0.53166002  0.69319551  0.41592311  1
  O  O66  1  0.12323249  0.06415397  0.30485460  1
  O  O67  1  0.59635250  0.05198588  0.30574754  1
  O  O68  1  0.42021448  0.78634107  0.30289123  1
  O  O69  1  0.90545896  0.75648296  0.29504849  1
  O  O70  1  0.47238028  0.14351836  0.30562205  1
  O  O71  1  0.97225131  0.18676357  0.29691323  1
  O  O72  1  0.09802418  0.14381147  0.80626200  1
  O  O73  1  0.62096035  0.18047539  0.80476861  1
  O  O74  1  0.47407637  0.76099445  0.79625801  1
  O  O75  1  0.97346564  0.80026219  0.80583050  1
  O  O76  1  0.40537406  0.05544384  0.79334611  1
  O  O77  1  0.91339194  0.05378095  0.80027188  1
  O  O78  1  0.41437712  0.01683542  0.69381880  1
  O  O79  1  0.88786690  0.99784345  0.69928678  1
  O  O80  1  0.10304113  0.20775594  0.69612502  1
  O  O81  1  0.58106344  0.15221113  0.69705111  1
  O  O82  1  0.99407387  0.79298924  0.69435157  1
  O  O83  1  0.48944098  0.80703047  0.69563888  1
  O  O84  1  0.39098865  0.78557860  0.20246654  1
  O  O85  1  0.91228674  0.81135380  0.19495994  1
  O  O86  1  0.98858248  0.17213798  0.19641377  1
  O  O87  1  0.49695989  0.19726191  0.19505434  1
  O  O88  1  0.07987474  0.00905343  0.19809192  1
  O  O89  1  0.60223061  0.99702777  0.19638687  1
  O  O90  1  0.42661105  0.36559214  0.63478184  1
  O  O91  1  0.94822542  0.37843708  0.63269138  1
  O  O92  1  0.24098165  0.11210660  0.63044717  1
  O  O93  1  0.76085339  0.14325095  0.63573820  1
  O  O94  1  0.31045511  0.49032930  0.63752645  1
  O  O95  1  0.80936529  0.51668444  0.63094965  1
  O  O96  1  0.44743874  0.51338392  0.13266089  1
  O  O97  1  0.92543779  0.48947476  0.13573620  1
  O  O98  1  0.31469901  0.12404587  0.13352136  1
  O  O99  1  0.81055202  0.13025591  0.13810504  1
  O  O100  1  0.26125749  0.38396354  0.13642654  1
  O  O101  1  0.74291567  0.36859481  0.13130386  1
  O  O102  1  0.21225067  0.27773497  0.03420760  1
  O  O103  1  0.72677691  0.32493185  0.03004697  1
  O  O104  1  0.44084863  0.54343221  0.03181834  1
  O  O105  1  0.92631871  0.57629138  0.03036171  1
  O  O106  1  0.34157537  0.12504043  0.03399895  1
  O  O107  1  0.86018965  0.14673264  0.03372768  1
  O  O108  1  0.22552129  0.12616124  0.52920607  1
  O  O109  1  0.71294502  0.14270264  0.53114377  1
  O  O110  1  0.35978482  0.57432305  0.53305359  1
  O  O111  1  0.83871728  0.55958410  0.53114121  1
  O  O112  1  0.42888559  0.28156934  0.52877358  1
  O  O113  1  0.94042804  0.33771894  0.53192186  1
  O  O114  1  0.25700868  0.67775701  0.97305499  1
  O  O115  1  0.77201896  0.69815035  0.96961376  1
  O  O116  1  0.07368213  0.44855166  0.97026647  1
  O  O117  1  0.58827480  0.49846202  0.97590655  1
  O  O118  1  0.15249492  0.82289373  0.97321070  1
  O  O119  1  0.66871805  0.84769133  0.97355227  1
  O  O120  1  0.27468355  0.84762806  0.46902930  1
  O  O121  1  0.75450681  0.82946166  0.47338228  1
  O  O122  1  0.16838917  0.48967757  0.47341685  1
  O  O123  1  0.64220418  0.43809529  0.46663419  1
  O  O124  1  0.08674432  0.67460839  0.47549364  1
  O  O125  1  0.57761635  0.69917928  0.47109440  1
  O  O126  1  0.06536283  0.66829737  0.36350683  1
  O  O127  1  0.57541908  0.67068462  0.36986908  1
  O  O128  1  0.26494030  0.86668098  0.36731017  1
  O  O129  1  0.76936102  0.85093346  0.37199316  1
  O  O130  1  0.16781187  0.47431943  0.37106230  1
  O  O131  1  0.66738628  0.46424694  0.36580548  1
  O  O132  1  0.07218473  0.47260698  0.86836480  1
  O  O133  1  0.56805718  0.46119079  0.86380698  1
  O  O134  1  0.17217812  0.85855625  0.86175983  1
  O  O135  1  0.66784888  0.86119597  0.87098882  1
  O  O136  1  0.27187041  0.68441623  0.87085354  1
  O  O137  1  0.76348477  0.66186404  0.86770785  1
  O  O138  1  0.02090275  0.84611250  0.42786679  1
  O  O139  1  0.52767612  0.85034706  0.41043526  1
  O  O140  1  0.40016874  0.95169945  0.40903773  1
  O  O141  1  0.89253595  0.95027472  0.43051822  1
  O  O142  1  0.08321646  0.22445312  0.42771097  1
  O  O143  1  0.57036032  0.19149158  0.40590329  1
  O  O144  1  0.02346438  0.19793204  0.90976828  1
  O  O145  1  0.52220593  0.19615953  0.92840175  1
  O  O146  1  0.06923799  0.94549647  0.90584051  1
  O  O147  1  0.58329094  0.94124144  0.92748030  1
  O  O148  1  0.39390178  0.84159543  0.92978562  1
  O  O149  1  0.89786559  0.84699689  0.91090973  1
  O  O150  1  0.50507323  0.18998878  0.60336226  1
  O  O151  1  0.00489893  0.21665721  0.58577662  1
  O  O152  1  0.10152380  0.98364084  0.58473191  1
  O  O153  1  0.59093303  0.99034033  0.60569003  1
  O  O154  1  0.40547583  0.82025136  0.60796873  1
  O  O155  1  0.88654198  0.80076055  0.58860974  1
  O  O156  1  0.50537756  0.79103309  0.08718017  1
  O  O157  1  0.00468708  0.82196791  0.10412712  1
  O  O158  1  0.38713048  0.98264777  0.09397264  1
  O  O159  1  0.90577290  0.99160060  0.10866690  1
  O  O160  1  0.09138365  0.19764051  0.10706958  1
  O  O161  1  0.60350750  0.21965115  0.08598298  1
  O  O162  1  0.35541501  0.18122362  0.72857121  1
  O  O163  1  0.85622255  0.19343758  0.74428008  1
  O  O164  1  0.24719693  0.27663850  0.73778087  1
  O  O165  1  0.73833954  0.28889573  0.72726439  1
  O  O166  1  0.41138228  0.52538773  0.73355931  1
  O  O167  1  0.89605322  0.50824268  0.73833832  1
  O  O168  1  0.36006661  0.52612997  0.24746425  1
  O  O169  1  0.85579767  0.52871972  0.23116037  1
  O  O170  1  0.39749465  0.29006388  0.23893044  1
  O  O171  1  0.91042886  0.29784022  0.23413626  1
  O  O172  1  0.23968922  0.18844912  0.22635925  1
  O  O173  1  0.74745173  0.21869879  0.23962964  1
  O  O174  1  0.32255407  0.53828086  0.92532754  1
  O  O175  1  0.82907479  0.54089408  0.92232462  1
  O  O176  1  0.43071409  0.35283706  0.92346101  1
  O  O177  1  0.94150459  0.33608409  0.91753623  1
  O  O178  1  0.23319218  0.13649647  0.91892020  1
  O  O179  1  0.73672888  0.11589287  0.92464236  1
  O  O180  1  0.33237665  0.12019213  0.42157296  1
  O  O181  1  0.81584123  0.10066321  0.42537310  1
  O  O182  1  0.23658514  0.35822443  0.42498053  1
  O  O183  1  0.72080899  0.32098423  0.41938014  1
  O  O184  1  0.44475011  0.54765075  0.41898344  1
  O  O185  1  0.92759315  0.50727791  0.42277353  1
  O  O186  1  0.17938391  0.51403828  0.07060804  1
  O  O187  1  0.69237332  0.51817068  0.07454409  1
  O  O188  1  0.07000717  0.63342583  0.07122338  1
  O  O189  1  0.57646215  0.63365439  0.07601688  1
  O  O190  1  0.23839158  0.86314118  0.07872851  1
  O  O191  1  0.74705053  0.84639147  0.07188941  1
  O  O192  1  0.19028250  0.86336775  0.57294793  1
  O  O193  1  0.67774093  0.85026895  0.57354885  1
  O  O194  1  0.24695234  0.64692913  0.57104139  1
  O  O195  1  0.73791934  0.62373762  0.57118469  1
  O  O196  1  0.07650007  0.51698721  0.57568647  1
  O  O197  1  0.57111591  0.50808695  0.57026470  1
  O  O198  1  0.15949105  0.86088142  0.24166364  1
  O  O199  1  0.68073712  0.90264645  0.27010174  1
  O  O200  1  0.27624364  0.65493076  0.26792911  1
  O  O201  1  0.77891578  0.67475687  0.23954188  1
  O  O202  1  0.06210702  0.43985992  0.24201303  1
  O  O203  1  0.55719649  0.45863394  0.26735699  1
  O  O204  1  0.18389368  0.46308461  0.76886375  1
  O  O205  1  0.65987348  0.45887715  0.74100431  1
  O  O206  1  0.05450898  0.64480470  0.76240907  1
  O  O207  1  0.56288201  0.68652882  0.74126271  1
  O  O208  1  0.28010788  0.88006315  0.73639481  1
  O  O209  1  0.77051570  0.89624751  0.76246332  1
