# generated using pymatgen
data_Na2La2Ta2Si3(SO8)3
_symmetry_space_group_name_H-M   'P 1'
_cell_length_a   9.27435340
_cell_length_b   9.29257167
_cell_length_c   23.80556708
_cell_angle_alpha   92.38399433
_cell_angle_beta   90.21752565
_cell_angle_gamma   119.48324185
_symmetry_Int_Tables_number   1
_chemical_formula_structural   Na2La2Ta2Si3(SO8)3
_chemical_formula_sum   'Na6 La6 Ta6 Si9 S9 O72'
_cell_volume   1783.69880281
_cell_formula_units_Z   3
loop_
 _symmetry_equiv_pos_site_id
 _symmetry_equiv_pos_as_xyz
  1  'x, y, z'
loop_
 _atom_site_type_symbol
 _atom_site_label
 _atom_site_symmetry_multiplicity
 _atom_site_fract_x
 _atom_site_fract_y
 _atom_site_fract_z
 _atom_site_occupancy
  Na  Na0  1  0.97194626  0.96602089  0.49194369  1
  Na  Na1  1  0.02492107  0.99116777  0.00261820  1
  Na  Na2  1  0.63377008  0.30182173  0.82498376  1
  Na  Na3  1  0.66567406  0.29619741  0.32755607  1
  Na  Na4  1  0.29799323  0.65346932  0.17478788  1
  Na  Na5  1  0.36426809  0.66036715  0.65941127  1
  La  La6  1  0.99831643  0.00526298  0.35548833  1
  La  La7  1  0.01004228  0.00795858  0.85456598  1
  La  La8  1  0.65478540  0.33661069  0.68837841  1
  La  La9  1  0.68414667  0.33481402  0.18847319  1
  La  La10  1  0.32168223  0.67280808  0.02256804  1
  La  La11  1  0.34640924  0.67947314  0.52012396  1
  Ta  Ta12  1  0.98889165  0.01639253  0.64586666  1
  Ta  Ta13  1  0.00533395  0.98772157  0.15693362  1
  Ta  Ta14  1  0.66382227  0.33599569  0.98089192  1
  Ta  Ta15  1  0.68048474  0.35304664  0.47364461  1
  Ta  Ta16  1  0.30921509  0.68324180  0.31523058  1
  Ta  Ta17  1  0.35589645  0.69359396  0.80527070  1
  Si  Si18  1  0.29624128  0.99304729  0.25392225  1
  Si  Si19  1  0.03068520  0.30891381  0.25255874  1
  Si  Si20  1  0.28148878  0.30397002  0.75246679  1
  Si  Si21  1  0.70768649  0.99731703  0.75135182  1
  Si  Si22  1  0.68839899  0.63865944  0.58623308  1
  Si  Si23  1  0.94650307  0.64210315  0.08509865  1
  Si  Si24  1  0.35106883  0.96865469  0.91858147  1
  Si  Si25  1  0.61685997  0.96990656  0.41825056  1
  Si  Si26  1  0.02985983  0.65874127  0.41990722  1
  S  S27  1  0.69057164  0.72246142  0.24516065  1
  S  S28  1  0.02942706  0.71687293  0.74844663  1
  S  S29  1  0.95026298  0.31350398  0.58248067  1
  S  S30  1  0.34662439  0.04721484  0.58275181  1
  S  S31  1  0.69931634  0.05895353  0.07563991  1
  S  S32  1  0.36354579  0.30729830  0.08034164  1
  S  S33  1  0.61299266  0.63869280  0.91605326  1
  S  S34  1  0.01167516  0.37727388  0.91806539  1
  S  S35  1  0.36121448  0.38233696  0.41695294  1
  O  O36  1  0.21157706  0.00834579  0.30881641  1
  O  O37  1  0.78134493  0.78713329  0.29811018  1
  O  O38  1  0.99819008  0.20100495  0.30521916  1
  O  O39  1  0.20336462  0.19719109  0.80558754  1
  O  O40  1  0.00214816  0.77847429  0.80218743  1
  O  O41  1  0.79497682  0.99375069  0.80767485  1
  O  O42  1  0.81069349  0.97889193  0.69393252  1
  O  O43  1  0.15877410  0.19476817  0.69454838  1
  O  O44  1  0.04559965  0.82061933  0.70093279  1
  O  O45  1  0.80524548  0.83194692  0.19696700  1
  O  O46  1  0.03306081  0.18828686  0.19414066  1
  O  O47  1  0.16403824  0.96366704  0.19606766  1
  O  O48  1  0.88093550  0.33533814  0.63427173  1
  O  O49  1  0.44383195  0.11796908  0.63538522  1
  O  O50  1  0.68394385  0.54115431  0.63972369  1
  O  O51  1  0.85812035  0.54165792  0.13827111  1
  O  O52  1  0.66528482  0.11927298  0.12871970  1
  O  O53  1  0.45767987  0.33201401  0.13198108  1
  O  O54  1  0.46288911  0.29579140  0.02954062  1
  O  O55  1  0.82194150  0.52509968  0.02797719  1
  O  O56  1  0.69560677  0.16618021  0.02831626  1
  O  O57  1  0.43389707  0.14148568  0.53374309  1
  O  O58  1  0.69602479  0.52199247  0.52843422  1
  O  O59  1  0.84458287  0.29155845  0.53161247  1
  O  O60  1  0.54032257  0.66118123  0.96727174  1
  O  O61  1  0.10993188  0.45061701  0.97010376  1
  O  O62  1  0.34404781  0.86597067  0.97121067  1
  O  O63  1  0.54007423  0.86393064  0.47157088  1
  O  O64  1  0.34373668  0.45268518  0.47037741  1
  O  O65  1  0.12777749  0.65779544  0.47374989  1
  O  O66  1  0.13012269  0.64076617  0.36082402  1
  O  O67  1  0.49012193  0.85458548  0.36106210  1
  O  O68  1  0.37504455  0.48005014  0.36806738  1
  O  O69  1  0.08696833  0.47230309  0.86869533  1
  O  O70  1  0.36406302  0.85709582  0.86055214  1
  O  O71  1  0.50769943  0.62056641  0.86473148  1
  O  O72  1  0.98409639  0.80146040  0.41598454  1
  O  O73  1  0.80757792  0.02342239  0.41180628  1
  O  O74  1  0.23321760  0.20844758  0.41215433  1
  O  O75  1  0.96959687  0.20306186  0.91397617  1
  O  O76  1  0.19981085  0.00613244  0.91713087  1
  O  O77  1  0.78430217  0.77106518  0.91103258  1
  O  O78  1  0.95129417  0.14602645  0.58691289  1
  O  O79  1  0.18368721  0.04892279  0.58880083  1
  O  O80  1  0.86624164  0.82439798  0.59479970  1
  O  O81  1  0.95441020  0.82953806  0.09236758  1
  O  O82  1  0.86296806  0.06774031  0.07730163  1
  O  O83  1  0.20256416  0.14777545  0.08095406  1
  O  O84  1  0.66391120  0.14172578  0.74647167  1
  O  O85  1  0.47333964  0.35620486  0.74663764  1
  O  O86  1  0.90578343  0.54212879  0.73991733  1
  O  O87  1  0.65585790  0.55286490  0.23501750  1
  O  O88  1  0.89099305  0.36178929  0.24457848  1
  O  O89  1  0.47983652  0.13719928  0.24375525  1
  O  O90  1  0.61584677  0.47393769  0.92128224  1
  O  O91  1  0.84473844  0.37430308  0.92675862  1
  O  O92  1  0.52727576  0.15381833  0.92768139  1
  O  O93  1  0.61222226  0.14867416  0.43006945  1
  O  O94  1  0.52839234  0.38142769  0.42133391  1
  O  O95  1  0.84721707  0.47340910  0.42408286  1
  O  O96  1  0.33510831  0.44695647  0.07252032  1
  O  O97  1  0.13559400  0.67946599  0.08134854  1
  O  O98  1  0.56788814  0.88653757  0.06674148  1
  O  O99  1  0.30550949  0.87234124  0.57889538  1
  O  O100  1  0.53671077  0.67604618  0.58368022  1
  O  O101  1  0.12332441  0.44175922  0.57755188  1
  O  O102  1  0.29178573  0.80817011  0.25699138  1
  O  O103  1  0.53871915  0.73470550  0.24190225  1
  O  O104  1  0.21450328  0.48754313  0.26221940  1
  O  O105  1  0.28141832  0.48571433  0.76464821  1
  O  O106  1  0.19839092  0.71999873  0.75442008  1
  O  O107  1  0.52018123  0.81225991  0.75489493  1
