# generated using pymatgen
data_Na9Mg11Ta(SO4)18
_symmetry_space_group_name_H-M   'P 1'
_cell_length_a   8.72765230
_cell_length_b   8.73447286
_cell_length_c   22.58208519
_cell_angle_alpha   90.15259739
_cell_angle_beta   89.88956596
_cell_angle_gamma   120.31293020
_symmetry_Int_Tables_number   1
_chemical_formula_structural   Na9Mg11Ta(SO4)18
_chemical_formula_sum   'Na9 Mg11 Ta1 S18 O72'
_cell_volume   1486.10350178
_cell_formula_units_Z   1
loop_
 _symmetry_equiv_pos_site_id
 _symmetry_equiv_pos_as_xyz
  1  'x, y, z'
loop_
 _atom_site_type_symbol
 _atom_site_label
 _atom_site_symmetry_multiplicity
 _atom_site_fract_x
 _atom_site_fract_y
 _atom_site_fract_z
 _atom_site_occupancy
  Na  Na0  1  0.36226356  0.36263863  0.25347757  1
  Na  Na1  1  0.30421315  0.97162292  0.08797175  1
  Na  Na2  1  0.97115095  0.30461280  0.41923280  1
  Na  Na3  1  0.00023442  0.98678057  0.50177249  1
  Na  Na4  1  0.98793259  0.00023421  0.00285795  1
  Na  Na5  1  0.66697618  0.33365297  0.83150542  1
  Na  Na6  1  0.66785433  0.33432797  0.33648592  1
  Na  Na7  1  0.33415086  0.66728233  0.17031242  1
  Na  Na8  1  0.33448377  0.66781035  0.65226025  1
  Mg  Mg9  1  0.99670944  0.98920059  0.35170560  1
  Mg  Mg10  1  0.99965857  0.99966978  0.85102348  1
  Mg  Mg11  1  0.00013800  0.00030262  0.64322837  1
  Mg  Mg12  1  0.99006661  0.99752901  0.15137597  1
  Mg  Mg13  1  0.66661780  0.33424559  0.67711041  1
  Mg  Mg14  1  0.67706693  0.33605733  0.18491174  1
  Mg  Mg15  1  0.66980173  0.33559412  0.98353085  1
  Mg  Mg16  1  0.65978143  0.33412049  0.48478596  1
  Mg  Mg17  1  0.33398545  0.65997490  0.02022558  1
  Mg  Mg18  1  0.33680075  0.67082857  0.51776555  1
  Mg  Mg19  1  0.33545859  0.67602037  0.31829287  1
  Ta  Ta20  1  0.33309977  0.66633492  0.81245681  1
  S  S21  1  0.29379362  0.99824094  0.24812040  1
  S  S22  1  0.70437883  0.70500136  0.24970477  1
  S  S23  1  0.99943270  0.29421324  0.25107145  1
  S  S24  1  0.29299344  0.28661085  0.75129984  1
  S  S25  1  0.99397792  0.70688195  0.75137321  1
  S  S26  1  0.71387284  0.00698468  0.75128923  1
  S  S27  1  0.96273760  0.33434624  0.58275092  1
  S  S28  1  0.37222874  0.03776331  0.58396034  1
  S  S29  1  0.66504877  0.62727276  0.58383499  1
  S  S30  1  0.96029863  0.62809875  0.08240052  1
  S  S31  1  0.66893580  0.04154999  0.08212758  1
  S  S32  1  0.37304527  0.33358052  0.08383768  1
  S  S33  1  0.62604872  0.66759736  0.91753645  1
  S  S34  1  0.04082667  0.37296650  0.91760880  1
  S  S35  1  0.33228300  0.95939598  0.91819883  1
  S  S36  1  0.62784411  0.96186547  0.41685971  1
  S  S37  1  0.33509464  0.37303216  0.41517701  1
  S  S38  1  0.04015236  0.66713877  0.41722338  1
  O  O39  1  0.20743429  0.02862576  0.29939514  1
  O  O40  1  0.81124929  0.78732338  0.30258571  1
  O  O41  1  0.97635519  0.19055937  0.30546271  1
  O  O42  1  0.21129008  0.18655233  0.80517600  1
  O  O43  1  0.97517347  0.78812449  0.80532182  1
  O  O44  1  0.81383558  0.02562920  0.80517558  1
  O  O45  1  0.78235394  0.96598299  0.69848885  1
  O  O46  1  0.18313933  0.21696045  0.69855378  1
  O  O47  1  0.03516097  0.81651908  0.69869226  1
  O  O48  1  0.78424996  0.80900669  0.19573918  1
  O  O49  1  0.03012196  0.21076677  0.19850753  1
  O  O50  1  0.19212250  0.97449004  0.19236998  1
  O  O51  1  0.87927341  0.35848643  0.63633269  1
  O  O52  1  0.47658945  0.11751397  0.63861777  1
  O  O53  1  0.63996814  0.52330433  0.63847153  1
  O  O54  1  0.87855261  0.52136652  0.13536790  1
  O  O55  1  0.63674419  0.12270425  0.13470280  1
  O  O56  1  0.47679396  0.35685282  0.13827330  1
  O  O57  1  0.45662236  0.30351882  0.03111287  1
  O  O58  1  0.85576261  0.54774055  0.02840305  1
  O  O59  1  0.69356484  0.14670255  0.02805922  1
  O  O60  1  0.45629802  0.14610207  0.53119250  1
  O  O61  1  0.69028510  0.54374284  0.53108672  1
  O  O62  1  0.85794816  0.31007216  0.52834931  1
  O  O63  1  0.54126043  0.69187547  0.96945198  1
  O  O64  1  0.15026185  0.45876182  0.96938701  1
  O  O65  1  0.30876953  0.85346246  0.97126854  1
  O  O66  1  0.54546096  0.85474260  0.46964064  1
  O  O67  1  0.30468278  0.45912443  0.46649355  1
  O  O68  1  0.14763584  0.69122612  0.47012642  1
  O  O69  1  0.11923807  0.63518069  0.36358606  1
  O  O70  1  0.52362284  0.88224362  0.36280605  1
  O  O71  1  0.35891068  0.47461657  0.35947954  1
  O  O72  1  0.13677212  0.48914072  0.86283405  1
  O  O73  1  0.35262672  0.86119592  0.86422492  1
  O  O74  1  0.50973566  0.64692622  0.86284653  1
  O  O75  1  0.02071055  0.82477717  0.41055349  1
  O  O76  1  0.81062490  0.98648706  0.41120349  1
  O  O77  1  0.16993462  0.19439718  0.40983082  1
  O  O78  1  0.02528390  0.19946015  0.90862861  1
  O  O79  1  0.17366363  0.97331824  0.90880158  1
  O  O80  1  0.80026849  0.82646977  0.90862498  1
  O  O81  1  0.97883736  0.17353444  0.58904718  1
  O  O82  1  0.19386328  0.01990985  0.58958640  1
  O  O83  1  0.82636734  0.80605245  0.58948371  1
  O  O84  1  0.98534007  0.81063914  0.08785321  1
  O  O85  1  0.82558724  0.02055423  0.08869242  1
  O  O86  1  0.19365095  0.16937165  0.08862761  1
  O  O87  1  0.68135474  0.15510287  0.74551115  1
  O  O88  1  0.47438123  0.31993257  0.74545433  1
  O  O89  1  0.84519352  0.52505636  0.74541546  1
  O  O90  1  0.67990598  0.52243633  0.24416632  1
  O  O91  1  0.84158954  0.31286141  0.24400774  1
  O  O92  1  0.47221005  0.16350294  0.24302712  1
  O  O93  1  0.63491898  0.50407463  0.91883078  1
  O  O94  1  0.86791050  0.36329927  0.91885175  1
  O  O95  1  0.49620658  0.13309460  0.91903531  1
  O  O96  1  0.65272434  0.14449991  0.42237389  1
  O  O97  1  0.49223419  0.35324708  0.42204394  1
  O  O98  1  0.86085725  0.50289842  0.42283771  1
  O  O99  1  0.35376442  0.49110429  0.07714131  1
  O  O100  1  0.14336443  0.65291981  0.07703110  1
  O  O101  1  0.50347327  0.86279036  0.07640250  1
  O  O102  1  0.35277578  0.85937997  0.57821706  1
  O  O103  1  0.50543579  0.64541792  0.57794162  1
  O  O104  1  0.14183425  0.49427622  0.57766208  1
  O  O105  1  0.31323613  0.84114642  0.25500680  1
  O  O106  1  0.52181784  0.68039631  0.25509593  1
  O  O107  1  0.16390393  0.47327904  0.25575180  1
  O  O108  1  0.31231172  0.47510138  0.76085332  1
  O  O109  1  0.16319752  0.68806446  0.76116010  1
  O  O110  1  0.52466028  0.83731976  0.76099909  1
