# generated using pymatgen
data_K2Mg(FeO2)2
_symmetry_space_group_name_H-M   'P 1'
_cell_length_a   6.97202597
_cell_length_b   6.97202590
_cell_length_c   7.51422247
_cell_angle_alpha   68.62659038
_cell_angle_beta   111.37340985
_cell_angle_gamma   154.89242415
_symmetry_Int_Tables_number   1
_chemical_formula_structural   K2Mg(FeO2)2
_chemical_formula_sum   'K2 Mg1 Fe2 O4'
_cell_volume   143.77846566
_cell_formula_units_Z   1
loop_
 _symmetry_equiv_pos_site_id
 _symmetry_equiv_pos_as_xyz
  1  'x, y, z'
loop_
 _atom_site_type_symbol
 _atom_site_label
 _atom_site_symmetry_multiplicity
 _atom_site_fract_x
 _atom_site_fract_y
 _atom_site_fract_z
 _atom_site_occupancy
  K  K0  1  0.26348951  0.78577571  0.78103976  1
  K  K1  1  0.78577571  0.26348951  0.21896024  1
  Mg  Mg2  1  0.02460362  0.02460362  0.50000000  1
  Fe  Fe3  1  0.06038659  0.98748769  0.17678893  1
  Fe  Fe4  1  0.98748769  0.06038659  0.82321107  1
  O  O5  1  0.13793719  0.91145044  0.00203713  1
  O  O6  1  0.45523245  0.59363680  0.59901940  1
  O  O7  1  0.59363680  0.45523245  0.40098060  1
  O  O8  1  0.91145044  0.13793719  0.99796287  1
