# generated using pymatgen
data_NaHf2Nb2SiP5O24
_symmetry_space_group_name_H-M   'P 1'
_cell_length_a   8.85915301
_cell_length_b   8.86274868
_cell_length_c   22.99996458
_cell_angle_alpha   90.01083452
_cell_angle_beta   89.90858715
_cell_angle_gamma   120.00425837
_symmetry_Int_Tables_number   1
_chemical_formula_structural   NaHf2Nb2SiP5O24
_chemical_formula_sum   'Na3 Hf6 Nb6 Si3 P15 O72'
_cell_volume   1563.86456070
_cell_formula_units_Z   3
loop_
 _symmetry_equiv_pos_site_id
 _symmetry_equiv_pos_as_xyz
  1  'x, y, z'
loop_
 _atom_site_type_symbol
 _atom_site_label
 _atom_site_symmetry_multiplicity
 _atom_site_fract_x
 _atom_site_fract_y
 _atom_site_fract_z
 _atom_site_occupancy
  Na  Na0  1  0.99992026  0.99847867  0.99864679  1
  Na  Na1  1  0.66676000  0.33340798  0.83197654  1
  Na  Na2  1  0.66668301  0.33349498  0.33535948  1
  Hf  Hf3  1  0.00041504  0.99804242  0.85527997  1
  Hf  Hf4  1  0.00142432  0.00245115  0.14724200  1
  Hf  Hf5  1  0.66636981  0.33374764  0.68585007  1
  Hf  Hf6  1  0.66749558  0.33400521  0.48038265  1
  Hf  Hf7  1  0.33286349  0.66677345  0.52157025  1
  Hf  Hf8  1  0.33126322  0.66528811  0.31057036  1
  Nb  Nb9  1  0.99828397  0.00419664  0.35729293  1
  Nb  Nb10  1  0.00066119  0.00022798  0.64297971  1
  Nb  Nb11  1  0.66898172  0.33376758  0.18977310  1
  Nb  Nb12  1  0.66398352  0.33354211  0.97680374  1
  Nb  Nb13  1  0.33671684  0.67177540  0.02269702  1
  Nb  Nb14  1  0.33928180  0.67070210  0.80963814  1
  Si  Si15  1  0.00235446  0.28791039  0.24990932  1
  Si  Si16  1  0.61945643  0.66903507  0.91670150  1
  Si  Si17  1  0.33174993  0.95109883  0.91673777  1
  P  P18  1  0.28573587  0.00018927  0.25038440  1
  P  P19  1  0.71423861  0.71456572  0.25044711  1
  P  P20  1  0.28691398  0.28694380  0.74981045  1
  P  P21  1  0.99950370  0.71202399  0.74974989  1
  P  P22  1  0.71481675  0.00217670  0.74969396  1
  P  P23  1  0.95579033  0.33385323  0.58358237  1
  P  P24  1  0.37852963  0.04431185  0.58353406  1
  P  P25  1  0.66607795  0.62220929  0.58354879  1
  P  P26  1  0.95259873  0.61896508  0.08280570  1
  P  P27  1  0.66770563  0.04803521  0.08305450  1
  P  P28  1  0.37969021  0.33300852  0.08319971  1
  P  P29  1  0.05020312  0.38362143  0.91704226  1
  P  P30  1  0.61994164  0.95516162  0.41637454  1
  P  P31  1  0.33540266  0.37971521  0.41632133  1
  P  P32  1  0.04473612  0.66680995  0.41621133  1
  O  O33  1  0.20212197  0.03327584  0.30433475  1
  O  O34  1  0.83145151  0.79567752  0.30446839  1
  O  O35  1  0.96617402  0.16039754  0.30684876  1
  O  O36  1  0.20478267  0.17533830  0.80410723  1
  O  O37  1  0.96964636  0.79536333  0.80394559  1
  O  O38  1  0.82422226  0.03001276  0.80419175  1
  O  O39  1  0.80106060  0.97310277  0.69544197  1
  O  O40  1  0.17189525  0.19823363  0.69551024  1
  O  O41  1  0.02715113  0.82777233  0.69557409  1
  O  O42  1  0.79751853  0.82131788  0.19531529  1
  O  O43  1  0.02609479  0.19805862  0.19265245  1
  O  O44  1  0.17745316  0.97247954  0.19532654  1
  O  O45  1  0.87029350  0.36045060  0.63779220  1
  O  O46  1  0.49008177  0.12959583  0.63774836  1
  O  O47  1  0.63943016  0.51001555  0.63771040  1
  O  O48  1  0.86315025  0.50362637  0.13742641  1
  O  O49  1  0.63928136  0.13536330  0.13737433  1
  O  O50  1  0.49460628  0.36041335  0.13705667  1
  O  O51  1  0.47169486  0.30767092  0.02886765  1
  O  O52  1  0.83664850  0.52818872  0.02900644  1
  O  O53  1  0.69284945  0.16250298  0.02908539  1
  O  O54  1  0.45832956  0.16034619  0.52978018  1
  O  O55  1  0.70218307  0.54197373  0.52984685  1
  O  O56  1  0.83987329  0.29789244  0.52988455  1
  O  O57  1  0.52202407  0.69004187  0.97422678  1
  O  O58  1  0.16075755  0.46846470  0.97198998  1
  O  O59  1  0.30611203  0.83116299  0.97436321  1
  O  O60  1  0.54029623  0.84349383  0.47088319  1
  O  O61  1  0.30219732  0.45848406  0.47078953  1
  O  O62  1  0.15616915  0.69709586  0.47072380  1
  O  O63  1  0.12820178  0.63724035  0.36227033  1
  O  O64  1  0.51106643  0.87418803  0.36195836  1
  O  O65  1  0.36426509  0.49110881  0.36217834  1
  O  O66  1  0.13028922  0.49580667  0.86209137  1
  O  O67  1  0.36376949  0.85970922  0.85958409  1
  O  O68  1  0.49554316  0.63283289  0.85938437  1
  O  O69  1  0.02416990  0.82916312  0.40526413  1
  O  O70  1  0.80392114  0.97297186  0.40667775  1
  O  O71  1  0.17192981  0.19463472  0.40604947  1
  O  O72  1  0.02608339  0.20073496  0.91034838  1
  O  O73  1  0.16677294  0.97917070  0.91113968  1
  O  O74  1  0.81002044  0.83754462  0.91113442  1
  O  O75  1  0.97465159  0.16932930  0.59533355  1
  O  O76  1  0.19490522  0.02534147  0.59521563  1
  O  O77  1  0.83072081  0.80541219  0.59536566  1
  O  O78  1  0.97329136  0.80036911  0.08893695  1
  O  O79  1  0.82689390  0.02391865  0.08889364  1
  O  O80  1  0.19873036  0.16915031  0.08818766  1
  O  O81  1  0.68818542  0.16004900  0.74221900  1
  O  O82  1  0.47090622  0.31123497  0.74211445  1
  O  O83  1  0.83897569  0.52870216  0.74224091  1
  O  O84  1  0.69298710  0.52791784  0.24104370  1
  O  O85  1  0.82382420  0.30580370  0.24074813  1
  O  O86  1  0.47049827  0.16782653  0.24096200  1
  O  O87  1  0.64043167  0.49532837  0.92618656  1
  O  O88  1  0.86540741  0.36323193  0.92593997  1
  O  O89  1  0.50849852  0.14318572  0.92625388  1
  O  O90  1  0.64778172  0.14088281  0.42389851  1
  O  O91  1  0.49422418  0.35328141  0.42375024  1
  O  O92  1  0.86000971  0.50613787  0.42381968  1
  O  O93  1  0.36067946  0.49456671  0.07334330  1
  O  O94  1  0.13195788  0.63339809  0.07399505  1
  O  O95  1  0.50255314  0.86660668  0.07464186  1
  O  O96  1  0.35345508  0.86306934  0.57438202  1
  O  O97  1  0.50952284  0.64658134  0.57426024  1
  O  O98  1  0.13695794  0.49027196  0.57436501  1
  O  O99  1  0.31404145  0.84670237  0.25958084  1
  O  O100  1  0.53422352  0.69087487  0.25962994  1
  O  O101  1  0.16378993  0.47783507  0.25988615  1
  O  O102  1  0.30330298  0.46826731  0.75868437  1
  O  O103  1  0.16234153  0.69267360  0.75917606  1
  O  O104  1  0.53145197  0.83625944  0.75808561  1
