# generated using pymatgen
data_NaZrNbSi2SO12
_symmetry_space_group_name_H-M   'P 1'
_cell_length_a   8.99021750
_cell_length_b   8.98459377
_cell_length_c   23.26865118
_cell_angle_alpha   89.90694947
_cell_angle_beta   90.00000000
_cell_angle_gamma   120.02070777
_symmetry_Int_Tables_number   1
_chemical_formula_structural   NaZrNbSi2SO12
_chemical_formula_sum   'Na6 Zr6 Nb6 Si12 S6 O72'
_cell_volume   1627.34285488
_cell_formula_units_Z   6
loop_
 _symmetry_equiv_pos_site_id
 _symmetry_equiv_pos_as_xyz
  1  'x, y, z'
loop_
 _atom_site_type_symbol
 _atom_site_label
 _atom_site_symmetry_multiplicity
 _atom_site_fract_x
 _atom_site_fract_y
 _atom_site_fract_z
 _atom_site_occupancy
  Na  Na0  1  0.01154492  0.00683293  0.49867797  1
  Na  Na1  1  0.99528801  0.00683293  0.99867797  1
  Na  Na2  1  0.67821192  0.34016593  0.83201097  1
  Na  Na3  1  0.66195501  0.34016593  0.33201097  1
  Na  Na4  1  0.34487792  0.67349993  0.16534497  1
  Na  Na5  1  0.32862101  0.67349993  0.66534497  1
  Zr  Zr6  1  0.01098656  0.99200493  0.35413220  1
  Zr  Zr7  1  0.98101836  0.99200493  0.85413220  1
  Zr  Zr8  1  0.67765356  0.32533793  0.68746520  1
  Zr  Zr9  1  0.64768536  0.32533793  0.18746520  1
  Zr  Zr10  1  0.34431956  0.65867193  0.02079920  1
  Zr  Zr11  1  0.31435136  0.65867193  0.52079920  1
  Nb  Nb12  1  0.99689924  0.99257094  0.64539958  1
  Nb  Nb13  1  0.99567170  0.99257094  0.14539958  1
  Nb  Nb14  1  0.66356624  0.32590394  0.97873258  1
  Nb  Nb15  1  0.66233870  0.32590394  0.47873258  1
  Nb  Nb16  1  0.33023224  0.65923794  0.31206658  1
  Nb  Nb17  1  0.32900470  0.65923794  0.81206658  1
  Si  Si18  1  0.28805710  0.99432059  0.24964846  1
  Si  Si19  1  0.71036999  0.71020261  0.25096079  1
  Si  Si20  1  -0.00016738  0.71020261  0.75096079  1
  Si  Si21  1  0.70626349  0.99432059  0.74964846  1
  Si  Si22  1  0.95472410  0.32765359  0.58298146  1
  Si  Si23  1  0.37703699  0.04353561  0.58429379  1
  Si  Si24  1  0.66649962  0.04353561  0.08429379  1
  Si  Si25  1  0.37293049  0.32765359  0.08298146  1
  Si  Si26  1  0.62139010  0.66098759  0.91631546  1
  Si  Si27  1  0.04370299  0.37686961  0.91762779  1
  Si  Si28  1  0.33316562  0.37686961  0.41762779  1
  Si  Si29  1  0.03959649  0.66098759  0.41631546  1
  S  S30  1  0.00068914  0.28848616  0.24968476  1
  S  S31  1  0.28779702  0.28848616  0.74968476  1
  S  S32  1  0.66735614  0.62181916  0.58301776  1
  S  S33  1  0.95446402  0.62181916  0.08301776  1
  S  S34  1  0.33402214  0.95515316  0.91635176  1
  S  S35  1  0.62113002  0.95515316  0.41635176  1
  O  O36  1  0.20474805  0.03059640  0.30539009  1
  O  O37  1  0.82423481  0.80593818  0.30635796  1
  O  O38  1  0.97475125  0.18660241  0.30199485  1
  O  O39  1  0.21185115  0.18660241  0.80199485  1
  O  O40  1  0.98170337  0.80593818  0.80635796  1
  O  O41  1  0.82584835  0.03059640  0.80539009  1
  O  O42  1  0.80799893  0.97182534  0.69329473  1
  O  O43  1  0.17965968  0.20972406  0.69765291  1
  O  O44  1  0.02989619  0.83564622  0.69318718  1
  O  O45  1  0.80575003  0.83564622  0.19318718  1
  O  O46  1  0.03006437  0.20972406  0.19765291  1
  O  O47  1  0.16382641  0.97182534  0.19329473  1
  O  O48  1  0.87141505  0.36392940  0.63872309  1
  O  O49  1  0.49090181  0.13927118  0.63969096  1
  O  O50  1  0.64141825  0.51993541  0.63532785  1
  O  O51  1  0.87851815  0.51993541  0.13532785  1
  O  O52  1  0.64837037  0.13927118  0.13969096  1
  O  O53  1  0.49251535  0.36392940  0.13872309  1
  O  O54  1  0.47466593  0.30515834  0.02662773  1
  O  O55  1  0.84632668  0.54305706  0.03098591  1
  O  O56  1  0.69656319  0.16897922  0.02652018  1
  O  O57  1  0.47241703  0.16897922  0.52652018  1
  O  O58  1  0.69673137  0.54305706  0.53098591  1
  O  O59  1  0.83049341  0.30515834  0.52662773  1
  O  O60  1  0.53808105  0.69726340  0.97205709  1
  O  O61  1  0.15756781  0.47260518  0.97302496  1
  O  O62  1  0.30808425  0.85326941  0.96866185  1
  O  O63  1  0.54518415  0.85326941  0.46866185  1
  O  O64  1  0.31503637  0.47260518  0.47302496  1
  O  O65  1  0.15918135  0.69726340  0.47205709  1
  O  O66  1  0.14133193  0.63849234  0.35996173  1
  O  O67  1  0.51299268  0.87639106  0.36431991  1
  O  O68  1  0.36322919  0.50231322  0.35985418  1
  O  O69  1  0.13908303  0.50231322  0.85985418  1
  O  O70  1  0.36339737  0.87639106  0.86431991  1
  O  O71  1  0.49715941  0.63849234  0.85996173  1
  O  O72  1  0.01358429  0.82650812  0.41142182  1
  O  O73  1  0.79445364  0.98160363  0.40930661  1
  O  O74  1  0.16281391  0.19167578  0.40974492  1
  O  O75  1  0.02886187  0.19167578  0.90974492  1
  O  O76  1  0.18714999  0.98160363  0.90930661  1
  O  O77  1  0.81292383  0.82650812  0.91142182  1
  O  O78  1  0.97102995  0.15419013  0.59214483  1
  O  O79  1  0.18421750  0.02499415  0.59244686  1
  O  O80  1  0.82772813  0.79627743  0.58855348  1
  O  O81  1  0.96854930  0.79627743  0.08855348  1
  O  O82  1  0.84077665  0.02499415  0.09244686  1
  O  O83  1  0.18316019  0.15419013  0.09214483  1
  O  O84  1  0.68025129  0.15984112  0.74475482  1
  O  O85  1  0.46112064  0.31493663  0.74263961  1
  O  O86  1  0.82948091  0.52500878  0.74307792  1
  O  O87  1  0.69552887  0.52500878  0.24307792  1
  O  O88  1  0.85381699  0.31493663  0.24263961  1
  O  O89  1  0.47959083  0.15984112  0.24475482  1
  O  O90  1  0.63769695  0.48752313  0.92547783  1
  O  O91  1  0.85088450  0.35832715  0.92577986  1
  O  O92  1  0.49439513  0.12961043  0.92188648  1
  O  O93  1  0.63521630  0.12961043  0.42188648  1
  O  O94  1  0.50744365  0.35832715  0.42577986  1
  O  O95  1  0.84982719  0.48752313  0.42547783  1
  O  O96  1  0.34691729  0.49317512  0.07808882  1
  O  O97  1  0.12778664  0.64827063  0.07597361  1
  O  O98  1  0.49614691  0.85834278  0.07641192  1
  O  O99  1  0.36219487  0.85834278  0.57641192  1
  O  O100  1  0.52048299  0.64827063  0.57597361  1
  O  O101  1  0.14625683  0.49317512  0.57808882  1
  O  O102  1  0.30436295  0.82085713  0.25881183  1
  O  O103  1  0.51755050  0.69166115  0.25911386  1
  O  O104  1  0.16106113  0.46294443  0.25522048  1
  O  O105  1  0.30188230  0.46294443  0.75522048  1
  O  O106  1  0.17410965  0.69166115  0.75911386  1
  O  O107  1  0.51649319  0.82085713  0.75881183  1
