# generated using pymatgen
data_Tl4S3
_symmetry_space_group_name_H-M   'P 1'
_cell_length_a   7.94340004
_cell_length_b   8.03598410
_cell_length_c   13.09186851
_cell_angle_alpha   90.00000000
_cell_angle_beta   90.00000000
_cell_angle_gamma   103.42541076
_symmetry_Int_Tables_number   1
_chemical_formula_structural   Tl4S3
_chemical_formula_sum   'Tl16 S12'
_cell_volume   812.85671845
_cell_formula_units_Z   4
loop_
 _symmetry_equiv_pos_site_id
 _symmetry_equiv_pos_as_xyz
  1  'x, y, z'
loop_
 _atom_site_type_symbol
 _atom_site_label
 _atom_site_symmetry_multiplicity
 _atom_site_fract_x
 _atom_site_fract_y
 _atom_site_fract_z
 _atom_site_occupancy
  Tl  Tl0  1  0.32075302  0.45801532  0.76960236  1
  Tl  Tl1  1  0.67924698  0.04198468  0.26960236  1
  Tl  Tl2  1  0.67924698  0.54198468  0.23039764  1
  Tl  Tl3  1  0.32075302  0.95801532  0.73039764  1
  Tl  Tl4  1  0.84786469  0.58188914  0.80566730  1
  Tl  Tl5  1  0.15213531  0.91811086  0.30566730  1
  Tl  Tl6  1  0.15213531  0.41811086  0.19433270  1
  Tl  Tl7  1  0.84786469  0.08188914  0.69433270  1
  Tl  Tl8  1  0.89523608  0.71539139  0.55005337  1
  Tl  Tl9  1  0.10476392  0.78460861  0.05005337  1
  Tl  Tl10  1  0.10476392  0.28460861  0.44994663  1
  Tl  Tl11  1  0.89523608  0.21539139  0.94994663  1
  Tl  Tl12  1  0.54801584  0.27938808  0.50197609  1
  Tl  Tl13  1  0.45198416  0.22061192  0.00197609  1
  Tl  Tl14  1  0.45198416  0.72061192  0.49802391  1
  Tl  Tl15  1  0.54801584  0.77938808  0.99802391  1
  S  S16  1  0.07111317  0.93069192  0.85134227  1
  S  S17  1  0.92888683  0.56930808  0.35134227  1
  S  S18  1  0.92888683  0.06930808  0.14865773  1
  S  S19  1  0.07111317  0.43069192  0.64865773  1
  S  S20  1  0.52909862  0.75564056  0.74378478  1
  S  S21  1  0.47090138  0.74435944  0.24378478  1
  S  S22  1  0.47090138  0.24435944  0.25621522  1
  S  S23  1  0.52909862  0.25564056  0.75621522  1
  S  S24  1  0.23577704  0.46340853  0.95861543  1
  S  S25  1  0.76422296  0.03659147  0.45861543  1
  S  S26  1  0.76422296  0.53659147  0.04138457  1
  S  S27  1  0.23577704  0.96340853  0.54138457  1
