# generated using pymatgen
data_MgCrSbO4
_symmetry_space_group_name_H-M   'P 1'
_cell_length_a   5.23797755
_cell_length_b   10.95544684
_cell_length_c   10.49458165
_cell_angle_alpha   16.68201330
_cell_angle_beta   31.21960191
_cell_angle_gamma   34.99545761
_symmetry_Int_Tables_number   1
_chemical_formula_structural   MgCrSbO4
_chemical_formula_sum   'Mg1 Cr1 Sb1 O4'
_cell_volume   89.60431206
_cell_formula_units_Z   1
loop_
 _symmetry_equiv_pos_site_id
 _symmetry_equiv_pos_as_xyz
  1  'x, y, z'
loop_
 _atom_site_type_symbol
 _atom_site_label
 _atom_site_symmetry_multiplicity
 _atom_site_fract_x
 _atom_site_fract_y
 _atom_site_fract_z
 _atom_site_occupancy
  Mg  Mg0  1  0.00001649  0.50000029  0.99998666  1
  Cr  Cr1  1  0.50002325  0.99997855  0.49999007  1
  Sb  Sb2  1  0.49998183  0.50001982  0.50000998  1
  O  O3  1  0.18402201  0.99998993  0.28564482  1
  O  O4  1  0.32292719  0.49996427  0.19228591  1
  O  O5  1  0.81592769  0.99995662  0.71443078  1
  O  O6  1  0.67710154  0.50008952  0.80765177  1
