# generated using pymatgen
data_K2Te2As
_symmetry_space_group_name_H-M   'P 1'
_cell_length_a   8.34730833
_cell_length_b   9.11608848
_cell_length_c   20.16950696
_cell_angle_alpha   90.00000000
_cell_angle_beta   90.00000000
_cell_angle_gamma   90.00000000
_symmetry_Int_Tables_number   1
_chemical_formula_structural   K2Te2As
_chemical_formula_sum   'K16 Te16 As8'
_cell_volume   1534.79462456
_cell_formula_units_Z   8
loop_
 _symmetry_equiv_pos_site_id
 _symmetry_equiv_pos_as_xyz
  1  'x, y, z'
loop_
 _atom_site_type_symbol
 _atom_site_label
 _atom_site_symmetry_multiplicity
 _atom_site_fract_x
 _atom_site_fract_y
 _atom_site_fract_z
 _atom_site_occupancy
  K  K0  1  0.25000000  0.41994845  0.54316112  1
  K  K1  1  0.75000000  0.58005155  0.45683888  1
  K  K2  1  0.75000000  0.91994845  0.95683888  1
  K  K3  1  0.25000000  0.08005155  0.04316112  1
  K  K4  1  0.25000000  0.49876455  0.18910779  1
  K  K5  1  0.75000000  0.50123545  0.81089221  1
  K  K6  1  0.75000000  0.99876455  0.31089221  1
  K  K7  1  0.25000000  0.00123545  0.68910779  1
  K  K8  1  0.25000000  0.60394548  0.71559200  1
  K  K9  1  0.75000000  0.39605452  0.28440800  1
  K  K10  1  0.75000000  0.10394548  0.78440800  1
  K  K11  1  0.25000000  0.89605452  0.21559200  1
  K  K12  1  0.25000000  0.92359403  0.44170761  1
  K  K13  1  0.75000000  0.07640597  0.55829239  1
  K  K14  1  0.75000000  0.42359403  0.05829239  1
  K  K15  1  0.25000000  0.57640597  0.94170761  1
  Te  Te16  1  0.99814266  0.23878821  0.41813642  1
  Te  Te17  1  0.49814266  0.76121179  0.58186358  1
  Te  Te18  1  0.00185734  0.73878821  0.08186358  1
  Te  Te19  1  0.50185734  0.26121179  0.91813642  1
  Te  Te20  1  0.00185734  0.76121179  0.58186358  1
  Te  Te21  1  0.50185734  0.23878821  0.41813642  1
  Te  Te22  1  0.99814266  0.26121179  0.91813642  1
  Te  Te23  1  0.49814266  0.73878821  0.08186358  1
  Te  Te24  1  0.99124410  0.18185923  0.17894631  1
  Te  Te25  1  0.49124410  0.81814077  0.82105369  1
  Te  Te26  1  0.00875590  0.68185923  0.32105369  1
  Te  Te27  1  0.50875590  0.31814077  0.67894631  1
  Te  Te28  1  0.00875590  0.81814077  0.82105369  1
  Te  Te29  1  0.50875590  0.18185923  0.17894631  1
  Te  Te30  1  0.99124410  0.31814077  0.67894631  1
  Te  Te31  1  0.49124410  0.68185923  0.32105369  1
  As  As32  1  0.25000000  0.31372797  0.34889836  1
  As  As33  1  0.75000000  0.68627203  0.65110164  1
  As  As34  1  0.75000000  0.81372797  0.15110164  1
  As  As35  1  0.25000000  0.18627203  0.84889836  1
  As  As36  1  0.25000000  0.57404360  0.38697967  1
  As  As37  1  0.75000000  0.42595640  0.61302033  1
  As  As38  1  0.75000000  0.07404360  0.11302033  1
  As  As39  1  0.25000000  0.92595640  0.88697967  1
