# generated using pymatgen
data_Na6Mg8Ta4Si3(S5O24)3
_symmetry_space_group_name_H-M   'P 1'
_cell_length_a   8.73250609
_cell_length_b   8.72006326
_cell_length_c   22.81821435
_cell_angle_alpha   89.83305256
_cell_angle_beta   90.24405459
_cell_angle_gamma   119.92510884
_symmetry_Int_Tables_number   1
_chemical_formula_structural   Na6Mg8Ta4Si3(S5O24)3
_chemical_formula_sum   'Na6 Mg8 Ta4 Si3 S15 O72'
_cell_volume   1505.89241913
_cell_formula_units_Z   1
loop_
 _symmetry_equiv_pos_site_id
 _symmetry_equiv_pos_as_xyz
  1  'x, y, z'
loop_
 _atom_site_type_symbol
 _atom_site_label
 _atom_site_symmetry_multiplicity
 _atom_site_fract_x
 _atom_site_fract_y
 _atom_site_fract_z
 _atom_site_occupancy
  Na  Na0  1  0.98699668  0.98355210  0.49088478  1
  Na  Na1  1  0.00471191  0.01699737  0.99825600  1
  Na  Na2  1  0.66996090  0.33127935  0.82750674  1
  Na  Na3  1  0.67254413  0.33462908  0.33136192  1
  Na  Na4  1  0.33328880  0.66212860  0.16782714  1
  Na  Na5  1  0.33748265  0.67053741  0.65491495  1
  Mg  Mg6  1  0.99184872  0.99502886  0.35381739  1
  Mg  Mg7  1  0.99833776  0.00608192  0.85137999  1
  Mg  Mg8  1  0.99724666  0.99802231  0.64219597  1
  Mg  Mg9  1  0.99986424  0.00084106  0.15248691  1
  Mg  Mg10  1  0.66647577  0.33161167  0.68033003  1
  Mg  Mg11  1  0.66659705  0.33373855  0.18842210  1
  Mg  Mg12  1  0.32918535  0.65867271  0.01984518  1
  Mg  Mg13  1  0.33736050  0.67536084  0.51789618  1
  Ta  Ta14  1  0.67407272  0.33522443  0.98100027  1
  Ta  Ta15  1  0.67275777  0.33279467  0.47668272  1
  Ta  Ta16  1  0.32960076  0.67310039  0.31822976  1
  Ta  Ta17  1  0.32162282  0.65810878  0.81271460  1
  Si  Si18  1  0.04574141  0.36692069  0.92069056  1
  Si  Si19  1  0.63124697  0.95285623  0.42149312  1
  Si  Si20  1  0.04932872  0.68021761  0.42152131  1
  S  S21  1  0.29178667  0.00139916  0.24930462  1
  S  S22  1  0.70591836  0.70583170  0.24881661  1
  S  S23  1  0.00133895  0.29204070  0.24900684  1
  S  S24  1  0.29390700  0.28690523  0.75026872  1
  S  S25  1  0.99441651  0.71042989  0.75062356  1
  S  S26  1  0.70955273  0.00244952  0.75038277  1
  S  S27  1  0.95991124  0.33435885  0.58486709  1
  S  S28  1  0.37472832  0.04206275  0.58532549  1
  S  S29  1  0.66351447  0.62259356  0.58492572  1
  S  S30  1  0.95987609  0.62785026  0.08554960  1
  S  S31  1  0.66527724  0.03909683  0.08484330  1
  S  S32  1  0.37631817  0.33333256  0.08469951  1
  S  S33  1  0.62292311  0.66833199  0.91792910  1
  S  S34  1  0.33128915  0.95444505  0.91790338  1
  S  S35  1  0.33121068  0.37739438  0.41825512  1
  O  O36  1  0.21021090  0.02364331  0.30135602  1
  O  O37  1  0.81237439  0.78897494  0.30071613  1
  O  O38  1  0.98092454  0.18785588  0.30120024  1
  O  O39  1  0.21366415  0.18622133  0.80348393  1
  O  O40  1  0.97735296  0.79104319  0.80433418  1
  O  O41  1  0.81269251  0.02341226  0.80343943  1
  O  O42  1  0.78175432  0.96676087  0.69801101  1
  O  O43  1  0.18476482  0.21836615  0.69810867  1
  O  O44  1  0.02916424  0.81796296  0.69844249  1
  O  O45  1  0.78061442  0.81199217  0.19496083  1
  O  O46  1  0.02804565  0.21475283  0.19516507  1
  O  O47  1  0.18646657  0.97003335  0.19545928  1
  O  O48  1  0.87616949  0.35871188  0.63707416  1
  O  O49  1  0.48093779  0.12686497  0.63825559  1
  O  O50  1  0.64492354  0.51850230  0.63820008  1
  O  O51  1  0.87162580  0.51458066  0.13535335  1
  O  O52  1  0.64136695  0.12609417  0.13515454  1
  O  O53  1  0.48540187  0.35265677  0.13559904  1
  O  O54  1  0.46982970  0.31365095  0.02950600  1
  O  O55  1  0.84283796  0.53051815  0.02956905  1
  O  O56  1  0.68699157  0.15718768  0.02904519  1
  O  O57  1  0.46557996  0.15464395  0.53233651  1
  O  O58  1  0.68466994  0.53128885  0.53187320  1
  O  O59  1  0.84448264  0.31254134  0.53126104  1
  O  O60  1  0.54594732  0.69761959  0.96980387  1
  O  O61  1  0.15973667  0.46775677  0.97535546  1
  O  O62  1  0.31440334  0.85289422  0.97016845  1
  O  O63  1  0.54467899  0.83706154  0.47717792  1
  O  O64  1  0.30581908  0.45489637  0.47056649  1
  O  O65  1  0.15236019  0.68495030  0.47811893  1
  O  O66  1  0.13207257  0.63005868  0.36009196  1
  O  O67  1  0.49788117  0.86153967  0.36060766  1
  O  O68  1  0.36822869  0.49460651  0.36393132  1
  O  O69  1  0.13901189  0.50038470  0.86035569  1
  O  O70  1  0.36801214  0.87542397  0.86407128  1
  O  O71  1  0.50880583  0.63842189  0.86425366  1
  O  O72  1  0.02494388  0.84289331  0.40785393  1
  O  O73  1  0.82772332  0.00578475  0.40789764  1
  O  O74  1  0.18460169  0.20368194  0.40634550  1
  O  O75  1  0.00956805  0.17249445  0.91007973  1
  O  O76  1  0.17680974  0.97273644  0.90789690  1
  O  O77  1  0.80110760  0.81225946  0.90778117  1
  O  O78  1  0.96729417  0.16960800  0.58793837  1
  O  O79  1  0.20045481  0.03106637  0.58882013  1
  O  O80  1  0.82531436  0.79760176  0.58822662  1
  O  O81  1  0.96617150  0.79877220  0.08606587  1
  O  O82  1  0.82773121  0.02943915  0.08600823  1
  O  O83  1  0.20201506  0.17206940  0.08617768  1
  O  O84  1  0.68173676  0.15547211  0.74450069  1
  O  O85  1  0.47475692  0.31883624  0.74451326  1
  O  O86  1  0.84739262  0.52817002  0.74533921  1
  O  O87  1  0.68360307  0.52654189  0.24262208  1
  O  O88  1  0.84635473  0.31769041  0.24301132  1
  O  O89  1  0.47280206  0.15299419  0.24299311  1
  O  O90  1  0.62860040  0.49679781  0.92368125  1
  O  O91  1  0.84602839  0.35963074  0.92599995  1
  O  O92  1  0.49468616  0.13738950  0.92310851  1
  O  O93  1  0.62703389  0.14578118  0.42681085  1
  O  O94  1  0.49962226  0.36778838  0.42368883  1
  O  O95  1  0.84752096  0.49324822  0.42635040  1
  O  O96  1  0.36475903  0.49480649  0.07778353  1
  O  O97  1  0.13392176  0.64592629  0.07717350  1
  O  O98  1  0.50727417  0.86719231  0.07450872  1
  O  O99  1  0.35760440  0.86639995  0.58096556  1
  O  O100  1  0.50332669  0.63634176  0.57951050  1
  O  O101  1  0.13561937  0.48911699  0.57845643  1
  O  O102  1  0.30892687  0.83349697  0.25510122  1
  O  O103  1  0.52189423  0.68360614  0.25521232  1
  O  O104  1  0.16713163  0.47406509  0.25451846  1
  O  O105  1  0.31576182  0.47775407  0.75955979  1
  O  O106  1  0.16753614  0.69535817  0.75863580  1
  O  O107  1  0.52432472  0.83708566  0.76029622  1
