# generated using pymatgen
data_Na6Ta6Ga2Si9(SO16)3
_symmetry_space_group_name_H-M   'P 1'
_cell_length_a   17.75485543
_cell_length_b   8.87187440
_cell_length_c   22.70406986
_cell_angle_alpha   90.07119843
_cell_angle_beta   90.07890763
_cell_angle_gamma   119.98385969
_symmetry_Int_Tables_number   1
_chemical_formula_structural   Na6Ta6Ga2Si9(SO16)3
_chemical_formula_sum   'Na18 Ta18 Ga6 Si27 S9 O144'
_cell_volume   3097.67600111
_cell_formula_units_Z   3
loop_
 _symmetry_equiv_pos_site_id
 _symmetry_equiv_pos_as_xyz
  1  'x, y, z'
loop_
 _atom_site_type_symbol
 _atom_site_label
 _atom_site_symmetry_multiplicity
 _atom_site_fract_x
 _atom_site_fract_y
 _atom_site_fract_z
 _atom_site_occupancy
  Na  Na0  1  0.32113153  0.01414560  0.25038391  1
  Na  Na1  1  0.68414616  0.36695597  0.24611218  1
  Na  Na2  1  0.49339021  0.61927824  0.24959048  1
  Na  Na3  1  0.82062534  0.62836418  0.74857585  1
  Na  Na4  1  0.99370684  0.36707893  0.74755236  1
  Na  Na5  1  0.18632203  0.00684984  0.74314875  1
  Na  Na6  1  0.00324783  0.00997242  0.49934384  1
  Na  Na7  1  0.50474024  0.99898641  0.49530821  1
  Na  Na8  1  0.00500338  0.01495086  0.99263513  1
  Na  Na9  1  0.50336335  0.99662261  0.99780481  1
  Na  Na10  1  0.33911480  0.33423882  0.83037904  1
  Na  Na11  1  0.83034857  0.32274307  0.82609786  1
  Na  Na12  1  0.33000391  0.34085208  0.33108168  1
  Na  Na13  1  0.83852048  0.34276405  0.33494423  1
  Na  Na14  1  0.16742868  0.65699212  0.16647406  1
  Na  Na15  1  0.67172429  0.66991255  0.16468701  1
  Na  Na16  1  0.17352091  0.67398330  0.66322209  1
  Na  Na17  1  0.66062148  0.66926308  0.66168790  1
  Ta  Ta18  1  0.00199416  0.98628429  0.35772522  1
  Ta  Ta19  1  0.50231286  0.01753720  0.85594457  1
  Ta  Ta20  1  0.99788953  0.99241342  0.64369233  1
  Ta  Ta21  1  0.49896091  0.01271933  0.63955506  1
  Ta  Ta22  1  0.99993413  0.99790568  0.14424906  1
  Ta  Ta23  1  0.49792056  0.00289248  0.14392195  1
  Ta  Ta24  1  0.32953823  0.34137670  0.97575525  1
  Ta  Ta25  1  0.82935208  0.31363811  0.97689599  1
  Ta  Ta26  1  0.33482439  0.34607712  0.48092686  1
  Ta  Ta27  1  0.82904389  0.31597711  0.47630277  1
  Ta  Ta28  1  0.16638345  0.65523953  0.01499723  1
  Ta  Ta29  1  0.66000050  0.66585804  0.02666920  1
  Ta  Ta30  1  0.16018866  0.65263104  0.52681658  1
  Ta  Ta31  1  0.66017256  0.66946120  0.51737516  1
  Ta  Ta32  1  0.16462998  0.66106711  0.31255714  1
  Ta  Ta33  1  0.66901608  0.65835188  0.31600463  1
  Ta  Ta34  1  0.16890332  0.67955517  0.81449932  1
  Ta  Ta35  1  0.66185535  0.66606242  0.80971519  1
  Ga  Ga36  1  0.49684679  0.99940279  0.35552820  1
  Ga  Ga37  1  0.99807626  0.99695790  0.85414508  1
  Ga  Ga38  1  0.33647954  0.31973396  0.67481685  1
  Ga  Ga39  1  0.83127414  0.30863820  0.69106829  1
  Ga  Ga40  1  0.33091247  0.35416134  0.19156773  1
  Ga  Ga41  1  0.82938110  0.34031938  0.18010403  1
  Si  Si42  1  0.14656782  0.00548954  0.24900327  1
  Si  Si43  1  0.35777256  0.71567330  0.25324902  1
  Si  Si44  1  0.85668609  0.70279977  0.24828077  1
  Si  Si45  1  0.49836520  0.28645966  0.25190428  1
  Si  Si46  1  0.64668512  0.28506239  0.74824176  1
  Si  Si47  1  0.99820726  0.71152224  0.75209232  1
  Si  Si48  1  0.35710166  0.01066393  0.74791449  1
  Si  Si49  1  0.85824088  0.00035113  0.75346790  1
  Si  Si50  1  0.47849701  0.34137292  0.58312734  1
  Si  Si51  1  0.97047526  0.32828868  0.58777675  1
  Si  Si52  1  0.19003570  0.04672706  0.58399147  1
  Si  Si53  1  0.69195353  0.04729426  0.58647265  1
  Si  Si54  1  0.33304408  0.61569424  0.58896670  1
  Si  Si55  1  0.47048012  0.61261581  0.08765097  1
  Si  Si56  1  0.83370587  0.05042873  0.08762469  1
  Si  Si57  1  0.19123123  0.33630199  0.08600436  1
  Si  Si58  1  0.69013706  0.33426210  0.08429966  1
  Si  Si59  1  0.31319137  0.67157268  0.91409013  1
  Si  Si60  1  0.01946923  0.36638188  0.91261247  1
  Si  Si61  1  0.52300271  0.38426342  0.91849559  1
  Si  Si62  1  0.16067761  0.95674036  0.91857059  1
  Si  Si63  1  0.66398764  0.94813430  0.91593090  1
  Si  Si64  1  0.81118667  0.95006465  0.41652674  1
  Si  Si65  1  0.16773725  0.37745785  0.41654814  1
  Si  Si66  1  0.66154086  0.36477147  0.41858716  1
  Si  Si67  1  0.02270550  0.65963978  0.41886528  1
  Si  Si68  1  0.51786667  0.67163640  0.41251700  1
  S  S69  1  0.64632066  0.00222502  0.24945259  1
  S  S70  1  0.99739396  0.28538414  0.24999163  1
  S  S71  1  0.14581024  0.28983930  0.75043200  1
  S  S72  1  0.49643348  0.71120173  0.75054300  1
  S  S73  1  0.83170281  0.61890058  0.58396541  1
  S  S74  1  0.97815988  0.62143052  0.08344804  1
  S  S75  1  0.33101389  0.04316910  0.08357900  1
  S  S76  1  0.80956079  0.66635494  0.91798726  1
  S  S77  1  0.30923348  0.95269640  0.41751484  1
  O  O78  1  0.09707218  0.03027429  0.30586300  1
  O  O79  1  0.60836206  0.03293100  0.30221605  1
  O  O80  1  0.42169020  0.80688835  0.30821280  1
  O  O81  1  0.91679207  0.80548632  0.30567639  1
  O  O82  1  0.48369520  0.16158853  0.30711906  1
  O  O83  1  0.98701012  0.18286751  0.30290711  1
  O  O84  1  0.10679538  0.18319893  0.80315497  1
  O  O85  1  0.59856140  0.16595418  0.80698277  1
  O  O86  1  0.48974590  0.79708801  0.80482032  1
  O  O87  1  0.98358582  0.80470548  0.80813945  1
  O  O88  1  0.41650290  0.02568458  0.80649004  1
  O  O89  1  0.92126214  0.03821300  0.80917734  1
  O  O90  1  0.40246200  0.97326104  0.69193350  1
  O  O91  1  0.90319047  0.96381565  0.69449581  1
  O  O92  1  0.08906897  0.20796797  0.69666957  1
  O  O93  1  0.58201690  0.19170990  0.69282459  1
  O  O94  1  0.02007405  0.84213090  0.69401464  1
  O  O95  1  0.51368530  0.81675422  0.69769574  1
  O  O96  1  0.40347666  0.84193678  0.19388118  1
  O  O97  1  0.90302873  0.82941791  0.19109333  1
  O  O98  1  0.01318053  0.20713531  0.19618228  1
  O  O99  1  0.51988444  0.19806172  0.19338844  1
  O  O100  1  0.08194952  0.97263709  0.19253507  1
  O  O101  1  0.59020253  0.97261711  0.19563801  1
  O  O102  1  0.44252131  0.37724224  0.64317324  1
  O  O103  1  0.93628834  0.36953077  0.64763128  1
  O  O104  1  0.24029993  0.11462723  0.64653391  1
  O  O105  1  0.75075718  0.13357763  0.64316592  1
  O  O106  1  0.31373103  0.49298438  0.64545305  1
  O  O107  1  0.82148421  0.52584153  0.63896518  1
  O  O108  1  0.43549552  0.50217681  0.14721971  1
  O  O109  1  0.94154731  0.52061484  0.13751870  1
  O  O110  1  0.31977423  0.11437414  0.13877935  1
  O  O111  1  0.82067739  0.14378615  0.14429628  1
  O  O112  1  0.24960818  0.36875838  0.14296330  1
  O  O113  1  0.74258386  0.36903136  0.14581659  1
  O  O114  1  0.23400053  0.30458887  0.02613617  1
  O  O115  1  0.74137235  0.31133635  0.02756153  1
  O  O116  1  0.41376948  0.52169112  0.02798514  1
  O  O117  1  0.92524699  0.54222580  0.03049499  1
  O  O118  1  0.34521359  0.14900795  0.03117238  1
  O  O119  1  0.84941878  0.17022646  0.02734950  1
  O  O120  1  0.23685083  0.17031467  0.52669104  1
  O  O121  1  0.73474743  0.16728512  0.52651450  1
  O  O122  1  0.34880486  0.53143445  0.52772853  1
  O  O123  1  0.84660094  0.54090136  0.53121132  1
  O  O124  1  0.41695654  0.30662195  0.52511532  1
  O  O125  1  0.91432614  0.30616687  0.52783469  1
  O  O126  1  0.26635028  0.69618913  0.97303216  1
  O  O127  1  0.76663789  0.68802941  0.96968850  1
  O  O128  1  0.08236506  0.46966646  0.97106912  1
  O  O129  1  0.58525344  0.47456196  0.97487060  1
  O  O130  1  0.15203700  0.83170673  0.97516166  1
  O  O131  1  0.65592686  0.83460041  0.97367129  1
  O  O132  1  0.26661124  0.84495065  0.46886195  1
  O  O133  1  0.76642413  0.83272504  0.47416166  1
  O  O134  1  0.15567059  0.47688726  0.47282723  1
  O  O135  1  0.65255212  0.47267276  0.47361092  1
  O  O136  1  0.08562114  0.69612906  0.47453975  1
  O  O137  1  0.58063553  0.69534133  0.47043215  1
  O  O138  1  0.06983453  0.63856690  0.35931771  1
  O  O139  1  0.56761492  0.64164834  0.35497530  1
  O  O140  1  0.25638431  0.86984627  0.36133211  1
  O  O141  1  0.75004602  0.86228288  0.35796783  1
  O  O142  1  0.18112378  0.50089428  0.35822051  1
  O  O143  1  0.68110555  0.49108112  0.35833702  1
  O  O144  1  0.06684382  0.49361488  0.85557024  1
  O  O145  1  0.57011211  0.50226620  0.86002589  1
  O  O146  1  0.18036646  0.86781282  0.85959063  1
  O  O147  1  0.68196583  0.86116094  0.85815977  1
  O  O148  1  0.24937187  0.63576732  0.85810831  1
  O  O149  1  0.75710605  0.63717268  0.86251795  1
  O  O150  1  0.01419865  0.83536516  0.41110542  1
  O  O151  1  0.51003761  0.84351181  0.40916063  1
  O  O152  1  0.39570258  0.96916348  0.41195585  1
  O  O153  1  0.90764030  0.97782718  0.40665087  1
  O  O154  1  0.07949853  0.18963774  0.40711510  1
  O  O155  1  0.57620093  0.17906102  0.40906226  1
  O  O156  1  0.00910476  0.17720899  0.91028294  1
  O  O157  1  0.51422612  0.19181559  0.91108274  1
  O  O158  1  0.07561624  0.97285367  0.91021534  1
  O  O159  1  0.57934257  0.96988930  0.90869166  1
  O  O160  1  0.40855406  0.83853492  0.90837242  1
  O  O161  1  0.89619742  0.82129860  0.91312727  1
  O  O162  1  0.48697226  0.16396451  0.58661499  1
  O  O163  1  0.98525627  0.15849824  0.59307496  1
  O  O164  1  0.09162530  0.02400614  0.59053989  1
  O  O165  1  0.59341827  0.01921438  0.59262576  1
  O  O166  1  0.42001650  0.80785360  0.59345250  1
  O  O167  1  0.91378024  0.79979764  0.58793237  1
  O  O168  1  0.48560517  0.81236142  0.09274814  1
  O  O169  1  0.98669743  0.79889290  0.08825839  1
  O  O170  1  0.41190913  0.02367836  0.08757784  1
  O  O171  1  0.92012271  0.02838274  0.09260654  1
  O  O172  1  0.09247624  0.16388940  0.09233998  1
  O  O173  1  0.59262580  0.15925531  0.08976811  1
  O  O174  1  0.34021781  0.17570862  0.74467742  1
  O  O175  1  0.84838161  0.17096511  0.74846141  1
  O  O176  1  0.23235352  0.31192193  0.74416830  1
  O  O177  1  0.74568270  0.32621910  0.74296543  1
  O  O178  1  0.42111361  0.53634704  0.74767140  1
  O  O179  1  0.91389089  0.52046609  0.74395343  1
  O  O180  1  0.34821823  0.52573703  0.24829115  1
  O  O181  1  0.84319404  0.50558496  0.24266388  1
  O  O182  1  0.41354457  0.30674393  0.24317078  1
  O  O183  1  0.92245300  0.31005778  0.24308885  1
  O  O184  1  0.24485632  0.16388218  0.24190736  1
  O  O185  1  0.73358752  0.15630329  0.24289948  1
  O  O186  1  0.31934886  0.49533294  0.92139634  1
  O  O187  1  0.81845293  0.50753914  0.92395523  1
  O  O188  1  0.42596728  0.35594189  0.92582033  1
  O  O189  1  0.92851442  0.36913605  0.92545331  1
  O  O190  1  0.25176253  0.14085493  0.92646093  1
  O  O191  1  0.75103960  0.14478496  0.92257825  1
  O  O192  1  0.31551860  0.12487414  0.42013266  1
  O  O193  1  0.81944220  0.14218851  0.42163143  1
  O  O194  1  0.25228046  0.35299000  0.42170823  1
  O  O195  1  0.75253035  0.36138178  0.42503581  1
  O  O196  1  0.42616646  0.48915647  0.42141201  1
  O  O197  1  0.92571428  0.49438933  0.42484289  1
  O  O198  1  0.17644680  0.50709657  0.07595661  1
  O  O199  1  0.67982570  0.50529896  0.07427839  1
  O  O200  1  0.06760048  0.64649179  0.07751747  1
  O  O201  1  0.57017344  0.64381964  0.07741905  1
  O  O202  1  0.25413435  0.86367041  0.07666851  1
  O  O203  1  0.75048705  0.85721507  0.07562780  1
  O  O204  1  0.17928797  0.85382906  0.57376095  1
  O  O205  1  0.68137568  0.85345370  0.57515386  1
  O  O206  1  0.25033890  0.64541233  0.57517839  1
  O  O207  1  0.75632044  0.64597576  0.57698976  1
  O  O208  1  0.07018359  0.49619299  0.57764556  1
  O  O209  1  0.57764830  0.50591402  0.57535078  1
  O  O210  1  0.15432421  0.82762278  0.25830157  1
  O  O211  1  0.65103107  0.83838155  0.25275005  1
  O  O212  1  0.26160760  0.70447101  0.25724855  1
  O  O213  1  0.75867862  0.68200014  0.25552657  1
  O  O214  1  0.07951543  0.46288767  0.25454359  1
  O  O215  1  0.58680158  0.48406754  0.25519468  1
  O  O216  1  0.14924897  0.46317218  0.75415584  1
  O  O217  1  0.65473809  0.47894636  0.75970135  1
  O  O218  1  0.08672557  0.69049851  0.75593850  1
  O  O219  1  0.57900847  0.69401759  0.75664481  1
  O  O220  1  0.25901987  0.83287324  0.75705009  1
  O  O221  1  0.76205585  0.81888702  0.75862642  1
