# generated using pymatgen
data_Na4Hf2Nb2Si5SO24
_symmetry_space_group_name_H-M   'P 1'
_cell_length_a   9.04505489
_cell_length_b   9.05631721
_cell_length_c   22.77298703
_cell_angle_alpha   89.69423059
_cell_angle_beta   90.28727181
_cell_angle_gamma   119.96835505
_symmetry_Int_Tables_number   1
_chemical_formula_structural   Na4Hf2Nb2Si5SO24
_chemical_formula_sum   'Na12 Hf6 Nb6 Si15 S3 O72'
_cell_volume   1616.01013761
_cell_formula_units_Z   3
loop_
 _symmetry_equiv_pos_site_id
 _symmetry_equiv_pos_as_xyz
  1  'x, y, z'
loop_
 _atom_site_type_symbol
 _atom_site_label
 _atom_site_symmetry_multiplicity
 _atom_site_fract_x
 _atom_site_fract_y
 _atom_site_fract_z
 _atom_site_occupancy
  Na  Na0  1  0.64563429  0.00021566  0.25124390  1
  Na  Na1  1  0.99255443  0.35827223  0.74945039  1
  Na  Na2  1  0.29638907  0.33583789  0.58055610  1
  Na  Na3  1  0.66835926  0.96794063  0.57908537  1
  Na  Na4  1  0.02296551  0.33217762  0.08523209  1
  Na  Na5  1  0.96073592  0.66412133  0.91268864  1
  Na  Na6  1  0.99850809  0.99968932  0.49212474  1
  Na  Na7  1  0.97258044  0.98994730  0.00206037  1
  Na  Na8  1  0.64740897  0.32947445  0.83238688  1
  Na  Na9  1  0.65714863  0.34157084  0.33469597  1
  Na  Na10  1  0.32660599  0.68002511  0.16733657  1
  Na  Na11  1  0.32894546  0.68138159  0.66417149  1
  Hf  Hf12  1  0.00153873  0.00497930  0.35203657  1
  Hf  Hf13  1  0.99225827  0.00511702  0.85329979  1
  Hf  Hf14  1  0.99393960  0.98962585  0.14853111  1
  Hf  Hf15  1  0.67980157  0.34012667  0.97799373  1
  Hf  Hf16  1  0.34259608  0.67177246  0.02268823  1
  Hf  Hf17  1  0.33399467  0.66464329  0.52071276  1
  Nb  Nb18  1  0.99553728  0.99257853  0.64623762  1
  Nb  Nb19  1  0.66630730  0.33706035  0.68772691  1
  Nb  Nb20  1  0.67760422  0.33321503  0.19007285  1
  Nb  Nb21  1  0.65485717  0.32322378  0.47858511  1
  Nb  Nb22  1  0.34492288  0.66697382  0.31174454  1
  Nb  Nb23  1  0.33710658  0.65325241  0.80861172  1
  Si  Si24  1  0.28995122  0.00027444  0.25073527  1
  Si  Si25  1  0.71453631  0.70601712  0.25147618  1
  Si  Si26  1  0.01127840  0.29526510  0.24766292  1
  Si  Si27  1  0.28940045  0.27954462  0.74951492  1
  Si  Si28  1  0.00164121  0.71174533  0.75320540  1
  Si  Si29  1  0.70424560  0.99755015  0.74820637  1
  Si  Si30  1  0.95453348  0.33552167  0.58432465  1
  Si  Si31  1  0.37485339  0.04341663  0.58474213  1
  Si  Si32  1  0.67255557  0.62228206  0.58118653  1
  Si  Si33  1  0.95966604  0.62985325  0.08182393  1
  Si  Si34  1  0.66648728  0.04117009  0.08400853  1
  Si  Si35  1  0.62449986  0.66507133  0.91751537  1
  Si  Si36  1  0.04792202  0.37521816  0.91816783  1
  Si  Si37  1  0.62902885  0.95845313  0.41829100  1
  Si  Si38  1  0.33185882  0.37267458  0.41911227  1
  S  S39  1  0.37947741  0.33207381  0.08260632  1
  S  S40  1  0.33491615  0.95377113  0.91561064  1
  S  S41  1  0.04229132  0.66305658  0.41660382  1
  O  O42  1  0.20489803  0.03144935  0.30781543  1
  O  O43  1  0.82838568  0.78942857  0.30910430  1
  O  O44  1  0.96153792  0.16228039  0.30202883  1
  O  O45  1  0.20007851  0.16712094  0.80672600  1
  O  O46  1  0.97472860  0.79226845  0.81226036  1
  O  O47  1  0.83201785  0.03824560  0.80374770  1
  O  O48  1  0.79446580  0.97087145  0.68920431  1
  O  O49  1  0.16714124  0.19834529  0.69101707  1
  O  O50  1  0.02296408  0.83600051  0.69606000  1
  O  O51  1  0.79121467  0.83424297  0.19519852  1
  O  O52  1  0.03794409  0.21840156  0.18710788  1
  O  O53  1  0.17230674  0.96940184  0.19318586  1
  O  O54  1  0.86518859  0.35642180  0.64381841  1
  O  O55  1  0.50249766  0.14310946  0.63991565  1
  O  O56  1  0.64379642  0.50108654  0.63880249  1
  O  O57  1  0.84758093  0.49885937  0.13653033  1
  O  O58  1  0.64963613  0.13817586  0.14323052  1
  O  O59  1  0.47931390  0.35017279  0.13618223  1
  O  O60  1  0.46337048  0.31784307  0.02928198  1
  O  O61  1  0.84980597  0.54222870  0.02129465  1
  O  O62  1  0.68450674  0.16332413  0.02797668  1
  O  O63  1  0.46418491  0.16686074  0.52624064  1
  O  O64  1  0.69518332  0.52639583  0.52473353  1
  O  O65  1  0.82586755  0.30166924  0.52845197  1
  O  O66  1  0.53194483  0.69199256  0.97385937  1
  O  O67  1  0.15522620  0.47497484  0.97635602  1
  O  O68  1  0.31198090  0.84837791  0.96915937  1
  O  O69  1  0.53051953  0.85092394  0.47718096  1
  O  O70  1  0.31194606  0.46048270  0.47890405  1
  O  O71  1  0.14433715  0.68025384  0.47044335  1
  O  O72  1  0.12714795  0.64638200  0.36395952  1
  O  O73  1  0.50871677  0.86373381  0.35991805  1
  O  O74  1  0.34903261  0.49946212  0.36346591  1
  O  O75  1  0.14447282  0.49809898  0.85914543  1
  O  O76  1  0.35720461  0.87331428  0.86267365  1
  O  O77  1  0.50609039  0.65416303  0.85889864  1
  O  O78  1  0.02413882  0.81645568  0.41382991  1
  O  O79  1  0.81472535  0.97455981  0.41367637  1
  O  O80  1  0.17022433  0.18249819  0.41266915  1
  O  O81  1  0.03042042  0.18870704  0.91337072  1
  O  O82  1  0.17575997  0.96367195  0.91202567  1
  O  O83  1  0.81965857  0.82565572  0.91251066  1
  O  O84  1  0.96799361  0.15951191  0.58987642  1
  O  O85  1  0.19187142  0.03735227  0.59121310  1
  O  O86  1  0.83816797  0.81432043  0.58857092  1
  O  O87  1  0.98241432  0.81789259  0.08738643  1
  O  O88  1  0.84660503  0.03995348  0.08687543  1
  O  O89  1  0.20501288  0.18208951  0.08552909  1
  O  O90  1  0.69137935  0.17081732  0.74155679  1
  O  O91  1  0.48197850  0.31288034  0.74216214  1
  O  O92  1  0.83821047  0.51872161  0.74251926  1
  O  O93  1  0.68044439  0.51376607  0.24000470  1
  O  O94  1  0.83508261  0.31274236  0.24216258  1
  O  O95  1  0.48683586  0.16431577  0.24104193  1
  O  O96  1  0.63407101  0.48918170  0.91798183  1
  O  O97  1  0.85920417  0.36426683  0.91853452  1
  O  O98  1  0.48457803  0.12626567  0.92161626  1
  O  O99  1  0.64470866  0.15015491  0.42367047  1
  O  O100  1  0.51334941  0.36741916  0.42195303  1
  O  O101  1  0.87161991  0.50631308  0.42107301  1
  O  O102  1  0.35946191  0.48750314  0.07913026  1
  O  O103  1  0.14029723  0.62735749  0.08111046  1
  O  O104  1  0.49771268  0.85239455  0.08136283  1
  O  O105  1  0.36361566  0.86028694  0.57987896  1
  O  O106  1  0.50196383  0.64222802  0.57847749  1
  O  O107  1  0.14669374  0.49712505  0.57991996  1
  O  O108  1  0.32331955  0.83668347  0.25940140  1
  O  O109  1  0.52275178  0.68959400  0.25941276  1
  O  O110  1  0.16907262  0.48720246  0.26004060  1
  O  O111  1  0.30066860  0.46965853  0.75576398  1
  O  O112  1  0.16881496  0.68443373  0.75632015  1
  O  O113  1  0.51522694  0.83013914  0.75608956  1
