# generated using pymatgen
data_MgV4O7F5
_symmetry_space_group_name_H-M   'P 1'
_cell_length_a   5.27970383
_cell_length_b   5.35993878
_cell_length_c   8.81456117
_cell_angle_alpha   75.77580553
_cell_angle_beta   90.06453348
_cell_angle_gamma   60.70737148
_symmetry_Int_Tables_number   1
_chemical_formula_structural   MgV4O7F5
_chemical_formula_sum   'Mg1 V4 O7 F5'
_cell_volume   208.69329883
_cell_formula_units_Z   1
loop_
 _symmetry_equiv_pos_site_id
 _symmetry_equiv_pos_as_xyz
  1  'x, y, z'
loop_
 _atom_site_type_symbol
 _atom_site_label
 _atom_site_symmetry_multiplicity
 _atom_site_fract_x
 _atom_site_fract_y
 _atom_site_fract_z
 _atom_site_occupancy
  Mg  Mg0  1  0.80158300  0.37522400  0.61131700  1
  V  V1  1  0.74245700  0.49778600  0.26057900  1
  V  V2  1  0.44908500  0.03149200  0.50599000  1
  V  V3  1  0.25497600  0.52811500  0.75776400  1
  V  V4  1  0.05020600  0.97451300  0.02055700  1
  O  O5  1  0.96104100  0.22794000  0.12575600  1
  O  O6  1  0.55907500  0.74031300  0.37179500  1
  O  O7  1  0.41268700  0.75564700  0.07500600  1
  O  O8  1  0.45293200  0.72404900  0.66666700  1
  O  O9  1  0.49424800  0.24241200  0.62039700  1
  O  O10  1  0.04124400  0.76167800  0.86544200  1
  O  O11  1  0.04841000  0.22944500  0.44413400  1
  F  F12  1  0.93430000  0.70179100  0.57840800  1
  F  F13  1  0.94474800  0.72472600  0.16470800  1
  F  F14  1  0.54899400  0.26228500  0.31655700  1
  F  F15  1  0.59295600  0.24437700  0.91763600  1
  F  F16  1  0.07355700  0.24071000  0.81871400  1
