# generated using pymatgen
data_Na5Sc3TiSi3(SO8)3
_symmetry_space_group_name_H-M   'P 1'
_cell_length_a   9.03012206
_cell_length_b   9.03120516
_cell_length_c   22.67809629
_cell_angle_alpha   90.86357960
_cell_angle_beta   89.97880260
_cell_angle_gamma   120.03164409
_symmetry_Int_Tables_number   1
_chemical_formula_structural   Na5Sc3TiSi3(SO8)3
_chemical_formula_sum   'Na15 Sc9 Ti3 Si9 S9 O72'
_cell_volume   1600.93515860
_cell_formula_units_Z   3
loop_
 _symmetry_equiv_pos_site_id
 _symmetry_equiv_pos_as_xyz
  1  'x, y, z'
loop_
 _atom_site_type_symbol
 _atom_site_label
 _atom_site_symmetry_multiplicity
 _atom_site_fract_x
 _atom_site_fract_y
 _atom_site_fract_z
 _atom_site_occupancy
  Na  Na0  1  0.64620074  0.00752544  0.25555571  1
  Na  Na1  1  0.00156582  0.62319903  0.24778376  1
  Na  Na2  1  0.63248553  0.63744074  0.74475548  1
  Na  Na3  1  0.36731697  0.01134152  0.75672890  1
  Na  Na4  1  0.66663986  0.95237094  0.58452481  1
  Na  Na5  1  0.97800199  0.68222171  0.92071644  1
  Na  Na6  1  0.69539232  0.02049673  0.91362321  1
  Na  Na7  1  0.96341971  0.30324404  0.41130662  1
  Na  Na8  1  0.70431565  0.68521887  0.42337901  1
  Na  Na9  1  0.00561495  0.97833283  0.50220083  1
  Na  Na10  1  0.01043966  0.98921917  0.99883540  1
  Na  Na11  1  0.65007831  0.31720515  0.83176577  1
  Na  Na12  1  0.65944151  0.31598832  0.33420817  1
  Na  Na13  1  0.30761499  0.63678978  0.15983394  1
  Na  Na14  1  0.32476969  0.63547955  0.66721035  1
  Sc  Sc15  1  0.99316903  0.00313559  0.35314117  1
  Sc  Sc16  1  0.01086728  0.01313544  0.85167938  1
  Sc  Sc17  1  0.99384108  0.00025057  0.65059792  1
  Sc  Sc18  1  0.00382431  0.00505120  0.14236206  1
  Sc  Sc19  1  0.65755287  0.33679163  0.68689133  1
  Sc  Sc20  1  0.68274392  0.33987064  0.18186174  1
  Sc  Sc21  1  0.33040973  0.67791609  0.01846637  1
  Sc  Sc22  1  0.33997998  0.67573638  0.51760113  1
  Sc  Sc23  1  0.31986398  0.66236877  0.31859584  1
  Ti  Ti24  1  0.65856782  0.34874145  0.97850151  1
  Ti  Ti25  1  0.68123830  0.34758198  0.48080828  1
  Ti  Ti26  1  0.36394101  0.67757248  0.81486557  1
  Si  Si27  1  0.00466982  0.29672578  0.24982676  1
  Si  Si28  1  0.28839688  0.29820046  0.75025996  1
  Si  Si29  1  0.70740218  0.00523666  0.75159458  1
  Si  Si30  1  0.66721929  0.62955420  0.58407371  1
  Si  Si31  1  0.96177372  0.62823533  0.08285348  1
  Si  Si32  1  0.62715012  0.66843275  0.91907421  1
  Si  Si33  1  0.33704637  0.96254575  0.91682660  1
  Si  Si34  1  0.62499055  0.96702852  0.41693774  1
  Si  Si35  1  0.03923883  0.67120866  0.41813935  1
  S  S36  1  0.29206552  0.00161368  0.24951085  1
  S  S37  1  0.70424916  0.70520968  0.24927409  1
  S  S38  1  0.00497884  0.70625302  0.75080573  1
  S  S39  1  0.95718896  0.33592933  0.58200656  1
  S  S40  1  0.37677651  0.04648099  0.58159034  1
  S  S41  1  0.66713979  0.04181721  0.08206273  1
  S  S42  1  0.37956083  0.33460781  0.08239378  1
  S  S43  1  0.04239390  0.37972930  0.91738325  1
  S  S44  1  0.33879814  0.37332793  0.41763643  1
  O  O45  1  0.21063088  0.02016138  0.30336559  1
  O  O46  1  0.80930173  0.78048243  0.30430183  1
  O  O47  1  0.97405967  0.18516129  0.31009555  1
  O  O48  1  0.20941576  0.16872360  0.80491952  1
  O  O49  1  0.97284264  0.78114553  0.80473991  1
  O  O50  1  0.81427585  0.02217019  0.81081627  1
  O  O51  1  0.78210940  0.95790464  0.69239210  1
  O  O52  1  0.17428642  0.20541927  0.69124521  1
  O  O53  1  0.03123102  0.81621373  0.69922955  1
  O  O54  1  0.79299539  0.81310805  0.19867979  1
  O  O55  1  0.01592642  0.18816286  0.19406084  1
  O  O56  1  0.18440040  0.97299540  0.19696820  1
  O  O57  1  0.87044839  0.35224597  0.63424088  1
  O  O58  1  0.47737874  0.12181517  0.63695562  1
  O  O59  1  0.65360238  0.52234858  0.64242711  1
  O  O60  1  0.87177772  0.52141775  0.14324833  1
  O  O61  1  0.64727665  0.12217273  0.13769794  1
  O  O62  1  0.48045097  0.34949193  0.13581188  1
  O  O63  1  0.46649287  0.31409641  0.02848564  1
  O  O64  1  0.82934265  0.51311125  0.02565453  1
  O  O65  1  0.68141660  0.14412993  0.03022089  1
  O  O66  1  0.47027226  0.15117335  0.53042793  1
  O  O67  1  0.67788793  0.51458608  0.52602379  1
  O  O68  1  0.85168774  0.31491247  0.52706290  1
  O  O69  1  0.53052834  0.69523267  0.97321422  1
  O  O70  1  0.14229902  0.45629225  0.97114991  1
  O  O71  1  0.29612960  0.83517180  0.97149558  1
  O  O72  1  0.54337265  0.84067150  0.47283983  1
  O  O73  1  0.30846430  0.45182496  0.47012398  1
  O  O74  1  0.15563875  0.68468817  0.47351237  1
  O  O75  1  0.10642925  0.61934342  0.35812613  1
  O  O76  1  0.51615365  0.88061375  0.35609751  1
  O  O77  1  0.36927818  0.48221946  0.36527617  1
  O  O78  1  0.12305008  0.48550453  0.86505839  1
  O  O79  1  0.36974638  0.86714752  0.85796410  1
  O  O80  1  0.51316919  0.64075146  0.85728477  1
  O  O81  1  0.00223678  0.82819667  0.41126396  1
  O  O82  1  0.82146224  0.99658454  0.41217536  1
  O  O83  1  0.18641361  0.20207246  0.40998450  1
  O  O84  1  0.01355226  0.20295693  0.91221696  1
  O  O85  1  0.16795383  0.97988187  0.90958678  1
  O  O86  1  0.81873479  0.83099299  0.91236497  1
  O  O87  1  0.96403924  0.17432232  0.58333838  1
  O  O88  1  0.20593979  0.02807949  0.58507228  1
  O  O89  1  0.83864019  0.82056399  0.58192320  1
  O  O90  1  0.97347343  0.81487111  0.08473023  1
  O  O91  1  0.82433009  0.02858911  0.08605379  1
  O  O92  1  0.20947221  0.17668666  0.08396098  1
  O  O93  1  0.66829676  0.16149637  0.74419847  1
  O  O94  1  0.48722514  0.33336192  0.74535722  1
  O  O95  1  0.85101873  0.53477469  0.74324805  1
  O  O96  1  0.68352334  0.53154501  0.24373414  1
  O  O97  1  0.82642347  0.31205033  0.24648082  1
  O  O98  1  0.46612064  0.15319204  0.24435188  1
  O  O99  1  0.64549919  0.49275567  0.92458868  1
  O  O100  1  0.86614135  0.36213045  0.92188056  1
  O  O101  1  0.51975691  0.14695483  0.92689390  1
  O  O102  1  0.65060921  0.16040463  0.42829653  1
  O  O103  1  0.49458088  0.35792268  0.42383432  1
  O  O104  1  0.84239034  0.49498125  0.42742839  1
  O  O105  1  0.36383381  0.48755458  0.07809202  1
  O  O106  1  0.14547682  0.63801855  0.07857580  1
  O  O107  1  0.51444832  0.86882925  0.07976009  1
  O  O108  1  0.36382562  0.87477928  0.57717688  1
  O  O109  1  0.49745755  0.65164936  0.57908412  1
  O  O110  1  0.12858027  0.48630285  0.57700558  1
  O  O111  1  0.31208127  0.84596486  0.25356863  1
  O  O112  1  0.53601577  0.69463245  0.25511545  1
  O  O113  1  0.16921428  0.49291146  0.25261904  1
  O  O114  1  0.31020523  0.49071771  0.75998439  1
  O  O115  1  0.16001122  0.69213008  0.75683285  1
  O  O116  1  0.51160814  0.82626794  0.75795620  1
