# generated using pymatgen
data_MgFe4(OF)4
_symmetry_space_group_name_H-M   'P 1'
_cell_length_a   5.23885881
_cell_length_b   9.74422132
_cell_length_c   3.13400923
_cell_angle_alpha   91.00711763
_cell_angle_beta   89.65871183
_cell_angle_gamma   98.94571661
_symmetry_Int_Tables_number   1
_chemical_formula_structural   MgFe4(OF)4
_chemical_formula_sum   'Mg1 Fe4 O4 F4'
_cell_volume   158.01546501
_cell_formula_units_Z   1
loop_
 _symmetry_equiv_pos_site_id
 _symmetry_equiv_pos_as_xyz
  1  'x, y, z'
loop_
 _atom_site_type_symbol
 _atom_site_label
 _atom_site_symmetry_multiplicity
 _atom_site_fract_x
 _atom_site_fract_y
 _atom_site_fract_z
 _atom_site_occupancy
  Mg  Mg0  1  0.88329241  0.73391222  0.04883520  1
  Fe  Fe1  1  0.01988803  0.01429063  0.00741723  1
  Fe  Fe2  1  0.15614312  0.44008952  0.00980632  1
  Fe  Fe3  1  0.60558931  0.27061104  0.49880254  1
  Fe  Fe4  1  0.37000403  0.76305460  0.54164533  1
  O  O5  1  0.30926211  0.37364499  0.50484831  1
  O  O6  1  0.07838338  0.87744680  0.53320182  1
  O  O7  1  0.18547281  0.63308304  0.03280304  1
  O  O8  1  0.79211249  0.35777239  0.00174137  1
  F  F9  1  0.40708393  0.14738743  0.99559478  1
  F  F10  1  0.62064895  0.86665689  0.04346977  1
  F  F11  1  0.85938259  0.12477557  0.48765778  1
  F  F12  1  0.68495785  0.64727287  0.54417651  1
