# generated using pymatgen
data_MgCr2(WO4)2
_symmetry_space_group_name_H-M   'P 1'
_cell_length_a   4.88092106
_cell_length_b   5.84769753
_cell_length_c   5.75188708
_cell_angle_alpha   64.57713538
_cell_angle_beta   88.64830106
_cell_angle_gamma   88.25193456
_symmetry_Int_Tables_number   1
_chemical_formula_structural   MgCr2(WO4)2
_chemical_formula_sum   'Mg1 Cr2 W2 O8'
_cell_volume   148.19453045
_cell_formula_units_Z   1
loop_
 _symmetry_equiv_pos_site_id
 _symmetry_equiv_pos_as_xyz
  1  'x, y, z'
loop_
 _atom_site_type_symbol
 _atom_site_label
 _atom_site_symmetry_multiplicity
 _atom_site_fract_x
 _atom_site_fract_y
 _atom_site_fract_z
 _atom_site_occupancy
  Mg  Mg0  1  0.99997500  0.98968600  0.50953200  1
  Cr  Cr1  1  0.49878600  0.23822200  0.25951800  1
  Cr  Cr2  1  0.50113200  0.74168800  0.75866400  1
  W  W3  1  0.00403200  0.71558300  0.23399200  1
  W  W4  1  0.99603300  0.26434700  0.78428800  1
  O  O5  1  0.16895100  0.62739700  0.60230300  1
  O  O6  1  0.83120900  0.35252600  0.41598300  1
  O  O7  1  0.82626400  0.88877700  0.87833800  1
  O  O8  1  0.17371300  0.09108900  0.14004100  1
  O  O9  1  0.67764000  0.39470800  0.90949000  1
  O  O10  1  0.31953300  0.10055100  0.62207500  1
  O  O11  1  0.32217500  0.58512200  0.10860400  1
  O  O12  1  0.68055700  0.87935100  0.39622000  1
