# generated using pymatgen
data_Na9Mg2Ta4Si6(PO12)3
_symmetry_space_group_name_H-M   'P 1'
_cell_length_a   15.68769888
_cell_length_b   26.99668460
_cell_length_c   9.01143642
_cell_angle_alpha   90.10297043
_cell_angle_beta   124.80018637
_cell_angle_gamma   89.97177469
_symmetry_Int_Tables_number   1
_chemical_formula_structural   Na9Mg2Ta4Si6(PO12)3
_chemical_formula_sum   'Na36 Mg8 Ta16 Si24 P12 O144'
_cell_volume   3133.89184772
_cell_formula_units_Z   4
loop_
 _symmetry_equiv_pos_site_id
 _symmetry_equiv_pos_as_xyz
  1  'x, y, z'
loop_
 _atom_site_type_symbol
 _atom_site_label
 _atom_site_symmetry_multiplicity
 _atom_site_fract_x
 _atom_site_fract_y
 _atom_site_fract_z
 _atom_site_occupancy
  Na  Na0  1  0.25618326  0.24538081  0.02517698  1
  Na  Na1  1  0.24906181  0.59104765  0.01753378  1
  Na  Na2  1  0.25888078  0.91310439  0.01895865  1
  Na  Na3  1  0.75093441  0.25207209  0.50399279  1
  Na  Na4  1  0.74584559  0.58134173  0.50156665  1
  Na  Na5  1  0.75715151  0.91643586  0.52015112  1
  Na  Na6  1  0.74906181  0.09104765  0.01753378  1
  Na  Na7  1  0.75888078  0.41310439  0.01895865  1
  Na  Na8  1  0.75618326  0.74538081  0.02517698  1
  Na  Na9  1  0.24584559  0.08134173  0.50156665  1
  Na  Na10  1  0.25715151  0.41643586  0.52015112  1
  Na  Na11  1  0.25093441  0.75207209  0.50399279  1
  Na  Na12  1  0.48467315  0.02579060  0.71315662  1
  Na  Na13  1  0.48955882  0.36914788  0.74372498  1
  Na  Na14  1  0.48464475  0.69625270  0.72099798  1
  Na  Na15  1  0.49068632  0.29491249  0.25603057  1
  Na  Na16  1  0.49983223  0.62632061  0.26886611  1
  Na  Na17  1  0.50209540  0.95735036  0.27925002  1
  Na  Na18  1  0.98464475  0.19625270  0.72099798  1
  Na  Na19  1  0.98467315  0.52579060  0.71315662  1
  Na  Na20  1  0.98955882  0.86914788  0.74372498  1
  Na  Na21  1  0.99983223  0.12632061  0.26886611  1
  Na  Na22  1  0.00209540  0.45735036  0.27925002  1
  Na  Na23  1  0.99068632  0.79491249  0.25603057  1
  Na  Na24  1  0.81566892  0.98059496  0.20792844  1
  Na  Na25  1  0.20890158  0.30929032  0.29707034  1
  Na  Na26  1  0.19952934  0.97484743  0.27914336  1
  Na  Na27  1  0.20186354  0.35887288  0.79107028  1
  Na  Na28  1  0.81840928  0.01942287  0.71541208  1
  Na  Na29  1  0.81495482  0.69501527  0.68362225  1
  Na  Na30  1  0.31566892  0.48059496  0.20792844  1
  Na  Na31  1  0.69952934  0.47484743  0.27914336  1
  Na  Na32  1  0.70890158  0.80929032  0.29707034  1
  Na  Na33  1  0.70186354  0.85887288  0.79107028  1
  Na  Na34  1  0.31495482  0.19501527  0.68362225  1
  Na  Na35  1  0.31840928  0.51942287  0.71541208  1
  Mg  Mg36  1  0.89621326  0.91700702  0.93870167  1
  Mg  Mg37  1  0.89501164  0.08546220  0.43423724  1
  Mg  Mg38  1  0.89692220  0.41611363  0.44507632  1
  Mg  Mg39  1  0.89647899  0.74851524  0.43546298  1
  Mg  Mg40  1  0.39621326  0.41700702  0.93870167  1
  Mg  Mg41  1  0.39647899  0.24851524  0.43546298  1
  Mg  Mg42  1  0.39501164  0.58546220  0.43423724  1
  Mg  Mg43  1  0.39692220  0.91611363  0.44507632  1
  Ta  Ta44  1  0.10442002  0.24994982  0.57683652  1
  Ta  Ta45  1  0.10614555  0.58418111  0.56749039  1
  Ta  Ta46  1  0.10603747  0.91577753  0.56691284  1
  Ta  Ta47  1  0.89107965  0.24974446  0.93312066  1
  Ta  Ta48  1  0.89615186  0.58252779  0.94046792  1
  Ta  Ta49  1  0.10556720  0.08441819  0.06003385  1
  Ta  Ta50  1  0.10449367  0.41716914  0.06089537  1
  Ta  Ta51  1  0.10571549  0.75062804  0.06208259  1
  Ta  Ta52  1  0.60614555  0.08418111  0.56749039  1
  Ta  Ta53  1  0.60603747  0.41577753  0.56691284  1
  Ta  Ta54  1  0.60442002  0.74994982  0.57683652  1
  Ta  Ta55  1  0.39615186  0.08252779  0.94046792  1
  Ta  Ta56  1  0.39107965  0.74974446  0.93312066  1
  Ta  Ta57  1  0.60571549  0.25062804  0.06208259  1
  Ta  Ta58  1  0.60556720  0.58441819  0.06003385  1
  Ta  Ta59  1  0.60449367  0.91716914  0.06089537  1
  Si  Si60  1  0.99484941  0.32099460  0.74421509  1
  Si  Si61  1  0.49484941  0.82099460  0.74421509  1
  Si  Si62  1  0.35319850  0.29862042  0.75237554  1
  Si  Si63  1  0.35338011  0.63047282  0.75176200  1
  Si  Si64  1  0.35103652  0.96368747  0.74547716  1
  Si  Si65  1  0.63981812  0.29762351  0.73101666  1
  Si  Si66  1  0.64524562  0.63099535  0.73608130  1
  Si  Si67  1  0.64548561  0.96694146  0.73828984  1
  Si  Si68  1  0.64771783  0.03438660  0.24737840  1
  Si  Si69  1  0.64350569  0.70064532  0.24690979  1
  Si  Si70  1  0.35302064  0.03583505  0.25554530  1
  Si  Si71  1  0.35007437  0.36988105  0.24670551  1
  Si  Si72  1  0.35235342  0.70340985  0.25712583  1
  Si  Si73  1  0.85338011  0.13047282  0.75176200  1
  Si  Si74  1  0.85103652  0.46368747  0.74547716  1
  Si  Si75  1  0.85319850  0.79862042  0.75237554  1
  Si  Si76  1  0.14524562  0.13099535  0.73608130  1
  Si  Si77  1  0.14548561  0.46694146  0.73828984  1
  Si  Si78  1  0.13981812  0.79762351  0.73101666  1
  Si  Si79  1  0.14350569  0.20064532  0.24690979  1
  Si  Si80  1  0.14771783  0.53438660  0.24737840  1
  Si  Si81  1  0.85235342  0.20340985  0.25712583  1
  Si  Si82  1  0.85302064  0.53583505  0.25554530  1
  Si  Si83  1  0.85007437  0.86988105  0.24670551  1
  P  P84  1  0.00166961  0.65405937  0.74778870  1
  P  P85  1  0.00222116  0.98679111  0.74329860  1
  P  P86  1  0.00253422  0.01245922  0.24352836  1
  P  P87  1  0.00095925  0.34602578  0.25057209  1
  P  P88  1  0.00174730  0.68062568  0.24814182  1
  P  P89  1  0.50166961  0.15405937  0.74778870  1
  P  P90  1  0.50222116  0.48679111  0.74329860  1
  P  P91  1  0.50174730  0.18062568  0.24814182  1
  P  P92  1  0.50253422  0.51245922  0.24352836  1
  P  P93  1  0.50095925  0.84602578  0.25057209  1
  P  P94  1  0.64014392  0.36693763  0.23870028  1
  P  P95  1  0.14014392  0.86693763  0.23870028  1
  O  O96  1  0.14986277  0.19282889  0.74712624  1
  O  O97  1  0.14647952  0.52948963  0.74415115  1
  O  O98  1  0.14438207  0.85972478  0.73693952  1
  O  O99  1  0.84653996  0.19062133  0.77489694  1
  O  O100  1  0.84874232  0.52502521  0.77944865  1
  O  O101  1  0.84267581  0.85793637  0.75661158  1
  O  O102  1  0.84946790  0.14438676  0.25003943  1
  O  O103  1  0.84293901  0.47667001  0.24231021  1
  O  O104  1  0.84166290  0.81065636  0.25454767  1
  O  O105  1  0.14304582  0.13877115  0.23895739  1
  O  O106  1  0.13843981  0.47301919  0.24166657  1
  O  O107  1  0.14621414  0.80818188  0.24551782  1
  O  O108  1  0.64647952  0.02948963  0.74415115  1
  O  O109  1  0.64438207  0.35972478  0.73693952  1
  O  O110  1  0.64986277  0.69282889  0.74712624  1
  O  O111  1  0.34874232  0.02502521  0.77944865  1
  O  O112  1  0.34267581  0.35793637  0.75661158  1
  O  O113  1  0.34653996  0.69062133  0.77489694  1
  O  O114  1  0.34166290  0.31065636  0.25454767  1
  O  O115  1  0.34946790  0.64438676  0.25003943  1
  O  O116  1  0.34293901  0.97667001  0.24231021  1
  O  O117  1  0.64621414  0.30818188  0.24551782  1
  O  O118  1  0.64304582  0.63877115  0.23895739  1
  O  O119  1  0.63843981  0.97301919  0.24166657  1
  O  O120  1  0.43066692  0.18412713  0.58205864  1
  O  O121  1  0.43575364  0.51869932  0.57758503  1
  O  O122  1  0.42843238  0.85386850  0.57236837  1
  O  O123  1  0.56503203  0.18751992  0.92131884  1
  O  O124  1  0.56742783  0.52027865  0.91985018  1
  O  O125  1  0.57122963  0.85571331  0.93129633  1
  O  O126  1  0.56180184  0.14518557  0.41612840  1
  O  O127  1  0.56698456  0.47722406  0.41326998  1
  O  O128  1  0.56591192  0.81233629  0.42322320  1
  O  O129  1  0.44601244  0.14705878  0.07708445  1
  O  O130  1  0.44139455  0.48206831  0.07272791  1
  O  O131  1  0.44763779  0.81190999  0.08317627  1
  O  O132  1  0.93575364  0.01869932  0.57758503  1
  O  O133  1  0.92843238  0.35386850  0.57236837  1
  O  O134  1  0.93066692  0.68412713  0.58205864  1
  O  O135  1  0.06742783  0.02027865  0.91985018  1
  O  O136  1  0.07122963  0.35571331  0.93129633  1
  O  O137  1  0.06503203  0.68751992  0.92131884  1
  O  O138  1  0.06591192  0.31233629  0.42322320  1
  O  O139  1  0.06180184  0.64518557  0.41612840  1
  O  O140  1  0.06698456  0.97722406  0.41326998  1
  O  O141  1  0.94763779  0.31190999  0.08317627  1
  O  O142  1  0.94601244  0.64705878  0.07708445  1
  O  O143  1  0.94139455  0.98206831  0.07272791  1
  O  O144  1  0.25359443  0.27245817  0.74506846  1
  O  O145  1  0.25371851  0.60473551  0.73907034  1
  O  O146  1  0.25213616  0.93827576  0.73185894  1
  O  O147  1  0.75017645  0.27822224  0.77120314  1
  O  O148  1  0.75650906  0.61495145  0.76844492  1
  O  O149  1  0.74774593  0.94857721  0.75416660  1
  O  O150  1  0.74578562  0.05154370  0.25066523  1
  O  O151  1  0.73344435  0.39097661  0.25825020  1
  O  O152  1  0.73751165  0.72560358  0.25504056  1
  O  O153  1  0.25188802  0.06035074  0.24025465  1
  O  O154  1  0.25421875  0.39733667  0.25039187  1
  O  O155  1  0.25117662  0.72990663  0.23716279  1
  O  O156  1  0.75371851  0.10473551  0.73907034  1
  O  O157  1  0.75213616  0.43827576  0.73185894  1
  O  O158  1  0.75359443  0.77245817  0.74506846  1
  O  O159  1  0.25650906  0.11495145  0.76844492  1
  O  O160  1  0.24774593  0.44857721  0.75416660  1
  O  O161  1  0.25017645  0.77822224  0.77120314  1
  O  O162  1  0.23751165  0.22560358  0.25504056  1
  O  O163  1  0.24578562  0.55154370  0.25066523  1
  O  O164  1  0.23344435  0.89097661  0.25825020  1
  O  O165  1  0.75117662  0.22990663  0.23716279  1
  O  O166  1  0.75188802  0.56035074  0.24025465  1
  O  O167  1  0.75421875  0.89733667  0.25039187  1
  O  O168  1  0.35116733  0.28028290  0.58186349  1
  O  O169  1  0.36120460  0.62099433  0.58698917  1
  O  O170  1  0.35016449  0.96162119  0.56773204  1
  O  O171  1  0.63132652  0.28392680  0.90580737  1
  O  O172  1  0.63775424  0.61625855  0.91030999  1
  O  O173  1  0.64397620  0.95273754  0.92273003  1
  O  O174  1  0.64440077  0.04949198  0.42577226  1
  O  O175  1  0.63545739  0.38061004  0.40689081  1
  O  O176  1  0.64058602  0.71393676  0.42683428  1
  O  O177  1  0.35768218  0.05780640  0.08880971  1
  O  O178  1  0.34145432  0.38890822  0.07086542  1
  O  O179  1  0.35707953  0.72469297  0.09111140  1
  O  O180  1  0.86120460  0.12099433  0.58698917  1
  O  O181  1  0.85016449  0.46162119  0.56773204  1
  O  O182  1  0.85116733  0.78028290  0.58186349  1
  O  O183  1  0.13775424  0.11625855  0.91030999  1
  O  O184  1  0.14397620  0.45273754  0.92273003  1
  O  O185  1  0.13132652  0.78392680  0.90580737  1
  O  O186  1  0.14058602  0.21393676  0.42683428  1
  O  O187  1  0.14440077  0.54949198  0.42577226  1
  O  O188  1  0.13545739  0.88061004  0.40689081  1
  O  O189  1  0.85707953  0.22469297  0.09111140  1
  O  O190  1  0.85768218  0.55780640  0.08880971  1
  O  O191  1  0.84145432  0.88890822  0.07086542  1
  O  O192  1  0.46105101  0.27410798  0.93907603  1
  O  O193  1  0.46056067  0.60619085  0.93779755  1
  O  O194  1  0.46094870  0.94182521  0.92620247  1
  O  O195  1  0.54164171  0.27741310  0.54779661  1
  O  O196  1  0.54637996  0.61101266  0.55356380  1
  O  O197  1  0.53938724  0.94759886  0.56441964  1
  O  O198  1  0.53559386  0.05546165  0.07366989  1
  O  O199  1  0.53906751  0.38260107  0.06613679  1
  O  O200  1  0.53019369  0.71847721  0.07221212  1
  O  O201  1  0.46221262  0.05777405  0.43831882  1
  O  O202  1  0.46146930  0.39283680  0.43076890  1
  O  O203  1  0.46117190  0.72535454  0.44378120  1
  O  O204  1  0.96056067  0.10619085  0.93779755  1
  O  O205  1  0.96094870  0.44182521  0.92620247  1
  O  O206  1  0.96105101  0.77410798  0.93907603  1
  O  O207  1  0.04637996  0.11101266  0.55356380  1
  O  O208  1  0.03938724  0.44759886  0.56441964  1
  O  O209  1  0.04164171  0.77741310  0.54779661  1
  O  O210  1  0.03019369  0.21847721  0.07221212  1
  O  O211  1  0.03559386  0.55546165  0.07366989  1
  O  O212  1  0.03906751  0.88260107  0.06613679  1
  O  O213  1  0.96117190  0.22535454  0.44378120  1
  O  O214  1  0.96221262  0.55777405  0.43831882  1
  O  O215  1  0.96146930  0.89283680  0.43076890  1
  O  O216  1  0.08491033  0.28741983  0.74365248  1
  O  O217  1  0.08230912  0.62190718  0.74346628  1
  O  O218  1  0.08464811  0.95475292  0.73861981  1
  O  O219  1  0.92717195  0.27983059  0.77089392  1
  O  O220  1  0.93137932  0.61748243  0.77002340  1
  O  O221  1  0.93289577  0.95089668  0.76211152  1
  O  O222  1  0.92998837  0.04677436  0.25826207  1
  O  O223  1  0.92448684  0.38002059  0.24984223  1
  O  O224  1  0.92348353  0.71325037  0.24792391  1
  O  O225  1  0.08916283  0.04382922  0.24786614  1
  O  O226  1  0.08518320  0.37725620  0.24847499  1
  O  O227  1  0.08373191  0.71266495  0.24564140  1
  O  O228  1  0.58230912  0.12190718  0.74346628  1
  O  O229  1  0.58464811  0.45475292  0.73861981  1
  O  O230  1  0.58491033  0.78741983  0.74365248  1
  O  O231  1  0.43137932  0.11748243  0.77002340  1
  O  O232  1  0.43289577  0.45089668  0.76211152  1
  O  O233  1  0.42717195  0.77983059  0.77089392  1
  O  O234  1  0.42348353  0.21325037  0.24792391  1
  O  O235  1  0.42998837  0.54677436  0.25826207  1
  O  O236  1  0.42448684  0.88002059  0.24984223  1
  O  O237  1  0.58373191  0.21266495  0.24564140  1
  O  O238  1  0.58916283  0.54382922  0.24786614  1
  O  O239  1  0.58518320  0.87725620  0.24847499  1
