# generated using pymatgen
data_Na6Ca2Nb4Si6(SO12)3
_symmetry_space_group_name_H-M   'P 1'
_cell_length_a   9.12627101
_cell_length_b   9.12627068
_cell_length_c   23.02600742
_cell_angle_alpha   90.00000000
_cell_angle_beta   90.00000000
_cell_angle_gamma   120.00000115
_symmetry_Int_Tables_number   1
_chemical_formula_structural   Na6Ca2Nb4Si6(SO12)3
_chemical_formula_sum   'Na12 Ca4 Nb8 Si12 S6 O72'
_cell_volume   1660.87127432
_cell_formula_units_Z   2
loop_
 _symmetry_equiv_pos_site_id
 _symmetry_equiv_pos_as_xyz
  1  'x, y, z'
loop_
 _atom_site_type_symbol
 _atom_site_label
 _atom_site_symmetry_multiplicity
 _atom_site_fract_x
 _atom_site_fract_y
 _atom_site_fract_z
 _atom_site_occupancy
  Na  Na0  1  0.96634191  0.67903555  0.91787744  1
  Na  Na1  1  0.71269264  0.03365809  0.91787744  1
  Na  Na2  1  0.32096445  0.28730736  0.91787744  1
  Na  Na3  1  0.96634191  0.28730736  0.41787744  1
  Na  Na4  1  0.32096445  0.03365809  0.41787744  1
  Na  Na5  1  0.71269264  0.67903555  0.41787744  1
  Na  Na6  1  -0.00000000  -0.00000000  0.49349013  1
  Na  Na7  1  -0.00000000  -0.00000000  0.99349013  1
  Na  Na8  1  0.66666700  0.33333300  0.82980278  1
  Na  Na9  1  0.66666700  0.33333300  0.32980278  1
  Na  Na10  1  0.33333300  0.66666700  0.16321514  1
  Na  Na11  1  0.33333300  0.66666700  0.66321514  1
  Ca  Ca12  1  -0.00000000  -0.00000000  0.35119229  1
  Ca  Ca13  1  -0.00000000  -0.00000000  0.85119229  1
  Ca  Ca14  1  0.66666700  0.33333300  0.68162211  1
  Ca  Ca15  1  0.66666700  0.33333300  0.18162211  1
  Nb  Nb16  1  -0.00000000  -0.00000000  0.63841058  1
  Nb  Nb17  1  -0.00000000  -0.00000000  0.13841058  1
  Nb  Nb18  1  0.66666700  0.33333300  0.98391327  1
  Nb  Nb19  1  0.66666700  0.33333300  0.48391327  1
  Nb  Nb20  1  0.33333300  0.66666700  0.02191008  1
  Nb  Nb21  1  0.33333300  0.66666700  0.52191008  1
  Nb  Nb22  1  0.33333300  0.66666700  0.31666296  1
  Nb  Nb23  1  0.33333300  0.66666700  0.81666296  1
  Si  Si24  1  0.96244142  0.33850365  0.58433292  1
  Si  Si25  1  0.37606323  0.03755858  0.58433292  1
  Si  Si26  1  0.66149635  0.62393677  0.58433292  1
  Si  Si27  1  0.96244142  0.62393677  0.08433292  1
  Si  Si28  1  0.66149635  0.03755858  0.08433292  1
  Si  Si29  1  0.37606323  0.33850365  0.08433292  1
  Si  Si30  1  0.61762159  0.65742031  0.91837168  1
  Si  Si31  1  0.03979772  0.38237841  0.91837168  1
  Si  Si32  1  0.34257969  0.96020228  0.91837168  1
  Si  Si33  1  0.61762159  0.96020228  0.41837168  1
  Si  Si34  1  0.34257969  0.38237841  0.41837168  1
  Si  Si35  1  0.03979772  0.65742031  0.41837168  1
  S  S36  1  0.29208738  0.99025532  0.25066021  1
  S  S37  1  0.69816793  0.70791262  0.25066021  1
  S  S38  1  0.00974468  0.30183207  0.25066021  1
  S  S39  1  0.29208738  0.30183207  0.75066021  1
  S  S40  1  0.00974468  0.70791262  0.75066021  1
  S  S41  1  0.69816793  0.99025532  0.75066021  1
  O  O42  1  0.21625563  0.00236853  0.30592659  1
  O  O43  1  0.78611290  0.78374437  0.30592659  1
  O  O44  1  0.99763147  0.21388710  0.30592659  1
  O  O45  1  0.21625563  0.21388710  0.80592659  1
  O  O46  1  0.99763147  0.78374437  0.80592659  1
  O  O47  1  0.78611290  0.00236853  0.80592659  1
  O  O48  1  0.79463392  0.97582181  0.70002225  1
  O  O49  1  0.18118789  0.20536608  0.70002225  1
  O  O50  1  0.02417819  0.81881211  0.70002225  1
  O  O51  1  0.79463392  0.81881211  0.20002225  1
  O  O52  1  0.02417819  0.20536608  0.20002225  1
  O  O53  1  0.18118789  0.97582181  0.20002225  1
  O  O54  1  0.89965523  0.37846163  0.64186862  1
  O  O55  1  0.47880740  0.10034477  0.64186862  1
  O  O56  1  0.62153837  0.52119260  0.64186862  1
  O  O57  1  0.89965523  0.52119260  0.14186862  1
  O  O58  1  0.62153837  0.10034477  0.14186862  1
  O  O59  1  0.47880740  0.37846163  0.14186862  1
  O  O60  1  0.46614871  0.30191488  0.02560958  1
  O  O61  1  0.83576717  0.53385129  0.02560958  1
  O  O62  1  0.69808512  0.16423283  0.02560958  1
  O  O63  1  0.46614871  0.16423283  0.52560958  1
  O  O64  1  0.69808512  0.53385129  0.52560958  1
  O  O65  1  0.83576717  0.30191488  0.52560958  1
  O  O66  1  0.51553847  0.67988732  0.97121612  1
  O  O67  1  0.16434785  0.48446153  0.97121612  1
  O  O68  1  0.32011268  0.83565215  0.97121612  1
  O  O69  1  0.51553847  0.83565215  0.47121612  1
  O  O70  1  0.32011268  0.48446153  0.47121612  1
  O  O71  1  0.16434785  0.67988732  0.47121612  1
  O  O72  1  0.13959237  0.63360171  0.35908935  1
  O  O73  1  0.49400834  0.86040763  0.35908935  1
  O  O74  1  0.36639829  0.50599166  0.35908935  1
  O  O75  1  0.13959237  0.50599166  0.85908935  1
  O  O76  1  0.36639829  0.86040763  0.85908935  1
  O  O77  1  0.49400834  0.63360171  0.85908935  1
  O  O78  1  0.01818485  0.82116058  0.41550081  1
  O  O79  1  0.80297573  0.98181515  0.41550081  1
  O  O80  1  0.17883942  0.19702427  0.41550081  1
  O  O81  1  0.01818485  0.19702427  0.91550081  1
  O  O82  1  0.17883942  0.98181515  0.91550081  1
  O  O83  1  0.80297573  0.82116058  0.91550081  1
  O  O84  1  0.97652049  0.16005455  0.59279523  1
  O  O85  1  0.18353406  0.02347951  0.59279523  1
  O  O86  1  0.83994545  0.81646594  0.59279523  1
  O  O87  1  0.97652049  0.81646594  0.09279523  1
  O  O88  1  0.83994545  0.02347951  0.09279523  1
  O  O89  1  0.18353406  0.16005455  0.09279523  1
  O  O90  1  0.67351606  0.13596701  0.74697450  1
  O  O91  1  0.46245196  0.32648394  0.74697450  1
  O  O92  1  0.86403299  0.53754804  0.74697450  1
  O  O93  1  0.67351606  0.53754804  0.24697450  1
  O  O94  1  0.86403299  0.32648394  0.24697450  1
  O  O95  1  0.46245196  0.13596701  0.24697450  1
  O  O96  1  0.62391085  0.48052475  0.92191856  1
  O  O97  1  0.85661490  0.37608915  0.92191856  1
  O  O98  1  0.51947525  0.14338510  0.92191856  1
  O  O99  1  0.62391085  0.14338510  0.42191856  1
  O  O100  1  0.51947525  0.37608915  0.42191856  1
  O  O101  1  0.85661490  0.48052475  0.42191856  1
  O  O102  1  0.33393208  0.48747507  0.06889799  1
  O  O103  1  0.15354199  0.66606792  0.06889799  1
  O  O104  1  0.51252493  0.84645801  0.06889799  1
  O  O105  1  0.33393208  0.84645801  0.56889799  1
  O  O106  1  0.51252493  0.66606792  0.56889799  1
  O  O107  1  0.15354199  0.48747507  0.56889799  1
  O  O108  1  0.29973358  0.82664885  0.25219872  1
  O  O109  1  0.52691428  0.70026642  0.25219872  1
  O  O110  1  0.17335115  0.47308572  0.25219872  1
  O  O111  1  0.29973358  0.47308572  0.75219872  1
  O  O112  1  0.17335115  0.70026642  0.75219872  1
  O  O113  1  0.52691428  0.82664885  0.75219872  1
