# generated using pymatgen
data_Na2ZnInP(SO6)2
_symmetry_space_group_name_H-M   'P 1'
_cell_length_a   8.95873039
_cell_length_b   8.92855852
_cell_length_c   22.82932819
_cell_angle_alpha   89.93336283
_cell_angle_beta   90.00000000
_cell_angle_gamma   120.11184798
_symmetry_Int_Tables_number   1
_chemical_formula_structural   Na2ZnInP(SO6)2
_chemical_formula_sum   'Na12 Zn6 In6 P6 S12 O72'
_cell_volume   1579.64904505
_cell_formula_units_Z   6
loop_
 _symmetry_equiv_pos_site_id
 _symmetry_equiv_pos_as_xyz
  1  'x, y, z'
loop_
 _atom_site_type_symbol
 _atom_site_label
 _atom_site_symmetry_multiplicity
 _atom_site_fract_x
 _atom_site_fract_y
 _atom_site_fract_z
 _atom_site_occupancy
  Na  Na0  1  0.00043990  0.63792629  0.24508105  1
  Na  Na1  1  0.63748639  0.63792629  0.74508105  1
  Na  Na2  1  0.66179752  0.95987133  0.58112563  1
  Na  Na3  1  0.29807481  0.95987133  0.08112563  1
  Na  Na4  1  0.69407227  0.02852251  0.91190494  1
  Na  Na5  1  0.33444924  0.02852251  0.41190494  1
  Na  Na6  1  0.98650419  0.99192842  0.49665304  1
  Na  Na7  1  0.00542422  0.99192842  0.99665304  1
  Na  Na8  1  0.66140116  0.32072782  0.82998220  1
  Na  Na9  1  0.65932766  0.32072782  0.32998220  1
  Na  Na10  1  0.33468691  0.66089542  0.16360615  1
  Na  Na11  1  0.32620751  0.66089542  0.66360615  1
  Zn  Zn12  1  0.99340943  0.00334027  0.34960580  1
  Zn  Zn13  1  0.00993084  0.00334027  0.84960580  1
  Zn  Zn14  1  0.66820024  0.32864453  0.68268246  1
  Zn  Zn15  1  0.66044529  0.32864453  0.18268246  1
  Zn  Zn16  1  0.31411209  0.66354747  0.01595251  1
  Zn  Zn17  1  0.34943439  0.66354747  0.51595251  1
  In  In18  1  0.99792510  0.99631323  0.65088569  1
  In  In19  1  0.99838813  0.99631323  0.15088569  1
  In  In20  1  0.66780919  0.34103394  0.98426393  1
  In  In21  1  0.67322575  0.34103394  0.48426393  1
  In  In22  1  0.34420394  0.67731958  0.31740931  1
  In  In23  1  0.33311464  0.67731958  0.81740931  1
  P  P24  1  0.29935345  0.00618090  0.25189849  1
  P  P25  1  0.70682744  0.00618090  0.75189849  1
  P  P26  1  0.66403672  0.62506343  0.58610939  1
  P  P27  1  0.96102771  0.62506343  0.08610939  1
  P  P28  1  0.32974683  0.96586842  0.91953526  1
  P  P29  1  0.63612059  0.96586842  0.41953526  1
  S  S30  1  0.70451807  0.70338629  0.25109797  1
  S  S31  1  0.99888140  0.29454766  0.25095087  1
  S  S32  1  0.29566627  0.29454766  0.75095087  1
  S  S33  1  0.99886822  0.70338629  0.75109797  1
  S  S34  1  0.96652107  0.33882296  0.58422384  1
  S  S35  1  0.36936578  0.03713398  0.58339317  1
  S  S36  1  0.66776920  0.03713398  0.08339317  1
  S  S37  1  0.37230289  0.33882296  0.08422384  1
  S  S38  1  0.62661837  0.66677098  0.91709565  1
  S  S39  1  0.04005636  0.37020724  0.91722752  1
  S  S40  1  0.33014988  0.37020724  0.41722752  1
  S  S41  1  0.04015160  0.66677098  0.41709565  1
  O  O42  1  0.21148685  0.02479262  0.30729649  1
  O  O43  1  0.81340590  0.78684775  0.30259638  1
  O  O44  1  0.97575918  0.18941358  0.30302849  1
  O  O45  1  0.21365440  0.18941358  0.80302849  1
  O  O46  1  0.97344186  0.78684775  0.80259638  1
  O  O47  1  0.81330577  0.02479262  0.80729649  1
  O  O48  1  0.78169188  0.96683315  0.69536256  1
  O  O49  1  0.19352719  0.21983078  0.69659356  1
  O  O50  1  0.03292869  0.80884148  0.69684789  1
  O  O51  1  0.77591279  0.80884148  0.19684789  1
  O  O52  1  0.02630359  0.21983078  0.19659356  1
  O  O53  1  0.18514127  0.96683315  0.19536256  1
  O  O54  1  0.88396859  0.36021881  0.63671292  1
  O  O55  1  0.48309437  0.12147733  0.63418304  1
  O  O56  1  0.64399579  0.52123445  0.64239912  1
  O  O57  1  0.87723966  0.52123445  0.14239912  1
  O  O58  1  0.63838396  0.12147733  0.13418304  1
  O  O59  1  0.47625122  0.36021881  0.13671292  1
  O  O60  1  0.44308807  0.29758435  0.03116790  1
  O  O61  1  0.85268566  0.54716033  0.03036647  1
  O  O62  1  0.69539326  0.13688957  0.02796717  1
  O  O63  1  0.44149731  0.13688957  0.52796717  1
  O  O64  1  0.69447567  0.54716033  0.53036647  1
  O  O65  1  0.85449728  0.29758435  0.53116790  1
  O  O66  1  0.53885389  0.69002512  0.96799091  1
  O  O67  1  0.14499597  0.45137788  0.96943330  1
  O  O68  1  0.30810731  0.86074003  0.97583116  1
  O  O69  1  0.55263172  0.86074003  0.47583116  1
  O  O70  1  0.30638091  0.45137788  0.46943330  1
  O  O71  1  0.15117024  0.69002512  0.46799091  1
  O  O72  1  0.11125894  0.63718522  0.36129254  1
  O  O73  1  0.51469905  0.88873811  0.36532445  1
  O  O74  1  0.35755369  0.47370998  0.36300361  1
  O  O75  1  0.11615529  0.47370998  0.86300361  1
  O  O76  1  0.37403806  0.88873811  0.86532445  1
  O  O77  1  0.52592528  0.63718522  0.86129254  1
  O  O78  1  0.02953430  0.82756387  0.41190840  1
  O  O79  1  0.81398073  0.98371823  0.41085109  1
  O  O80  1  0.17820116  0.19292607  0.41215518  1
  O  O81  1  0.01472491  0.19292607  0.91215518  1
  O  O82  1  0.16973750  0.98371823  0.91085109  1
  O  O83  1  0.79802956  0.82756387  0.91190840  1
  O  O84  1  0.98005394  0.17655212  0.58878514  1
  O  O85  1  0.19667408  0.02199179  0.58933292  1
  O  O86  1  0.82700156  0.81474392  0.58779616  1
  O  O87  1  0.98774237  0.81474392  0.08779616  1
  O  O88  1  0.82531770  0.02199179  0.08933292  1
  O  O89  1  0.19649819  0.17655212  0.08878514  1
  O  O90  1  0.68523803  0.16532832  0.74415077  1
  O  O91  1  0.47214022  0.31936699  0.74571616  1
  O  O92  1  0.83841779  0.53260505  0.74515190  1
  O  O93  1  0.69418825  0.53260505  0.24515190  1
  O  O94  1  0.84722777  0.31936699  0.24571616  1
  O  O95  1  0.48009128  0.16532832  0.24415077  1
  O  O96  1  0.64753676  0.51209722  0.92091196  1
  O  O97  1  0.86260723  0.34986603  0.92103069  1
  O  O98  1  0.50370280  0.14683424  0.92330279  1
  O  O99  1  0.64313244  0.14683424  0.42330279  1
  O  O100  1  0.48725980  0.34986603  0.42103069  1
  O  O101  1  0.86456146  0.51209722  0.42091196  1
  O  O102  1  0.35562002  0.49320039  0.07639755  1
  O  O103  1  0.14624574  0.65022014  0.08079456  1
  O  O104  1  0.51036341  0.86276276  0.07826980  1
  O  O105  1  0.35239834  0.86276276  0.57826980  1
  O  O106  1  0.50397340  0.65022014  0.58079456  1
  O  O107  1  0.13757936  0.49320039  0.57639755  1
  O  O108  1  0.30489828  0.83092301  0.25465116  1
  O  O109  1  0.52775718  0.67986892  0.25532462  1
  O  O110  1  0.15728117  0.47317773  0.25538633  1
  O  O111  1  0.31589556  0.47317773  0.75538633  1
  O  O112  1  0.15211074  0.67986892  0.75532462  1
  O  O113  1  0.52602373  0.83092301  0.75465116  1
