# generated using pymatgen
data_Ba3SrMgNb2O9
_symmetry_space_group_name_H-M   'P 1'
_cell_length_a   5.94820756
_cell_length_b   5.94825257
_cell_length_c   9.72925200
_cell_angle_alpha   89.99842685
_cell_angle_beta   90.00166633
_cell_angle_gamma   120.00025653
_symmetry_Int_Tables_number   1
_chemical_formula_structural   Ba3SrMgNb2O9
_chemical_formula_sum   'Ba3 Sr1 Mg1 Nb2 O9'
_cell_volume   298.11544478
_cell_formula_units_Z   1
loop_
 _symmetry_equiv_pos_site_id
 _symmetry_equiv_pos_as_xyz
  1  'x, y, z'
loop_
 _atom_site_type_symbol
 _atom_site_label
 _atom_site_symmetry_multiplicity
 _atom_site_fract_x
 _atom_site_fract_y
 _atom_site_fract_z
 _atom_site_occupancy
  Ba  Ba0  1  0.99999500  0.99997800  0.01824900  1
  Ba  Ba1  1  0.33335000  0.66669100  0.77203500  1
  Ba  Ba2  1  0.66663900  0.33327500  0.22975300  1
  Sr  Sr3  1  0.00001100  0.00002900  0.58411300  1
  Mg  Mg4  1  0.33331300  0.66665000  0.39294200  1
  Nb  Nb5  1  0.33332200  0.66663100  0.12074700  1
  Nb  Nb6  1  0.66665100  0.33331200  0.85100100  1
  O  O7  1  0.63757200  0.81878100  0.24376700  1
  O  O8  1  0.18121000  0.81878500  0.24374900  1
  O  O9  1  0.18120000  0.36240000  0.24376000  1
  O  O10  1  0.34250200  0.17128000  0.75580800  1
  O  O11  1  0.82876400  0.17127600  0.75578700  1
  O  O12  1  0.82878200  0.65758000  0.75580200  1
  O  O13  1  0.50139000  0.49862800  0.99694600  1
  O  O14  1  0.50139000  0.00275200  0.99693700  1
  O  O15  1  0.99724300  0.49862000  0.99693600  1
