# generated using pymatgen
data_Cd2Ge7O16
_symmetry_space_group_name_H-M   'P 1'
_cell_length_a   11.31129901
_cell_length_b   11.31129901
_cell_length_c   4.65609581
_cell_angle_alpha   90.00000000
_cell_angle_beta   90.00000000
_cell_angle_gamma   90.00000000
_symmetry_Int_Tables_number   1
_chemical_formula_structural   Cd2Ge7O16
_chemical_formula_sum   'Cd4 Ge14 O32'
_cell_volume   595.72643798
_cell_formula_units_Z   2
loop_
 _symmetry_equiv_pos_site_id
 _symmetry_equiv_pos_as_xyz
  1  'x, y, z'
loop_
 _atom_site_type_symbol
 _atom_site_label
 _atom_site_symmetry_multiplicity
 _atom_site_fract_x
 _atom_site_fract_y
 _atom_site_fract_z
 _atom_site_occupancy
  Cd  Cd0  1  0.83620125  0.66379875  0.00000000  1
  Cd  Cd1  1  0.33620125  0.83620125  0.00000000  1
  Cd  Cd2  1  0.66379875  0.16379875  0.00000000  1
  Cd  Cd3  1  0.16379875  0.33620125  0.00000000  1
  Ge  Ge4  1  0.56876537  0.68584868  0.51006661  1
  Ge  Ge5  1  0.43123463  0.31415132  0.51006661  1
  Ge  Ge6  1  0.31415132  0.56876537  0.48993339  1
  Ge  Ge7  1  0.68584868  0.43123463  0.48993339  1
  Ge  Ge8  1  0.93123463  0.18584868  0.51006661  1
  Ge  Ge9  1  0.81415132  0.93123463  0.48993339  1
  Ge  Ge10  1  0.18584868  0.06876537  0.48993339  1
  Ge  Ge11  1  0.06876537  0.81415132  0.51006661  1
  Ge  Ge12  1  0.63511376  0.86488624  0.00000000  1
  Ge  Ge13  1  0.13511376  0.63511376  0.00000000  1
  Ge  Ge14  1  0.86488624  0.36488624  0.00000000  1
  Ge  Ge15  1  0.36488624  0.13511376  0.00000000  1
  Ge  Ge16  1  0.50000000  0.00000000  0.50000000  1
  Ge  Ge17  1  0.00000000  0.50000000  0.50000000  1
  O  O18  1  0.63876628  0.56524996  0.33354756  1
  O  O19  1  0.36123372  0.43475004  0.33354756  1
  O  O20  1  0.43475004  0.63876628  0.66645244  1
  O  O21  1  0.56524996  0.36123372  0.66645244  1
  O  O22  1  0.86123372  0.06524996  0.33354756  1
  O  O23  1  0.93475004  0.86123372  0.66645244  1
  O  O24  1  0.06524996  0.13876628  0.66645244  1
  O  O25  1  0.13876628  0.93475004  0.33354756  1
  O  O26  1  0.67348718  0.73244307  0.77026840  1
  O  O27  1  0.32651282  0.26755693  0.77026840  1
  O  O28  1  0.26755693  0.67348718  0.22973160  1
  O  O29  1  0.73244307  0.32651282  0.22973160  1
  O  O30  1  0.82651282  0.23244307  0.77026840  1
  O  O31  1  0.76755693  0.82651282  0.22973160  1
  O  O32  1  0.23244307  0.17348718  0.22973160  1
  O  O33  1  0.17348718  0.76755693  0.77026840  1
  O  O34  1  0.52963978  0.78071048  0.22684719  1
  O  O35  1  0.47036022  0.21928952  0.22684719  1
  O  O36  1  0.00090483  0.61832911  0.74822173  1
  O  O37  1  0.38167089  0.00090483  0.25177827  1
  O  O38  1  0.61832911  0.99909517  0.25177827  1
  O  O39  1  0.99909517  0.38167089  0.74822173  1
  O  O40  1  0.88167089  0.49909517  0.25177827  1
  O  O41  1  0.11832911  0.50090483  0.25177827  1
  O  O42  1  0.49909517  0.11832911  0.74822173  1
  O  O43  1  0.50090483  0.88167089  0.74822173  1
  O  O44  1  0.02963978  0.71928952  0.22684719  1
  O  O45  1  0.28071048  0.02963978  0.77315281  1
  O  O46  1  0.71928952  0.97036022  0.77315281  1
  O  O47  1  0.97036022  0.28071048  0.22684719  1
  O  O48  1  0.78071048  0.47036022  0.77315281  1
  O  O49  1  0.21928952  0.52963978  0.77315281  1
