# generated using pymatgen
data_Na2Ti4Si5Ge4S7O48
_symmetry_space_group_name_H-M   'P 1'
_cell_length_a   17.14492997
_cell_length_b   8.55484663
_cell_length_c   22.23911342
_cell_angle_alpha   90.02694558
_cell_angle_beta   90.58107023
_cell_angle_gamma   120.04386266
_symmetry_Int_Tables_number   1
_chemical_formula_structural   Na2Ti4Si5Ge4S7O48
_chemical_formula_sum   'Na6 Ti12 Si15 Ge12 S21 O144'
_cell_volume   2823.40167224
_cell_formula_units_Z   3
loop_
 _symmetry_equiv_pos_site_id
 _symmetry_equiv_pos_as_xyz
  1  'x, y, z'
loop_
 _atom_site_type_symbol
 _atom_site_label
 _atom_site_symmetry_multiplicity
 _atom_site_fract_x
 _atom_site_fract_y
 _atom_site_fract_z
 _atom_site_occupancy
  Na  Na0  1  0.99703446  0.99968910  0.50005097  1
  Na  Na1  1  0.49652882  0.99621256  0.99631876  1
  Na  Na2  1  0.33691428  0.33961826  0.83350668  1
  Na  Na3  1  0.83268334  0.33764876  0.83158358  1
  Na  Na4  1  0.33418602  0.33042367  0.33223074  1
  Na  Na5  1  0.83369662  0.33265753  0.33539759  1
  Ti  Ti6  1  0.00151477  0.98920871  0.35807916  1
  Ti  Ti7  1  0.49937846  0.99868402  0.85316298  1
  Ti  Ti8  1  0.00046227  0.99615476  0.64718253  1
  Ti  Ti9  1  0.49966386  0.00532686  0.14575226  1
  Ti  Ti10  1  0.83995304  0.34887352  0.69113456  1
  Ti  Ti11  1  0.34152242  0.33192795  0.19001095  1
  Ti  Ti12  1  0.34155592  0.35944841  0.97434081  1
  Ti  Ti13  1  0.84197706  0.32329394  0.97787453  1
  Ti  Ti14  1  0.34362948  0.36124648  0.48093307  1
  Ti  Ti15  1  0.83950799  0.32046155  0.47669114  1
  Ti  Ti16  1  0.15997673  0.67692376  0.30952361  1
  Ti  Ti17  1  0.65366492  0.64164915  0.80578690  1
  Si  Si18  1  0.14150701  0.00804568  0.24733955  1
  Si  Si19  1  0.50727543  0.29343610  0.25388070  1
  Si  Si20  1  0.64064614  0.27487022  0.74698277  1
  Si  Si21  1  0.00729593  0.72083797  0.75396351  1
  Si  Si22  1  0.49681535  0.71066247  0.74887609  1
  Si  Si23  1  0.97981244  0.33360835  0.58535287  1
  Si  Si24  1  0.33499989  0.63678676  0.58583900  1
  Si  Si25  1  0.48066657  0.62555269  0.08431947  1
  Si  Si26  1  0.83416864  0.03408776  0.08486346  1
  Si  Si27  1  0.30787563  0.67285619  0.91434111  1
  Si  Si28  1  0.02613253  0.37272095  0.91450470  1
  Si  Si29  1  0.52709552  0.38062383  0.91897388  1
  Si  Si30  1  0.80617052  0.94213469  0.41453081  1
  Si  Si31  1  0.02597348  0.66373566  0.42012314  1
  Si  Si32  1  0.52478523  0.67774992  0.41524191  1
  Ge  Ge33  1  0.49761380  0.00192596  0.35629714  1
  Ge  Ge34  1  0.99594373  0.99216609  0.85597844  1
  Ge  Ge35  1  0.50308903  0.98985476  0.64799140  1
  Ge  Ge36  1  0.00290574  0.00275789  0.14328170  1
  Ge  Ge37  1  0.33820517  0.35275459  0.68463081  1
  Ge  Ge38  1  0.83236398  0.32514245  0.18080512  1
  Ge  Ge39  1  0.16898405  0.65250932  0.01472359  1
  Ge  Ge40  1  0.66163457  0.66749705  0.02396915  1
  Ge  Ge41  1  0.16194575  0.66065440  0.52721850  1
  Ge  Ge42  1  0.66812701  0.68607716  0.51731219  1
  Ge  Ge43  1  0.65793368  0.66149304  0.31616089  1
  Ge  Ge44  1  0.16000802  0.65558016  0.81455418  1
  S  S45  1  0.64640664  0.00174923  0.25009120  1
  S  S46  1  0.35542708  0.71307212  0.25082118  1
  S  S47  1  0.85347563  0.70708245  0.24806506  1
  S  S48  1  0.99856400  0.28760951  0.24890699  1
  S  S49  1  0.14531900  0.28939492  0.75056978  1
  S  S50  1  0.35244553  0.99856278  0.74826951  1
  S  S51  1  0.85586527  0.99745907  0.75086108  1
  S  S52  1  0.48136596  0.33505025  0.58337502  1
  S  S53  1  0.19204716  0.04808464  0.58336423  1
  S  S54  1  0.68793464  0.04268486  0.58300620  1
  S  S55  1  0.82852161  0.61929423  0.58164014  1
  S  S56  1  0.98045633  0.62505224  0.08323668  1
  S  S57  1  0.32820730  0.03754503  0.08170129  1
  S  S58  1  0.18807972  0.33478532  0.08352447  1
  S  S59  1  0.69100126  0.33704416  0.08249926  1
  S  S60  1  0.81086450  0.66867482  0.91719698  1
  S  S61  1  0.16476027  0.95123786  0.91698636  1
  S  S62  1  0.66704213  0.95274685  0.91669172  1
  S  S63  1  0.31112292  0.95369502  0.41724379  1
  S  S64  1  0.16773868  0.38198417  0.41640725  1
  S  S65  1  0.66508708  0.37876219  0.41698566  1
  O  O66  1  0.09473078  0.03385989  0.30704280  1
  O  O67  1  0.60830303  0.03780264  0.30451452  1
  O  O68  1  0.41394037  0.79050550  0.30583772  1
  O  O69  1  0.91102328  0.78392441  0.30272821  1
  O  O70  1  0.48324464  0.15602346  0.31106851  1
  O  O71  1  0.98039638  0.17707671  0.30304471  1
  O  O72  1  0.10623019  0.17709218  0.80492306  1
  O  O73  1  0.59712048  0.15866255  0.80754448  1
  O  O74  1  0.47780014  0.79510775  0.80845667  1
  O  O75  1  0.98327450  0.81005632  0.81106510  1
  O  O76  1  0.40979108  0.04012363  0.80296136  1
  O  O77  1  0.91541400  0.04024962  0.80578585  1
  O  O78  1  0.39168505  0.96685366  0.69393862  1
  O  O79  1  0.89876527  0.97180169  0.69673129  1
  O  O80  1  0.08866246  0.20804439  0.69564563  1
  O  O81  1  0.57668529  0.19416776  0.68692874  1
  O  O82  1  0.01699381  0.84021709  0.69368553  1
  O  O83  1  0.51725799  0.83076852  0.68957842  1
  O  O84  1  0.39716945  0.82494746  0.19694582  1
  O  O85  1  0.89337176  0.81885452  0.19389606  1
  O  O86  1  0.01385567  0.20871935  0.19429191  1
  O  O87  1  0.51704673  0.19353501  0.19381840  1
  O  O88  1  0.07577562  0.96247550  0.18851761  1
  O  O89  1  0.59033406  0.97197526  0.19545640  1
  O  O90  1  0.44068673  0.37090867  0.63764555  1
  O  O91  1  0.92917420  0.36307305  0.64143756  1
  O  O92  1  0.24733357  0.12644910  0.63962458  1
  O  O93  1  0.74432901  0.12175550  0.63677156  1
  O  O94  1  0.31156833  0.49337568  0.64094834  1
  O  O95  1  0.81516849  0.51347196  0.63673754  1
  O  O96  1  0.42974489  0.49623079  0.14159343  1
  O  O97  1  0.94030080  0.51052713  0.13909835  1
  O  O98  1  0.31532929  0.11709102  0.13724737  1
  O  O99  1  0.81354584  0.12858492  0.14278820  1
  O  O100  1  0.24342256  0.36559439  0.13779316  1
  O  O101  1  0.74667441  0.36993136  0.14016328  1
  O  O102  1  0.22520904  0.29867946  0.02947528  1
  O  O103  1  0.73139576  0.30304029  0.03008881  1
  O  O104  1  0.41449894  0.53523616  0.02579014  1
  O  O105  1  0.92108454  0.54208676  0.03015645  1
  O  O106  1  0.34584485  0.15091279  0.02864385  1
  O  O107  1  0.85207188  0.17123140  0.02766124  1
  O  O108  1  0.23129792  0.15869205  0.52936442  1
  O  O109  1  0.72796459  0.15280676  0.52840565  1
  O  O110  1  0.35163576  0.53488031  0.52723593  1
  O  O111  1  0.84571990  0.54045812  0.52806224  1
  O  O112  1  0.42169415  0.30250880  0.52922954  1
  O  O113  1  0.91533516  0.29533648  0.52519086  1
  O  O114  1  0.26910704  0.71057409  0.97690823  1
  O  O115  1  0.77391848  0.70379655  0.97204160  1
  O  O116  1  0.08199648  0.46021594  0.97711639  1
  O  O117  1  0.59145296  0.47536096  0.97813552  1
  O  O118  1  0.14670728  0.83773277  0.97231256  1
  O  O119  1  0.65315664  0.84642091  0.97253143  1
  O  O120  1  0.27292543  0.84238345  0.47107054  1
  O  O121  1  0.76852983  0.82551018  0.47629869  1
  O  O122  1  0.15223194  0.46002245  0.47117126  1
  O  O123  1  0.64727385  0.45602583  0.47162421  1
  O  O124  1  0.09302679  0.70782852  0.47720348  1
  O  O125  1  0.58337153  0.70481849  0.47629583  1
  O  O126  1  0.06874815  0.63093219  0.35907560  1
  O  O127  1  0.56209566  0.62607525  0.35655895  1
  O  O128  1  0.25553302  0.87077196  0.36182174  1
  O  O129  1  0.74518484  0.85479504  0.35390986  1
  O  O130  1  0.18370978  0.48998357  0.36188441  1
  O  O131  1  0.68408040  0.49168731  0.36197100  1
  O  O132  1  0.06353841  0.50109795  0.85657600  1
  O  O133  1  0.56750611  0.50627493  0.85993388  1
  O  O134  1  0.18384314  0.87611203  0.86249481  1
  O  O135  1  0.68602191  0.87983426  0.86315859  1
  O  O136  1  0.24437181  0.63387358  0.85485804  1
  O  O137  1  0.75669798  0.63957701  0.86257518  1
  O  O138  1  0.01522672  0.84184872  0.41086805  1
  O  O139  1  0.51165031  0.85124554  0.40345367  1
  O  O140  1  0.40186878  0.97217146  0.40967460  1
  O  O141  1  0.90796523  0.97788214  0.40582945  1
  O  O142  1  0.08512851  0.20099255  0.41077744  1
  O  O143  1  0.58336205  0.19722932  0.40901274  1
  O  O144  1  0.01177696  0.17209804  0.90387414  1
  O  O145  1  0.51431704  0.18226225  0.91120359  1
  O  O146  1  0.08348993  0.96933633  0.90947245  1
  O  O147  1  0.58677313  0.97202010  0.91263833  1
  O  O148  1  0.40809350  0.84147368  0.90983715  1
  O  O149  1  0.90323183  0.83195671  0.91086123  1
  O  O150  1  0.48693877  0.17120670  0.58989611  1
  O  O151  1  0.98907751  0.15379380  0.59300912  1
  O  O152  1  0.10080927  0.02836269  0.58987066  1
  O  O153  1  0.59756790  0.02347182  0.58813636  1
  O  O154  1  0.42362052  0.83205505  0.59463587  1
  O  O155  1  0.91075886  0.80298659  0.58919230  1
  O  O156  1  0.48922924  0.82348566  0.09453189  1
  O  O157  1  0.98610216  0.80267428  0.09064470  1
  O  O158  1  0.41048495  0.01830084  0.08998894  1
  O  O159  1  0.92448967  0.02179325  0.09699795  1
  O  O160  1  0.09574365  0.17226550  0.09078436  1
  O  O161  1  0.60067407  0.17227220  0.09031894  1
  O  O162  1  0.34287658  0.16553956  0.74039250  1
  O  O163  1  0.84753264  0.16076407  0.74414528  1
  O  O164  1  0.23480758  0.30051408  0.74355319  1
  O  O165  1  0.74102620  0.30073856  0.73855196  1
  O  O166  1  0.40868277  0.50375870  0.74235989  1
  O  O167  1  0.91623071  0.52349434  0.74456082  1
  O  O168  1  0.34616288  0.53270124  0.24411799  1
  O  O169  1  0.84630018  0.52018451  0.24099524  1
  O  O170  1  0.41635130  0.30905351  0.24457883  1
  O  O171  1  0.91634947  0.31196317  0.24205595  1
  O  O172  1  0.24123515  0.17919551  0.23976984  1
  O  O173  1  0.73830477  0.17180175  0.24369798  1
  O  O174  1  0.31259142  0.48620662  0.92190048  1
  O  O175  1  0.82086427  0.50587668  0.92525913  1
  O  O176  1  0.42514074  0.35377923  0.92593435  1
  O  O177  1  0.92628945  0.35644272  0.92392325  1
  O  O178  1  0.24486581  0.13089348  0.92517486  1
  O  O179  1  0.74746208  0.14004846  0.92483919  1
  O  O180  1  0.31946286  0.13381214  0.42320054  1
  O  O181  1  0.81370390  0.14017890  0.42161006  1
  O  O182  1  0.24650157  0.35379195  0.42355535  1
  O  O183  1  0.74486776  0.35852054  0.42414780  1
  O  O184  1  0.42502480  0.49443110  0.42371638  1
  O  O185  1  0.92382519  0.49477773  0.42463728  1
  O  O186  1  0.17833320  0.50056113  0.07740085  1
  O  O187  1  0.68247809  0.49777660  0.07792327  1
  O  O188  1  0.07040940  0.64444194  0.07624559  1
  O  O189  1  0.57732134  0.64455299  0.07518023  1
  O  O190  1  0.24615017  0.85489258  0.07585773  1
  O  O191  1  0.74802350  0.84161492  0.06961633  1
  O  O192  1  0.18254358  0.86767497  0.57749173  1
  O  O193  1  0.67979870  0.85766400  0.57683260  1
  O  O194  1  0.24733958  0.65143925  0.56912488  1
  O  O195  1  0.74631625  0.63710374  0.57513959  1
  O  O196  1  0.07559925  0.50923995  0.57466375  1
  O  O197  1  0.57117245  0.49930399  0.57488154  1
  O  O198  1  0.15339206  0.83030015  0.25856648  1
  O  O199  1  0.65583779  0.84056476  0.25577144  1
  O  O200  1  0.26672667  0.69475707  0.25884324  1
  O  O201  1  0.76463104  0.68701013  0.25648674  1
  O  O202  1  0.08018763  0.46631149  0.25598835  1
  O  O203  1  0.59603029  0.49091828  0.26109157  1
  O  O204  1  0.15469314  0.46990148  0.75574306  1
  O  O205  1  0.65655296  0.47698231  0.75777217  1
  O  O206  1  0.09562157  0.70084098  0.76100908  1
  O  O207  1  0.58680206  0.69624938  0.75771908  1
  O  O208  1  0.26319850  0.83822932  0.75711164  1
  O  O209  1  0.76884209  0.83879095  0.75853353  1
