# generated using pymatgen
data_Na3InS3
_symmetry_space_group_name_H-M   'P 1'
_cell_length_a   10.42851171
_cell_length_b   10.42851171
_cell_length_c   7.35987248
_cell_angle_alpha   69.22591164
_cell_angle_beta   69.22591164
_cell_angle_gamma   80.28582783
_symmetry_Int_Tables_number   1
_chemical_formula_structural   Na3InS3
_chemical_formula_sum   'Na12 In4 S12'
_cell_volume   698.87737040
_cell_formula_units_Z   4
loop_
 _symmetry_equiv_pos_site_id
 _symmetry_equiv_pos_as_xyz
  1  'x, y, z'
loop_
 _atom_site_type_symbol
 _atom_site_label
 _atom_site_symmetry_multiplicity
 _atom_site_fract_x
 _atom_site_fract_y
 _atom_site_fract_z
 _atom_site_occupancy
  Na  Na0  1  0.01006378  0.17288970  0.45480148  1
  Na  Na1  1  0.82711030  0.98993622  0.04519852  1
  Na  Na2  1  0.98993622  0.82711030  0.54519852  1
  Na  Na3  1  0.17288970  0.01006378  0.95480148  1
  Na  Na4  1  0.22993064  0.36278870  0.59025648  1
  Na  Na5  1  0.63721130  0.77006936  0.90974352  1
  Na  Na6  1  0.77006936  0.63721130  0.40974352  1
  Na  Na7  1  0.36278870  0.22993064  0.09025648  1
  Na  Na8  1  0.72237470  0.27762530  0.75000000  1
  Na  Na9  1  0.27762530  0.72237470  0.25000000  1
  Na  Na10  1  0.43845520  0.56154480  0.75000000  1
  Na  Na11  1  0.56154480  0.43845520  0.25000000  1
  In  In12  1  0.42836791  0.91649888  0.40269550  1
  In  In13  1  0.57163209  0.08350112  0.59730450  1
  In  In14  1  0.91649888  0.42836791  0.90269550  1
  In  In15  1  0.08350112  0.57163209  0.09730450  1
  S  S16  1  0.88497410  0.41281300  0.26479568  1
  S  S17  1  0.41281300  0.88497410  0.76479568  1
  S  S18  1  0.58718700  0.11502590  0.23520432  1
  S  S19  1  0.11502590  0.58718700  0.73520432  1
  S  S20  1  0.99530187  0.21719955  0.81609735  1
  S  S21  1  0.78280045  0.00469813  0.68390265  1
  S  S22  1  0.00469813  0.78280045  0.18390265  1
  S  S23  1  0.21719955  0.99530187  0.31609735  1
  S  S24  1  0.70496721  0.52756307  0.82654315  1
  S  S25  1  0.47243693  0.29503279  0.67345685  1
  S  S26  1  0.29503279  0.47243693  0.17345685  1
  S  S27  1  0.52756307  0.70496721  0.32654315  1
