# generated using pymatgen
data_Na4Ta3GaSi5SO24
_symmetry_space_group_name_H-M   'P 1'
_cell_length_a   8.91060100
_cell_length_b   8.89976387
_cell_length_c   22.63857437
_cell_angle_alpha   89.64248944
_cell_angle_beta   90.75983029
_cell_angle_gamma   119.67696876
_symmetry_Int_Tables_number   1
_chemical_formula_structural   Na4Ta3GaSi5SO24
_chemical_formula_sum   'Na12 Ta9 Ga3 Si15 S3 O72'
_cell_volume   1559.66542440
_cell_formula_units_Z   3
loop_
 _symmetry_equiv_pos_site_id
 _symmetry_equiv_pos_as_xyz
  1  'x, y, z'
loop_
 _atom_site_type_symbol
 _atom_site_label
 _atom_site_symmetry_multiplicity
 _atom_site_fract_x
 _atom_site_fract_y
 _atom_site_fract_z
 _atom_site_occupancy
  Na  Na0  1  0.63521323  0.62767011  0.74693951  1
  Na  Na1  1  0.99224777  0.36275238  0.74887927  1
  Na  Na2  1  0.37294835  0.00745183  0.74713618  1
  Na  Na3  1  0.66362089  0.69116563  0.08377754  1
  Na  Na4  1  0.02767444  0.33723267  0.08382903  1
  Na  Na5  1  0.32643677  0.02874982  0.41620225  1
  Na  Na6  1  0.99322075  0.99595006  0.49578642  1
  Na  Na7  1  0.00567252  0.99797080  0.99649006  1
  Na  Na8  1  0.66677440  0.33293750  0.83348518  1
  Na  Na9  1  0.68001922  0.33737752  0.32925737  1
  Na  Na10  1  0.33048851  0.66998089  0.16758745  1
  Na  Na11  1  0.33856517  0.67065456  0.66316075  1
  Ta  Ta12  1  0.99874460  0.00039761  0.85527665  1
  Ta  Ta13  1  0.00137640  0.99210233  0.64461293  1
  Ta  Ta14  1  0.00761047  0.01051846  0.14564151  1
  Ta  Ta15  1  0.66615745  0.33388081  0.97795511  1
  Ta  Ta16  1  0.66201243  0.34046137  0.47701731  1
  Ta  Ta17  1  0.33274704  0.66940148  0.02001782  1
  Ta  Ta18  1  0.34536725  0.67858719  0.51864989  1
  Ta  Ta19  1  0.32271604  0.65641994  0.31493885  1
  Ta  Ta20  1  0.33374934  0.66685405  0.81462982  1
  Ga  Ga21  1  0.98972180  0.01366303  0.35905893  1
  Ga  Ga22  1  0.64901244  0.32839338  0.68661506  1
  Ga  Ga23  1  0.68361915  0.33207358  0.18009998  1
  Si  Si24  1  0.98989077  0.28832180  0.25208303  1
  Si  Si25  1  0.28812844  0.28737571  0.74952319  1
  Si  Si26  1  0.99516058  0.70509434  0.75013979  1
  Si  Si27  1  0.71171019  0.00400865  0.74792960  1
  Si  Si28  1  0.38139590  0.04751035  0.58479670  1
  Si  Si29  1  0.66458900  0.61873604  0.58581604  1
  Si  Si30  1  0.95557007  0.62231405  0.08460471  1
  Si  Si31  1  0.65958134  0.04569502  0.08511457  1
  Si  Si32  1  0.38829541  0.33166217  0.08630372  1
  Si  Si33  1  0.62534812  0.66776090  0.91764321  1
  Si  Si34  1  0.04201385  0.37634067  0.91697933  1
  Si  Si35  1  0.33434207  0.95910427  0.91631177  1
  Si  Si36  1  0.62880805  0.95730566  0.41422920  1
  Si  Si37  1  0.32521655  0.37536027  0.41747472  1
  Si  Si38  1  0.03931727  0.66938114  0.41602160  1
  S  S39  1  0.29199380  0.00317914  0.25180310  1
  S  S40  1  0.71237831  0.71053853  0.25113969  1
  S  S41  1  0.95614982  0.33500304  0.58400191  1
  O  O42  1  0.21119142  0.02239654  0.30428719  1
  O  O43  1  0.82038444  0.79212969  0.30311820  1
  O  O44  1  0.97152302  0.16586034  0.30675075  1
  O  O45  1  0.19485672  0.16223005  0.80637114  1
  O  O46  1  0.96398406  0.80064127  0.80606878  1
  O  O47  1  0.83531257  0.03410860  0.80603639  1
  O  O48  1  0.80302662  0.96359989  0.69254248  1
  O  O49  1  0.15862453  0.19893282  0.69268126  1
  O  O50  1  0.03868810  0.83737081  0.69330701  1
  O  O51  1  0.79388349  0.81871885  0.19563798  1
  O  O52  1  0.02578401  0.19622035  0.19226565  1
  O  O53  1  0.17660276  0.97272767  0.19730478  1
  O  O54  1  0.88315090  0.36280113  0.63833441  1
  O  O55  1  0.49497350  0.12422944  0.64456591  1
  O  O56  1  0.63705823  0.50865429  0.64547075  1
  O  O57  1  0.87949531  0.50065505  0.14112800  1
  O  O58  1  0.62611124  0.12346460  0.14296493  1
  O  O59  1  0.51080762  0.37547311  0.14360462  1
  O  O60  1  0.47016441  0.30042905  0.02650576  1
  O  O61  1  0.83015386  0.53616280  0.02642552  1
  O  O62  1  0.70826833  0.17104594  0.02707838  1
  O  O63  1  0.47289476  0.16495313  0.52550188  1
  O  O64  1  0.69685115  0.52761756  0.52766841  1
  O  O65  1  0.84596028  0.30680908  0.53090928  1
  O  O66  1  0.53285486  0.69507538  0.97546825  1
  O  O67  1  0.16332430  0.46667548  0.97546931  1
  O  O68  1  0.30455440  0.83327389  0.97319098  1
  O  O69  1  0.52987958  0.83571285  0.47262231  1
  O  O70  1  0.30279247  0.47249291  0.47428330  1
  O  O71  1  0.16864358  0.70075702  0.47270863  1
  O  O72  1  0.13586929  0.63388399  0.35914863  1
  O  O73  1  0.49297553  0.86472888  0.35842784  1
  O  O74  1  0.36627981  0.50258480  0.35945508  1
  O  O75  1  0.13460176  0.49734519  0.85810653  1
  O  O76  1  0.36246820  0.86698575  0.85756146  1
  O  O77  1  0.50407601  0.63762688  0.85824952  1
  O  O78  1  0.03224308  0.84433884  0.40513450  1
  O  O79  1  0.81283524  0.96975611  0.41219716  1
  O  O80  1  0.17079069  0.18047254  0.41023213  1
  O  O81  1  0.02633754  0.18757379  0.90944328  1
  O  O82  1  0.16113739  0.97402071  0.90955524  1
  O  O83  1  0.81315519  0.83896722  0.90966683  1
  O  O84  1  0.97289400  0.17596184  0.58882180  1
  O  O85  1  0.18752807  0.02988487  0.59043696  1
  O  O86  1  0.83531470  0.81539272  0.59031229  1
  O  O87  1  0.97081306  0.81303934  0.09346913  1
  O  O88  1  0.83487600  0.01993164  0.09310766  1
  O  O89  1  0.18709075  0.16413268  0.09225438  1
  O  O90  1  0.69391254  0.17601236  0.74281434  1
  O  O91  1  0.47924818  0.30903998  0.74636697  1
  O  O92  1  0.82977045  0.51486657  0.74240908  1
  O  O93  1  0.68834182  0.53573048  0.24395479  1
  O  O94  1  0.82204828  0.31306580  0.24362172  1
  O  O95  1  0.46248535  0.15695951  0.24349696  1
  O  O96  1  0.64063671  0.49424605  0.92322966  1
  O  O97  1  0.85358987  0.35986205  0.92371425  1
  O  O98  1  0.50615329  0.14630426  0.92359845  1
  O  O99  1  0.63539601  0.14307924  0.42557969  1
  O  O100  1  0.50202613  0.35779356  0.42360407  1
  O  O101  1  0.85501987  0.49229099  0.42515654  1
  O  O102  1  0.35500521  0.49813551  0.07660457  1
  O  O103  1  0.14654599  0.64043553  0.07519941  1
  O  O104  1  0.50189777  0.84661733  0.07613283  1
  O  O105  1  0.35071605  0.84994244  0.57583903  1
  O  O106  1  0.49277521  0.64014454  0.57609531  1
  O  O107  1  0.13060853  0.48853170  0.57667424  1
  O  O108  1  0.30683192  0.84126012  0.25424520  1
  O  O109  1  0.53763776  0.70012885  0.25482406  1
  O  O110  1  0.17279588  0.48227073  0.25632175  1
  O  O111  1  0.30556771  0.48006559  0.75649031  1
  O  O112  1  0.17334264  0.69345098  0.75615910  1
  O  O113  1  0.52092102  0.82851272  0.75638729  1
