# generated using pymatgen
data_Na6Mg2Nb4Si3(PO6)6
_symmetry_space_group_name_H-M   'P 1'
_cell_length_a   8.93657285
_cell_length_b   8.93657255
_cell_length_c   22.54327097
_cell_angle_alpha   90.13839178
_cell_angle_beta   89.86160823
_cell_angle_gamma   120.19891261
_symmetry_Int_Tables_number   1
_chemical_formula_structural   Na6Mg2Nb4Si3(PO6)6
_chemical_formula_sum   'Na12 Mg4 Nb8 Si6 P12 O72'
_cell_volume   1556.01535925
_cell_formula_units_Z   2
loop_
 _symmetry_equiv_pos_site_id
 _symmetry_equiv_pos_as_xyz
  1  'x, y, z'
loop_
 _atom_site_type_symbol
 _atom_site_label
 _atom_site_symmetry_multiplicity
 _atom_site_fract_x
 _atom_site_fract_y
 _atom_site_fract_z
 _atom_site_occupancy
  Na  Na0  1  0.36599681  0.35699192  0.24456945  1
  Na  Na1  1  0.98624393  0.62903410  0.24233417  1
  Na  Na2  1  0.64300808  0.63400319  0.74456945  1
  Na  Na3  1  0.37096590  0.01375607  0.74233417  1
  Na  Na4  1  0.71082092  0.03349793  0.91292136  1
  Na  Na5  1  0.96650207  0.28917908  0.41292136  1
  Na  Na6  1  0.00510502  0.99154562  0.49309189  1
  Na  Na7  1  0.00845438  0.99489498  0.99309189  1
  Na  Na8  1  0.68043430  0.34490057  0.82853864  1
  Na  Na9  1  0.65509943  0.31956570  0.32853864  1
  Na  Na10  1  0.34351585  0.68648846  0.16291060  1
  Na  Na11  1  0.31351154  0.65648415  0.66291060  1
  Mg  Mg12  1  0.00364205  0.99791943  0.35436602  1
  Mg  Mg13  1  0.00208057  0.99635795  0.85436602  1
  Mg  Mg14  1  0.67423408  0.33182132  0.68409462  1
  Mg  Mg15  1  0.66817868  0.32576592  0.18409462  1
  Nb  Nb16  1  0.00304911  0.00541847  0.64321630  1
  Nb  Nb17  1  0.99458153  0.99695089  0.14321630  1
  Nb  Nb18  1  0.66984920  0.34179520  0.98232483  1
  Nb  Nb19  1  0.65820480  0.33015080  0.48232483  1
  Nb  Nb20  1  0.33751094  0.66922540  0.02216733  1
  Nb  Nb21  1  0.33077460  0.66248906  0.52216733  1
  Nb  Nb22  1  0.34046513  0.67083931  0.31279505  1
  Nb  Nb23  1  0.32916069  0.65953487  0.81279505  1
  Si  Si24  1  0.95053769  0.33294939  0.58482667  1
  Si  Si25  1  0.37798347  0.04175627  0.58857382  1
  Si  Si26  1  0.95824373  0.62201653  0.08857382  1
  Si  Si27  1  0.66705061  0.04946231  0.08482667  1
  Si  Si28  1  0.62842384  0.66402925  0.91608035  1
  Si  Si29  1  0.33597075  0.37157616  0.41608035  1
  P  P30  1  0.29018405  0.00411038  0.25169437  1
  P  P31  1  0.71327468  0.71330616  0.25203611  1
  P  P32  1  0.99432021  0.28629893  0.25384335  1
  P  P33  1  0.28669384  0.28672532  0.75203611  1
  P  P34  1  0.99588962  0.70981595  0.75169437  1
  P  P35  1  0.71370107  0.00567979  0.75384335  1
  P  P36  1  0.66571375  0.62163473  0.58652366  1
  P  P37  1  0.37836527  0.33428625  0.08652366  1
  P  P38  1  0.04257887  0.37542424  0.91777200  1
  P  P39  1  0.33028736  0.95639035  0.91662712  1
  P  P40  1  0.62457576  0.95742113  0.41777200  1
  P  P41  1  0.04360965  0.66971264  0.41662712  1
  O  O42  1  0.20347908  0.02577077  0.30590900  1
  O  O43  1  0.82388638  0.79853661  0.30547530  1
  O  O44  1  0.98250482  0.19080345  0.31058709  1
  O  O45  1  0.20146339  0.17611362  0.80547530  1
  O  O46  1  0.97422923  0.79652092  0.80590900  1
  O  O47  1  0.80919655  0.01749518  0.81058709  1
  O  O48  1  0.79923357  0.97006445  0.69846550  1
  O  O49  1  0.17505485  0.20107055  0.69444386  1
  O  O50  1  0.03081946  0.82951256  0.69566561  1
  O  O51  1  0.79892945  0.82494515  0.19444386  1
  O  O52  1  0.02993555  0.20076643  0.19846550  1
  O  O53  1  0.17048744  0.96918054  0.19566561  1
  O  O54  1  0.87621679  0.37358543  0.64144999  1
  O  O55  1  0.48039936  0.11703090  0.64823059  1
  O  O56  1  0.63114806  0.51881067  0.64294796  1
  O  O57  1  0.88296910  0.51960064  0.14823059  1
  O  O58  1  0.62641457  0.12378321  0.14144999  1
  O  O59  1  0.48118933  0.36885194  0.14294796  1
  O  O60  1  0.46876534  0.30672381  0.03084253  1
  O  O61  1  0.83153236  0.52679098  0.02927640  1
  O  O62  1  0.69452916  0.16151420  0.02273401  1
  O  O63  1  0.47320902  0.16846764  0.52927640  1
  O  O64  1  0.69327619  0.53123466  0.53084253  1
  O  O65  1  0.83848580  0.30547084  0.52273401  1
  O  O66  1  0.51552924  0.67969331  0.97080506  1
  O  O67  1  0.15240629  0.47178486  0.97187350  1
  O  O68  1  0.31510975  0.84149270  0.97066096  1
  O  O69  1  0.52821514  0.84759371  0.47187350  1
  O  O70  1  0.32030669  0.48447076  0.47080506  1
  O  O71  1  0.15850730  0.68489025  0.47066096  1
  O  O72  1  0.13476412  0.64070068  0.36028505  1
  O  O73  1  0.50677215  0.86722034  0.36142570  1
  O  O74  1  0.36167934  0.49814642  0.35649214  1
  O  O75  1  0.13277966  0.49322785  0.86142570  1
  O  O76  1  0.35929932  0.86523588  0.86028505  1
  O  O77  1  0.50185358  0.63832066  0.85649214  1
  O  O78  1  0.02337704  0.82512861  0.41206692  1
  O  O79  1  0.80276180  0.97946273  0.41195894  1
  O  O80  1  0.16098393  0.19055139  0.41364338  1
  O  O81  1  0.02053727  0.19723820  0.91195894  1
  O  O82  1  0.17487139  0.97662296  0.91206692  1
  O  O83  1  0.80944861  0.83901607  0.91364338  1
  O  O84  1  0.96978874  0.15729312  0.59140367  1
  O  O85  1  0.18231168  0.02050465  0.59065817  1
  O  O86  1  0.83006034  0.80441126  0.59000789  1
  O  O87  1  0.97949535  0.81768832  0.09065817  1
  O  O88  1  0.84270688  0.03021126  0.09140367  1
  O  O89  1  0.19558874  0.16993966  0.09000789  1
  O  O90  1  0.67693111  0.15397322  0.74764926  1
  O  O91  1  0.47297699  0.32289030  0.74504343  1
  O  O92  1  0.83753365  0.53004732  0.74407736  1
  O  O93  1  0.67710970  0.52702301  0.24504343  1
  O  O94  1  0.84602678  0.32306889  0.24764926  1
  O  O95  1  0.46995268  0.16246635  0.24407736  1
  O  O96  1  0.63459299  0.48390744  0.92209805  1
  O  O97  1  0.86101341  0.36178977  0.92135900  1
  O  O98  1  0.50585359  0.13084384  0.92119742  1
  O  O99  1  0.63821023  0.13898659  0.42135900  1
  O  O100  1  0.51609256  0.36540701  0.42209805  1
  O  O101  1  0.86915616  0.49414641  0.42119742  1
  O  O102  1  0.35074024  0.48966603  0.07365442  1
  O  O103  1  0.14932360  0.64828567  0.07338225  1
  O  O104  1  0.50581970  0.84946241  0.07239801  1
  O  O105  1  0.35171433  0.85067640  0.57338225  1
  O  O106  1  0.51033397  0.64925976  0.57365442  1
  O  O107  1  0.15053759  0.49418030  0.57239801  1
  O  O108  1  0.29975955  0.83048935  0.25617360  1
  O  O109  1  0.52769117  0.69928776  0.25515294  1
  O  O110  1  0.17068293  0.47561283  0.25586435  1
  O  O111  1  0.30071224  0.47230883  0.75515294  1
  O  O112  1  0.16951065  0.70024045  0.75617360  1
  O  O113  1  0.52438717  0.82931707  0.75586435  1
