# generated using pymatgen
data_Na3Y2(PO4)3
_symmetry_space_group_name_H-M   'P 1'
_cell_length_a   16.23164503
_cell_length_b   9.30829624
_cell_length_c   9.42660017
_cell_angle_alpha   90.00000000
_cell_angle_beta   125.10901873
_cell_angle_gamma   90.00000000
_symmetry_Int_Tables_number   1
_chemical_formula_structural   Na3Y2(PO4)3
_chemical_formula_sum   'Na12 Y8 P12 O48'
_cell_volume   1165.12508301
_cell_formula_units_Z   4
loop_
 _symmetry_equiv_pos_site_id
 _symmetry_equiv_pos_as_xyz
  1  'x, y, z'
loop_
 _atom_site_type_symbol
 _atom_site_label
 _atom_site_symmetry_multiplicity
 _atom_site_fract_x
 _atom_site_fract_y
 _atom_site_fract_z
 _atom_site_occupancy
  Na  Na0  1  0.24252493  0.77448550  0.99678222  1
  Na  Na1  1  0.74252493  0.72551450  0.49678222  1
  Na  Na2  1  0.74252493  0.27448550  0.99678222  1
  Na  Na3  1  0.24252493  0.22551450  0.49678222  1
  Na  Na4  1  0.50184129  0.09932267  0.74372917  1
  Na  Na5  1  0.50184129  0.90067733  0.24372917  1
  Na  Na6  1  0.00184129  0.59932267  0.74372917  1
  Na  Na7  1  0.00184129  0.40067733  0.24372917  1
  Na  Na8  1  0.81079632  0.93141029  0.19820827  1
  Na  Na9  1  0.81079632  0.06858971  0.69820827  1
  Na  Na10  1  0.31079632  0.43141029  0.19820827  1
  Na  Na11  1  0.31079632  0.56858971  0.69820827  1
  Y  Y12  1  0.10372906  0.76182860  0.55274006  1
  Y  Y13  1  0.89845129  0.75025234  0.94393572  1
  Y  Y14  1  0.89845129  0.24974766  0.44393572  1
  Y  Y15  1  0.10372906  0.23817140  0.05274006  1
  Y  Y16  1  0.60372906  0.26182860  0.55274006  1
  Y  Y17  1  0.39845129  0.25025234  0.94393572  1
  Y  Y18  1  0.39845129  0.74974766  0.44393572  1
  Y  Y19  1  0.60372906  0.73817140  0.05274006  1
  P  P20  1  0.99613892  0.94331504  0.74155006  1
  P  P21  1  0.99613892  0.05668496  0.24155006  1
  P  P22  1  0.49613892  0.44331504  0.74155006  1
  P  P23  1  0.49613892  0.55668496  0.24155006  1
  P  P24  1  0.35599533  0.89795129  0.76166896  1
  P  P25  1  0.65283328  0.90503402  0.74934765  1
  P  P26  1  0.65283328  0.09496598  0.24934765  1
  P  P27  1  0.35599533  0.10204871  0.26166896  1
  P  P28  1  0.85599533  0.39795129  0.76166896  1
  P  P29  1  0.15283328  0.40503402  0.74934765  1
  P  P30  1  0.15283328  0.59496598  0.24934765  1
  P  P31  1  0.85599533  0.60204871  0.26166896  1
  O  O32  1  0.15882066  0.57254539  0.74906062  1
  O  O33  1  0.84625319  0.56401627  0.74906939  1
  O  O34  1  0.84625319  0.43598373  0.24906939  1
  O  O35  1  0.15882066  0.42745461  0.24906062  1
  O  O36  1  0.65882066  0.07254539  0.74906062  1
  O  O37  1  0.34625319  0.06401627  0.74906939  1
  O  O38  1  0.34625319  0.93598373  0.24906939  1
  O  O39  1  0.65882066  0.92745461  0.24906062  1
  O  O40  1  0.43596542  0.53681560  0.57603380  1
  O  O41  1  0.55210725  0.54185037  0.90160158  1
  O  O42  1  0.55210725  0.45814963  0.40160158  1
  O  O43  1  0.43596542  0.46318440  0.07603380  1
  O  O44  1  0.93596542  0.03681560  0.57603380  1
  O  O45  1  0.05210725  0.04185037  0.90160158  1
  O  O46  1  0.05210725  0.95814963  0.40160158  1
  O  O47  1  0.93596542  0.96318440  0.07603380  1
  O  O48  1  0.26725226  0.82540040  0.75284757  1
  O  O49  1  0.74092954  0.84399956  0.74716609  1
  O  O50  1  0.74092954  0.15600044  0.24716609  1
  O  O51  1  0.26725226  0.17459960  0.25284757  1
  O  O52  1  0.76725226  0.32540040  0.75284757  1
  O  O53  1  0.24092954  0.34399956  0.74716609  1
  O  O54  1  0.24092954  0.65600044  0.24716609  1
  O  O55  1  0.76725226  0.67459960  0.25284757  1
  O  O56  1  0.35927724  0.84547753  0.60917641  1
  O  O57  1  0.66016845  0.86393151  0.91671070  1
  O  O58  1  0.66016845  0.13606849  0.41671070  1
  O  O59  1  0.35927724  0.15452247  0.10917641  1
  O  O60  1  0.85927724  0.34547753  0.60917641  1
  O  O61  1  0.16016845  0.36393151  0.91671070  1
  O  O62  1  0.16016845  0.63606849  0.41671070  1
  O  O63  1  0.85927724  0.65452247  0.10917641  1
  O  O64  1  0.45528709  0.85237109  0.93374134  1
  O  O65  1  0.55162730  0.85062658  0.58801542  1
  O  O66  1  0.55162730  0.14937342  0.08801542  1
  O  O67  1  0.45528709  0.14762891  0.43374134  1
  O  O68  1  0.95528709  0.35237109  0.93374134  1
  O  O69  1  0.05162730  0.35062658  0.58801542  1
  O  O70  1  0.05162730  0.64937342  0.08801542  1
  O  O71  1  0.95528709  0.64762891  0.43374134  1
  O  O72  1  0.07281576  0.84092702  0.74566218  1
  O  O73  1  0.91718542  0.84874225  0.74295278  1
  O  O74  1  0.91718542  0.15125775  0.24295278  1
  O  O75  1  0.07281576  0.15907298  0.24566218  1
  O  O76  1  0.57281576  0.34092702  0.74566218  1
  O  O77  1  0.41718542  0.34874225  0.74295278  1
  O  O78  1  0.41718542  0.65125775  0.24295278  1
  O  O79  1  0.57281576  0.65907298  0.24566218  1
