# generated using pymatgen
data_Na2Mg(CoO2)2
_symmetry_space_group_name_H-M   'P 1'
_cell_length_a   3.41613900
_cell_length_b   3.36790841
_cell_length_c   10.58815200
_cell_angle_alpha   90.00000000
_cell_angle_beta   90.00000000
_cell_angle_gamma   120.47485449
_symmetry_Int_Tables_number   1
_chemical_formula_structural   Na2Mg(CoO2)2
_chemical_formula_sum   'Na2 Mg1 Co2 O4'
_cell_volume   104.99015510
_cell_formula_units_Z   1
loop_
 _symmetry_equiv_pos_site_id
 _symmetry_equiv_pos_as_xyz
  1  'x, y, z'
loop_
 _atom_site_type_symbol
 _atom_site_label
 _atom_site_symmetry_multiplicity
 _atom_site_fract_x
 _atom_site_fract_y
 _atom_site_fract_z
 _atom_site_occupancy
  Na  Na0  1  0.66283000  0.32566000  0.25000000  1
  Na  Na1  1  0.33669700  0.67339500  0.75000000  1
  Mg  Mg2  1  0.99745900  0.99491800  0.75000000  1
  Co  Co3  1  0.99948700  0.99897500  0.47506200  1
  Co  Co4  1  0.99948700  0.99897500  0.02493800  1
  O  O5  1  0.32909000  0.65817800  0.40640600  1
  O  O6  1  0.67293000  0.34586100  0.63475500  1
  O  O7  1  0.67293000  0.34586100  0.86524500  1
  O  O8  1  0.32909000  0.65817800  0.09359400  1
