# generated using pymatgen
data_MgCrGaO4
_symmetry_space_group_name_H-M   'P 1'
_cell_length_a   5.29734394
_cell_length_b   6.04795296
_cell_length_c   5.17903783
_cell_angle_alpha   100.02860743
_cell_angle_beta   78.54020583
_cell_angle_gamma   151.15780106
_symmetry_Int_Tables_number   1
_chemical_formula_structural   MgCrGaO4
_chemical_formula_sum   'Mg1 Cr1 Ga1 O4'
_cell_volume   78.44704746
_cell_formula_units_Z   1
loop_
 _symmetry_equiv_pos_site_id
 _symmetry_equiv_pos_as_xyz
  1  'x, y, z'
loop_
 _atom_site_type_symbol
 _atom_site_label
 _atom_site_symmetry_multiplicity
 _atom_site_fract_x
 _atom_site_fract_y
 _atom_site_fract_z
 _atom_site_occupancy
  Mg  Mg0  1  0.50136913  0.03510611  0.03189001  1
  Cr  Cr1  1  0.56749262  0.03545059  0.50526916  1
  Ga  Ga2  1  0.49601536  0.53536063  0.92819874  1
  O  O3  1  0.23992882  0.03535828  0.80229794  1
  O  O4  1  0.19920383  0.53551033  0.74045699  1
  O  O5  1  0.84868072  0.03545485  0.16529874  1
  O  O6  1  0.92193051  0.53529420  0.31566243  1
