# generated using pymatgen
data_Na14Mg4Si7Sn4S5O48
_symmetry_space_group_name_H-M   'P 1'
_cell_length_a   18.17228205
_cell_length_b   9.09333912
_cell_length_c   22.39103697
_cell_angle_alpha   90.07544433
_cell_angle_beta   89.24107273
_cell_angle_gamma   119.96185594
_symmetry_Int_Tables_number   1
_chemical_formula_structural   Na14Mg4Si7Sn4S5O48
_chemical_formula_sum   'Na42 Mg12 Si21 Sn12 S15 O144'
_cell_volume   3205.22315667
_cell_formula_units_Z   3
loop_
 _symmetry_equiv_pos_site_id
 _symmetry_equiv_pos_as_xyz
  1  'x, y, z'
loop_
 _atom_site_type_symbol
 _atom_site_label
 _atom_site_symmetry_multiplicity
 _atom_site_fract_x
 _atom_site_fract_y
 _atom_site_fract_z
 _atom_site_occupancy
  Na  Na0  1  0.80777491  0.98568372  0.25521193  1
  Na  Na1  1  0.18457089  0.36017627  0.25381969  1
  Na  Na2  1  0.69047820  0.36826983  0.25406420  1
  Na  Na3  1  0.99372530  0.64057326  0.24568669  1
  Na  Na4  1  0.50218241  0.64697116  0.25079269  1
  Na  Na5  1  0.30956480  0.63024839  0.74592426  1
  Na  Na6  1  0.00071566  0.35566099  0.74705804  1
  Na  Na7  1  0.49574913  0.35097720  0.74158166  1
  Na  Na8  1  0.18970691  0.01269821  0.75053808  1
  Na  Na9  1  0.68635641  0.01037971  0.75029111  1
  Na  Na10  1  0.14717805  0.33199198  0.58365669  1
  Na  Na11  1  0.65561345  0.33744114  0.58261369  1
  Na  Na12  1  0.33874647  0.98479305  0.58069906  1
  Na  Na13  1  0.83354045  0.97191999  0.58058411  1
  Na  Na14  1  0.15345751  0.97228710  0.08692348  1
  Na  Na15  1  0.64747276  0.96285817  0.08726118  1
  Na  Na16  1  0.33470402  0.69411443  0.08799851  1
  Na  Na17  1  0.83807320  0.69506386  0.08428788  1
  Na  Na18  1  0.48582012  0.67647559  0.92314925  1
  Na  Na19  1  0.97433698  0.66465713  0.92127522  1
  Na  Na20  1  0.35263296  0.03836985  0.91614349  1
  Na  Na21  1  0.84845703  0.02944493  0.91173747  1
  Na  Na22  1  0.16595268  0.29125539  0.91532762  1
  Na  Na23  1  0.67226306  0.29436801  0.90940226  1
  Na  Na24  1  0.47697458  0.28822601  0.42155890  1
  Na  Na25  1  0.97622240  0.27650043  0.42283822  1
  Na  Na26  1  0.17042800  0.05030785  0.40946311  1
  Na  Na27  1  0.67428093  0.03799736  0.41386441  1
  Na  Na28  1  0.34976768  0.66814993  0.41186132  1
  Na  Na29  1  0.85014055  0.67931101  0.41786477  1
  Na  Na30  1  0.99239065  0.99874212  0.49590324  1
  Na  Na31  1  0.50148574  0.00300866  0.49972948  1
  Na  Na32  1  0.99821266  0.99599385  0.00203378  1
  Na  Na33  1  0.50073954  0.99904088  0.00206566  1
  Na  Na34  1  0.32781310  0.32076139  0.82408686  1
  Na  Na35  1  0.82485300  0.33138014  0.83266868  1
  Na  Na36  1  0.32584282  0.31976149  0.33507545  1
  Na  Na37  1  0.82624885  0.32089716  0.33129332  1
  Na  Na38  1  0.16915125  0.67477693  0.16808763  1
  Na  Na39  1  0.66471676  0.66880999  0.17480557  1
  Na  Na40  1  0.16321981  0.65909695  0.67082585  1
  Na  Na41  1  0.67025703  0.66517649  0.66318381  1
  Mg  Mg42  1  0.99902900  0.99914175  0.35152833  1
  Mg  Mg43  1  0.49655203  0.99011030  0.34714989  1
  Mg  Mg44  1  0.99450184  0.99924258  0.84508493  1
  Mg  Mg45  1  0.50607485  0.00842126  0.84623519  1
  Mg  Mg46  1  0.33593208  0.32620698  0.68524706  1
  Mg  Mg47  1  0.83581327  0.34320262  0.18744935  1
  Mg  Mg48  1  0.33388339  0.33158772  0.99604310  1
  Mg  Mg49  1  0.83249797  0.34011230  0.98096084  1
  Mg  Mg50  1  0.33413061  0.32766358  0.47994681  1
  Mg  Mg51  1  0.83187321  0.32199200  0.48879126  1
  Mg  Mg52  1  0.67433789  0.68829595  0.31274737  1
  Mg  Mg53  1  0.16874536  0.66274943  0.80962641  1
  Si  Si54  1  0.14930716  0.99908521  0.25350465  1
  Si  Si55  1  0.64798500  0.00359682  0.25067217  1
  Si  Si56  1  0.35148214  0.69781891  0.25129248  1
  Si  Si57  1  0.85197487  0.70395412  0.25244192  1
  Si  Si58  1  0.14813853  0.29071073  0.75203287  1
  Si  Si59  1  0.65120615  0.30260825  0.75284479  1
  Si  Si60  1  0.35276361  0.99873313  0.75397741  1
  Si  Si61  1  0.85217131  0.00774082  0.75142808  1
  Si  Si62  1  0.47809755  0.33894193  0.58184710  1
  Si  Si63  1  0.98346626  0.34272082  0.58263301  1
  Si  Si64  1  0.68148501  0.03504299  0.58278370  1
  Si  Si65  1  0.83877417  0.62787406  0.57996993  1
  Si  Si66  1  0.48261677  0.62535418  0.08144162  1
  Si  Si67  1  0.97555473  0.61833181  0.08250448  1
  Si  Si68  1  0.33944409  0.04612479  0.07975175  1
  Si  Si69  1  0.18227364  0.32669198  0.08132617  1
  Si  Si70  1  0.81790092  0.66757211  0.91926519  1
  Si  Si71  1  0.66422367  0.96357163  0.91574134  1
  Si  Si72  1  0.31771758  0.96816779  0.41932536  1
  Si  Si73  1  0.81475393  0.96820523  0.41467723  1
  Si  Si74  1  0.16636530  0.36723280  0.41577667  1
  Sn  Sn75  1  0.99364815  0.00172920  0.64909459  1
  Sn  Sn76  1  0.50273142  0.02096208  0.64984486  1
  Sn  Sn77  1  0.00301576  0.98702119  0.15149140  1
  Sn  Sn78  1  0.49367619  0.98625076  0.15103351  1
  Sn  Sn79  1  0.83018896  0.32923723  0.68006613  1
  Sn  Sn80  1  0.33021580  0.32954524  0.18180603  1
  Sn  Sn81  1  0.16464994  0.66417667  0.02467824  1
  Sn  Sn82  1  0.66471677  0.67092786  0.01581854  1
  Sn  Sn83  1  0.16352978  0.65812184  0.51477202  1
  Sn  Sn84  1  0.67083759  0.67337488  0.52230649  1
  Sn  Sn85  1  0.17972801  0.68545765  0.31489983  1
  Sn  Sn86  1  0.68101931  0.67596256  0.81388221  1
  S  S87  1  -0.00036664  0.29097098  0.25081920  1
  S  S88  1  0.49927758  0.29110653  0.25159422  1
  S  S89  1  0.99986872  0.70801988  0.75216138  1
  S  S90  1  0.49900577  0.70764279  0.75194119  1
  S  S91  1  0.18659387  0.03906674  0.58322030  1
  S  S92  1  0.33439837  0.62485671  0.58349932  1
  S  S93  1  0.83458488  0.04481282  0.08255491  1
  S  S94  1  0.68629064  0.33435262  0.08259897  1
  S  S95  1  0.31195490  0.66383174  0.91518223  1
  S  S96  1  0.02336069  0.37852854  0.91599968  1
  S  S97  1  0.51778766  0.37228866  0.91563075  1
  S  S98  1  0.16731108  0.95779140  0.91492272  1
  S  S99  1  0.66535297  0.37387538  0.41476448  1
  S  S100  1  0.01956389  0.66549473  0.41525542  1
  S  S101  1  0.52164041  0.66690743  0.41602445  1
  O  O102  1  0.10756800  0.03868763  0.30999796  1
  O  O103  1  0.60520478  0.04391638  0.30764467  1
  O  O104  1  0.40811127  0.77984194  0.30916387  1
  O  O105  1  0.91523554  0.79486998  0.30719421  1
  O  O106  1  0.48548348  0.18605643  0.30493215  1
  O  O107  1  0.98764357  0.18875629  0.30438169  1
  O  O108  1  0.10700413  0.16922170  0.81063052  1
  O  O109  1  0.61184052  0.18397265  0.81099680  1
  O  O110  1  0.48586137  0.78424829  0.80628174  1
  O  O111  1  0.98726287  0.78596702  0.80626701  1
  O  O112  1  0.41184982  0.02778189  0.81140577  1
  O  O113  1  0.90717790  0.03846781  0.81054554  1
  O  O114  1  0.39320977  0.94955157  0.69306479  1
  O  O115  1  0.88968654  0.96617727  0.69097522  1
  O  O116  1  0.08824389  0.20119961  0.69117208  1
  O  O117  1  0.59202390  0.22518088  0.69260337  1
  O  O118  1  0.01690113  0.81759992  0.69802842  1
  O  O119  1  0.51628852  0.81833235  0.69856378  1
  O  O120  1  0.38714943  0.81017796  0.18922194  1
  O  O121  1  0.89131218  0.83369737  0.19019999  1
  O  O122  1  0.01809604  0.21668452  0.19641043  1
  O  O123  1  0.51542738  0.21494787  0.19651725  1
  O  O124  1  0.09436888  0.96085139  0.19057340  1
  O  O125  1  0.58888500  0.97428467  0.18837615  1
  O  O126  1  0.44000157  0.36478920  0.64377154  1
  O  O127  1  0.94389032  0.36981922  0.64557426  1
  O  O128  1  0.23795278  0.11442886  0.63719046  1
  O  O129  1  0.74075741  0.11019974  0.64326176  1
  O  O130  1  0.32043844  0.52089753  0.63750748  1
  O  O131  1  0.81617258  0.50720968  0.63997983  1
  O  O132  1  0.44060927  0.51332521  0.14240898  1
  O  O133  1  0.93700899  0.51229236  0.14282602  1
  O  O134  1  0.31421973  0.12395554  0.13728800  1
  O  O135  1  0.82032740  0.12073224  0.13609888  1
  O  O136  1  0.24298944  0.37158566  0.14035212  1
  O  O137  1  0.73764945  0.36112494  0.13590719  1
  O  O138  1  0.21993686  0.28758644  0.02139034  1
  O  O139  1  0.72390570  0.30495778  0.02844112  1
  O  O140  1  0.42616363  0.55227613  0.02233402  1
  O  O141  1  0.92127720  0.54272501  0.02257919  1
  O  O142  1  0.35138103  0.14364291  0.01770033  1
  O  O143  1  0.84200267  0.13916352  0.02749599  1
  O  O144  1  0.22453914  0.14400712  0.52969934  1
  O  O145  1  0.71873644  0.15517462  0.52488227  1
  O  O146  1  0.34213156  0.54487794  0.52896287  1
  O  O147  1  0.85024121  0.54785155  0.51949414  1
  O  O148  1  0.41950748  0.29875720  0.52393360  1
  O  O149  1  0.92648842  0.30338282  0.52490706  1
  O  O150  1  0.27263935  0.69377568  0.97084762  1
  O  O151  1  0.77255531  0.70364634  0.97957716  1
  O  O152  1  0.07965961  0.46027405  0.96935705  1
  O  O153  1  0.57344006  0.45057780  0.96914128  1
  O  O154  1  0.15413682  0.85206536  0.97079978  1
  O  O155  1  0.64290299  0.83830972  0.97547770  1
  O  O156  1  0.27228262  0.84196383  0.47992508  1
  O  O157  1  0.77155143  0.83989575  0.47534602  1
  O  O158  1  0.14505493  0.44847014  0.47619936  1
  O  O159  1  0.64932712  0.44904004  0.47046077  1
  O  O160  1  0.07565844  0.69959008  0.46898830  1
  O  O161  1  0.57556142  0.69360615  0.46936553  1
  O  O162  1  0.06039763  0.63355617  0.36176370  1
  O  O163  1  0.55921468  0.63440681  0.36208836  1
  O  O164  1  0.24992533  0.88155010  0.36452718  1
  O  O165  1  0.75258693  0.88020148  0.35882967  1
  O  O166  1  0.18186208  0.49344918  0.35728132  1
  O  O167  1  0.67458885  0.47969467  0.36203492  1
  O  O168  1  0.06311561  0.48770953  0.86312765  1
  O  O169  1  0.55876461  0.48280559  0.86204833  1
  O  O170  1  0.17811136  0.87068068  0.86285478  1
  O  O171  1  0.67921412  0.86741287  0.85748652  1
  O  O172  1  0.25726711  0.63947260  0.86383445  1
  O  O173  1  0.74957024  0.61851592  0.86481861  1
  O  O174  1  0.01380114  0.82007269  0.41054977  1
  O  O175  1  0.51490905  0.82321235  0.41184515  1
  O  O176  1  0.40947799  0.97720501  0.41385484  1
  O  O177  1  0.90745334  0.97871824  0.41277043  1
  O  O178  1  0.08249145  0.18191097  0.41255548  1
  O  O179  1  0.58874494  0.20120082  0.41194008  1
  O  O180  1  0.01653745  0.20928399  0.91253915  1
  O  O181  1  0.50908450  0.20257188  0.91157336  1
  O  O182  1  0.08996606  0.97371184  0.91282034  1
  O  O183  1  0.57774460  0.97655708  0.91269753  1
  O  O184  1  0.39736931  0.81733118  0.91085418  1
  O  O185  1  0.90996280  0.84181590  0.91374443  1
  O  O186  1  0.48622014  0.15917160  0.58545338  1
  O  O187  1  0.99770462  0.17371852  0.58744195  1
  O  O188  1  0.09997538  0.01816307  0.58972717  1
  O  O189  1  0.58606954  0.01607490  0.59189366  1
  O  O190  1  0.40973999  0.79928243  0.58748391  1
  O  O191  1  0.92248520  0.82325119  0.58835644  1
  O  O192  1  0.49584004  0.82130817  0.08649348  1
  O  O193  1  0.98635254  0.81555753  0.08543816  1
  O  O194  1  0.42246167  0.01909135  0.08842392  1
  O  O195  1  0.90981233  0.02083065  0.08601703  1
  O  O196  1  0.08725777  0.15723403  0.09083855  1
  O  O197  1  0.59936894  0.18225566  0.08827844  1
  O  O198  1  0.34521201  0.16965858  0.74628958  1
  O  O199  1  0.84686585  0.18449962  0.74561098  1
  O  O200  1  0.24461170  0.32197995  0.74230749  1
  O  O201  1  0.74457773  0.31698994  0.74514206  1
  O  O202  1  0.42185390  0.53869432  0.74555915  1
  O  O203  1  0.92488599  0.53634787  0.74650652  1
  O  O204  1  0.34661669  0.51047837  0.24506103  1
  O  O205  1  0.84449919  0.51798774  0.24506819  1
  O  O206  1  0.42350500  0.31212109  0.24519325  1
  O  O207  1  0.92260967  0.30508424  0.24380710  1
  O  O208  1  0.24345425  0.17175415  0.24528916  1
  O  O209  1  0.74364624  0.16507443  0.24063765  1
  O  O210  1  0.32029261  0.50985672  0.92049009  1
  O  O211  1  0.82482309  0.49700146  0.92143764  1
  O  O212  1  0.43361582  0.36002228  0.92147948  1
  O  O213  1  0.93775076  0.35748831  0.92407544  1
  O  O214  1  0.24457287  0.12814990  0.91877792  1
  O  O215  1  0.75226593  0.14309308  0.92228193  1
  O  O216  1  0.32450370  0.15216786  0.42160019  1
  O  O217  1  0.82450763  0.15789979  0.42062632  1
  O  O218  1  0.25526366  0.36661071  0.42241369  1
  O  O219  1  0.74351455  0.36271087  0.41929747  1
  O  O220  1  0.43514704  0.51768925  0.42382525  1
  O  O221  1  0.93584655  0.51290914  0.42157804  1
  O  O222  1  0.18074873  0.50667237  0.07677733  1
  O  O223  1  0.67976507  0.49357149  0.07673878  1
  O  O224  1  0.07713406  0.66398894  0.07770054  1
  O  O225  1  0.58109798  0.65020514  0.07975873  1
  O  O226  1  0.25260877  0.85116448  0.07642338  1
  O  O227  1  0.75514189  0.86540586  0.08020851  1
  O  O228  1  0.17997122  0.86688713  0.57769401  1
  O  O229  1  0.67710822  0.85039361  0.57988960  1
  O  O230  1  0.25541458  0.64580114  0.58134367  1
  O  O231  1  0.75148876  0.64690206  0.57991847  1
  O  O232  1  0.08272181  0.51426616  0.58094761  1
  O  O233  1  0.57860390  0.49416123  0.57470681  1
  O  O234  1  0.14766544  0.81317861  0.25647043  1
  O  O235  1  0.64825922  0.82338547  0.25184995  1
  O  O236  1  0.25261988  0.66309022  0.25091473  1
  O  O237  1  0.75585315  0.67796032  0.25288741  1
  O  O238  1  0.07585019  0.46573273  0.25503642  1
  O  O239  1  0.57596756  0.46164493  0.25656070  1
  O  O240  1  0.15071571  0.47411369  0.75516684  1
  O  O241  1  0.64735425  0.48286404  0.75670358  1
  O  O242  1  0.07736430  0.69122727  0.75745863  1
  O  O243  1  0.57518519  0.68557269  0.75674053  1
  O  O244  1  0.25705865  0.83152393  0.75534876  1
  O  O245  1  0.75336790  0.84420793  0.75100959  1
