# generated using pymatgen
data_Na5Mg2Zr2P5SO24
_symmetry_space_group_name_H-M   'P 1'
_cell_length_a   8.98499216
_cell_length_b   9.00454922
_cell_length_c   22.69820983
_cell_angle_alpha   90.16539756
_cell_angle_beta   89.96302186
_cell_angle_gamma   120.11572001
_symmetry_Int_Tables_number   1
_chemical_formula_structural   Na5Mg2Zr2P5SO24
_chemical_formula_sum   'Na15 Mg6 Zr6 P15 S3 O72'
_cell_volume   1588.51865600
_cell_formula_units_Z   3
loop_
 _symmetry_equiv_pos_site_id
 _symmetry_equiv_pos_as_xyz
  1  'x, y, z'
loop_
 _atom_site_type_symbol
 _atom_site_label
 _atom_site_symmetry_multiplicity
 _atom_site_fract_x
 _atom_site_fract_y
 _atom_site_fract_z
 _atom_site_occupancy
  Na  Na0  1  0.64103789  0.00013694  0.25364949  1
  Na  Na1  1  0.36948113  0.37563135  0.24605297  1
  Na  Na2  1  0.99231784  0.62100716  0.25342550  1
  Na  Na3  1  0.64204624  0.63038167  0.74534555  1
  Na  Na4  1  0.98641604  0.35490691  0.74675587  1
  Na  Na5  1  0.37062522  0.01520444  0.74667616  1
  Na  Na6  1  0.30408198  0.96361839  0.07349725  1
  Na  Na7  1  0.03982525  0.34836653  0.07543915  1
  Na  Na8  1  0.70986180  0.68026198  0.41587919  1
  Na  Na9  1  0.00559296  0.00441177  0.49733789  1
  Na  Na10  1  0.99962681  0.99810837  0.98563416  1
  Na  Na11  1  0.66700253  0.32773426  0.83146384  1
  Na  Na12  1  0.68219788  0.32766531  0.33386965  1
  Na  Na13  1  0.34663660  0.66051272  0.15992528  1
  Na  Na14  1  0.33521757  0.66548805  0.66235692  1
  Mg  Mg15  1  0.99185248  0.99982826  0.35198260  1
  Mg  Mg16  1  0.00839763  0.00809160  0.85181425  1
  Mg  Mg17  1  0.66759331  0.33534765  0.68193654  1
  Mg  Mg18  1  0.67142708  0.33986887  0.18012456  1
  Mg  Mg19  1  0.33349207  0.66572105  0.01621330  1
  Mg  Mg20  1  0.32823966  0.66493215  0.31864825  1
  Zr  Zr21  1  0.99808943  0.99787364  0.64613386  1
  Zr  Zr22  1  0.98751813  0.99608626  0.14658094  1
  Zr  Zr23  1  0.66773566  0.33273169  0.98016462  1
  Zr  Zr24  1  0.67342833  0.32734880  0.48292151  1
  Zr  Zr25  1  0.33096293  0.67516087  0.51954027  1
  Zr  Zr26  1  0.32703505  0.66799337  0.81910263  1
  P  P27  1  0.70106936  0.69888732  0.25405977  1
  P  P28  1  -0.00001279  0.29545765  0.25172337  1
  P  P29  1  0.29547675  0.29256946  0.75166021  1
  P  P30  1  0.99561067  0.70710433  0.75251548  1
  P  P31  1  0.70907279  0.00156865  0.75283741  1
  P  P32  1  0.96338472  0.33439207  0.58745685  1
  P  P33  1  0.37524955  0.04387761  0.58666667  1
  P  P34  1  0.66372512  0.62381012  0.58418327  1
  P  P35  1  0.96524495  0.62728147  0.08585354  1
  P  P36  1  0.65852938  0.03700595  0.08604921  1
  P  P37  1  0.37507405  0.33791850  0.08722578  1
  P  P38  1  0.03771319  0.36376153  0.92016601  1
  P  P39  1  0.32549758  0.96181582  0.92043320  1
  P  P40  1  0.62772869  0.95994911  0.41201636  1
  P  P41  1  0.03799069  0.67163445  0.41231334  1
  S  S42  1  0.29362883  0.00083472  0.25109626  1
  S  S43  1  0.63052680  0.67218539  0.91778115  1
  S  S44  1  0.33048150  0.36997052  0.41400603  1
  O  O45  1  0.20671438  0.02479225  0.30166771  1
  O  O46  1  0.81350063  0.78108751  0.30852613  1
  O  O47  1  0.97597156  0.17638914  0.30274880  1
  O  O48  1  0.21195223  0.17967979  0.80433445  1
  O  O49  1  0.96843599  0.79248230  0.80517147  1
  O  O50  1  0.82249815  0.02839238  0.80522854  1
  O  O51  1  0.79011151  0.96797939  0.69649389  1
  O  O52  1  0.17811802  0.21077487  0.69605038  1
  O  O53  1  0.03151486  0.82222614  0.69661235  1
  O  O54  1  0.79700263  0.81963872  0.19952879  1
  O  O55  1  0.02635383  0.21149858  0.19378937  1
  O  O56  1  0.19002049  0.97679057  0.19607639  1
  O  O57  1  0.88660069  0.35747416  0.64371941  1
  O  O58  1  0.47351141  0.11991304  0.64324442  1
  O  O59  1  0.64349149  0.52377682  0.64014424  1
  O  O60  1  0.88633854  0.52386647  0.14213676  1
  O  O61  1  0.63559199  0.11704589  0.14263378  1
  O  O62  1  0.47234013  0.35466980  0.14447238  1
  O  O63  1  0.46504001  0.30676966  0.03393369  1
  O  O64  1  0.84785161  0.53745283  0.03210323  1
  O  O65  1  0.69197084  0.15962309  0.03300642  1
  O  O66  1  0.46899590  0.15359058  0.53183034  1
  O  O67  1  0.68254443  0.53500528  0.52777034  1
  O  O68  1  0.85033493  0.31399927  0.53240588  1
  O  O69  1  0.53956436  0.68588928  0.96867871  1
  O  O70  1  0.14206658  0.45388264  0.97508623  1
  O  O71  1  0.31622278  0.85999999  0.97517280  1
  O  O72  1  0.52850857  0.84068290  0.46544737  1
  O  O73  1  0.31235687  0.45806820  0.46690671  1
  O  O74  1  0.14955657  0.68091933  0.46650753  1
  O  O75  1  0.11207749  0.64284488  0.35566968  1
  O  O76  1  0.52628156  0.88156980  0.35521500  1
  O  O77  1  0.35939545  0.47520081  0.36063508  1
  O  O78  1  0.12898723  0.47706169  0.86341394  1
  O  O79  1  0.35250666  0.87415610  0.86340045  1
  O  O80  1  0.52737482  0.64722128  0.86194594  1
  O  O81  1  0.01663117  0.83065796  0.41244349  1
  O  O82  1  0.80560555  0.97401161  0.41256824  1
  O  O83  1  0.18135864  0.19774370  0.40967521  1
  O  O84  1  0.01367883  0.18591678  0.91288621  1
  O  O85  1  0.16609810  0.97681144  0.91301143  1
  O  O86  1  0.80072363  0.82183985  0.91190308  1
  O  O87  1  0.98017337  0.17129298  0.58813520  1
  O  O88  1  0.19312733  0.02293782  0.58745293  1
  O  O89  1  0.82741294  0.80587346  0.58657076  1
  O  O90  1  0.98951804  0.81248338  0.08985598  1
  O  O91  1  0.82976430  0.02868362  0.08862627  1
  O  O92  1  0.19197017  0.16665191  0.08989750  1
  O  O93  1  0.68192145  0.15705654  0.74501498  1
  O  O94  1  0.47852900  0.32002082  0.74362810  1
  O  O95  1  0.84113635  0.52382240  0.74425909  1
  O  O96  1  0.67970423  0.51856308  0.24552722  1
  O  O97  1  0.83607078  0.31119661  0.24583191  1
  O  O98  1  0.46798272  0.15515916  0.24564567  1
  O  O99  1  0.64318770  0.51157210  0.92108259  1
  O  O100  1  0.85846502  0.35645475  0.92169031  1
  O  O101  1  0.49342124  0.14434119  0.92219677  1
  O  O102  1  0.64536080  0.14017426  0.42107535  1
  O  O103  1  0.49344033  0.36138298  0.42077226  1
  O  O104  1  0.85104917  0.51016527  0.42069014  1
  O  O105  1  0.34326736  0.48803882  0.07882907  1
  O  O106  1  0.14571450  0.64937473  0.07814732  1
  O  O107  1  0.50179951  0.86034873  0.07664953  1
  O  O108  1  0.35403509  0.86126790  0.57811194  1
  O  O109  1  0.50290759  0.64485706  0.57571418  1
  O  O110  1  0.14405490  0.49434787  0.57749063  1
  O  O111  1  0.31011830  0.84458069  0.25490156  1
  O  O112  1  0.52299154  0.68678053  0.25588184  1
  O  O113  1  0.16340913  0.47594246  0.25521245  1
  O  O114  1  0.31369717  0.47646065  0.75659459  1
  O  O115  1  0.16305882  0.68984035  0.75647704  1
  O  O116  1  0.52514570  0.83451937  0.75665743  1
