# generated using pymatgen
data_V2(OF)3
_symmetry_space_group_name_H-M   'P 1'
_cell_length_a   5.33819762
_cell_length_b   7.50773051
_cell_length_c   5.41030571
_cell_angle_alpha   91.18485957
_cell_angle_beta   89.85907657
_cell_angle_gamma   90.67783097
_symmetry_Int_Tables_number   1
_chemical_formula_structural   V2(OF)3
_chemical_formula_sum   'V4 O6 F6'
_cell_volume   216.77081015
_cell_formula_units_Z   2
loop_
 _symmetry_equiv_pos_site_id
 _symmetry_equiv_pos_as_xyz
  1  'x, y, z'
loop_
 _atom_site_type_symbol
 _atom_site_label
 _atom_site_symmetry_multiplicity
 _atom_site_fract_x
 _atom_site_fract_y
 _atom_site_fract_z
 _atom_site_occupancy
  V  V0  1  0.47057600  0.49373800  0.53004600  1
  V  V1  1  0.47674500  0.02411500  0.46694700  1
  V  V2  1  0.98331900  0.52471200  0.03885100  1
  V  V3  1  0.97863200  0.99513500  0.96161200  1
  O  O4  1  0.78521400  0.52844900  0.27634800  1
  O  O5  1  0.79100400  0.96855200  0.72027800  1
  O  O6  1  0.56468500  0.24072000  0.49617300  1
  O  O7  1  0.23119600  0.02833300  0.27946500  1
  O  O8  1  0.23210000  0.46606500  0.72278900  1
  O  O9  1  0.06165700  0.74143900  0.00236500  1
  F  F10  1  0.94567700  0.25325800  0.00256600  1
  F  F11  1  0.71950100  0.96012900  0.22146600  1
  F  F12  1  0.73270200  0.52824400  0.78520400  1
  F  F13  1  0.44863900  0.75303900  0.50208100  1
  F  F14  1  0.28144300  0.46407900  0.21590100  1
  F  F15  1  0.29690900  0.02999200  0.77790800  1
