# generated using pymatgen
data_Na9Mg10Nb2P3(S5O24)3
_symmetry_space_group_name_H-M   'P 1'
_cell_length_a   8.73886920
_cell_length_b   8.73225937
_cell_length_c   22.62204309
_cell_angle_alpha   89.76282728
_cell_angle_beta   90.24712766
_cell_angle_gamma   119.96095383
_symmetry_Int_Tables_number   1
_chemical_formula_structural   Na9Mg10Nb2P3(S5O24)3
_chemical_formula_sum   'Na9 Mg10 Nb2 P3 S15 O72'
_cell_volume   1495.58080907
_cell_formula_units_Z   1
loop_
 _symmetry_equiv_pos_site_id
 _symmetry_equiv_pos_as_xyz
  1  'x, y, z'
loop_
 _atom_site_type_symbol
 _atom_site_label
 _atom_site_symmetry_multiplicity
 _atom_site_fract_x
 _atom_site_fract_y
 _atom_site_fract_z
 _atom_site_occupancy
  Na  Na0  1  0.66738185  0.97218073  0.58874148  1
  Na  Na1  1  0.30400475  0.97186297  0.08892573  1
  Na  Na2  1  0.33302477  0.04121623  0.41347370  1
  Na  Na3  1  0.00899854  0.01262744  0.50119645  1
  Na  Na4  1  0.98434484  0.00298393  0.00098184  1
  Na  Na5  1  0.67044213  0.32352611  0.83038392  1
  Na  Na6  1  0.66215842  0.33830936  0.32929272  1
  Na  Na7  1  0.33313642  0.65639860  0.15982091  1
  Na  Na8  1  0.32017193  0.65257849  0.65948137  1
  Mg  Mg9  1  0.00563359  0.00735832  0.34956823  1
  Mg  Mg10  1  0.99555773  0.00277450  0.85053128  1
  Mg  Mg11  1  0.99929001  0.99813846  0.65089925  1
  Mg  Mg12  1  -0.00000989  0.99760945  0.15062973  1
  Mg  Mg13  1  0.66666499  0.33061967  0.68414558  1
  Mg  Mg14  1  0.66154835  0.32863821  0.18413109  1
  Mg  Mg15  1  0.67177149  0.33629524  0.98279450  1
  Mg  Mg16  1  0.66762764  0.34644783  0.48252375  1
  Mg  Mg17  1  0.33235754  0.65890805  0.01839351  1
  Mg  Mg18  1  0.32492364  0.65061917  0.51891944  1
  Nb  Nb19  1  0.33357899  0.66125091  0.31236465  1
  Nb  Nb20  1  0.33909393  0.67168697  0.81234782  1
  P  P21  1  0.29891421  0.00771340  0.25098557  1
  P  P22  1  0.71474159  0.01196920  0.74907956  1
  P  P23  1  0.33122494  0.36868243  0.41942142  1
  S  S24  1  0.71339997  0.70821570  0.25098756  1
  S  S25  1  0.99324883  0.28929066  0.24985201  1
  S  S26  1  0.29416709  0.28944740  0.75122693  1
  S  S27  1  0.99551603  0.70694947  0.75158569  1
  S  S28  1  0.95906473  0.33411203  0.58360396  1
  S  S29  1  0.36835395  0.03693816  0.58136298  1
  S  S30  1  0.66931566  0.62993403  0.58425110  1
  S  S31  1  0.95959253  0.62741643  0.08319629  1
  S  S32  1  0.66903591  0.03904383  0.08244728  1
  S  S33  1  0.37319646  0.33411428  0.08300270  1
  S  S34  1  0.62772814  0.66645397  0.91835795  1
  S  S35  1  0.04132155  0.37341903  0.91765623  1
  S  S36  1  0.33120075  0.96076592  0.91855185  1
  S  S37  1  0.62996745  0.95809847  0.41865902  1
  S  S38  1  0.04029699  0.66445973  0.41737656  1
  O  O39  1  0.21165453  0.02166529  0.30745215  1
  O  O40  1  0.81163496  0.79214416  0.30487977  1
  O  O41  1  0.97250563  0.18874750  0.30379803  1
  O  O42  1  0.21429351  0.18711287  0.80470259  1
  O  O43  1  0.98069157  0.79097522  0.80512190  1
  O  O44  1  0.82175417  0.02604294  0.80320631  1
  O  O45  1  0.77271714  0.96614415  0.69126581  1
  O  O46  1  0.18640195  0.21742293  0.69793241  1
  O  O47  1  0.03494563  0.81517391  0.69822131  1
  O  O48  1  0.78395271  0.81567733  0.19772552  1
  O  O49  1  0.02730048  0.21535498  0.19707335  1
  O  O50  1  0.19019314  0.96687489  0.19402043  1
  O  O51  1  0.87545524  0.35290770  0.63712001  1
  O  O52  1  0.48454978  0.12517038  0.63251985  1
  O  O53  1  0.64913689  0.52531574  0.63738169  1
  O  O54  1  0.87672092  0.52381933  0.13649635  1
  O  O55  1  0.63971136  0.12134611  0.13495596  1
  O  O56  1  0.47733595  0.35603952  0.13669345  1
  O  O57  1  0.45579474  0.30607960  0.03011496  1
  O  O58  1  0.85808187  0.54459540  0.02917354  1
  O  O59  1  0.69084298  0.14302049  0.02838049  1
  O  O60  1  0.44619521  0.13572358  0.52539851  1
  O  O61  1  0.68715444  0.54791884  0.53022352  1
  O  O62  1  0.84891358  0.30725401  0.53034430  1
  O  O63  1  0.54162408  0.68868471  0.96990580  1
  O  O64  1  0.14627145  0.45957868  0.97011818  1
  O  O65  1  0.31149159  0.85759620  0.97215557  1
  O  O66  1  0.54751371  0.85783754  0.47276302  1
  O  O67  1  0.31196363  0.45974352  0.47224025  1
  O  O68  1  0.15516221  0.69808725  0.46881710  1
  O  O69  1  0.13381763  0.64781043  0.36282535  1
  O  O70  1  0.50844921  0.86357351  0.36562130  1
  O  O71  1  0.34540330  0.48758810  0.36226626  1
  O  O72  1  0.13694457  0.48512437  0.86350453  1
  O  O73  1  0.34833923  0.86005151  0.86525861  1
  O  O74  1  0.51423158  0.65033343  0.86363547  1
  O  O75  1  0.02138559  0.82220081  0.40920305  1
  O  O76  1  0.80075676  0.97159695  0.40900555  1
  O  O77  1  0.16833305  0.18335383  0.41177347  1
  O  O78  1  0.02648360  0.19871540  0.91108726  1
  O  O79  1  0.17274034  0.97465869  0.90912091  1
  O  O80  1  0.80230356  0.82381982  0.91052753  1
  O  O81  1  0.97665632  0.17168001  0.58814242  1
  O  O82  1  0.19118929  0.01651071  0.58869978  1
  O  O83  1  0.82860327  0.81180844  0.58792749  1
  O  O84  1  0.98343071  0.81015224  0.08683122  1
  O  O85  1  0.82507545  0.01657774  0.08930728  1
  O  O86  1  0.19420206  0.17121752  0.08799539  1
  O  O87  1  0.67400673  0.16186678  0.74468296  1
  O  O88  1  0.47529624  0.32449291  0.74483070  1
  O  O89  1  0.84466632  0.52838999  0.74546148  1
  O  O90  1  0.68542700  0.52930377  0.24533220  1
  O  O91  1  0.84687842  0.32405659  0.24367080  1
  O  O92  1  0.48732566  0.16189173  0.24585462  1
  O  O93  1  0.63448510  0.50161891  0.91896310  1
  O  O94  1  0.86737496  0.36266067  0.91832492  1
  O  O95  1  0.49479539  0.13300226  0.91853074  1
  O  O96  1  0.63898567  0.13235282  0.41926826  1
  O  O97  1  0.50024992  0.35379122  0.41751011  1
  O  O98  1  0.87030624  0.50085069  0.42022119  1
  O  O99  1  0.35204306  0.49171766  0.07706677  1
  O  O100  1  0.14376637  0.65375906  0.07893266  1
  O  O101  1  0.50372414  0.86077757  0.07723996  1
  O  O102  1  0.35564422  0.85886156  0.57748123  1
  O  O103  1  0.51198951  0.65690452  0.58041224  1
  O  O104  1  0.13669654  0.49290124  0.57873077  1
  O  O105  1  0.31729037  0.83230862  0.26193875  1
  O  O106  1  0.52672857  0.68830640  0.25777326  1
  O  O107  1  0.16210108  0.47444447  0.25670144  1
  O  O108  1  0.30975554  0.47433985  0.75888508  1
  O  O109  1  0.16076685  0.68474640  0.75937946  1
  O  O110  1  0.51876411  0.83480429  0.76205368  1
