# generated using pymatgen
data_NaLaMg(SO4)3
_symmetry_space_group_name_H-M   'P 1'
_cell_length_a   9.14929788
_cell_length_b   9.14929756
_cell_length_c   24.08599330
_cell_angle_alpha   90.00000000
_cell_angle_beta   90.00000000
_cell_angle_gamma   120.00000116
_symmetry_Int_Tables_number   1
_chemical_formula_structural   NaLaMg(SO4)3
_chemical_formula_sum   'Na6 La6 Mg6 S18 O72'
_cell_volume   1746.10641334
_cell_formula_units_Z   6
loop_
 _symmetry_equiv_pos_site_id
 _symmetry_equiv_pos_as_xyz
  1  'x, y, z'
loop_
 _atom_site_type_symbol
 _atom_site_label
 _atom_site_symmetry_multiplicity
 _atom_site_fract_x
 _atom_site_fract_y
 _atom_site_fract_z
 _atom_site_occupancy
  Na  Na0  1  0.00000000  -0.00000000  0.48794987  1
  Na  Na1  1  0.00000000  -0.00000000  0.98794987  1
  Na  Na2  1  0.66666700  0.33333300  0.82128287  1
  Na  Na3  1  0.66666700  0.33333300  0.32128287  1
  Na  Na4  1  0.33333300  0.66666700  0.15461687  1
  Na  Na5  1  0.33333300  0.66666700  0.65461687  1
  La  La6  1  0.00000000  -0.00000000  0.64689771  1
  La  La7  1  0.00000000  -0.00000000  0.14689771  1
  La  La8  1  0.66666700  0.33333300  0.98023071  1
  La  La9  1  0.66666700  0.33333300  0.48023071  1
  La  La10  1  0.33333300  0.66666700  0.31356471  1
  La  La11  1  0.33333300  0.66666700  0.81356471  1
  Mg  Mg12  1  0.00000000  -0.00000000  0.34885878  1
  Mg  Mg13  1  0.00000000  -0.00000000  0.84885878  1
  Mg  Mg14  1  0.66666700  0.33333300  0.68219178  1
  Mg  Mg15  1  0.66666700  0.33333300  0.18219178  1
  Mg  Mg16  1  0.33333300  0.66666700  0.01552578  1
  Mg  Mg17  1  0.33333300  0.66666700  0.51552578  1
  S  S18  1  0.31055267  0.02512675  0.25200876  1
  S  S19  1  0.71457408  0.68944733  0.25200876  1
  S  S20  1  0.97487325  0.28542592  0.25200876  1
  S  S21  1  0.31055267  0.28542592  0.75200876  1
  S  S22  1  0.97487325  0.68944733  0.75200876  1
  S  S23  1  0.71457408  0.02512675  0.75200876  1
  S  S24  1  0.97721967  0.35845975  0.58534176  1
  S  S25  1  0.38124108  0.02278033  0.58534176  1
  S  S26  1  0.64154025  0.61875892  0.58534176  1
  S  S27  1  0.97721967  0.61875892  0.08534176  1
  S  S28  1  0.64154025  0.02278033  0.08534176  1
  S  S29  1  0.38124108  0.35845975  0.08534176  1
  S  S30  1  0.64388567  0.69179375  0.91867576  1
  S  S31  1  0.04790708  0.35611433  0.91867576  1
  S  S32  1  0.30820625  0.95209292  0.91867576  1
  S  S33  1  0.64388567  0.95209292  0.41867576  1
  S  S34  1  0.30820625  0.35611433  0.41867576  1
  S  S35  1  0.04790708  0.69179375  0.41867576  1
  O  O36  1  0.21761580  0.03228478  0.30125958  1
  O  O37  1  0.81466898  0.78238420  0.30125958  1
  O  O38  1  0.96771522  0.18533102  0.30125958  1
  O  O39  1  0.21761580  0.18533102  0.80125958  1
  O  O40  1  0.96771522  0.78238420  0.80125958  1
  O  O41  1  0.81466898  0.03228478  0.80125958  1
  O  O42  1  0.79035268  0.00269081  0.70047954  1
  O  O43  1  0.21233813  0.20964732  0.70047954  1
  O  O44  1  0.99730919  0.78766187  0.70047954  1
  O  O45  1  0.79035268  0.78766187  0.20047954  1
  O  O46  1  0.99730919  0.20964732  0.20047954  1
  O  O47  1  0.21233813  0.00269081  0.20047954  1
  O  O48  1  0.88428280  0.36561778  0.63459258  1
  O  O49  1  0.48133598  0.11571720  0.63459258  1
  O  O50  1  0.63438222  0.51866402  0.63459258  1
  O  O51  1  0.88428280  0.51866402  0.13459258  1
  O  O52  1  0.63438222  0.11571720  0.13459258  1
  O  O53  1  0.48133598  0.36561778  0.13459258  1
  O  O54  1  0.45701968  0.33602381  0.03381254  1
  O  O55  1  0.87900513  0.54298032  0.03381254  1
  O  O56  1  0.66397619  0.12099487  0.03381254  1
  O  O57  1  0.45701968  0.12099487  0.53381254  1
  O  O58  1  0.66397619  0.54298032  0.53381254  1
  O  O59  1  0.87900513  0.33602381  0.53381254  1
  O  O60  1  0.55094880  0.69895178  0.96792658  1
  O  O61  1  0.14800198  0.44905120  0.96792658  1
  O  O62  1  0.30104822  0.85199802  0.96792658  1
  O  O63  1  0.55094880  0.85199802  0.46792658  1
  O  O64  1  0.30104822  0.44905120  0.46792658  1
  O  O65  1  0.14800198  0.69895178  0.46792658  1
  O  O66  1  0.12368568  0.66935781  0.36714654  1
  O  O67  1  0.54567113  0.87631432  0.36714654  1
  O  O68  1  0.33064219  0.45432887  0.36714654  1
  O  O69  1  0.12368568  0.45432887  0.86714654  1
  O  O70  1  0.33064219  0.87631432  0.86714654  1
  O  O71  1  0.54567113  0.66935781  0.86714654  1
  O  O72  1  0.03687904  0.84760783  0.41392990  1
  O  O73  1  0.81072880  0.96312096  0.41392990  1
  O  O74  1  0.15239217  0.18927120  0.41392990  1
  O  O75  1  0.03687904  0.18927120  0.91392990  1
  O  O76  1  0.15239217  0.96312096  0.91392990  1
  O  O77  1  0.81072880  0.84760783  0.91392990  1
  O  O78  1  0.00282763  0.20909889  0.58775344  1
  O  O79  1  0.20627126  0.99717237  0.58775344  1
  O  O80  1  0.79090111  0.79372874  0.58775344  1
  O  O81  1  0.00282763  0.79372874  0.08775344  1
  O  O82  1  0.79090111  0.99717237  0.08775344  1
  O  O83  1  0.20627126  0.20909889  0.08775344  1
  O  O84  1  0.70354604  0.18094083  0.74726290  1
  O  O85  1  0.47739580  0.29645396  0.74726290  1
  O  O86  1  0.81905917  0.52260420  0.74726290  1
  O  O87  1  0.70354604  0.52260420  0.24726290  1
  O  O88  1  0.81905917  0.29645396  0.24726290  1
  O  O89  1  0.47739580  0.18094083  0.24726290  1
  O  O90  1  0.66949463  0.54243189  0.92108644  1
  O  O91  1  0.87293826  0.33050537  0.92108644  1
  O  O92  1  0.45756811  0.12706174  0.92108644  1
  O  O93  1  0.66949463  0.12706174  0.42108644  1
  O  O94  1  0.45756811  0.33050537  0.42108644  1
  O  O95  1  0.87293826  0.54243189  0.42108644  1
  O  O96  1  0.37021204  0.51427483  0.08059690  1
  O  O97  1  0.14406180  0.62978796  0.08059690  1
  O  O98  1  0.48572517  0.85593820  0.08059690  1
  O  O99  1  0.37021204  0.85593820  0.58059690  1
  O  O100  1  0.48572517  0.62978796  0.58059690  1
  O  O101  1  0.14406180  0.51427483  0.58059690  1
  O  O102  1  0.33616063  0.87576589  0.25442044  1
  O  O103  1  0.53960426  0.66383937  0.25442044  1
  O  O104  1  0.12423411  0.46039574  0.25442044  1
  O  O105  1  0.33616063  0.46039574  0.75442044  1
  O  O106  1  0.12423411  0.66383937  0.75442044  1
  O  O107  1  0.53960426  0.87576589  0.75442044  1
