# generated using pymatgen
data_VP2O7
_symmetry_space_group_name_H-M   'P 1'
_cell_length_a   7.96258473
_cell_length_b   7.15410046
_cell_length_c   9.34977904
_cell_angle_alpha   69.66339581
_cell_angle_beta   90.00000000
_cell_angle_gamma   90.00000000
_symmetry_Int_Tables_number   1
_chemical_formula_structural   VP2O7
_chemical_formula_sum   'V4 P8 O28'
_cell_volume   499.41217548
_cell_formula_units_Z   4
loop_
 _symmetry_equiv_pos_site_id
 _symmetry_equiv_pos_as_xyz
  1  'x, y, z'
loop_
 _atom_site_type_symbol
 _atom_site_label
 _atom_site_symmetry_multiplicity
 _atom_site_fract_x
 _atom_site_fract_y
 _atom_site_fract_z
 _atom_site_occupancy
  V  V0  1  0.99066367  0.77621997  0.75431894  1
  V  V1  1  0.50933633  0.77621997  0.25431894  1
  V  V2  1  0.49066367  0.22378003  0.74568106  1
  V  V3  1  0.00933633  0.22378003  0.24568106  1
  P  P4  1  0.29588447  0.82533099  0.95277243  1
  P  P5  1  0.20411553  0.82533099  0.45277243  1
  P  P6  1  0.24031874  0.42758670  0.94439803  1
  P  P7  1  0.74031874  0.57241330  0.55560197  1
  P  P8  1  0.25968126  0.42758670  0.44439803  1
  P  P9  1  0.75968126  0.57241330  0.05560197  1
  P  P10  1  0.79588447  0.17466901  0.54722757  1
  P  P11  1  0.70411553  0.17466901  0.04722757  1
  O  O12  1  0.41673943  0.96583396  0.83818095  1
  O  O13  1  0.11539968  0.85894257  0.89949990  1
  O  O14  1  0.08326057  0.96583396  0.33818095  1
  O  O15  1  0.80842194  0.69689790  0.89463860  1
  O  O16  1  0.18175296  0.83254574  0.61058041  1
  O  O17  1  0.34804435  0.61110682  0.95338102  1
  O  O18  1  0.38460032  0.85894257  0.39949990  1
  O  O19  1  0.85903697  0.68610585  0.61868018  1
  O  O20  1  0.08835520  0.51514941  0.84465674  1
  O  O21  1  0.69157806  0.69689790  0.39463860  1
  O  O22  1  0.31824704  0.83254574  0.11058041  1
  O  O23  1  0.15195565  0.61110682  0.45338102  1
  O  O24  1  0.58835520  0.48485059  0.65534326  1
  O  O25  1  0.64096303  0.68610585  0.11868018  1
  O  O26  1  0.35903697  0.31389415  0.88131982  1
  O  O27  1  0.41164480  0.51514941  0.34465674  1
  O  O28  1  0.84804435  0.38889318  0.54661898  1
  O  O29  1  0.68175296  0.16745426  0.88941959  1
  O  O30  1  0.30842194  0.30310210  0.60536140  1
  O  O31  1  0.91164480  0.48485059  0.15534326  1
  O  O32  1  0.14096303  0.31389415  0.38131982  1
  O  O33  1  0.61539968  0.14105743  0.60050010  1
  O  O34  1  0.65195565  0.38889318  0.04661898  1
  O  O35  1  0.81824704  0.16745426  0.38941959  1
  O  O36  1  0.19157806  0.30310210  0.10536140  1
  O  O37  1  0.91673943  0.03416604  0.66181905  1
  O  O38  1  0.88460032  0.14105743  0.10050010  1
  O  O39  1  0.58326057  0.03416604  0.16181905  1
