# generated using pymatgen
data_Na2CaHfSi(SO6)2
_symmetry_space_group_name_H-M   'P 1'
_cell_length_a   9.18732318
_cell_length_b   9.22392016
_cell_length_c   23.07341162
_cell_angle_alpha   90.15350072
_cell_angle_beta   90.00000000
_cell_angle_gamma   119.86883885
_symmetry_Int_Tables_number   1
_chemical_formula_structural   Na2CaHfSi(SO6)2
_chemical_formula_sum   'Na12 Ca6 Hf6 Si6 S12 O72'
_cell_volume   1695.57645929
_cell_formula_units_Z   6
loop_
 _symmetry_equiv_pos_site_id
 _symmetry_equiv_pos_as_xyz
  1  'x, y, z'
loop_
 _atom_site_type_symbol
 _atom_site_label
 _atom_site_symmetry_multiplicity
 _atom_site_fract_x
 _atom_site_fract_y
 _atom_site_fract_z
 _atom_site_occupancy
  Na  Na0  1  0.00421937  0.64782253  0.23635009  1
  Na  Na1  1  0.64360316  0.64782253  0.73635009  1
  Na  Na2  1  0.65303330  0.96220679  0.57206533  1
  Na  Na3  1  0.30917449  0.96220679  0.07206533  1
  Na  Na4  1  0.68368614  0.01617276  0.90271205  1
  Na  Na5  1  0.33248561  0.01617276  0.40271205  1
  Na  Na6  1  0.95663522  0.97800690  0.49478503  1
  Na  Na7  1  0.02137168  0.97800690  0.99478503  1
  Na  Na8  1  0.64098796  0.28413075  0.82769163  1
  Na  Na9  1  0.64314380  0.28413075  0.32769163  1
  Na  Na10  1  0.31117187  0.64781107  0.16201973  1
  Na  Na11  1  0.33663820  0.64781107  0.66201973  1
  Ca  Ca12  1  0.99547026  0.00661125  0.35247855  1
  Ca  Ca13  1  0.01114099  0.00661125  0.85247855  1
  Ca  Ca14  1  0.66260955  0.32652331  0.68528452  1
  Ca  Ca15  1  0.66391476  0.32652331  0.18528452  1
  Ca  Ca16  1  0.32064259  0.66496704  0.01842134  1
  Ca  Ca17  1  0.34432346  0.66496704  0.51842134  1
  Hf  Hf18  1  0.98742507  0.99008600  0.64924117  1
  Hf  Hf19  1  0.00266093  0.99008600  0.14924117  1
  Hf  Hf20  1  0.67641300  0.34443950  0.98209693  1
  Hf  Hf21  1  0.66802750  0.34443950  0.48209693  1
  Hf  Hf22  1  0.34668699  0.68590215  0.31601000  1
  Hf  Hf23  1  0.33921416  0.68590215  0.81601000  1
  Si  Si24  1  0.29825260  0.99407451  0.25642262  1
  Si  Si25  1  0.69582192  0.99407451  0.75642262  1
  Si  Si26  1  0.67112539  0.63508957  0.59084861  1
  Si  Si27  1  0.96396518  0.63508957  0.09084861  1
  Si  Si28  1  0.34621079  0.98134979  0.92370837  1
  Si  Si29  1  0.63513800  0.98134979  0.42370837  1
  S  S30  1  0.69712068  0.71185207  0.24986940  1
  S  S31  1  0.01828048  0.30797294  0.24945397  1
  S  S32  1  0.28969246  0.30797294  0.74945397  1
  S  S33  1  0.01473139  0.71185207  0.74986940  1
  S  S34  1  0.95559433  0.32034315  0.58340180  1
  S  S35  1  0.35920277  0.04600709  0.57977991  1
  S  S36  1  0.68680532  0.04600709  0.07977991  1
  S  S37  1  0.36474981  0.32034315  0.08340180  1
  S  S38  1  0.61894929  0.65117044  0.91630795  1
  S  S39  1  0.02910213  0.37770405  0.91589094  1
  S  S40  1  0.34860092  0.37770405  0.41589094  1
  S  S41  1  0.03222015  0.65117044  0.41630795  1
  O  O42  1  0.21107350  0.99283686  0.31642459  1
  O  O43  1  0.79320891  0.79187709  0.30213732  1
  O  O44  1  0.00143701  0.21422777  0.30191742  1
  O  O45  1  0.21279077  0.21422777  0.80191742  1
  O  O46  1  0.99866818  0.79187709  0.80213732  1
  O  O47  1  0.78176336  0.99283686  0.81642459  1
  O  O48  1  0.81003804  0.97210014  0.70078272  1
  O  O49  1  0.19354938  0.21217271  0.69660253  1
  O  O50  1  0.03773576  0.82076156  0.69749331  1
  O  O51  1  0.78302580  0.82076156  0.19749331  1
  O  O52  1  0.01862333  0.21217271  0.19660253  1
  O  O53  1  0.16206210  0.97210014  0.20078272  1
  O  O54  1  0.88239746  0.33683879  0.63713861  1
  O  O55  1  0.47066468  0.12057603  0.62949045  1
  O  O56  1  0.67245406  0.55143628  0.65092106  1
  O  O57  1  0.87898321  0.55143628  0.15092106  1
  O  O58  1  0.64991235  0.12057603  0.12949045  1
  O  O59  1  0.45444233  0.33683879  0.13713861  1
  O  O60  1  0.45729977  0.29870284  0.03236254  1
  O  O61  1  0.83747642  0.51987939  0.03510533  1
  O  O62  1  0.69919882  0.14658003  0.02590092  1
  O  O63  1  0.44738221  0.14658003  0.52590092  1
  O  O64  1  0.68240397  0.51987939  0.53510533  1
  O  O65  1  0.84140407  0.29870284  0.53236254  1
  O  O66  1  0.53224570  0.66452585  0.96698723  1
  O  O67  1  0.12261857  0.44839848  0.96908764  1
  O  O68  1  0.34269611  0.89133470  0.98321971  1
  O  O69  1  0.54863759  0.89133470  0.48321971  1
  O  O70  1  0.32577891  0.44839848  0.46908764  1
  O  O71  1  0.13227914  0.66452585  0.46698723  1
  O  O72  1  0.11319309  0.63013586  0.36187354  1
  O  O73  1  0.49715964  0.86051725  0.36848544  1
  O  O74  1  0.35409283  0.47748987  0.36391157  1
  O  O75  1  0.12339604  0.47748987  0.86391157  1
  O  O76  1  0.36335661  0.86051725  0.86848544  1
  O  O77  1  0.51694177  0.63013586  0.86187354  1
  O  O78  1  0.01305267  0.79985282  0.41202551  1
  O  O79  1  0.82117905  0.01113533  0.41679275  1
  O  O80  1  0.21715283  0.20105525  0.41086512  1
  O  O81  1  0.98390242  0.20105525  0.91086512  1
  O  O82  1  0.18995628  0.01113533  0.91679275  1
  O  O83  1  0.78680016  0.79985282  0.91202551  1
  O  O84  1  0.95711929  0.15573060  0.58573063  1
  O  O85  1  0.19996438  0.05112934  0.58690468  1
  O  O86  1  0.84926702  0.82804852  0.58848214  1
  O  O87  1  0.97878149  0.82804852  0.08848214  1
  O  O88  1  0.85116496  0.05112934  0.08690468  1
  O  O89  1  0.19861131  0.15573060  0.08573063  1
  O  O90  1  0.65883949  0.14457815  0.74859606  1
  O  O91  1  0.46651401  0.34641998  0.74670781  1
  O  O92  1  0.86796093  0.54570849  0.74363534  1
  O  O93  1  0.67774855  0.54570849  0.24363534  1
  O  O94  1  0.87990698  0.34641998  0.24670781  1
  O  O95  1  0.48573965  0.14457815  0.24859606  1
  O  O96  1  0.63541822  0.49718274  0.92104069  1
  O  O97  1  0.86490233  0.38040664  0.91850456  1
  O  O98  1  0.53367080  0.15952122  0.92099291  1
  O  O99  1  0.62585141  0.15952122  0.42099291  1
  O  O100  1  0.51550531  0.38040664  0.41850456  1
  O  O101  1  0.86176553  0.49718274  0.42104069  1
  O  O102  1  0.33457356  0.45908169  0.07491408  1
  O  O103  1  0.15795283  0.67694152  0.08724183  1
  O  O104  1  0.55111874  0.87181695  0.07352640  1
  O  O105  1  0.32069721  0.87181695  0.57352640  1
  O  O106  1  0.51898769  0.67694152  0.58724183  1
  O  O107  1  0.12450713  0.45908169  0.57491408  1
  O  O108  1  0.29346249  0.80529454  0.25504018  1
  O  O109  1  0.52661246  0.69771955  0.25356324  1
  O  O110  1  0.18112608  0.47244156  0.25075421  1
  O  O111  1  0.29131447  0.47244156  0.75075421  1
  O  O112  1  0.17110609  0.69771955  0.75356324  1
  O  O113  1  0.51183105  0.80529454  0.75504018  1
