# generated using pymatgen
data_Na14Nb2Ga6Si9(SO16)3
_symmetry_space_group_name_H-M   'P 1'
_cell_length_a   17.93947715
_cell_length_b   8.98231370
_cell_length_c   22.01424280
_cell_angle_alpha   89.80910987
_cell_angle_beta   90.21996897
_cell_angle_gamma   119.95273764
_symmetry_Int_Tables_number   1
_chemical_formula_structural   Na14Nb2Ga6Si9(SO16)3
_chemical_formula_sum   'Na42 Nb6 Ga18 Si27 S9 O144'
_cell_volume   3073.51430188
_cell_formula_units_Z   3
loop_
 _symmetry_equiv_pos_site_id
 _symmetry_equiv_pos_as_xyz
  1  'x, y, z'
loop_
 _atom_site_type_symbol
 _atom_site_label
 _atom_site_symmetry_multiplicity
 _atom_site_fract_x
 _atom_site_fract_y
 _atom_site_fract_z
 _atom_site_occupancy
  Na  Na0  1  0.81444753  0.00197786  0.24712019  1
  Na  Na1  1  0.68790885  0.37106852  0.24652579  1
  Na  Na2  1  0.50090487  0.62474819  0.24799120  1
  Na  Na3  1  0.31350989  0.62570580  0.74693310  1
  Na  Na4  1  0.99695608  0.36972464  0.74906671  1
  Na  Na5  1  0.18633268  0.00426302  0.74601838  1
  Na  Na6  1  0.15214401  0.33791493  0.58336454  1
  Na  Na7  1  0.65449019  0.34181343  0.58497218  1
  Na  Na8  1  0.01801111  0.69653289  0.58393457  1
  Na  Na9  1  0.51539001  0.69011538  0.58293468  1
  Na  Na10  1  0.32758556  0.96889561  0.58479300  1
  Na  Na11  1  0.83133205  0.96794714  0.58565715  1
  Na  Na12  1  0.15272175  0.96471882  0.08212815  1
  Na  Na13  1  0.65501514  0.96494278  0.08004677  1
  Na  Na14  1  0.33040643  0.69253560  0.08186802  1
  Na  Na15  1  0.82880125  0.69047764  0.08249964  1
  Na  Na16  1  0.01532600  0.34069896  0.08056409  1
  Na  Na17  1  0.51844941  0.34392246  0.07942882  1
  Na  Na18  1  0.48547690  0.66775263  0.91667429  1
  Na  Na19  1  0.98201812  0.65850864  0.91322564  1
  Na  Na20  1  0.35421085  0.04258900  0.91403805  1
  Na  Na21  1  0.85410573  0.04789262  0.91515105  1
  Na  Na22  1  0.16336480  0.29795133  0.91670548  1
  Na  Na23  1  0.66539974  0.29547263  0.92071537  1
  Na  Na24  1  0.48193953  0.30807997  0.41681963  1
  Na  Na25  1  0.98374317  0.29978902  0.42012864  1
  Na  Na26  1  0.16486864  0.03596708  0.42382320  1
  Na  Na27  1  0.66513627  0.02822698  0.41991464  1
  Na  Na28  1  0.35212349  0.65660349  0.42135387  1
  Na  Na29  1  0.85359282  0.66558081  0.41656131  1
  Na  Na30  1  0.00280518  0.00118224  0.50026394  1
  Na  Na31  1  0.50141676  0.99562025  0.50007236  1
  Na  Na32  1  0.00106680  0.00740815  0.99638714  1
  Na  Na33  1  0.50253240  0.00389434  0.99488664  1
  Na  Na34  1  0.34017101  0.33427593  0.82582711  1
  Na  Na35  1  0.83423115  0.32922150  0.82892638  1
  Na  Na36  1  0.33301253  0.33134754  0.33286232  1
  Na  Na37  1  0.84041876  0.34582054  0.32691483  1
  Na  Na38  1  0.16473474  0.66412649  0.16219971  1
  Na  Na39  1  0.66792502  0.66633498  0.16540960  1
  Na  Na40  1  0.16605092  0.66810694  0.66644189  1
  Na  Na41  1  0.66817274  0.66948430  0.66491279  1
  Nb  Nb42  1  0.99955089  0.99790802  0.64773620  1
  Nb  Nb43  1  0.49547988  0.99109879  0.64541939  1
  Nb  Nb44  1  0.99543175  0.00024973  0.14472564  1
  Nb  Nb45  1  0.50735313  0.01370124  0.14379712  1
  Nb  Nb46  1  0.15758977  0.64705094  0.31405440  1
  Nb  Nb47  1  0.66217398  0.67877824  0.81120533  1
  Ga  Ga48  1  0.00122294  0.99925056  0.34992213  1
  Ga  Ga49  1  0.50496618  0.00015152  0.34599284  1
  Ga  Ga50  1  0.00016363  0.01554115  0.84053185  1
  Ga  Ga51  1  0.50225464  0.00540002  0.84906941  1
  Ga  Ga52  1  0.33581242  0.33156343  0.68621745  1
  Ga  Ga53  1  0.83787712  0.33737458  0.68282433  1
  Ga  Ga54  1  0.33744614  0.32042930  0.17698087  1
  Ga  Ga55  1  0.83713755  0.34069296  0.18636567  1
  Ga  Ga56  1  0.34102602  0.33581975  0.98976197  1
  Ga  Ga57  1  0.83698353  0.32509263  0.98404309  1
  Ga  Ga58  1  0.33585005  0.34790351  0.48676981  1
  Ga  Ga59  1  0.84022362  0.34531985  0.49345951  1
  Ga  Ga60  1  0.16023544  0.64749776  0.02354716  1
  Ga  Ga61  1  0.65848599  0.66210450  0.02125209  1
  Ga  Ga62  1  0.15817475  0.65453013  0.52316327  1
  Ga  Ga63  1  0.66069165  0.67446862  0.52504472  1
  Ga  Ga64  1  0.65894648  0.65964631  0.30698890  1
  Ga  Ga65  1  0.15756452  0.65582134  0.80640079  1
  Si  Si66  1  0.64974774  0.00339162  0.25224497  1
  Si  Si67  1  0.85372320  0.70415738  0.25525664  1
  Si  Si68  1  0.99733599  0.28663332  0.25174871  1
  Si  Si69  1  0.49254107  0.28555381  0.25435211  1
  Si  Si70  1  0.14980313  0.29508097  0.75192288  1
  Si  Si71  1  0.99433006  0.70346039  0.75474128  1
  Si  Si72  1  0.49579879  0.70610325  0.75239810  1
  Si  Si73  1  0.35331915  0.00263338  0.75536897  1
  Si  Si74  1  0.85119076  0.00323209  0.75035317  1
  Si  Si75  1  0.47594127  0.33587963  0.58173077  1
  Si  Si76  1  0.97899481  0.33362286  0.58332361  1
  Si  Si77  1  0.19156148  0.04533370  0.58157816  1
  Si  Si78  1  0.69302813  0.05210020  0.58248465  1
  Si  Si79  1  0.32911036  0.61758955  0.58306992  1
  Si  Si80  1  0.83005847  0.62040147  0.58231359  1
  Si  Si81  1  0.47824755  0.62262920  0.08411697  1
  Si  Si82  1  0.97596809  0.61594295  0.08184190  1
  Si  Si83  1  0.32909043  0.03439010  0.08119272  1
  Si  Si84  1  0.82862877  0.04124546  0.08332047  1
  Si  Si85  1  0.19458988  0.33503892  0.08354170  1
  Si  Si86  1  0.69555099  0.34398168  0.08121843  1
  Si  Si87  1  0.02182022  0.37420742  0.91600909  1
  Si  Si88  1  0.51789455  0.36989541  0.91894096  1
  Si  Si89  1  0.66641785  0.96585363  0.91989118  1
  Si  Si90  1  0.16632300  0.36694127  0.41994345  1
  Si  Si91  1  0.01598437  0.66579411  0.42048220  1
  Si  Si92  1  0.52140333  0.66856976  0.41486017  1
  S  S93  1  0.14921098  0.00464199  0.25108285  1
  S  S94  1  0.35268919  0.70816329  0.25070243  1
  S  S95  1  0.64740028  0.29261886  0.75104682  1
  S  S96  1  0.31066869  0.66434838  0.91730400  1
  S  S97  1  0.81228490  0.66775501  0.91750212  1
  S  S98  1  0.16741643  0.95772377  0.91722115  1
  S  S99  1  0.31309692  0.95554986  0.41582115  1
  S  S100  1  0.81052976  0.95612020  0.41631383  1
  S  S101  1  0.66664314  0.37608590  0.41611567  1
  O  O102  1  0.10831707  0.02389303  0.30654668  1
  O  O103  1  0.60594334  0.03961560  0.31086861  1
  O  O104  1  0.40619321  0.78825178  0.30626237  1
  O  O105  1  0.91379022  0.79900356  0.31375080  1
  O  O106  1  0.48051827  0.16634994  0.31390151  1
  O  O107  1  0.98620006  0.17273025  0.31165932  1
  O  O108  1  0.10835155  0.17357297  0.81180554  1
  O  O109  1  0.60732337  0.18931083  0.80666825  1
  O  O110  1  0.48474026  0.79893247  0.81190079  1
  O  O111  1  0.98480134  0.79968036  0.81481607  1
  O  O112  1  0.41351260  0.02855873  0.81404750  1
  O  O113  1  0.90981786  0.03846546  0.81125179  1
  O  O114  1  0.40164481  0.96914730  0.69481662  1
  O  O115  1  0.89842558  0.97120375  0.69101628  1
  O  O116  1  0.08355594  0.20016063  0.69313053  1
  O  O117  1  0.59234261  0.21223654  0.69613564  1
  O  O118  1  0.01344440  0.83129495  0.69408458  1
  O  O119  1  0.51578549  0.83215356  0.69184923  1
  O  O120  1  0.39337864  0.81349539  0.19564432  1
  O  O121  1  0.90190868  0.83500223  0.19477454  1
  O  O122  1  0.01709025  0.20112562  0.19157402  1
  O  O123  1  0.50927640  0.18953959  0.19447561  1
  O  O124  1  0.09434536  0.97197840  0.19616549  1
  O  O125  1  0.58241758  0.96664812  0.19349918  1
  O  O126  1  0.43511599  0.37930600  0.63886986  1
  O  O127  1  0.93909048  0.37464838  0.64202590  1
  O  O128  1  0.24976825  0.12589099  0.64192426  1
  O  O129  1  0.75457658  0.13771414  0.63987589  1
  O  O130  1  0.31235209  0.50265331  0.64295430  1
  O  O131  1  0.80896047  0.49158934  0.63897549  1
  O  O132  1  0.43840959  0.50596922  0.14468303  1
  O  O133  1  0.93605327  0.49226370  0.13977940  1
  O  O134  1  0.30700500  0.11280391  0.13980037  1
  O  O135  1  0.81172226  0.12067382  0.14380904  1
  O  O136  1  0.25645878  0.37243417  0.14230483  1
  O  O137  1  0.74888727  0.37132913  0.14327965  1
  O  O138  1  0.23196179  0.29249395  0.02157750  1
  O  O139  1  0.73043251  0.29260433  0.02125225  1
  O  O140  1  0.41789110  0.55088852  0.02350524  1
  O  O141  1  0.91604023  0.54874049  0.02072042  1
  O  O142  1  0.35737269  0.15967294  0.02155909  1
  O  O143  1  0.85741659  0.16201855  0.02313293  1
  O  O144  1  0.23012056  0.16667544  0.52043939  1
  O  O145  1  0.72956078  0.16682252  0.51926465  1
  O  O146  1  0.35800841  0.55575557  0.52224689  1
  O  O147  1  0.85484272  0.55339334  0.51982074  1
  O  O148  1  0.41690221  0.28491352  0.51955708  1
  O  O149  1  0.91934376  0.28612885  0.52157381  1
  O  O150  1  0.27215176  0.69439518  0.97258807  1
  O  O151  1  0.77357367  0.69540228  0.97263387  1
  O  O152  1  0.08379340  0.45667100  0.97649927  1
  O  O153  1  0.57989191  0.45479660  0.97812066  1
  O  O154  1  0.15644231  0.85287185  0.97262484  1
  O  O155  1  0.64718242  0.83775974  0.97742575  1
  O  O156  1  0.27500118  0.85162596  0.47076862  1
  O  O157  1  0.77180305  0.84849047  0.47147056  1
  O  O158  1  0.14817511  0.46090186  0.47577853  1
  O  O159  1  0.65439283  0.45646012  0.47105912  1
  O  O160  1  0.08242640  0.70641313  0.47611080  1
  O  O161  1  0.58449519  0.71326755  0.47458577  1
  O  O162  1  0.06847998  0.63659103  0.36076325  1
  O  O163  1  0.56578419  0.63213186  0.35584367  1
  O  O164  1  0.25743821  0.86886617  0.36122524  1
  O  O165  1  0.75794270  0.87413558  0.36144482  1
  O  O166  1  0.18247759  0.50285181  0.36041663  1
  O  O167  1  0.68013401  0.48243511  0.36109365  1
  O  O168  1  0.06683618  0.50158895  0.85759686  1
  O  O169  1  0.57024737  0.50272265  0.86111037  1
  O  O170  1  0.18194979  0.87949298  0.86257088  1
  O  O171  1  0.68279596  0.86549351  0.86104191  1
  O  O172  1  0.25816930  0.64172419  0.86254505  1
  O  O173  1  0.75697534  0.64313725  0.86343168  1
  O  O174  1  0.01018216  0.84025299  0.41102296  1
  O  O175  1  0.50808184  0.84192075  0.40842682  1
  O  O176  1  0.40012352  0.97258474  0.41050680  1
  O  O177  1  0.89882002  0.97744123  0.41356240  1
  O  O178  1  0.07941672  0.18036701  0.40943606  1
  O  O179  1  0.58605002  0.20123078  0.41305935  1
  O  O180  1  0.01126552  0.17827511  0.91138929  1
  O  O181  1  0.50951605  0.18020760  0.91168481  1
  O  O182  1  0.08798602  0.97182914  0.91438731  1
  O  O183  1  0.57902941  0.97855993  0.91002942  1
  O  O184  1  0.39875228  0.81848235  0.91460044  1
  O  O185  1  0.89950504  0.82229978  0.91308701  1
  O  O186  1  0.48944636  0.16529707  0.59070515  1
  O  O187  1  0.98890165  0.16037721  0.58740528  1
  O  O188  1  0.09339338  0.02304957  0.58796426  1
  O  O189  1  0.59492476  0.03078479  0.58916002  1
  O  O190  1  0.41807084  0.81574237  0.58899192  1
  O  O191  1  0.91737663  0.81316347  0.58874389  1
  O  O192  1  0.48633464  0.81487091  0.09088910  1
  O  O193  1  0.98981141  0.81406899  0.09158789  1
  O  O194  1  0.41604070  0.01522745  0.09154338  1
  O  O195  1  0.91806944  0.02129883  0.08928219  1
  O  O196  1  0.09656215  0.16034252  0.09071670  1
  O  O197  1  0.59502110  0.16657239  0.08812924  1
  O  O198  1  0.34121172  0.16667526  0.74638593  1
  O  O199  1  0.84354866  0.17380098  0.74372136  1
  O  O200  1  0.24271624  0.31087547  0.74531915  1
  O  O201  1  0.73204713  0.30858184  0.74556675  1
  O  O202  1  0.41109135  0.52294115  0.74539376  1
  O  O203  1  0.91202501  0.51299544  0.74660735  1
  O  O204  1  0.34378033  0.53721765  0.24688817  1
  O  O205  1  0.84107383  0.51534239  0.24644069  1
  O  O206  1  0.41040830  0.31631702  0.24597995  1
  O  O207  1  0.91269758  0.30220513  0.24557845  1
  O  O208  1  0.23381480  0.15913281  0.24561358  1
  O  O209  1  0.74217070  0.17361989  0.24577393  1
  O  O210  1  0.31825505  0.50629304  0.92124966  1
  O  O211  1  0.81927839  0.51000365  0.91960005  1
  O  O212  1  0.42280479  0.35951025  0.92126934  1
  O  O213  1  0.92665113  0.36038490  0.92104752  1
  O  O214  1  0.24464066  0.13403632  0.92081569  1
  O  O215  1  0.75334592  0.15401835  0.92024565  1
  O  O216  1  0.32042622  0.12704077  0.41713590  1
  O  O217  1  0.81844336  0.12900845  0.41984182  1
  O  O218  1  0.25367995  0.35367759  0.41920157  1
  O  O219  1  0.74296366  0.35269476  0.41930346  1
  O  O220  1  0.42608654  0.49392044  0.42015580  1
  O  O221  1  0.92257330  0.48689833  0.42082888  1
  O  O222  1  0.18036006  0.50182991  0.07968943  1
  O  O223  1  0.67822371  0.50549632  0.07654413  1
  O  O224  1  0.07497527  0.64996821  0.07639928  1
  O  O225  1  0.57420800  0.64754982  0.08054387  1
  O  O226  1  0.24645661  0.84206834  0.07270573  1
  O  O227  1  0.74884354  0.84518608  0.07591778  1
  O  O228  1  0.17889200  0.85178113  0.57569457  1
  O  O229  1  0.67908039  0.85686430  0.57879831  1
  O  O230  1  0.24891863  0.65241853  0.57507488  1
  O  O231  1  0.74641486  0.64776544  0.57297002  1
  O  O232  1  0.07478846  0.50223930  0.57996548  1
  O  O233  1  0.57453672  0.49993295  0.57585564  1
  O  O234  1  0.15857440  0.84697912  0.25677856  1
  O  O235  1  0.65411694  0.82636454  0.25355498  1
  O  O236  1  0.26731962  0.69865526  0.25563758  1
  O  O237  1  0.75875534  0.69321168  0.25894956  1
  O  O238  1  0.08725259  0.48242946  0.25490902  1
  O  O239  1  0.58374915  0.46991487  0.25396543  1
  O  O240  1  0.15488986  0.48189443  0.75390857  1
  O  O241  1  0.65397993  0.46436077  0.75625857  1
  O  O242  1  0.08541008  0.69861254  0.75397401  1
  O  O243  1  0.58468090  0.69069549  0.75480127  1
  O  O244  1  0.25909259  0.82374700  0.75923589  1
  O  O245  1  0.75884923  0.81932685  0.75657061  1
