# generated using pymatgen
data_Na6MgSi6Sn7(SO8)6
_symmetry_space_group_name_H-M   'P 1'
_cell_length_a   17.77262451
_cell_length_b   8.86717764
_cell_length_c   22.99123226
_cell_angle_alpha   89.88193353
_cell_angle_beta   90.22568835
_cell_angle_gamma   119.95935799
_symmetry_Int_Tables_number   1
_chemical_formula_structural   Na6MgSi6Sn7(SO8)6
_chemical_formula_sum   'Na18 Mg3 Si18 Sn21 S18 O144'
_cell_volume   3139.09310395
_cell_formula_units_Z   3
loop_
 _symmetry_equiv_pos_site_id
 _symmetry_equiv_pos_as_xyz
  1  'x, y, z'
loop_
 _atom_site_type_symbol
 _atom_site_label
 _atom_site_symmetry_multiplicity
 _atom_site_fract_x
 _atom_site_fract_y
 _atom_site_fract_z
 _atom_site_occupancy
  Na  Na0  1  0.68796175  0.37782246  0.25290206  1
  Na  Na1  1  0.99615654  0.64585645  0.25394917  1
  Na  Na2  1  0.99733274  0.35594374  0.75245290  1
  Na  Na3  1  0.49462989  0.36098311  0.74761610  1
  Na  Na4  1  0.19194757  0.01608947  0.75443462  1
  Na  Na5  1  0.68491391  0.00682329  0.74979899  1
  Na  Na6  1  0.99726887  0.99777779  0.49081714  1
  Na  Na7  1  0.50800086  0.00407751  0.49700564  1
  Na  Na8  1  0.01167684  0.01907929  0.99838482  1
  Na  Na9  1  0.50244787  0.98795023  0.99764829  1
  Na  Na10  1  0.33076199  0.33593310  0.82524377  1
  Na  Na11  1  0.82797363  0.32229698  0.83021142  1
  Na  Na12  1  0.33325614  0.33314386  0.33209118  1
  Na  Na13  1  0.83427710  0.33512920  0.33895322  1
  Na  Na14  1  0.17036119  0.66603912  0.16612139  1
  Na  Na15  1  0.66274888  0.66539880  0.17111588  1
  Na  Na16  1  0.17725437  0.66539548  0.66978975  1
  Na  Na17  1  0.67068799  0.66631391  0.66891074  1
  Mg  Mg18  1  0.33356345  0.33682384  0.69064578  1
  Mg  Mg19  1  0.82878356  0.32842557  0.68726763  1
  Mg  Mg20  1  0.83454724  0.33727735  0.18615621  1
  Si  Si21  1  0.14892741  0.00171848  0.25201934  1
  Si  Si22  1  0.85388131  0.71233059  0.24818933  1
  Si  Si23  1  0.49811673  0.28857265  0.24947137  1
  Si  Si24  1  0.14796583  0.29577834  0.74862271  1
  Si  Si25  1  0.65016324  0.29795568  0.75059680  1
  Si  Si26  1  0.49663848  0.70305589  0.74967041  1
  Si  Si27  1  0.35331685  0.99430158  0.75097838  1
  Si  Si28  1  0.85687103  0.00109396  0.75000138  1
  Si  Si29  1  0.47705494  0.62146831  0.08415397  1
  Si  Si30  1  0.18443287  0.33498434  0.08573508  1
  Si  Si31  1  0.01978092  0.37573388  0.91586902  1
  Si  Si32  1  0.16821984  0.95915761  0.91740728  1
  Si  Si33  1  0.66294526  0.95974582  0.91590292  1
  Si  Si34  1  0.81273565  0.95535260  0.41547369  1
  Si  Si35  1  0.16659182  0.37389006  0.41560667  1
  Si  Si36  1  0.66503243  0.37379152  0.41787367  1
  Si  Si37  1  0.02126590  0.66726981  0.41829910  1
  Si  Si38  1  0.52105536  0.66754862  0.41468097  1
  Sn  Sn39  1  0.00107236  0.99012015  0.35605676  1
  Sn  Sn40  1  0.50461001  0.01005851  0.35508606  1
  Sn  Sn41  1  0.00830359  0.02095379  0.85513298  1
  Sn  Sn42  1  0.50415422  0.99670310  0.84776521  1
  Sn  Sn43  1  0.99719441  0.00516534  0.64957872  1
  Sn  Sn44  1  0.50057488  0.00332061  0.65470850  1
  Sn  Sn45  1  0.00546095  0.99805926  0.15156467  1
  Sn  Sn46  1  0.49892460  0.99615651  0.14793706  1
  Sn  Sn47  1  0.33259606  0.33406478  0.18670612  1
  Sn  Sn48  1  0.32521210  0.33167800  0.98415634  1
  Sn  Sn49  1  0.83434256  0.32390138  0.97763831  1
  Sn  Sn50  1  0.33528736  0.34662851  0.47865935  1
  Sn  Sn51  1  0.83227195  0.33063751  0.47585414  1
  Sn  Sn52  1  0.16205426  0.65562522  0.01722904  1
  Sn  Sn53  1  0.65986568  0.67185677  0.01951325  1
  Sn  Sn54  1  0.16253042  0.65620828  0.51571196  1
  Sn  Sn55  1  0.66649855  0.67168476  0.51041746  1
  Sn  Sn56  1  0.16350316  0.66347374  0.31811806  1
  Sn  Sn57  1  0.66779607  0.66074112  0.31681362  1
  Sn  Sn58  1  0.16944896  0.66705983  0.81668501  1
  Sn  Sn59  1  0.66999605  0.67803108  0.81161801  1
  S  S60  1  0.64724137  0.99878709  0.24816678  1
  S  S61  1  0.35356959  0.71005064  0.25167651  1
  S  S62  1  0.99921199  0.29147557  0.24939544  1
  S  S63  1  0.99771384  0.70931246  0.74970289  1
  S  S64  1  0.47926233  0.33313636  0.58354295  1
  S  S65  1  0.97920635  0.33458427  0.58484460  1
  S  S66  1  0.18731233  0.03890123  0.58386089  1
  S  S67  1  0.68608842  0.03906002  0.58435575  1
  S  S68  1  0.33366932  0.63063675  0.58399395  1
  S  S69  1  0.83415820  0.62535910  0.58468472  1
  S  S70  1  0.97619791  0.62102708  0.08356186  1
  S  S71  1  0.33299253  0.03861850  0.08293106  1
  S  S72  1  0.83384557  0.04177528  0.08504934  1
  S  S73  1  0.68938078  0.33593755  0.08235960  1
  S  S74  1  0.31568109  0.66966348  0.91785922  1
  S  S75  1  0.81053247  0.66642258  0.91913943  1
  S  S76  1  0.51932376  0.37244249  0.91757534  1
  S  S77  1  0.31281610  0.95926604  0.41857107  1
  O  O78  1  0.10473316  0.03601027  0.30729451  1
  O  O79  1  0.60840791  0.03354374  0.29995575  1
  O  O80  1  0.40754360  0.79218482  0.30344489  1
  O  O81  1  0.91966859  0.79531354  0.30309226  1
  O  O82  1  0.48022997  0.16031629  0.30530686  1
  O  O83  1  0.98659378  0.18959308  0.30159079  1
  O  O84  1  0.10797451  0.16562485  0.80455028  1
  O  O85  1  0.60957798  0.17272955  0.80752953  1
  O  O86  1  0.47877511  0.78081607  0.80836751  1
  O  O87  1  0.98371495  0.78510432  0.80186775  1
  O  O88  1  0.41594146  0.03832538  0.80866529  1
  O  O89  1  0.91780284  0.03203798  0.80701674  1
  O  O90  1  0.39043516  0.95038689  0.69186214  1
  O  O91  1  0.89148394  0.95255101  0.69058832  1
  O  O92  1  0.08240318  0.21706781  0.69097025  1
  O  O93  1  0.58505911  0.22556260  0.69270336  1
  O  O94  1  0.01760405  0.82219027  0.69636815  1
  O  O95  1  0.52694238  0.83547131  0.69259693  1
  O  O96  1  0.39128711  0.81402702  0.19732596  1
  O  O97  1  0.89536607  0.83186978  0.18871334  1
  O  O98  1  0.01517954  0.21799660  0.19584498  1
  O  O99  1  0.52163909  0.20358092  0.19177156  1
  O  O100  1  0.08649290  0.94245803  0.19338592  1
  O  O101  1  0.59180846  0.96710607  0.19508280  1
  O  O102  1  0.43813164  0.35357821  0.63534011  1
  O  O103  1  0.94002084  0.35494511  0.63771704  1
  O  O104  1  0.23807324  0.11882610  0.63617196  1
  O  O105  1  0.73669934  0.11772218  0.63688777  1
  O  O106  1  0.32008799  0.52180182  0.63467133  1
  O  O107  1  0.82546692  0.52285742  0.63636724  1
  O  O108  1  0.43559673  0.50607850  0.14154949  1
  O  O109  1  0.93661687  0.51678096  0.13567816  1
  O  O110  1  0.31918518  0.11312014  0.13539013  1
  O  O111  1  0.82013486  0.12470435  0.13524090  1
  O  O112  1  0.24534188  0.36890269  0.14228025  1
  O  O113  1  0.73882154  0.35745947  0.13532963  1
  O  O114  1  0.22108519  0.29258714  0.02667731  1
  O  O115  1  0.72993516  0.30898416  0.02964805  1
  O  O116  1  0.42141255  0.53974061  0.02410940  1
  O  O117  1  0.92286800  0.53844084  0.03010573  1
  O  O118  1  0.34967088  0.14620261  0.02988898  1
  O  O119  1  0.84600588  0.14410123  0.03023033  1
  O  O120  1  0.22655191  0.14487606  0.53036723  1
  O  O121  1  0.72693319  0.14621871  0.53168212  1
  O  O122  1  0.34589163  0.55388382  0.52956878  1
  O  O123  1  0.84697484  0.54795105  0.53104925  1
  O  O124  1  0.42446905  0.30416820  0.52989251  1
  O  O125  1  0.92778087  0.31338757  0.53202773  1
  O  O126  1  0.27569914  0.69361084  0.97055605  1
  O  O127  1  0.76993402  0.69296031  0.97218464  1
  O  O128  1  0.07861744  0.45316754  0.97371907  1
  O  O129  1  0.57630889  0.45012061  0.97017928  1
  O  O130  1  0.15570813  0.84397705  0.97605226  1
  O  O131  1  0.64924195  0.84463528  0.97426237  1
  O  O132  1  0.27457235  0.85237235  0.47163087  1
  O  O133  1  0.77674153  0.84391587  0.47642767  1
  O  O134  1  0.15343940  0.45527383  0.47619334  1
  O  O135  1  0.64588049  0.45157026  0.47654869  1
  O  O136  1  0.08352609  0.71046517  0.47586820  1
  O  O137  1  0.57572687  0.71081754  0.47582743  1
  O  O138  1  0.05752279  0.62855860  0.35772453  1
  O  O139  1  0.56214438  0.63429291  0.35725960  1
  O  O140  1  0.26025125  0.88652252  0.36533775  1
  O  O141  1  0.75077338  0.87666460  0.35851215  1
  O  O142  1  0.19176696  0.50421982  0.35901191  1
  O  O143  1  0.68262159  0.47547457  0.35617814  1
  O  O144  1  0.06036681  0.48604137  0.85581148  1
  O  O145  1  0.55949963  0.47794508  0.86468513  1
  O  O146  1  0.18434014  0.88021634  0.85724257  1
  O  O147  1  0.68319630  0.87900551  0.85844262  1
  O  O148  1  0.26241912  0.63735832  0.86478350  1
  O  O149  1  0.75596547  0.63172973  0.86640969  1
  O  O150  1  0.01344290  0.83956522  0.41580873  1
  O  O151  1  0.50272026  0.83166798  0.40765203  1
  O  O152  1  0.39880339  0.97382228  0.41292344  1
  O  O153  1  0.90844869  0.97908291  0.40895523  1
  O  O154  1  0.07906195  0.19072695  0.40924524  1
  O  O155  1  0.57763066  0.18085992  0.41477751  1
  O  O156  1  0.00521849  0.17907946  0.91510490  1
  O  O157  1  0.50907331  0.19628436  0.91338099  1
  O  O158  1  0.07708964  0.96477116  0.91250167  1
  O  O159  1  0.57544600  0.97706307  0.91322253  1
  O  O160  1  0.40141160  0.82996839  0.91316195  1
  O  O161  1  0.89700792  0.81989321  0.91300786  1
  O  O162  1  0.48856992  0.17294137  0.58602488  1
  O  O163  1  0.98949315  0.17528765  0.58573003  1
  O  O164  1  0.09672581  0.01409973  0.58765798  1
  O  O165  1  0.59700941  0.02137847  0.58684240  1
  O  O166  1  0.41262305  0.80741799  0.58707480  1
  O  O167  1  0.91626093  0.80530053  0.58766550  1
  O  O168  1  0.48997303  0.82200152  0.08994618  1
  O  O169  1  0.98399022  0.79618278  0.08558184  1
  O  O170  1  0.41244641  0.01987967  0.08787380  1
  O  O171  1  0.91237740  0.02474636  0.08872685  1
  O  O172  1  0.08567023  0.16172004  0.09148523  1
  O  O173  1  0.60009409  0.17953609  0.08517554  1
  O  O174  1  0.34351888  0.16379764  0.74276171  1
  O  O175  1  0.85114475  0.17713280  0.74308341  1
  O  O176  1  0.23906934  0.30732954  0.74030444  1
  O  O177  1  0.74214727  0.31022662  0.74260644  1
  O  O178  1  0.41856735  0.51019310  0.74207155  1
  O  O179  1  0.92367534  0.53439927  0.74065962  1
  O  O180  1  0.34570770  0.53738704  0.24713026  1
  O  O181  1  0.84288767  0.51725917  0.24095520  1
  O  O182  1  0.41256381  0.30725364  0.24317682  1
  O  O183  1  0.92346338  0.31705826  0.24125029  1
  O  O184  1  0.24353232  0.17343708  0.24408953  1
  O  O185  1  0.73219708  0.15822884  0.24006254  1
  O  O186  1  0.32588396  0.51327918  0.92177648  1
  O  O187  1  0.81846833  0.50789827  0.92613057  1
  O  O188  1  0.43412816  0.36160862  0.92462731  1
  O  O189  1  0.92614179  0.37018377  0.92100308  1
  O  O190  1  0.25704403  0.15456766  0.92274765  1
  O  O191  1  0.74916488  0.15368178  0.92262326  1
  O  O192  1  0.32169316  0.13345546  0.42558494  1
  O  O193  1  0.82036465  0.14556977  0.42329801  1
  O  O194  1  0.25203451  0.34906096  0.42262560  1
  O  O195  1  0.75100738  0.35565903  0.42425442  1
  O  O196  1  0.42652533  0.48764155  0.42215295  1
  O  O197  1  0.92801400  0.49224418  0.42505815  1
  O  O198  1  0.17866834  0.51631256  0.07962714  1
  O  O199  1  0.68192060  0.49673320  0.07487794  1
  O  O200  1  0.06468547  0.64189918  0.07882883  1
  O  O201  1  0.57513437  0.64075348  0.08072358  1
  O  O202  1  0.25538949  0.86263118  0.07660706  1
  O  O203  1  0.75503775  0.86316475  0.07850845  1
  O  O204  1  0.17995271  0.86167887  0.57815379  1
  O  O205  1  0.67692009  0.86101267  0.57904504  1
  O  O206  1  0.25402524  0.65153645  0.57779524  1
  O  O207  1  0.75585787  0.64699125  0.58008447  1
  O  O208  1  0.06904258  0.49359449  0.58119361  1
  O  O209  1  0.56705194  0.49221054  0.57766856  1
  O  O210  1  0.15630970  0.81978068  0.25764030  1
  O  O211  1  0.65448114  0.84224360  0.25344538  1
  O  O212  1  0.26645784  0.69509941  0.25579474  1
  O  O213  1  0.75646961  0.68921632  0.25274346  1
  O  O214  1  0.07910315  0.47167901  0.25294608  1
  O  O215  1  0.58768089  0.47676313  0.25428022  1
  O  O216  1  0.14720199  0.47995352  0.75610439  1
  O  O217  1  0.65001568  0.48096760  0.75978091  1
  O  O218  1  0.07894983  0.69610835  0.75401933  1
  O  O219  1  0.58702495  0.69319498  0.75551893  1
  O  O220  1  0.25385748  0.82457579  0.75596807  1
  O  O221  1  0.75904227  0.83365042  0.75417615  1
