# generated using pymatgen
data_Tl5SbO5
_symmetry_space_group_name_H-M   'P 1'
_cell_length_a   8.05867829
_cell_length_b   8.05867829
_cell_length_c   13.75145131
_cell_angle_alpha   90.00000000
_cell_angle_beta   90.00000000
_cell_angle_gamma   95.18371712
_symmetry_Int_Tables_number   1
_chemical_formula_structural   Tl5SbO5
_chemical_formula_sum   'Tl20 Sb4 O20'
_cell_volume   889.39834352
_cell_formula_units_Z   4
loop_
 _symmetry_equiv_pos_site_id
 _symmetry_equiv_pos_as_xyz
  1  'x, y, z'
loop_
 _atom_site_type_symbol
 _atom_site_label
 _atom_site_symmetry_multiplicity
 _atom_site_fract_x
 _atom_site_fract_y
 _atom_site_fract_z
 _atom_site_occupancy
  Tl  Tl0  1  0.73803899  0.26196101  0.10027407  1
  Tl  Tl1  1  0.26196101  0.73803899  0.60027407  1
  Tl  Tl2  1  0.48097749  0.51902251  0.75967772  1
  Tl  Tl3  1  0.51902251  0.48097749  0.25967772  1
  Tl  Tl4  1  0.31424431  0.35848499  0.00424232  1
  Tl  Tl5  1  0.68575569  0.64151501  0.50424232  1
  Tl  Tl6  1  0.64151501  0.68575569  0.00424232  1
  Tl  Tl7  1  0.35848499  0.31424431  0.50424232  1
  Tl  Tl8  1  0.19856748  0.12256886  0.74628346  1
  Tl  Tl9  1  0.80143252  0.87743114  0.24628346  1
  Tl  Tl10  1  0.87743114  0.80143252  0.74628346  1
  Tl  Tl11  1  0.12256886  0.19856748  0.24628346  1
  Tl  Tl12  1  0.96247659  0.36568262  0.61218465  1
  Tl  Tl13  1  0.03752341  0.63431738  0.11218465  1
  Tl  Tl14  1  0.63431738  0.03752341  0.61218465  1
  Tl  Tl15  1  0.36568262  0.96247659  0.11218465  1
  Tl  Tl16  1  0.92422688  0.40025810  0.86649323  1
  Tl  Tl17  1  0.07577312  0.59974190  0.36649323  1
  Tl  Tl18  1  0.59974190  0.07577312  0.86649323  1
  Tl  Tl19  1  0.40025810  0.92422688  0.36649323  1
  Sb  Sb20  1  0.24433358  0.75566642  0.89505672  1
  Sb  Sb21  1  0.75566642  0.24433358  0.39505672  1
  Sb  Sb22  1  0.00700604  0.99299396  0.47987226  1
  Sb  Sb23  1  0.99299396  0.00700604  0.97987226  1
  O  O24  1  0.06338286  0.93661714  0.34398296  1
  O  O25  1  0.93661714  0.06338286  0.84398296  1
  O  O26  1  0.94594175  0.05405825  0.61433067  1
  O  O27  1  0.05405825  0.94594175  0.11433067  1
  O  O28  1  0.82163653  0.17836347  0.26253239  1
  O  O29  1  0.17836347  0.82163653  0.76253239  1
  O  O30  1  0.69428921  0.30571079  0.53083752  1
  O  O31  1  0.30571079  0.69428921  0.03083752  1
  O  O32  1  0.24855910  0.01817125  0.51267170  1
  O  O33  1  0.75144090  0.98182875  0.01267170  1
  O  O34  1  0.98182875  0.75144090  0.51267170  1
  O  O35  1  0.01817125  0.24855910  0.01267170  1
  O  O36  1  0.48463338  0.77874881  0.86095808  1
  O  O37  1  0.51536662  0.22125119  0.36095808  1
  O  O38  1  0.22125119  0.51536662  0.86095808  1
  O  O39  1  0.77874881  0.48463338  0.36095808  1
  O  O40  1  0.24190495  -0.00065675  0.94058591  1
  O  O41  1  0.75809505  0.00065675  0.44058591  1
  O  O42  1  0.00065675  0.75809505  0.94058591  1
  O  O43  1  -0.00065675  0.24190495  0.44058591  1
