# generated using pymatgen
data_MgVCrP2(O4F)2
_symmetry_space_group_name_H-M   'P 1'
_cell_length_a   5.46387069
_cell_length_b   5.14773356
_cell_length_c   7.39372634
_cell_angle_alpha   108.10564867
_cell_angle_beta   110.88023012
_cell_angle_gamma   91.84147266
_symmetry_Int_Tables_number   1
_chemical_formula_structural   MgVCrP2(O4F)2
_chemical_formula_sum   'Mg1 V1 Cr1 P2 O8 F2'
_cell_volume   182.27533829
_cell_formula_units_Z   1
loop_
 _symmetry_equiv_pos_site_id
 _symmetry_equiv_pos_as_xyz
  1  'x, y, z'
loop_
 _atom_site_type_symbol
 _atom_site_label
 _atom_site_symmetry_multiplicity
 _atom_site_fract_x
 _atom_site_fract_y
 _atom_site_fract_z
 _atom_site_occupancy
  Mg  Mg0  1  0.00000000  0.50000000  0.50000000  1
  V  V1  1  0.00000000  0.00000000  0.00000000  1
  Cr  Cr2  1  0.50000000  0.50000000  0.50000000  1
  P  P3  1  0.39517400  0.11212300  0.75266500  1
  P  P4  1  0.60482600  0.88787700  0.24733500  1
  O  O5  1  0.23255400  0.14939200  0.88653100  1
  O  O6  1  0.30930900  0.80701900  0.59158000  1
  O  O7  1  0.31676200  0.31507100  0.62873500  1
  O  O8  1  0.30416800  0.82805600  0.13164600  1
  O  O9  1  0.69583200  0.17194400  0.86835400  1
  O  O10  1  0.68323800  0.68492900  0.37126500  1
  O  O11  1  0.69069100  0.19298100  0.40842000  1
  O  O12  1  0.76744600  0.85060800  0.11346900  1
  F  F13  1  0.14426400  0.35664100  0.26884100  1
  F  F14  1  0.85573600  0.64335900  0.73115900  1
