# generated using pymatgen
data_MgFe2(CoO3)4
_symmetry_space_group_name_H-M   'P 1'
_cell_length_a   5.00219592
_cell_length_b   5.00615578
_cell_length_c   9.93334793
_cell_angle_alpha   82.67082552
_cell_angle_beta   86.75204574
_cell_angle_gamma   60.08519082
_symmetry_Int_Tables_number   1
_chemical_formula_structural   MgFe2(CoO3)4
_chemical_formula_sum   'Mg1 Fe2 Co4 O12'
_cell_volume   213.83871497
_cell_formula_units_Z   1
loop_
 _symmetry_equiv_pos_site_id
 _symmetry_equiv_pos_as_xyz
  1  'x, y, z'
loop_
 _atom_site_type_symbol
 _atom_site_label
 _atom_site_symmetry_multiplicity
 _atom_site_fract_x
 _atom_site_fract_y
 _atom_site_fract_z
 _atom_site_occupancy
  Mg  Mg0  1  0.32246807  0.92091435  0.24690386  1
  Fe  Fe1  1  0.98686068  0.99640204  0.98136292  1
  Fe  Fe2  1  0.99526623  0.51671423  0.50017549  1
  Co  Co3  1  0.32409448  0.32414878  0.99931005  1
  Co  Co4  1  0.32924699  0.84579465  0.51595511  1
  Co  Co5  1  0.66213671  0.18429433  0.49784768  1
  Co  Co6  1  0.65783330  0.65811365  0.99889398  1
  O  O7  1  0.98696623  0.14663290  0.60020005  1
  O  O8  1  0.00944517  0.29199940  0.10200632  1
  O  O9  1  0.98640672  0.65843291  0.90158691  1
  O  O10  1  0.35258222  0.01796187  0.89928284  1
  O  O11  1  0.01055510  0.88947509  0.39747569  1
  O  O12  1  0.33899886  0.18121125  0.39820541  1
  O  O13  1  0.35140076  0.48093350  0.59933877  1
  O  O14  1  0.33558811  0.63769138  0.10121389  1
  O  O15  1  0.63686247  0.96313889  0.10422115  1
  O  O16  1  0.62876958  0.37430472  0.90184920  1
  O  O17  1  0.63114239  0.56025193  0.39795713  1
  O  O18  1  0.65337592  0.84533413  0.59926953  1
