# generated using pymatgen
data_MgCr4Hg4(H2O9)2
_symmetry_space_group_name_H-M   'P 1'
_cell_length_a   6.56735595
_cell_length_b   6.56735595
_cell_length_c   17.78792719
_cell_angle_alpha   56.01592493
_cell_angle_beta   123.98407507
_cell_angle_gamma   130.93997713
_symmetry_Int_Tables_number   1
_chemical_formula_structural   MgCr4Hg4(H2O9)2
_chemical_formula_sum   'Mg1 Cr4 Hg4 H4 O18'
_cell_volume   457.24402966
_cell_formula_units_Z   1
loop_
 _symmetry_equiv_pos_site_id
 _symmetry_equiv_pos_as_xyz
  1  'x, y, z'
loop_
 _atom_site_type_symbol
 _atom_site_label
 _atom_site_symmetry_multiplicity
 _atom_site_fract_x
 _atom_site_fract_y
 _atom_site_fract_z
 _atom_site_occupancy
  Mg  Mg0  1  0.87469000  0.87469000  0.75000000  1
  Cr  Cr1  1  0.80904700  0.31335800  0.57842400  1
  Cr  Cr2  1  0.31335800  0.80904700  0.92157600  1
  Cr  Cr3  1  0.27402900  0.63035700  0.39485900  1
  Cr  Cr4  1  0.63035700  0.27402900  0.10514100  1
  Hg  Hg5  1  0.04025600  0.92868200  0.59126000  1
  Hg  Hg6  1  0.92868200  0.04025600  0.90874000  1
  Hg  Hg7  1  0.07187400  0.03455100  0.36976400  1
  Hg  Hg8  1  0.03455100  0.07187400  0.13023600  1
  H  H9  1  0.43224300  0.36605300  0.80422800  1
  H  H10  1  0.36605300  0.43224300  0.69577200  1
  H  H11  1  0.44222600  0.60302600  0.21022000  1
  H  H12  1  0.60302600  0.44222600  0.28978000  1
  O  O13  1  0.03821000  0.15263600  0.63849400  1
  O  O14  1  0.15263600  0.03821000  0.86150600  1
  O  O15  1  0.04696000  0.76160000  0.33576100  1
  O  O16  1  0.76160000  0.04696000  0.16423900  1
  O  O17  1  0.68444600  0.13621800  0.67076600  1
  O  O18  1  0.13621800  0.68444600  0.82923400  1
  O  O19  1  0.47539700  0.78954200  0.33219100  1
  O  O20  1  0.78954200  0.47539700  0.16780900  1
  O  O21  1  0.06888300  0.68334800  0.56513000  1
  O  O22  1  0.68334800  0.06888300  0.93487000  1
  O  O23  1  0.06173400  0.27064900  0.40984200  1
  O  O24  1  0.27064900  0.06173400  0.09015800  1
  O  O25  1  0.59802100  0.26860300  0.47391400  1
  O  O26  1  0.26860300  0.59802100  0.02608600  1
  O  O27  1  0.46823100  0.67464100  0.49956800  1
  O  O28  1  0.67464100  0.46823100  0.00043200  1
  O  O29  1  0.50985300  0.50985300  0.75000000  1
  O  O30  1  0.41063700  0.41063700  0.25000000  1
