# generated using pymatgen
data_Na9Ta8Zn4Si3(P5O24)3
_symmetry_space_group_name_H-M   'P 1'
_cell_length_a   8.85632860
_cell_length_b   8.86038107
_cell_length_c   22.46729142
_cell_angle_alpha   90.01567169
_cell_angle_beta   90.11324273
_cell_angle_gamma   120.10439362
_symmetry_Int_Tables_number   1
_chemical_formula_structural   Na9Ta8Zn4Si3(P5O24)3
_chemical_formula_sum   'Na9 Ta8 Zn4 Si3 P15 O72'
_cell_volume   1525.20544471
_cell_formula_units_Z   1
loop_
 _symmetry_equiv_pos_site_id
 _symmetry_equiv_pos_as_xyz
  1  'x, y, z'
loop_
 _atom_site_type_symbol
 _atom_site_label
 _atom_site_symmetry_multiplicity
 _atom_site_fract_x
 _atom_site_fract_y
 _atom_site_fract_z
 _atom_site_occupancy
  Na  Na0  1  0.98474191  0.62760662  0.24219196  1
  Na  Na1  1  0.37375685  0.01761299  0.74239006  1
  Na  Na2  1  0.31982725  0.03037294  0.40843331  1
  Na  Na3  1  0.99058087  0.00287955  0.49270045  1
  Na  Na4  1  0.00035409  0.99857365  0.99082379  1
  Na  Na5  1  0.68171181  0.34844078  0.82238095  1
  Na  Na6  1  0.66323913  0.33000533  0.32151408  1
  Na  Na7  1  0.34280267  0.66829721  0.16470299  1
  Na  Na8  1  0.33274794  0.65895171  0.66447528  1
  Ta  Ta9  1  0.00087633  0.00147446  0.64669922  1
  Ta  Ta10  1  0.00043346  0.00171284  0.14612036  1
  Ta  Ta11  1  0.66839065  0.33691063  0.97937697  1
  Ta  Ta12  1  0.66455890  0.33501555  0.48057292  1
  Ta  Ta13  1  0.33113965  0.66705771  0.02085152  1
  Ta  Ta14  1  0.33244746  0.66346876  0.52141692  1
  Ta  Ta15  1  0.33763990  0.66254364  0.31034272  1
  Ta  Ta16  1  0.33275133  0.66387034  0.81081784  1
  Zn  Zn17  1  0.99861637  0.00750866  0.35336773  1
  Zn  Zn18  1  0.99807993  0.99711347  0.85356849  1
  Zn  Zn19  1  0.67064563  0.33411666  0.68232110  1
  Zn  Zn20  1  0.66497442  0.32940486  0.18154281  1
  Si  Si21  1  0.37555553  0.04255808  0.58733576  1
  Si  Si22  1  0.95608111  0.62417990  0.08751904  1
  Si  Si23  1  0.33188577  0.37254234  0.41670413  1
  P  P24  1  0.29606571  0.00588350  0.25318193  1
  P  P25  1  0.71377979  0.71395364  0.25228195  1
  P  P26  1  0.99604063  0.28738376  0.25250228  1
  P  P27  1  0.28903618  0.28867910  0.75307009  1
  P  P28  1  0.99346151  0.70686127  0.75291396  1
  P  P29  1  0.71503199  0.00333939  0.75387175  1
  P  P30  1  0.95446476  0.33198120  0.58509325  1
  P  P31  1  0.66768453  0.62286063  0.58553525  1
  P  P32  1  0.66820442  0.04618545  0.08397969  1
  P  P33  1  0.37901593  0.33386482  0.08408870  1
  P  P34  1  0.62208816  0.66485204  0.91711417  1
  P  P35  1  0.04208162  0.37590350  0.91671395  1
  P  P36  1  0.33484581  0.95760319  0.91596888  1
  P  P37  1  0.62294035  0.95493318  0.41734854  1
  P  P38  1  0.04102429  0.65805881  0.41565052  1
  O  O39  1  0.21751283  0.01988334  0.31145682  1
  O  O40  1  0.82600326  0.79744001  0.30639480  1
  O  O41  1  0.98142239  0.18822169  0.30822974  1
  O  O42  1  0.20634538  0.17689018  0.80701608  1
  O  O43  1  0.97783579  0.79017376  0.80879716  1
  O  O44  1  0.81676050  0.02041042  0.80910913  1
  O  O45  1  0.80072130  0.97539143  0.69617077  1
  O  O46  1  0.17034687  0.19891437  0.69565823  1
  O  O47  1  0.02810897  0.83167170  0.69661640  1
  O  O48  1  0.80350885  0.83074198  0.19487771  1
  O  O49  1  0.02245023  0.20039516  0.19513734  1
  O  O50  1  0.16750397  0.97747437  0.19851531  1
  O  O51  1  0.88860298  0.37357951  0.64026863  1
  O  O52  1  0.48130724  0.11102507  0.64738956  1
  O  O53  1  0.62935406  0.51432090  0.64016250  1
  O  O54  1  0.89175608  0.51987193  0.14782959  1
  O  O55  1  0.62346710  0.10962084  0.13921785  1
  O  O56  1  0.48740015  0.37370730  0.13914747  1
  O  O57  1  0.46458632  0.30193796  0.02764373  1
  O  O58  1  0.82793675  0.52207881  0.02911126  1
  O  O59  1  0.69216833  0.16165050  0.02786808  1
  O  O60  1  0.47445294  0.16773915  0.52777201  1
  O  O61  1  0.69720873  0.53522691  0.52876354  1
  O  O62  1  0.84066838  0.30826248  0.52858691  1
  O  O63  1  0.52103717  0.67417218  0.97164532  1
  O  O64  1  0.15448217  0.47892393  0.97152065  1
  O  O65  1  0.32566116  0.84236789  0.96984432  1
  O  O66  1  0.52130096  0.84550183  0.47236833  1
  O  O67  1  0.32132821  0.48040672  0.47345124  1
  O  O68  1  0.16074549  0.67887423  0.46958562  1
  O  O69  1  0.13154612  0.63879668  0.35834613  1
  O  O70  1  0.50077922  0.86893160  0.36162884  1
  O  O71  1  0.35931617  0.49927929  0.35831464  1
  O  O72  1  0.13384829  0.49387611  0.86105864  1
  O  O73  1  0.35861593  0.86794021  0.85907148  1
  O  O74  1  0.50415116  0.64083314  0.86127223  1
  O  O75  1  0.02433819  0.81948502  0.41433721  1
  O  O76  1  0.79778832  0.96861771  0.41459634  1
  O  O77  1  0.17061894  0.17918737  0.41585768  1
  O  O78  1  0.02635352  0.19921720  0.91524696  1
  O  O79  1  0.17327327  0.97258731  0.91533840  1
  O  O80  1  0.80091612  0.82324055  0.91521175  1
  O  O81  1  0.96852822  0.16338778  0.58982375  1
  O  O82  1  0.18053529  0.02561166  0.59132960  1
  O  O83  1  0.83226418  0.80857967  0.59008208  1
  O  O84  1  0.97618531  0.82026525  0.09122632  1
  O  O85  1  0.83767631  0.03359138  0.08923967  1
  O  O86  1  0.19263122  0.16970438  0.08984225  1
  O  O87  1  0.67540569  0.15089291  0.74753828  1
  O  O88  1  0.47231890  0.32044632  0.74446376  1
  O  O89  1  0.84571187  0.52371208  0.74292984  1
  O  O90  1  0.68105333  0.53011796  0.24413206  1
  O  O91  1  0.84716400  0.32485255  0.24665631  1
  O  O92  1  0.47731090  0.15718745  0.24320302  1
  O  O93  1  0.62803894  0.49078397  0.92278771  1
  O  O94  1  0.86171654  0.36791062  0.92325241  1
  O  O95  1  0.50636780  0.13665573  0.92319708  1
  O  O96  1  0.62996695  0.13518988  0.42374128  1
  O  O97  1  0.51535265  0.36427801  0.42299645  1
  O  O98  1  0.86490726  0.48720005  0.42317771  1
  O  O99  1  0.34970161  0.49128011  0.07120445  1
  O  O100  1  0.15391047  0.65712956  0.07251070  1
  O  O101  1  0.51565808  0.85612141  0.07092458  1
  O  O102  1  0.34235057  0.84559573  0.57302651  1
  O  O103  1  0.51076095  0.65281270  0.57297869  1
  O  O104  1  0.14398738  0.48667676  0.57321101  1
  O  O105  1  0.29520701  0.82427370  0.25394357  1
  O  O106  1  0.53175048  0.70920436  0.25611388  1
  O  O107  1  0.17279355  0.47727968  0.25490121  1
  O  O108  1  0.29548548  0.47129170  0.75715811  1
  O  O109  1  0.17604782  0.70510001  0.75593610  1
  O  O110  1  0.52470974  0.82610271  0.75721694  1
