# generated using pymatgen
data_MgV4(PbO6)2
_symmetry_space_group_name_H-M   'P 1'
_cell_length_a   3.78150112
_cell_length_b   8.43683801
_cell_length_c   10.33997043
_cell_angle_alpha   107.38205951
_cell_angle_beta   90.02838894
_cell_angle_gamma   102.94230402
_symmetry_Int_Tables_number   1
_chemical_formula_structural   MgV4(PbO6)2
_chemical_formula_sum   'Mg1 V4 Pb2 O12'
_cell_volume   306.01646238
_cell_formula_units_Z   1
loop_
 _symmetry_equiv_pos_site_id
 _symmetry_equiv_pos_as_xyz
  1  'x, y, z'
loop_
 _atom_site_type_symbol
 _atom_site_label
 _atom_site_symmetry_multiplicity
 _atom_site_fract_x
 _atom_site_fract_y
 _atom_site_fract_z
 _atom_site_occupancy
  Mg  Mg0  1  0.78550600  0.57119400  0.00766400  1
  V  V1  1  0.59335900  0.18711300  0.81256000  1
  V  V2  1  0.40907800  0.81799200  0.18605200  1
  V  V3  1  0.84238300  0.68402800  0.37037800  1
  V  V4  1  0.15724900  0.31539000  0.62833800  1
  Pb  Pb5  1  0.89203700  0.78339900  0.76293500  1
  Pb  Pb6  1  0.12083000  0.24364500  0.24635700  1
  O  O7  1  0.64993800  0.30063900  0.67141100  1
  O  O8  1  0.36162500  0.72259800  0.33772400  1
  O  O9  1  0.87824800  0.75625900  0.19958200  1
  O  O10  1  0.09099000  0.18247500  0.75784700  1
  O  O11  1  0.66348800  0.32699800  0.97710400  1
  O  O12  1  0.32993300  0.66002000  0.01211800  1
  O  O13  1  0.10632000  0.21402600  0.45679400  1
  O  O14  1  0.89270300  0.78431500  0.53739000  1
  O  O15  1  0.47822000  0.95629700  0.79914300  1
  O  O16  1  0.73481600  0.46925300  0.33694700  1
  O  O17  1  0.26400000  0.52884300  0.66256700  1
  O  O18  1  0.51713400  0.03457800  0.20236700  1
