# generated using pymatgen
data_Er5C2Br9
_symmetry_space_group_name_H-M   'P 1'
_cell_length_a   16.26426961
_cell_length_b   9.94759633
_cell_length_c   13.26853258
_cell_angle_alpha   58.19367217
_cell_angle_beta   90.00000000
_cell_angle_gamma   90.00000000
_symmetry_Int_Tables_number   1
_chemical_formula_structural   Er5C2Br9
_chemical_formula_sum   'Er20 C8 Br36'
_cell_volume   1824.35758222
_cell_formula_units_Z   4
loop_
 _symmetry_equiv_pos_site_id
 _symmetry_equiv_pos_as_xyz
  1  'x, y, z'
loop_
 _atom_site_type_symbol
 _atom_site_label
 _atom_site_symmetry_multiplicity
 _atom_site_fract_x
 _atom_site_fract_y
 _atom_site_fract_z
 _atom_site_occupancy
  Er  Er0  1  0.81268700  0.21034593  0.94624178  1
  Er  Er1  1  0.31268700  0.78965407  0.55375822  1
  Er  Er2  1  0.18731300  0.78965407  0.05375822  1
  Er  Er3  1  0.68731300  0.21034593  0.44624178  1
  Er  Er4  1  0.94312865  0.99059372  0.26307188  1
  Er  Er5  1  0.44312865  0.00940628  0.23692812  1
  Er  Er6  1  0.05687135  0.00940628  0.73692812  1
  Er  Er7  1  0.55687135  0.99059372  0.76307188  1
  Er  Er8  1  0.44106447  0.64302441  0.81104418  1
  Er  Er9  1  0.94106447  0.35697559  0.68895582  1
  Er  Er10  1  0.55893553  0.35697559  0.18895582  1
  Er  Er11  1  0.05893553  0.64302441  0.31104418  1
  Er  Er12  1  0.46136169  0.16252488  0.46558622  1
  Er  Er13  1  0.96136169  0.83747512  0.03441378  1
  Er  Er14  1  0.53863831  0.83747512  0.53441378  1
  Er  Er15  1  0.03863831  0.16252488  0.96558622  1
  Er  Er16  1  0.33926514  0.98951082  0.71976061  1
  Er  Er17  1  0.83926514  0.01048918  0.78023939  1
  Er  Er18  1  0.66073486  0.01048918  0.28023939  1
  Er  Er19  1  0.16073486  0.98951082  0.21976061  1
  C  C20  1  0.41064023  0.87390975  0.61780991  1
  C  C21  1  0.91064023  0.12609025  0.88219009  1
  C  C22  1  0.58935977  0.12609025  0.38219009  1
  C  C23  1  0.08935977  0.87390975  0.11780991  1
  C  C24  1  0.97094551  0.07316572  0.83056795  1
  C  C25  1  0.47094551  0.92683428  0.66943205  1
  C  C26  1  0.02905449  0.92683428  0.16943205  1
  C  C27  1  0.52905449  0.07316572  0.33056795  1
  Br  Br28  1  0.31766623  0.69756636  0.93797066  1
  Br  Br29  1  0.81766623  0.30243364  0.56202934  1
  Br  Br30  1  0.68233377  0.30243364  0.06202934  1
  Br  Br31  1  0.18233377  0.69756636  0.43797066  1
  Br  Br32  1  0.43392410  0.08968481  0.84684375  1
  Br  Br33  1  0.93392410  0.91031519  0.65315625  1
  Br  Br34  1  0.56607590  0.91031519  0.15315625  1
  Br  Br35  1  0.06607590  0.08968481  0.34684375  1
  Br  Br36  1  0.56153858  0.53122394  0.73714544  1
  Br  Br37  1  0.06153858  0.46877606  0.76285456  1
  Br  Br38  1  0.43846142  0.46877606  0.26285456  1
  Br  Br39  1  0.93846142  0.53122394  0.23714544  1
  Br  Br40  1  0.32792530  0.28465513  0.53068909  1
  Br  Br41  1  0.82792530  0.71534487  0.96931091  1
  Br  Br42  1  0.67207470  0.71534487  0.46931091  1
  Br  Br43  1  0.17207470  0.28465513  0.03068909  1
  Br  Br44  1  0.30813787  0.90588087  0.13963146  1
  Br  Br45  1  0.80813787  0.09411913  0.36036854  1
  Br  Br46  1  0.69186213  0.09411913  0.86036854  1
  Br  Br47  1  0.19186213  0.90588087  0.63963146  1
  Br  Br48  1  0.20149703  0.08444578  0.82666343  1
  Br  Br49  1  0.70149703  0.91555422  0.67333657  1
  Br  Br50  1  0.79850297  0.91555422  0.17333657  1
  Br  Br51  1  0.29850297  0.08444578  0.32666343  1
  Br  Br52  1  0.18296311  0.49694943  0.25241424  1
  Br  Br53  1  0.68296311  0.50305057  0.24758576  1
  Br  Br54  1  0.81703689  0.50305057  0.74758576  1
  Br  Br55  1  0.31703689  0.49694943  0.75241424  1
  Br  Br56  1  0.05846926  0.32070515  0.53980811  1
  Br  Br57  1  0.55846926  0.67929485  0.96019189  1
  Br  Br58  1  0.94153074  0.67929485  0.46019189  1
  Br  Br59  1  0.44153074  0.32070515  0.03980811  1
  Br  Br60  1  0.07111714  0.70007965  0.94107100  1
  Br  Br61  1  0.57111714  0.29992035  0.55892900  1
  Br  Br62  1  0.92888286  0.29992035  0.05892900  1
  Br  Br63  1  0.42888286  0.70007965  0.44107100  1
