# generated using pymatgen
data_Na7Mg2SiGe2P5O24
_symmetry_space_group_name_H-M   'P 1'
_cell_length_a   8.81890234
_cell_length_b   8.81696469
_cell_length_c   21.66790997
_cell_angle_alpha   90.06323910
_cell_angle_beta   89.91930706
_cell_angle_gamma   119.88506258
_symmetry_Int_Tables_number   1
_chemical_formula_structural   Na7Mg2SiGe2P5O24
_chemical_formula_sum   'Na21 Mg6 Si3 Ge6 P15 O72'
_cell_volume   1460.77269124
_cell_formula_units_Z   3
loop_
 _symmetry_equiv_pos_site_id
 _symmetry_equiv_pos_as_xyz
  1  'x, y, z'
loop_
 _atom_site_type_symbol
 _atom_site_label
 _atom_site_symmetry_multiplicity
 _atom_site_fract_x
 _atom_site_fract_y
 _atom_site_fract_z
 _atom_site_occupancy
  Na  Na0  1  0.35894527  0.36850162  0.25312103  1
  Na  Na1  1  0.00702783  0.63869040  0.25122961  1
  Na  Na2  1  0.62939600  0.64409112  0.75066225  1
  Na  Na3  1  0.00541108  0.36663242  0.75341022  1
  Na  Na4  1  0.36176492  0.99036940  0.75149473  1
  Na  Na5  1  0.29619843  0.31669137  0.58266674  1
  Na  Na6  1  0.02833762  0.70406582  0.58471946  1
  Na  Na7  1  0.67441741  0.97161313  0.58917705  1
  Na  Na8  1  0.29603668  0.97305437  0.08524925  1
  Na  Na9  1  0.68297695  0.70468435  0.08381681  1
  Na  Na10  1  0.02715316  0.32808755  0.08647285  1
  Na  Na11  1  0.96109829  0.65604899  0.92239222  1
  Na  Na12  1  0.69413277  0.03471971  0.91758403  1
  Na  Na13  1  0.96582100  0.30655158  0.41813912  1
  Na  Na14  1  0.34522635  0.03789457  0.42142783  1
  Na  Na15  1  0.99450611  0.98824471  0.50240078  1
  Na  Na16  1  0.01146818  0.00493280  0.00264343  1
  Na  Na17  1  0.65253626  0.33197753  0.83755645  1
  Na  Na18  1  0.66601135  0.33532534  0.33657090  1
  Na  Na19  1  0.34718147  0.68177031  0.17101603  1
  Na  Na20  1  0.33910160  0.67206524  0.66984505  1
  Mg  Mg21  1  0.00064077  0.99899945  0.64749624  1
  Mg  Mg22  1  0.99845776  0.99717946  0.14810625  1
  Mg  Mg23  1  0.66191160  0.33442929  0.98036119  1
  Mg  Mg24  1  0.66458532  0.33661574  0.47955631  1
  Mg  Mg25  1  0.33846701  0.67243385  0.31375021  1
  Mg  Mg26  1  0.33487774  0.66855928  0.81457545  1
  Si  Si27  1  0.70891734  0.00494715  0.74786048  1
  Si  Si28  1  0.37429044  0.03648130  0.57919461  1
  Si  Si29  1  0.96264387  0.62462543  0.08028898  1
  Ge  Ge30  1  0.99393022  0.99479577  0.35083792  1
  Ge  Ge31  1  0.00216351  0.00733540  0.85105508  1
  Ge  Ge32  1  0.66329839  0.32282696  0.68408282  1
  Ge  Ge33  1  0.67208089  0.33215104  0.18436220  1
  Ge  Ge34  1  0.32773021  0.66322357  0.01760599  1
  Ge  Ge35  1  0.33976738  0.67363802  0.51719524  1
  P  P36  1  0.29889856  0.00830980  0.24870191  1
  P  P37  1  0.70945882  0.70505727  0.24758251  1
  P  P38  1  0.98828303  0.28471195  0.24905763  1
  P  P39  1  0.29376051  0.28748362  0.74831196  1
  P  P40  1  0.99163783  0.70483699  0.74952922  1
  P  P41  1  0.96201399  0.34056425  0.58058954  1
  P  P42  1  0.66057643  0.61673761  0.58270370  1
  P  P43  1  0.66052726  0.04053198  0.08085633  1
  P  P44  1  0.38074809  0.33979867  0.08350838  1
  P  P45  1  0.62613180  0.67032747  0.91475817  1
  P  P46  1  0.04726851  0.36867791  0.91500956  1
  P  P47  1  0.32507612  0.95871604  0.91465155  1
  P  P48  1  0.63089618  0.95280523  0.41515588  1
  P  P49  1  0.32893582  0.37396259  0.41369383  1
  P  P50  1  0.04243602  0.67314356  0.41367948  1
  O  O51  1  0.21212154  0.04528560  0.30814527  1
  O  O52  1  0.83848192  0.79465600  0.30464238  1
  O  O53  1  0.96484941  0.17337189  0.30985868  1
  O  O54  1  0.20882451  0.16055853  0.80569028  1
  O  O55  1  0.95885497  0.79115855  0.80908250  1
  O  O56  1  0.84016330  0.04656849  0.81072828  1
  O  O57  1  0.79320594  0.97330412  0.68818291  1
  O  O58  1  0.18875016  0.21058871  0.69012619  1
  O  O59  1  0.02765776  0.81661202  0.69258104  1
  O  O60  1  0.78874615  0.80394021  0.18883575  1
  O  O61  1  0.01663976  0.20258630  0.19250569  1
  O  O62  1  0.18986715  0.98362414  0.19178592  1
  O  O63  1  0.88134781  0.38032346  0.64063653  1
  O  O64  1  0.50378632  0.12443190  0.64234482  1
  O  O65  1  0.62494473  0.50192634  0.64421362  1
  O  O66  1  0.87446887  0.49247525  0.14320729  1
  O  O67  1  0.61696555  0.12403569  0.13862341  1
  O  O68  1  0.49692003  0.37666114  0.14440491  1
  O  O69  1  0.46002351  0.29922292  0.02940102  1
  O  O70  1  0.84675588  0.54025073  0.02079068  1
  O  O71  1  0.68861950  0.14559917  0.02273695  1
  O  O72  1  0.45783634  0.15232917  0.51973150  1
  O  O73  1  0.69529492  0.53440684  0.52851355  1
  O  O74  1  0.85328975  0.31403131  0.52384917  1
  O  O75  1  0.53867917  0.70556205  0.97437230  1
  O  O76  1  0.15850324  0.45521894  0.97582372  1
  O  O77  1  0.28960131  0.83610086  0.97408952  1
  O  O78  1  0.55251040  0.84389410  0.47755104  1
  O  O79  1  0.29442672  0.46121384  0.47375809  1
  O  O80  1  0.16619295  0.71090730  0.47296714  1
  O  O81  1  0.12498266  0.64712600  0.35649574  1
  O  O82  1  0.51066049  0.86646780  0.36224626  1
  O  O83  1  0.34006187  0.47305427  0.35604061  1
  O  O84  1  0.13033984  0.48017134  0.85877114  1
  O  O85  1  0.34912738  0.87392678  0.85769920  1
  O  O86  1  0.52651966  0.65686990  0.85692096  1
  O  O87  1  0.03634283  0.85034818  0.41026064  1
  O  O88  1  0.81880169  0.96981854  0.41044351  1
  O  O89  1  0.15373053  0.18535918  0.41298663  1
  O  O90  1  0.03292364  0.18243564  0.91315301  1
  O  O91  1  0.14846440  0.96460120  0.91147911  1
  O  O92  1  0.81376387  0.84500397  0.91423014  1
  O  O93  1  0.98576506  0.18111895  0.58776170  1
  O  O94  1  0.17950809  0.00583716  0.58744151  1
  O  O95  1  0.81534267  0.80267730  0.58887087  1
  O  O96  1  0.99407361  0.82022154  0.08776508  1
  O  O97  1  0.82075262  0.01908897  0.08977584  1
  O  O98  1  0.19319121  0.18858858  0.09117163  1
  O  O99  1  0.70086673  0.19345695  0.74535489  1
  O  O100  1  0.48052051  0.30407340  0.74579584  1
  O  O101  1  0.81685876  0.52312062  0.74547473  1
  O  O102  1  0.69873830  0.51793067  0.24656900  1
  O  O103  1  0.81728657  0.30064392  0.24674812  1
  O  O104  1  0.48183988  0.18358183  0.24524258  1
  O  O105  1  0.65288257  0.51321349  0.92014618  1
  O  O106  1  0.86162443  0.34211793  0.92054764  1
  O  O107  1  0.48726245  0.13740230  0.92220177  1
  O  O108  1  0.66075704  0.13987261  0.42098752  1
  O  O109  1  0.48561046  0.34646633  0.41863276  1
  O  O110  1  0.86313588  0.51254520  0.42196366  1
  O  O111  1  0.37547398  0.51677058  0.07768211  1
  O  O112  1  0.16132939  0.63647249  0.07732770  1
  O  O113  1  0.49065254  0.85293183  0.07761610  1
  O  O114  1  0.36403951  0.83920054  0.57649468  1
  O  O115  1  0.48478890  0.62481521  0.57790819  1
  O  O116  1  0.14864247  0.51128063  0.57718426  1
  O  O117  1  0.31578553  0.84557985  0.25578068  1
  O  O118  1  0.52451269  0.67386828  0.25565812  1
  O  O119  1  0.14776731  0.47040980  0.25465138  1
  O  O120  1  0.31511998  0.46932751  0.75674669  1
  O  O121  1  0.14629796  0.67322603  0.75696629  1
  O  O122  1  0.51369832  0.84017815  0.75457689  1
