# generated using pymatgen
data_Ba2Mg(NiO3)2
_symmetry_space_group_name_H-M   'P 1'
_cell_length_a   5.70330000
_cell_length_b   5.70329891
_cell_length_c   5.57419900
_cell_angle_alpha   90.00000000
_cell_angle_beta   90.00000000
_cell_angle_gamma   119.99999474
_symmetry_Int_Tables_number   1
_chemical_formula_structural   Ba2Mg(NiO3)2
_chemical_formula_sum   'Ba2 Mg1 Ni2 O6'
_cell_volume   157.02379655
_cell_formula_units_Z   1
loop_
 _symmetry_equiv_pos_site_id
 _symmetry_equiv_pos_as_xyz
  1  'x, y, z'
loop_
 _atom_site_type_symbol
 _atom_site_label
 _atom_site_symmetry_multiplicity
 _atom_site_fract_x
 _atom_site_fract_y
 _atom_site_fract_z
 _atom_site_occupancy
  Ba  Ba0  1  0.66666700  0.33333400  0.84253900  1
  Ba  Ba1  1  0.33333300  0.66666600  0.32288500  1
  Mg  Mg2  1  0.66666700  0.33333300  0.34595900  1
  Ni  Ni3  1  0.00000000  0.00000000  0.47017800  1
  Ni  Ni4  1  0.00000000  0.00000000  0.96314200  1
  O  O5  1  0.84532500  0.15467500  0.22768500  1
  O  O6  1  0.70279400  0.85139800  0.68500700  1
  O  O7  1  0.14860300  0.29720600  0.68500700  1
  O  O8  1  0.84532400  0.69064900  0.22768500  1
  O  O9  1  0.14860300  0.85139800  0.68500700  1
  O  O10  1  0.30934900  0.15467500  0.22768500  1
