# generated using pymatgen
data_NbInSi(SO6)2
_symmetry_space_group_name_H-M   'P 1'
_cell_length_a   8.93366367
_cell_length_b   8.96046589
_cell_length_c   23.12730381
_cell_angle_alpha   89.72560067
_cell_angle_beta   90.00000000
_cell_angle_gamma   119.90110229
_symmetry_Int_Tables_number   1
_chemical_formula_structural   NbInSi(SO6)2
_chemical_formula_sum   'Nb6 In6 Si6 S12 O72'
_cell_volume   1604.87472360
_cell_formula_units_Z   6
loop_
 _symmetry_equiv_pos_site_id
 _symmetry_equiv_pos_as_xyz
  1  'x, y, z'
loop_
 _atom_site_type_symbol
 _atom_site_label
 _atom_site_symmetry_multiplicity
 _atom_site_fract_x
 _atom_site_fract_y
 _atom_site_fract_z
 _atom_site_occupancy
  Nb  Nb0  1  0.00997710  0.01977700  0.64237518  1
  Nb  Nb1  1  0.00979990  0.01977700  0.14237518  1
  Nb  Nb2  1  0.64952567  0.32565449  0.97551198  1
  Nb  Nb3  1  0.67612982  0.32565449  0.47551198  1
  Nb  Nb4  1  0.33935265  0.67117865  0.30903278  1
  Nb  Nb5  1  0.33182500  0.67117865  0.80903278  1
  In  In6  1  0.99225690  0.00576539  0.35478169  1
  In  In7  1  0.01350849  0.00576539  0.85478169  1
  In  In8  1  0.66890455  0.33675671  0.68711306  1
  In  In9  1  0.66785316  0.33675671  0.18711306  1
  In  In10  1  0.32919706  0.66494951  0.02105712  1
  In  In11  1  0.33575145  0.66494951  0.52105712  1
  Si  Si12  1  0.99694185  0.29297567  0.25067791  1
  Si  Si13  1  0.29603383  0.29297567  0.75067791  1
  Si  Si14  1  0.95825988  0.34327218  0.58457000  1
  Si  Si15  1  0.38501330  0.34327218  0.08457000  1
  Si  Si16  1  0.32689462  0.94582690  0.91759973  1
  Si  Si17  1  0.61893128  0.94582690  0.41759973  1
  S  S18  1  0.28452616  0.99767588  0.25072158  1
  S  S19  1  0.71337579  0.71207801  0.25023176  1
  S  S20  1  0.99870222  0.71207801  0.75023176  1
  S  S21  1  0.71314972  0.99767588  0.75072158  1
  S  S22  1  0.37816781  0.04523025  0.58315058  1
  S  S23  1  0.67111379  0.62447987  0.58349787  1
  S  S24  1  0.95336708  0.62447987  0.08349787  1
  S  S25  1  0.66706345  0.04523025  0.08315058  1
  S  S26  1  0.62250894  0.66800117  0.91577035  1
  S  S27  1  0.04229679  0.37903664  0.91668551  1
  S  S28  1  0.33673885  0.37903664  0.41668551  1
  S  S29  1  0.04549124  0.66800117  0.41577035  1
  O  O30  1  0.20762543  0.02034333  0.30309112  1
  O  O31  1  0.81507967  0.78446175  0.30246490  1
  O  O32  1  0.97436886  0.17735065  0.30490885  1
  O  O33  1  0.20298179  0.17735065  0.80490885  1
  O  O34  1  0.96938209  0.78446175  0.80246490  1
  O  O35  1  0.81271790  0.02034333  0.80309112  1
  O  O36  1  0.79291082  0.96574292  0.69834563  1
  O  O37  1  0.16108043  0.19013288  0.69262265  1
  O  O38  1  0.03279720  0.82269673  0.69820980  1
  O  O39  1  0.78989952  0.82269673  0.19820980  1
  O  O40  1  0.02905245  0.19013288  0.19262265  1
  O  O41  1  0.17283210  0.96574292  0.19834563  1
  O  O42  1  0.86840501  0.35954015  0.64084501  1
  O  O43  1  0.47897163  0.11995711  0.63517385  1
  O  O44  1  0.63888880  0.51980516  0.63537776  1
  O  O45  1  0.88091736  0.51980516  0.13537776  1
  O  O46  1  0.64098649  0.11995711  0.13517385  1
  O  O47  1  0.49113615  0.35954015  0.14084501  1
  O  O48  1  0.47877802  0.30529477  0.02668533  1
  O  O49  1  0.84356903  0.54146711  0.03137401  1
  O  O50  1  0.70306866  0.15918814  0.03100337  1
  O  O51  1  0.45612048  0.15918814  0.53100337  1
  O  O52  1  0.69789908  0.54146711  0.53137401  1
  O  O53  1  0.82651774  0.30529477  0.52668533  1
  O  O54  1  0.54924287  0.69312218  0.96824956  1
  O  O55  1  0.14816109  0.44945454  0.96789720  1
  O  O56  1  0.31176274  0.84202642  0.97456831  1
  O  O57  1  0.53026268  0.84202642  0.47456831  1
  O  O58  1  0.30129245  0.44945454  0.46789720  1
  O  O59  1  0.14387832  0.69312218  0.46824956  1
  O  O60  1  0.12326941  0.63209891  0.36398767  1
  O  O61  1  0.49066169  0.85385537  0.36025474  1
  O  O62  1  0.36359701  0.49217093  0.36436302  1
  O  O63  1  0.12857292  0.49217093  0.86436302  1
  O  O64  1  0.36319268  0.85385537  0.86025474  1
  O  O65  1  0.50882850  0.63209891  0.86398767  1
  O  O66  1  0.02158597  0.81550218  0.40542966  1
  O  O67  1  0.80884640  0.97963105  0.41048665  1
  O  O68  1  0.19323078  0.20444473  0.40755174  1
  O  O69  1  0.01121395  0.20444473  0.90755174  1
  O  O70  1  0.17078465  0.97963105  0.91048665  1
  O  O71  1  0.79391621  0.81550218  0.90542966  1
  O  O72  1  0.96579642  0.15810435  0.59416723  1
  O  O73  1  0.19973697  0.02795197  0.59147879  1
  O  O74  1  0.83118942  0.79764973  0.59297757  1
  O  O75  1  0.96646032  0.79764973  0.09297757  1
  O  O76  1  0.82821500  0.02795197  0.09147879  1
  O  O77  1  0.19230793  0.15810435  0.09416723  1
  O  O78  1  0.68531368  0.14287187  0.74234674  1
  O  O79  1  0.48083569  0.31902274  0.73809796  1
  O  O80  1  0.85657252  0.53841483  0.74306173  1
  O  O81  1  0.68184332  0.53841483  0.24306173  1
  O  O82  1  0.83818805  0.31902274  0.23809796  1
  O  O83  1  0.45755919  0.14287187  0.24234674  1
  O  O84  1  0.64222056  0.50898174  0.92460400  1
  O  O85  1  0.87089240  0.36977246  0.92521579  1
  O  O86  1  0.51075564  0.14284910  0.92841974  1
  O  O87  1  0.63209445  0.14284910  0.42841974  1
  O  O88  1  0.49888106  0.36977246  0.42521579  1
  O  O89  1  0.86676218  0.50898174  0.42460400  1
  O  O90  1  0.34817951  0.49468054  0.07211768  1
  O  O91  1  0.12695496  0.64964372  0.07586164  1
  O  O92  1  0.52287469  0.87314652  0.07509794  1
  O  O93  1  0.35027082  0.87314652  0.57509794  1
  O  O94  1  0.52268776  0.64964372  0.57586164  1
  O  O95  1  0.14650003  0.49468054  0.57211768  1
  O  O96  1  0.29819073  0.83528258  0.25843345  1
  O  O97  1  0.53521059  0.69720977  0.25918020  1
  O  O98  1  0.17573684  0.48347276  0.26327160  1
  O  O99  1  0.30773492  0.48347276  0.76327160  1
  O  O100  1  0.16199818  0.69720977  0.75918020  1
  O  O101  1  0.53709085  0.83528258  0.75843345  1
