# generated using pymatgen
data_Ba(PN2)2
_symmetry_space_group_name_H-M   'P 1'
_cell_length_a   10.26982667
_cell_length_b   10.26982667
_cell_length_c   10.26982667
_cell_angle_alpha   90.00000000
_cell_angle_beta   90.00000000
_cell_angle_gamma   90.00000000
_symmetry_Int_Tables_number   1
_chemical_formula_structural   Ba(PN2)2
_chemical_formula_sum   'Ba12 P24 N48'
_cell_volume   1083.15183907
_cell_formula_units_Z   12
loop_
 _symmetry_equiv_pos_site_id
 _symmetry_equiv_pos_as_xyz
  1  'x, y, z'
loop_
 _atom_site_type_symbol
 _atom_site_label
 _atom_site_symmetry_multiplicity
 _atom_site_fract_x
 _atom_site_fract_y
 _atom_site_fract_z
 _atom_site_occupancy
  Ba  Ba0  1  0.36787136  0.13212864  0.86787136  1
  Ba  Ba1  1  0.13212864  0.86787136  0.36787136  1
  Ba  Ba2  1  0.86787136  0.36787136  0.13212864  1
  Ba  Ba3  1  0.63212864  0.63212864  0.63212864  1
  Ba  Ba4  1  0.63212864  0.86787136  0.13212864  1
  Ba  Ba5  1  0.86787136  0.13212864  0.63212864  1
  Ba  Ba6  1  0.13212864  0.63212864  0.86787136  1
  Ba  Ba7  1  0.36787136  0.36787136  0.36787136  1
  Ba  Ba8  1  -0.00000000  0.50000000  0.50000000  1
  Ba  Ba9  1  0.50000000  0.50000000  0.00000000  1
  Ba  Ba10  1  0.50000000  -0.00000000  0.50000000  1
  Ba  Ba11  1  -0.00000000  -0.00000000  0.00000000  1
  P  P12  1  0.68464908  0.33356907  0.39235890  1
  P  P13  1  0.18464908  0.16643093  0.60764110  1
  P  P14  1  0.31535092  0.83356907  0.10764110  1
  P  P15  1  0.16643093  0.60764110  0.18464908  1
  P  P16  1  0.10764110  0.31535092  0.83356907  1
  P  P17  1  0.60764110  0.18464908  0.16643093  1
  P  P18  1  0.33356907  0.39235890  0.68464908  1
  P  P19  1  0.39235890  0.68464908  0.33356907  1
  P  P20  1  0.83356907  0.10764110  0.31535092  1
  P  P21  1  0.66643093  0.89235890  0.81535092  1
  P  P22  1  0.89235890  0.81535092  0.66643093  1
  P  P23  1  0.81535092  0.66643093  0.89235890  1
  P  P24  1  0.31535092  0.66643093  0.60764110  1
  P  P25  1  0.81535092  0.83356907  0.39235890  1
  P  P26  1  0.68464908  0.16643093  0.89235890  1
  P  P27  1  0.83356907  0.39235890  0.81535092  1
  P  P28  1  0.89235890  0.68464908  0.16643093  1
  P  P29  1  0.39235890  0.81535092  0.83356907  1
  P  P30  1  0.66643093  0.60764110  0.31535092  1
  P  P31  1  0.60764110  0.31535092  0.66643093  1
  P  P32  1  0.16643093  0.89235890  0.68464908  1
  P  P33  1  0.33356907  0.10764110  0.18464908  1
  P  P34  1  0.10764110  0.18464908  0.33356907  1
  P  P35  1  0.18464908  0.33356907  0.10764110  1
  N  N36  1  0.71924643  0.48867531  0.40780322  1
  N  N37  1  0.21924643  0.01132469  0.59219678  1
  N  N38  1  0.28075357  0.98867531  0.09219678  1
  N  N39  1  0.01132469  0.59219678  0.21924643  1
  N  N40  1  0.09219678  0.28075357  0.98867531  1
  N  N41  1  0.59219678  0.21924643  0.01132469  1
  N  N42  1  0.48867531  0.40780322  0.71924643  1
  N  N43  1  0.40780322  0.71924643  0.48867531  1
  N  N44  1  0.98867531  0.09219678  0.28075357  1
  N  N45  1  0.51132469  0.90780322  0.78075357  1
  N  N46  1  0.90780322  0.78075357  0.51132469  1
  N  N47  1  0.78075357  0.51132469  0.90780322  1
  N  N48  1  0.28075357  0.51132469  0.59219678  1
  N  N49  1  0.78075357  0.98867531  0.40780322  1
  N  N50  1  0.71924643  0.01132469  0.90780322  1
  N  N51  1  0.98867531  0.40780322  0.78075357  1
  N  N52  1  0.90780322  0.71924643  0.01132469  1
  N  N53  1  0.40780322  0.78075357  0.98867531  1
  N  N54  1  0.51132469  0.59219678  0.28075357  1
  N  N55  1  0.59219678  0.28075357  0.51132469  1
  N  N56  1  0.18086618  0.75083629  0.61110842  1
  N  N57  1  0.01132469  0.90780322  0.71924643  1
  N  N58  1  0.09219678  0.21924643  0.48867531  1
  N  N59  1  0.21924643  0.48867531  0.09219678  1
  N  N60  1  0.81913382  0.24916371  0.38889158  1
  N  N61  1  0.31913382  0.25083629  0.61110842  1
  N  N62  1  0.18086618  0.74916371  0.11110842  1
  N  N63  1  0.25083629  0.61110842  0.31913382  1
  N  N64  1  0.11110842  0.18086618  0.74916371  1
  N  N65  1  0.61110842  0.31913382  0.25083629  1
  N  N66  1  0.24916371  0.38889158  0.81913382  1
  N  N67  1  0.38889158  0.81913382  0.24916371  1
  N  N68  1  0.74916371  0.11110842  0.18086618  1
  N  N69  1  0.75083629  0.88889158  0.68086618  1
  N  N70  1  0.88889158  0.68086618  0.75083629  1
  N  N71  1  0.68086618  0.75083629  0.88889158  1
  N  N72  1  0.31913382  0.24916371  0.11110842  1
  N  N73  1  0.11110842  0.31913382  0.24916371  1
  N  N74  1  0.24916371  0.11110842  0.31913382  1
  N  N75  1  0.25083629  0.88889158  0.81913382  1
  N  N76  1  0.61110842  0.18086618  0.75083629  1
  N  N77  1  0.75083629  0.61110842  0.18086618  1
  N  N78  1  0.38889158  0.68086618  0.74916371  1
  N  N79  1  0.88889158  0.81913382  0.25083629  1
  N  N80  1  0.74916371  0.38889158  0.68086618  1
  N  N81  1  0.81913382  0.25083629  0.88889158  1
  N  N82  1  0.68086618  0.74916371  0.38889158  1
  N  N83  1  0.48867531  0.09219678  0.21924643  1
