# generated using pymatgen
data_Na4Mg3GeP2(SO6)4
_symmetry_space_group_name_H-M   'P 1'
_cell_length_a   8.74152609
_cell_length_b   8.70992113
_cell_length_c   22.16238821
_cell_angle_alpha   90.56059010
_cell_angle_beta   89.97280857
_cell_angle_gamma   119.96698827
_symmetry_Int_Tables_number   1
_chemical_formula_structural   Na4Mg3GeP2(SO6)4
_chemical_formula_sum   'Na12 Mg9 Ge3 P6 S12 O72'
_cell_volume   1461.72818011
_cell_formula_units_Z   3
loop_
 _symmetry_equiv_pos_site_id
 _symmetry_equiv_pos_as_xyz
  1  'x, y, z'
loop_
 _atom_site_type_symbol
 _atom_site_label
 _atom_site_symmetry_multiplicity
 _atom_site_fract_x
 _atom_site_fract_y
 _atom_site_fract_z
 _atom_site_occupancy
  Na  Na0  1  0.63487132  0.99839183  0.25423128  1
  Na  Na1  1  0.36303685  0.36271696  0.25079516  1
  Na  Na2  1  0.30603917  0.33851837  0.59020700  1
  Na  Na3  1  0.66654129  0.95816930  0.58275574  1
  Na  Na4  1  0.97506359  0.67552852  0.91370907  1
  Na  Na5  1  0.32632352  0.29853594  0.91127549  1
  Na  Na6  1  0.98834857  0.98289875  0.49695561  1
  Na  Na7  1  0.99036589  0.00155737  0.99734711  1
  Na  Na8  1  0.66062212  0.32408590  0.82680888  1
  Na  Na9  1  0.67664696  0.33758802  0.33736977  1
  Na  Na10  1  0.32236025  0.66588148  0.16217090  1
  Na  Na11  1  0.32936596  0.66261573  0.67123572  1
  Mg  Mg12  1  0.99407118  0.99748086  0.35534034  1
  Mg  Mg13  1  0.99862526  0.00427120  0.84973876  1
  Mg  Mg14  1  0.99987632  0.99286656  0.65423983  1
  Mg  Mg15  1  0.99959057  0.99757653  0.14523143  1
  Mg  Mg16  1  0.66147672  0.34004304  0.68914244  1
  Mg  Mg17  1  0.67327780  0.33912776  0.18253948  1
  Mg  Mg18  1  0.33533735  0.66787552  0.01738297  1
  Mg  Mg19  1  0.33812311  0.67115978  0.51503849  1
  Mg  Mg20  1  0.33226107  0.67556718  0.32258120  1
  Ge  Ge21  1  0.66774575  0.32812381  0.97772001  1
  Ge  Ge22  1  0.67185293  0.33755016  0.48155436  1
  Ge  Ge23  1  0.33270687  0.65818024  0.81819806  1
  P  P24  1  0.29543437  0.30034420  0.75230424  1
  P  P25  1  0.66943151  0.62158433  0.58212476  1
  P  P26  1  0.62495195  0.66877226  0.91947335  1
  P  P27  1  0.04089993  0.37512294  0.91894240  1
  P  P28  1  0.33767224  0.95403808  0.91780145  1
  P  P29  1  0.63274666  0.97204889  0.41932315  1
  S  S30  1  0.28892603  0.99651462  0.24951238  1
  S  S31  1  0.70882113  0.70646346  0.24977059  1
  S  S32  1  0.00171266  0.29482272  0.24989434  1
  S  S33  1  0.00697718  0.70483914  0.75263361  1
  S  S34  1  0.69918080  0.99533866  0.75071066  1
  S  S35  1  0.95656263  0.33705571  0.58339240  1
  S  S36  1  0.37674691  0.04330663  0.58281417  1
  S  S37  1  0.95741983  0.62291498  0.08216496  1
  S  S38  1  0.66590015  0.04303265  0.08322586  1
  S  S39  1  0.37611236  0.33367863  0.08314430  1
  S  S40  1  0.33669574  0.37012198  0.41743184  1
  S  S41  1  0.03569432  0.66305016  0.41852057  1
  O  O42  1  0.21010771  0.02924758  0.30331930  1
  O  O43  1  0.81460273  0.78791708  0.30413188  1
  O  O44  1  0.97113093  0.18274596  0.30312629  1
  O  O45  1  0.20836764  0.19252961  0.80859259  1
  O  O46  1  0.98067847  0.78423783  0.80786346  1
  O  O47  1  0.80776480  0.01804475  0.80366767  1
  O  O48  1  0.77126205  0.96327245  0.69387401  1
  O  O49  1  0.18716955  0.22542156  0.69307090  1
  O  O50  1  0.03485316  0.81241312  0.69857590  1
  O  O51  1  0.78705875  0.81698300  0.19589709  1
  O  O52  1  0.03216096  0.21369717  0.19536917  1
  O  O53  1  0.18498063  0.97407918  0.19466342  1
  O  O54  1  0.87279553  0.35973719  0.63640633  1
  O  O55  1  0.49176378  0.12362958  0.63527820  1
  O  O56  1  0.63338522  0.50009420  0.63483055  1
  O  O57  1  0.87157854  0.51403967  0.13502807  1
  O  O58  1  0.64351601  0.12509685  0.13877596  1
  O  O59  1  0.48188427  0.35616070  0.13806937  1
  O  O60  1  0.46093479  0.30396636  0.02669926  1
  O  O61  1  0.84460476  0.54001620  0.02467180  1
  O  O62  1  0.69697454  0.16050961  0.02818838  1
  O  O63  1  0.45740176  0.16019466  0.52708832  1
  O  O64  1  0.70025232  0.53385522  0.52226403  1
  O  O65  1  0.83937233  0.29687975  0.52687889  1
  O  O66  1  0.54389822  0.69469034  0.97528048  1
  O  O67  1  0.15515065  0.45764204  0.97395816  1
  O  O68  1  0.30250102  0.84235088  0.97303342  1
  O  O69  1  0.54558540  0.86279716  0.47536316  1
  O  O70  1  0.31119857  0.45210965  0.47185978  1
  O  O71  1  0.13989024  0.68438834  0.47262679  1
  O  O72  1  0.10879819  0.62864397  0.36347849  1
  O  O73  1  0.52370494  0.89896571  0.36036061  1
  O  O74  1  0.36464851  0.47621658  0.36219562  1
  O  O75  1  0.11876539  0.50183197  0.86221059  1
  O  O76  1  0.37372882  0.87125453  0.85966546  1
  O  O77  1  0.49940285  0.61937642  0.86207904  1
  O  O78  1  0.01436995  0.81932572  0.41211815  1
  O  O79  1  0.81824916  0.99719298  0.41299244  1
  O  O80  1  0.18375883  0.19093630  0.41086576  1
  O  O81  1  0.01614690  0.19122873  0.90950693  1
  O  O82  1  0.17995210  0.98424475  0.90907050  1
  O  O83  1  0.81244182  0.81970047  0.90920923  1
  O  O84  1  0.97526546  0.17540003  0.58606956  1
  O  O85  1  0.20218746  0.03126362  0.58783258  1
  O  O86  1  0.83197676  0.80943897  0.58605280  1
  O  O87  1  0.97149261  0.79893942  0.08614290  1
  O  O88  1  0.82666996  0.02778406  0.08655311  1
  O  O89  1  0.20035787  0.17242026  0.08631350  1
  O  O90  1  0.67949135  0.15305085  0.74442720  1
  O  O91  1  0.48102287  0.32505416  0.74720662  1
  O  O92  1  0.85408556  0.52507504  0.74582718  1
  O  O93  1  0.68212173  0.52386865  0.24348615  1
  O  O94  1  0.84015180  0.31092941  0.24346829  1
  O  O95  1  0.47201483  0.15909483  0.24445311  1
  O  O96  1  0.63975672  0.48907645  0.92438126  1
  O  O97  1  0.85213919  0.36406971  0.92456640  1
  O  O98  1  0.50792658  0.14941765  0.92403964  1
  O  O99  1  0.64651492  0.16438024  0.42662585  1
  O  O100  1  0.50424356  0.35735251  0.42285586  1
  O  O101  1  0.85182581  0.49641640  0.42330538  1
  O  O102  1  0.36123801  0.49389029  0.07799730  1
  O  O103  1  0.13225521  0.63905044  0.07670774  1
  O  O104  1  0.50633097  0.86874701  0.07698028  1
  O  O105  1  0.35662014  0.86551597  0.57460613  1
  O  O106  1  0.50095972  0.63960238  0.57470038  1
  O  O107  1  0.13409230  0.49331044  0.57500962  1
  O  O108  1  0.31431745  0.84003813  0.25467834  1
  O  O109  1  0.52623068  0.68509752  0.25536410  1
  O  O110  1  0.16283243  0.47293390  0.25705929  1
  O  O111  1  0.30939654  0.49312084  0.75915880  1
  O  O112  1  0.17564674  0.69363089  0.75820026  1
  O  O113  1  0.51702519  0.82970321  0.75697081  1
