# generated using pymatgen
data_Na10Nb6Al2Si11SO48
_symmetry_space_group_name_H-M   'P 1'
_cell_length_a   17.92029017
_cell_length_b   9.00882017
_cell_length_c   22.28774915
_cell_angle_alpha   90.14171781
_cell_angle_beta   89.65982751
_cell_angle_gamma   120.18067475
_symmetry_Int_Tables_number   1
_chemical_formula_structural   Na10Nb6Al2Si11SO48
_chemical_formula_sum   'Na30 Nb18 Al6 Si33 S3 O144'
_cell_volume   3110.34461218
_cell_formula_units_Z   3
loop_
 _symmetry_equiv_pos_site_id
 _symmetry_equiv_pos_as_xyz
  1  'x, y, z'
loop_
 _atom_site_type_symbol
 _atom_site_label
 _atom_site_symmetry_multiplicity
 _atom_site_fract_x
 _atom_site_fract_y
 _atom_site_fract_z
 _atom_site_occupancy
  Na  Na0  1  0.31489010  0.99359689  0.25330553  1
  Na  Na1  1  0.81686236  0.99553312  0.25377350  1
  Na  Na2  1  0.82215657  0.64511397  0.74668955  1
  Na  Na3  1  0.18271199  0.98939552  0.75089410  1
  Na  Na4  1  0.68193659  0.00237297  0.74786512  1
  Na  Na5  1  0.01769165  0.70543320  0.58670313  1
  Na  Na6  1  0.83688634  0.96162320  0.58641288  1
  Na  Na7  1  0.64782426  0.97038526  0.08901169  1
  Na  Na8  1  0.33449594  0.70637544  0.08844238  1
  Na  Na9  1  0.83679428  0.70769317  0.09064504  1
  Na  Na10  1  0.01870680  0.32804117  0.08884316  1
  Na  Na11  1  0.51433849  0.32490491  0.08969128  1
  Na  Na12  1  0.98910594  0.66495504  0.91242945  1
  Na  Na13  1  0.34637443  0.02918307  0.91389783  1
  Na  Na14  1  0.48579286  0.31177785  0.41438188  1
  Na  Na15  1  0.98797759  0.31359610  0.41371437  1
  Na  Na16  1  0.34575990  0.66318143  0.41543719  1
  Na  Na17  1  0.84642221  0.66441489  0.41507454  1
  Na  Na18  1  0.01541890  0.01712088  0.50717616  1
  Na  Na19  1  0.50812490  0.99987514  0.50417859  1
  Na  Na20  1  0.01107878  0.01494244  0.00647269  1
  Na  Na21  1  0.50266370  0.99735289  0.00151951  1
  Na  Na22  1  0.33825588  0.35701919  0.83417592  1
  Na  Na23  1  0.83749971  0.32340311  0.83409680  1
  Na  Na24  1  0.33027738  0.34025013  0.33308105  1
  Na  Na25  1  0.83065591  0.34002691  0.33341645  1
  Na  Na26  1  0.16078104  0.65665424  0.17556340  1
  Na  Na27  1  0.66172410  0.64547912  0.17849294  1
  Na  Na28  1  0.17254448  0.65966781  0.67315292  1
  Na  Na29  1  0.65482391  0.64411364  0.66319777  1
  Nb  Nb30  1  0.99597371  0.99566364  0.35525893  1
  Nb  Nb31  1  0.49522825  0.99550073  0.35446762  1
  Nb  Nb32  1  0.99522131  0.00018430  0.85742046  1
  Nb  Nb33  1  0.49852589  0.99440747  0.85652460  1
  Nb  Nb34  1  0.49564665  0.99889700  0.64409272  1
  Nb  Nb35  1  0.33710755  0.33204647  0.68744001  1
  Nb  Nb36  1  0.83825630  0.33953157  0.68887879  1
  Nb  Nb37  1  0.33816858  0.34309243  0.18942664  1
  Nb  Nb38  1  0.84016317  0.34873147  0.18963388  1
  Nb  Nb39  1  0.33011563  0.34042396  0.97828264  1
  Nb  Nb40  1  0.83376777  0.32944829  0.97821406  1
  Nb  Nb41  1  0.32935128  0.32613844  0.47808978  1
  Nb  Nb42  1  0.83372689  0.32830259  0.47852362  1
  Nb  Nb43  1  0.16665185  0.66874068  0.02174038  1
  Nb  Nb44  1  0.66666832  0.66615882  0.02170741  1
  Nb  Nb45  1  0.16855040  0.66810257  0.52314648  1
  Nb  Nb46  1  0.66271067  0.66332033  0.52093069  1
  Nb  Nb47  1  0.66435877  0.66477738  0.81038315  1
  Al  Al48  1  0.99804170  0.98807832  0.64357136  1
  Al  Al49  1  0.99660102  0.00486725  0.14526032  1
  Al  Al50  1  0.49232918  0.00663500  0.14487898  1
  Al  Al51  1  0.16724204  0.64519388  0.31388504  1
  Al  Al52  1  0.66771349  0.64501613  0.31456049  1
  Al  Al53  1  0.16768661  0.68062747  0.81484814  1
  Si  Si54  1  0.35089956  0.71228367  0.24645035  1
  Si  Si55  1  0.85171337  0.71475519  0.24688764  1
  Si  Si56  1  0.00770077  0.29719761  0.24686779  1
  Si  Si57  1  0.50685260  0.29799396  0.24702420  1
  Si  Si58  1  0.64286207  0.28907482  0.74929705  1
  Si  Si59  1  0.00625245  0.71733843  0.74818592  1
  Si  Si60  1  0.49602093  0.70753275  0.74939995  1
  Si  Si61  1  0.34868284  0.98759424  0.75307377  1
  Si  Si62  1  0.85991451  0.00295754  0.74513415  1
  Si  Si63  1  0.47873508  0.33114040  0.58072106  1
  Si  Si64  1  0.98219165  0.32416281  0.58381660  1
  Si  Si65  1  0.18375055  0.04332766  0.58687967  1
  Si  Si66  1  0.68681721  0.04363380  0.58520218  1
  Si  Si67  1  0.33273413  0.61913712  0.58317161  1
  Si  Si68  1  0.83366211  0.62542565  0.58376525  1
  Si  Si69  1  0.47903852  0.63404306  0.08488485  1
  Si  Si70  1  0.98140535  0.63844801  0.08319985  1
  Si  Si71  1  0.33338931  0.04514692  0.08414516  1
  Si  Si72  1  0.83468132  0.04429723  0.08700390  1
  Si  Si73  1  0.18343398  0.32052229  0.08656100  1
  Si  Si74  1  0.68560693  0.32594163  0.08572676  1
  Si  Si75  1  0.30393760  0.66030564  0.91172385  1
  Si  Si76  1  0.81033591  0.66218375  0.91585511  1
  Si  Si77  1  0.02940946  0.38958331  0.91337111  1
  Si  Si78  1  0.52036054  0.37447390  0.91771809  1
  Si  Si79  1  0.16760662  0.95629413  0.91331855  1
  Si  Si80  1  0.66646321  0.95736877  0.91656897  1
  Si  Si81  1  0.30214086  0.94839535  0.40958371  1
  Si  Si82  1  0.80272276  0.94812516  0.41112025  1
  Si  Si83  1  0.16699701  0.38160878  0.41402402  1
  Si  Si84  1  0.66801955  0.37980442  0.41402964  1
  Si  Si85  1  0.02993968  0.67058017  0.41354588  1
  Si  Si86  1  0.52734643  0.66843991  0.41108091  1
  S  S87  1  0.14052357  0.99695797  0.24732077  1
  S  S88  1  0.64231913  0.99818188  0.24709690  1
  S  S89  1  0.13980428  0.28552352  0.74797643  1
  O  O90  1  0.10020707  0.01829430  0.30328273  1
  O  O91  1  0.59911924  0.01691029  0.30152986  1
  O  O92  1  0.41182016  0.80266803  0.30755059  1
  O  O93  1  0.91210856  0.80265752  0.30793936  1
  O  O94  1  0.49007065  0.16839914  0.30593315  1
  O  O95  1  0.98941581  0.16828149  0.30634855  1
  O  O96  1  0.10017503  0.17822193  0.80337943  1
  O  O97  1  0.59656716  0.16471798  0.80756931  1
  O  O98  1  0.48640155  0.80331552  0.80916368  1
  O  O99  1  0.98793967  0.80927490  0.80784423  1
  O  O100  1  0.41120350  0.02469268  0.81194368  1
  O  O101  1  0.91656982  0.02519533  0.80613483  1
  O  O102  1  0.40164689  0.97419095  0.69420996  1
  O  O103  1  0.90365980  0.96703756  0.68815045  1
  O  O104  1  0.08941209  0.20100780  0.69493382  1
  O  O105  1  0.58427942  0.19545933  0.69079076  1
  O  O106  1  0.01743692  0.83439160  0.68974769  1
  O  O107  1  0.51484950  0.83421535  0.69241209  1
  O  O108  1  0.40176073  0.83433104  0.18914443  1
  O  O109  1  0.90127919  0.83541759  0.18941134  1
  O  O110  1  0.01220023  0.19851815  0.18742582  1
  O  O111  1  0.51299278  0.20163213  0.18699765  1
  O  O112  1  0.08937063  0.98640418  0.19413042  1
  O  O113  1  0.59428184  0.98800744  0.19210045  1
  O  O114  1  0.42963333  0.35288219  0.64042277  1
  O  O115  1  0.93025561  0.35963834  0.63958560  1
  O  O116  1  0.24383926  0.13252513  0.64633734  1
  O  O117  1  0.74666554  0.13395044  0.64487462  1
  O  O118  1  0.32174803  0.49613332  0.64077718  1
  O  O119  1  0.82003459  0.50589036  0.64358422  1
  O  O120  1  0.43543200  0.50037256  0.14231867  1
  O  O121  1  0.93278149  0.49956428  0.14015932  1
  O  O122  1  0.32008381  0.13604280  0.14418966  1
  O  O123  1  0.81285595  0.12873462  0.14500009  1
  O  O124  1  0.25235842  0.36118367  0.14144394  1
  O  O125  1  0.75255645  0.36580977  0.14161019  1
  O  O126  1  0.23278468  0.30049775  0.02668596  1
  O  O127  1  0.73449021  0.29857210  0.02712316  1
  O  O128  1  0.41511554  0.53822113  0.02780575  1
  O  O129  1  0.91914069  0.54366830  0.02439061  1
  O  O130  1  0.34948230  0.16985796  0.02574238  1
  O  O131  1  0.84938240  0.17277884  0.02947033  1
  O  O132  1  0.23696384  0.16661243  0.52829147  1
  O  O133  1  0.73993042  0.16567155  0.52713802  1
  O  O134  1  0.34450466  0.52973936  0.52202613  1
  O  O135  1  0.84855468  0.52897301  0.52536626  1
  O  O136  1  0.42304833  0.31258429  0.52043752  1
  O  O137  1  0.92158846  0.29771333  0.52368817  1
  O  O138  1  0.26495884  0.69424503  0.97530627  1
  O  O139  1  0.76480603  0.68652191  0.97630309  1
  O  O140  1  0.08113236  0.46574429  0.97745608  1
  O  O141  1  0.57848533  0.46941750  0.97784424  1
  O  O142  1  0.14964418  0.82711535  0.97174750  1
  O  O143  1  0.65669428  0.83969003  0.97622989  1
  O  O144  1  0.26191837  0.82740111  0.46989438  1
  O  O145  1  0.76541157  0.83230302  0.47272409  1
  O  O146  1  0.14786446  0.46698568  0.47386855  1
  O  O147  1  0.64886681  0.46714971  0.47367208  1
  O  O148  1  0.08038483  0.69586151  0.47781796  1
  O  O149  1  0.58294295  0.69606141  0.47387393  1
  O  O150  1  0.07526888  0.62999491  0.35897802  1
  O  O151  1  0.57427397  0.62937219  0.35728081  1
  O  O152  1  0.24943207  0.86136130  0.34982431  1
  O  O153  1  0.74892188  0.85881278  0.35181276  1
  O  O154  1  0.19171642  0.50685365  0.35748781  1
  O  O155  1  0.69212814  0.50550092  0.35760184  1
  O  O156  1  0.07237090  0.52060673  0.85855384  1
  O  O157  1  0.57271390  0.49832606  0.86012377  1
  O  O158  1  0.18705346  0.87911445  0.85413526  1
  O  O159  1  0.67818586  0.86643997  0.85595302  1
  O  O160  1  0.24520695  0.64093006  0.85574442  1
  O  O161  1  0.75501554  0.64614677  0.85593118  1
  O  O162  1  0.01205822  0.83394796  0.40820488  1
  O  O163  1  0.51244192  0.83513430  0.40758813  1
  O  O164  1  0.40216511  0.97124270  0.40824299  1
  O  O165  1  0.90246690  0.97109797  0.40858584  1
  O  O166  1  0.07985074  0.19061823  0.40926706  1
  O  O167  1  0.58022758  0.19052085  0.40883073  1
  O  O168  1  0.01709714  0.19674096  0.90755399  1
  O  O169  1  0.50913703  0.18382360  0.91431069  1
  O  O170  1  0.08063882  0.97217205  0.90975805  1
  O  O171  1  0.57989499  0.97249090  0.91462909  1
  O  O172  1  0.40060381  0.83650166  0.91077057  1
  O  O173  1  0.90695572  0.83561595  0.91330679  1
  O  O174  1  0.48548051  0.15892322  0.58578747  1
  O  O175  1  0.98626061  0.15213318  0.59239678  1
  O  O176  1  0.08903523  0.02006203  0.59111363  1
  O  O177  1  0.59262844  0.02475241  0.58734899  1
  O  O178  1  0.41825258  0.80855490  0.58878780  1
  O  O179  1  0.92112725  0.81135239  0.58813839  1
  O  O180  1  0.49018637  0.82182470  0.09342350  1
  O  O181  1  0.98645575  0.81913568  0.09355017  1
  O  O182  1  0.41936292  0.02567336  0.08805075  1
  O  O183  1  0.91914211  0.02471818  0.08942685  1
  O  O184  1  0.08822630  0.15714679  0.09256358  1
  O  O185  1  0.59128704  0.15647234  0.09209210  1
  O  O186  1  0.33722560  0.16045171  0.74686874  1
  O  O187  1  0.84424425  0.16780140  0.74485356  1
  O  O188  1  0.22735984  0.29786007  0.74636089  1
  O  O189  1  0.73931647  0.30820315  0.74682682  1
  O  O190  1  0.41087726  0.51635609  0.74699868  1
  O  O191  1  0.91436939  0.52790230  0.74554868  1
  O  O192  1  0.34301519  0.51994378  0.24452236  1
  O  O193  1  0.84343433  0.52131499  0.24478654  1
  O  O194  1  0.41216548  0.29799064  0.24679780  1
  O  O195  1  0.91273039  0.29899268  0.24500738  1
  O  O196  1  0.22968221  0.15593530  0.24634503  1
  O  O197  1  0.73126646  0.15738433  0.24757053  1
  O  O198  1  0.31808598  0.49485031  0.92081618  1
  O  O199  1  0.82518242  0.49843785  0.91973522  1
  O  O200  1  0.42519732  0.35488350  0.92069015  1
  O  O201  1  0.93185729  0.36671758  0.92337197  1
  O  O202  1  0.25374569  0.14389512  0.92394825  1
  O  O203  1  0.75429234  0.14558930  0.92185412  1
  O  O204  1  0.32261883  0.14700966  0.41802331  1
  O  O205  1  0.82402779  0.14798687  0.41839457  1
  O  O206  1  0.25221216  0.35933734  0.42214140  1
  O  O207  1  0.75422957  0.36201553  0.42384930  1
  O  O208  1  0.42849363  0.49956758  0.41939738  1
  O  O209  1  0.93037925  0.49889393  0.42125641  1
  O  O210  1  0.17908151  0.49922034  0.07964346  1
  O  O211  1  0.67803508  0.50076295  0.07981377  1
  O  O212  1  0.07185377  0.63669827  0.08011208  1
  O  O213  1  0.57355996  0.64616020  0.07984429  1
  O  O214  1  0.24946506  0.85069706  0.07899727  1
  O  O215  1  0.74763224  0.85310520  0.07969254  1
  O  O216  1  0.17604418  0.85438742  0.57871727  1
  O  O217  1  0.68507025  0.86069758  0.57859967  1
  O  O218  1  0.24730882  0.63893118  0.57888001  1
  O  O219  1  0.74969234  0.64973068  0.57884100  1
  O  O220  1  0.07211458  0.50719779  0.58047955  1
  O  O221  1  0.57277577  0.50568177  0.57998503  1
  O  O222  1  0.15148004  0.84740992  0.25030937  1
  O  O223  1  0.65326957  0.84761220  0.25048550  1
  O  O224  1  0.25807503  0.70160163  0.25353796  1
  O  O225  1  0.75842498  0.70242445  0.25417377  1
  O  O226  1  0.08859563  0.48686509  0.25645739  1
  O  O227  1  0.58886746  0.48647086  0.25681423  1
  O  O228  1  0.15078682  0.45860697  0.75449156  1
  O  O229  1  0.65818019  0.48436386  0.75314119  1
  O  O230  1  0.08972214  0.69522827  0.75664455  1
  O  O231  1  0.58488593  0.69497032  0.75415417  1
  O  O232  1  0.25401107  0.81837197  0.75581393  1
  O  O233  1  0.76200552  0.83089330  0.75266475  1
