# generated using pymatgen
data_Na10Ta4Si11Ge4SO48
_symmetry_space_group_name_H-M   'P 1'
_cell_length_a   17.68592126
_cell_length_b   8.83508548
_cell_length_c   22.15922203
_cell_angle_alpha   90.23872640
_cell_angle_beta   90.20641590
_cell_angle_gamma   120.00432797
_symmetry_Int_Tables_number   1
_chemical_formula_structural   Na10Ta4Si11Ge4SO48
_chemical_formula_sum   'Na30 Ta12 Si33 Ge12 S3 O144'
_cell_volume   2998.41339742
_cell_formula_units_Z   3
loop_
 _symmetry_equiv_pos_site_id
 _symmetry_equiv_pos_as_xyz
  1  'x, y, z'
loop_
 _atom_site_type_symbol
 _atom_site_label
 _atom_site_symmetry_multiplicity
 _atom_site_fract_x
 _atom_site_fract_y
 _atom_site_fract_z
 _atom_site_occupancy
  Na  Na0  1  0.31710285  0.99995726  0.24969117  1
  Na  Na1  1  0.81706768  0.99984969  0.25023719  1
  Na  Na2  1  0.82158707  0.63968789  0.74960770  1
  Na  Na3  1  0.49576574  0.35729411  0.74810541  1
  Na  Na4  1  0.01657903  0.70214974  0.58531517  1
  Na  Na5  1  0.33169034  0.96932516  0.58512694  1
  Na  Na6  1  0.83469152  0.96667391  0.58435913  1
  Na  Na7  1  0.33286041  0.69852526  0.08658669  1
  Na  Na8  1  0.83360476  0.69932040  0.08756899  1
  Na  Na9  1  0.01692058  0.33197563  0.08667100  1
  Na  Na10  1  0.51479846  0.33009056  0.08678192  1
  Na  Na11  1  0.98588011  0.66620468  0.91339177  1
  Na  Na12  1  0.34682674  0.03087107  0.91589789  1
  Na  Na13  1  0.85322554  0.03442064  0.91490646  1
  Na  Na14  1  0.48347272  0.30144350  0.41316495  1
  Na  Na15  1  0.98389745  0.30134855  0.41250202  1
  Na  Na16  1  0.35078914  0.66848943  0.41323179  1
  Na  Na17  1  0.85034618  0.66918767  0.41293095  1
  Na  Na18  1  0.00829228  0.00823596  0.49926676  1
  Na  Na19  1  0.50768088  0.00088393  0.49829388  1
  Na  Na20  1  0.00944700  0.00934859  0.00065055  1
  Na  Na21  1  0.50600083  0.99759302  0.00177554  1
  Na  Na22  1  0.32779116  0.33842375  0.83047371  1
  Na  Na23  1  0.83249756  0.32713628  0.83255126  1
  Na  Na24  1  0.33247187  0.33900511  0.32808957  1
  Na  Na25  1  0.83217982  0.33872811  0.32776719  1
  Na  Na26  1  0.16333340  0.66168354  0.17151463  1
  Na  Na27  1  0.66263803  0.66119369  0.17250784  1
  Na  Na28  1  0.16708069  0.66058211  0.67289628  1
  Na  Na29  1  0.66283977  0.66811439  0.66453427  1
  Ta  Ta30  1  0.49785825  0.99510010  0.85385553  1
  Ta  Ta31  1  0.49817681  0.99661279  0.64511101  1
  Ta  Ta32  1  0.83765944  0.33377656  0.69047018  1
  Ta  Ta33  1  0.33164071  0.34127193  0.97920083  1
  Ta  Ta34  1  0.83240838  0.33494049  0.98067539  1
  Ta  Ta35  1  0.32983454  0.32797783  0.47799462  1
  Ta  Ta36  1  0.83262369  0.32890003  0.47753201  1
  Ta  Ta37  1  0.16584462  0.66950265  0.02121594  1
  Ta  Ta38  1  0.66677741  0.66953211  0.02328179  1
  Ta  Ta39  1  0.16686857  0.66279653  0.52053505  1
  Ta  Ta40  1  0.66188221  0.66063314  0.51958141  1
  Ta  Ta41  1  0.66682515  0.67385329  0.81024741  1
  Si  Si42  1  0.35535369  0.70740966  0.24957931  1
  Si  Si43  1  0.85553590  0.70813693  0.24950303  1
  Si  Si44  1  0.00173638  0.29200345  0.25036410  1
  Si  Si45  1  0.50169996  0.29194073  0.25033967  1
  Si  Si46  1  0.64573820  0.28688748  0.75039001  1
  Si  Si47  1  0.00790049  0.72405870  0.75169368  1
  Si  Si48  1  0.49291079  0.70002939  0.74786492  1
  Si  Si49  1  0.34584608  0.99343577  0.74966092  1
  Si  Si50  1  0.86346817  0.00459835  0.75018496  1
  Si  Si51  1  0.47767722  0.33678005  0.58507044  1
  Si  Si52  1  0.98150075  0.32724362  0.58496261  1
  Si  Si53  1  0.18791957  0.05284958  0.58791063  1
  Si  Si54  1  0.68708363  0.04534116  0.58373615  1
  Si  Si55  1  0.33207498  0.61126608  0.58634154  1
  Si  Si56  1  0.83316975  0.62377629  0.58493609  1
  Si  Si57  1  0.47909091  0.63218793  0.08750454  1
  Si  Si58  1  0.97979663  0.63299157  0.08729146  1
  Si  Si59  1  0.33243615  0.05153587  0.08758091  1
  Si  Si60  1  0.83333746  0.05068271  0.08898893  1
  Si  Si61  1  0.18793172  0.32184618  0.08903676  1
  Si  Si62  1  0.68778278  0.32046068  0.08930051  1
  Si  Si63  1  0.30512409  0.66134224  0.91263113  1
  Si  Si64  1  0.81271456  0.66730226  0.91540617  1
  Si  Si65  1  0.02756472  0.37734317  0.91196847  1
  Si  Si66  1  0.52177520  0.37788388  0.91648541  1
  Si  Si67  1  0.16449212  0.95868098  0.91337654  1
  Si  Si68  1  0.66455866  0.95793882  0.91758242  1
  Si  Si69  1  0.30777128  0.94979023  0.41129039  1
  Si  Si70  1  0.80717326  0.94786299  0.41200935  1
  Si  Si71  1  0.16300495  0.36807340  0.41235281  1
  Si  Si72  1  0.66335468  0.36788750  0.41263099  1
  Si  Si73  1  0.02799886  0.67929236  0.41179497  1
  Si  Si74  1  0.52624775  0.67768713  0.41044605  1
  Ge  Ge75  1  0.99353171  0.99436154  0.35318072  1
  Ge  Ge76  1  0.49366757  0.99459016  0.35297142  1
  Ge  Ge77  1  0.99871777  0.99830190  0.85495466  1
  Ge  Ge78  1  0.00040027  0.99265827  0.64643757  1
  Ge  Ge79  1  0.99694563  0.00559838  0.14712818  1
  Ge  Ge80  1  0.49566701  0.00471503  0.14702348  1
  Ge  Ge81  1  0.33667626  0.33231411  0.68496884  1
  Ge  Ge82  1  0.34364493  0.35303451  0.18600971  1
  Ge  Ge83  1  0.84353225  0.35317082  0.18644306  1
  Ge  Ge84  1  0.16683764  0.64747810  0.31358409  1
  Ge  Ge85  1  0.66676492  0.64718260  0.31379264  1
  Ge  Ge86  1  0.16741046  0.68174827  0.81439245  1
  S  S87  1  0.14189823  0.99993813  0.25026525  1
  S  S88  1  0.64218787  0.00033161  0.24998648  1
  S  S89  1  0.14280154  0.28528917  0.74991083  1
  O  O90  1  0.10169960  0.02790601  0.30506098  1
  O  O91  1  0.60216124  0.02828961  0.30495752  1
  O  O92  1  0.41535209  0.79579328  0.31062077  1
  O  O93  1  0.91544606  0.79580872  0.31062793  1
  O  O94  1  0.48064775  0.16277831  0.30946068  1
  O  O95  1  0.98056831  0.16288242  0.30949179  1
  O  O96  1  0.10320716  0.17554171  0.80480976  1
  O  O97  1  0.59827843  0.16677898  0.80864929  1
  O  O98  1  0.48189328  0.79636851  0.80739691  1
  O  O99  1  0.98232660  0.80537300  0.81004361  1
  O  O100  1  0.41366865  0.03739615  0.80774025  1
  O  O101  1  0.91824576  0.03145240  0.81209670  1
  O  O102  1  0.39603787  0.96948369  0.69055102  1
  O  O103  1  0.90332444  0.96273248  0.69006931  1
  O  O104  1  0.08736436  0.20406490  0.69466185  1
  O  O105  1  0.58126798  0.20022683  0.69248804  1
  O  O106  1  0.01861385  0.83359586  0.68953756  1
  O  O107  1  0.51373150  0.82999854  0.69103413  1
  O  O108  1  0.39883043  0.83715135  0.19064467  1
  O  O109  1  0.89912828  0.83753368  0.19045743  1
  O  O110  1  0.01717948  0.20390025  0.18944395  1
  O  O111  1  0.51758235  0.20403308  0.18941526  1
  O  O112  1  0.08756832  0.97147782  0.19495258  1
  O  O113  1  0.58797256  0.97234454  0.19483392  1
  O  O114  1  0.43658772  0.36819954  0.64587464  1
  O  O115  1  0.93469619  0.36984676  0.64069618  1
  O  O116  1  0.25588229  0.13609930  0.64374049  1
  O  O117  1  0.75267005  0.13727922  0.64137566  1
  O  O118  1  0.31547778  0.48865900  0.64405895  1
  O  O119  1  0.81866676  0.50459960  0.64413134  1
  O  O120  1  0.43944648  0.49602829  0.14311658  1
  O  O121  1  0.93783862  0.49434649  0.14191239  1
  O  O122  1  0.31641318  0.13924450  0.14723085  1
  O  O123  1  0.81619451  0.13981131  0.14730414  1
  O  O124  1  0.25785780  0.37471434  0.14396363  1
  O  O125  1  0.75810192  0.37438549  0.14376822  1
  O  O126  1  0.23237200  0.29661551  0.02741714  1
  O  O127  1  0.73400377  0.29795569  0.02725010  1
  O  O128  1  0.41571547  0.54185093  0.02793896  1
  O  O129  1  0.91840644  0.54540638  0.02578736  1
  O  O130  1  0.35199944  0.17060112  0.02655647  1
  O  O131  1  0.85197664  0.16892459  0.02723085  1
  O  O132  1  0.23323051  0.16843354  0.52679727  1
  O  O133  1  0.73617237  0.16766205  0.52506417  1
  O  O134  1  0.34758752  0.53124690  0.52378027  1
  O  O135  1  0.85254844  0.53621465  0.52542365  1
  O  O136  1  0.41661580  0.29967163  0.52468428  1
  O  O137  1  0.91916492  0.29224749  0.52475631  1
  O  O138  1  0.26628564  0.70151482  0.97476899  1
  O  O139  1  0.76900414  0.70235826  0.97513456  1
  O  O140  1  0.08220035  0.46246063  0.97529761  1
  O  O141  1  0.58214857  0.46773133  0.97654144  1
  O  O142  1  0.14521077  0.82891828  0.97240989  1
  O  O143  1  0.65321384  0.83535074  0.97557198  1
  O  O144  1  0.26727428  0.83159010  0.47295442  1
  O  O145  1  0.76729715  0.82990469  0.47315812  1
  O  O146  1  0.14563486  0.46059717  0.47211760  1
  O  O147  1  0.64520747  0.45897126  0.47208437  1
  O  O148  1  0.08250018  0.70221073  0.47526417  1
  O  O149  1  0.58395460  0.70361344  0.47246493  1
  O  O150  1  0.07113690  0.62589366  0.35716072  1
  O  O151  1  0.57046320  0.62531502  0.35615027  1
  O  O152  1  0.24656961  0.86016662  0.35249540  1
  O  O153  1  0.74677767  0.86047352  0.35259303  1
  O  O154  1  0.19105235  0.50527776  0.35721063  1
  O  O155  1  0.69168502  0.50495532  0.35724391  1
  O  O156  1  0.06931569  0.51396431  0.85684535  1
  O  O157  1  0.56819354  0.49797608  0.85708876  1
  O  O158  1  0.18991432  0.87558306  0.85732356  1
  O  O159  1  0.68480163  0.86915720  0.85915332  1
  O  O160  1  0.24351966  0.63126549  0.85505661  1
  O  O161  1  0.75252028  0.63696049  0.85589868  1
  O  O162  1  0.01152447  0.84469236  0.40709283  1
  O  O163  1  0.51152142  0.84522853  0.40643447  1
  O  O164  1  0.40598057  0.97168851  0.40906400  1
  O  O165  1  0.90601054  0.97197684  0.40911080  1
  O  O166  1  0.07474138  0.17993553  0.40590162  1
  O  O167  1  0.57512257  0.17995513  0.40564442  1
  O  O168  1  0.01252056  0.17969008  0.90739143  1
  O  O169  1  0.50854178  0.18245935  0.91167540  1
  O  O170  1  0.07625232  0.97105041  0.90692311  1
  O  O171  1  0.57871647  0.97481031  0.91238067  1
  O  O172  1  0.40111734  0.83899249  0.90902193  1
  O  O173  1  0.90905295  0.84272133  0.91120382  1
  O  O174  1  0.48270752  0.15758997  0.58834618  1
  O  O175  1  0.98640755  0.15091919  0.59358140  1
  O  O176  1  0.08971184  0.02305113  0.59272902  1
  O  O177  1  0.59196993  0.02620299  0.58834952  1
  O  O178  1  0.41532645  0.81076884  0.58929952  1
  O  O179  1  0.92210856  0.81660702  0.58961845  1
  O  O180  1  0.48524542  0.82065797  0.09449070  1
  O  O181  1  0.98489222  0.82035493  0.09413803  1
  O  O182  1  0.41970004  0.02796866  0.09095872  1
  O  O183  1  0.92059965  0.02914601  0.09095601  1
  O  O184  1  0.08901756  0.15555354  0.09359679  1
  O  O185  1  0.58909181  0.15569780  0.09319748  1
  O  O186  1  0.34379492  0.17724611  0.74354991  1
  O  O187  1  0.84999506  0.17308202  0.74536539  1
  O  O188  1  0.22945153  0.29996843  0.74492960  1
  O  O189  1  0.74354427  0.31638320  0.74639633  1
  O  O190  1  0.40797982  0.50524326  0.74351218  1
  O  O191  1  0.91688550  0.53126009  0.74492820  1
  O  O192  1  0.34549235  0.51294705  0.24331776  1
  O  O193  1  0.84560015  0.51345296  0.24327485  1
  O  O194  1  0.40923193  0.29863743  0.24425467  1
  O  O195  1  0.90923023  0.29898173  0.24416444  1
  O  O196  1  0.23009697  0.15569796  0.24675167  1
  O  O197  1  0.73054319  0.15624625  0.24661267  1
  O  O198  1  0.31853513  0.49424338  0.92101803  1
  O  O199  1  0.82568876  0.49813445  0.92089490  1
  O  O200  1  0.42474525  0.35347256  0.92229493  1
  O  O201  1  0.92935793  0.35658848  0.92226880  1
  O  O202  1  0.25263682  0.14542152  0.92325639  1
  O  O203  1  0.75537971  0.14469362  0.92275006  1
  O  O204  1  0.32305818  0.14688257  0.41958784  1
  O  O205  1  0.82366429  0.14715771  0.41987632  1
  O  O206  1  0.25191962  0.35867468  0.42110353  1
  O  O207  1  0.75320678  0.36052104  0.42250536  1
  O  O208  1  0.42898726  0.50116105  0.42112668  1
  O  O209  1  0.93004160  0.50151052  0.42177470  1
  O  O210  1  0.17855281  0.49871412  0.07844120  1
  O  O211  1  0.67960946  0.49846517  0.07863972  1
  O  O212  1  0.07260526  0.63976116  0.07834678  1
  O  O213  1  0.57305891  0.64082101  0.07855447  1
  O  O214  1  0.24931473  0.85284290  0.07922843  1
  O  O215  1  0.75043432  0.85245524  0.08081086  1
  O  O216  1  0.17917503  0.85845932  0.57775610  1
  O  O217  1  0.68321681  0.85811452  0.57698561  1
  O  O218  1  0.24867567  0.64416200  0.57816633  1
  O  O219  1  0.74965927  0.65111283  0.57778436  1
  O  O220  1  0.07340923  0.50792308  0.57835275  1
  O  O221  1  0.57384476  0.50700167  0.57831849  1
  O  O222  1  0.15197823  0.84339815  0.25359872  1
  O  O223  1  0.65246205  0.84402340  0.25341881  1
  O  O224  1  0.25959328  0.70088202  0.25570166  1
  O  O225  1  0.75975119  0.70116460  0.25560140  1
  O  O226  1  0.08866673  0.48693240  0.25668814  1
  O  O227  1  0.58898817  0.48658807  0.25663764  1
  O  O228  1  0.15004493  0.45770887  0.75460742  1
  O  O229  1  0.65475550  0.48067022  0.75442946  1
  O  O230  1  0.09005829  0.69183270  0.75760629  1
  O  O231  1  0.58070768  0.68035024  0.75433265  1
  O  O232  1  0.25400333  0.81320223  0.75626367  1
  O  O233  1  0.76531670  0.82831990  0.75484832  1
