# generated using pymatgen
data_Na2Y2Ga2SiS5O24
_symmetry_space_group_name_H-M   'P 1'
_cell_length_a   8.86998150
_cell_length_b   8.84013811
_cell_length_c   23.25995932
_cell_angle_alpha   89.39896172
_cell_angle_beta   90.58770946
_cell_angle_gamma   119.76139901
_symmetry_Int_Tables_number   1
_chemical_formula_structural   Na2Y2Ga2SiS5O24
_chemical_formula_sum   'Na6 Y6 Ga6 Si3 S15 O72'
_cell_volume   1583.17623697
_cell_formula_units_Z   3
loop_
 _symmetry_equiv_pos_site_id
 _symmetry_equiv_pos_as_xyz
  1  'x, y, z'
loop_
 _atom_site_type_symbol
 _atom_site_label
 _atom_site_symmetry_multiplicity
 _atom_site_fract_x
 _atom_site_fract_y
 _atom_site_fract_z
 _atom_site_occupancy
  Na  Na0  1  0.98581864  0.98316998  0.50201091  1
  Na  Na1  1  0.99927582  0.99950228  0.99946013  1
  Na  Na2  1  0.67162977  0.31898118  0.83671068  1
  Na  Na3  1  0.63900628  0.31035426  0.32238932  1
  Na  Na4  1  0.32857141  0.67767042  0.17019374  1
  Na  Na5  1  0.39211742  0.69342930  0.67082085  1
  Y  Y6  1  0.01207496  0.00154357  0.34270536  1
  Y  Y7  1  0.97786230  0.98668181  0.64718029  1
  Y  Y8  1  0.66863449  0.33163745  0.68936483  1
  Y  Y9  1  0.66230686  0.34214131  0.47700413  1
  Y  Y10  1  0.34814777  0.67008499  0.52164068  1
  Y  Y11  1  0.34524447  0.67332746  0.82131362  1
  Ga  Ga12  1  0.99401095  0.00138638  0.83992257  1
  Ga  Ga13  1  0.00565556  0.98922112  0.15728969  1
  Ga  Ga14  1  0.65737730  0.32370541  0.17973833  1
  Ga  Ga15  1  0.66763834  0.33113237  0.98925178  1
  Ga  Ga16  1  0.33451842  0.66534239  0.01741109  1
  Ga  Ga17  1  0.33155911  0.68442539  0.31080975  1
  Si  Si18  1  0.30849830  0.00141765  0.24362402  1
  Si  Si19  1  0.70480108  0.00615373  0.75835854  1
  Si  Si20  1  0.67036534  0.63466230  0.58390653  1
  S  S21  1  0.70115821  0.69624027  0.24112686  1
  S  S22  1  0.99790043  0.29771902  0.24033820  1
  S  S23  1  0.28984853  0.28528140  0.75796413  1
  S  S24  1  0.99727507  0.70705062  0.76011051  1
  S  S25  1  0.96493000  0.33553924  0.58127664  1
  S  S26  1  0.36550019  0.03801255  0.58211357  1
  S  S27  1  0.95468397  0.62022825  0.08351841  1
  S  S28  1  0.66603458  0.03714761  0.08229829  1
  S  S29  1  0.37622962  0.33831305  0.08166928  1
  S  S30  1  0.63264188  0.65747660  0.92816677  1
  S  S31  1  0.03064679  0.37078235  0.92724996  1
  S  S32  1  0.33666988  0.96966280  0.92679443  1
  S  S33  1  0.62538178  0.96107578  0.40727473  1
  S  S34  1  0.33439264  0.38926602  0.40440872  1
  S  S35  1  0.04111860  0.65938595  0.40919179  1
  O  O36  1  0.23437553  0.04258112  0.30093384  1
  O  O37  1  0.80593708  0.77168234  0.29391234  1
  O  O38  1  0.95758625  0.19070021  0.29346987  1
  O  O39  1  0.20970705  0.18047450  0.81302063  1
  O  O40  1  0.99791512  0.80094150  0.81459542  1
  O  O41  1  0.80631586  0.00904182  0.82024834  1
  O  O42  1  0.80156427  0.99742272  0.70147279  1
  O  O43  1  0.19716852  0.19434163  0.70602738  1
  O  O44  1  0.02333101  0.81216517  0.70826219  1
  O  O45  1  0.78092898  0.82006492  0.19059890  1
  O  O46  1  0.02306068  0.20584462  0.19012855  1
  O  O47  1  0.17527811  0.95921919  0.18836415  1
  O  O48  1  0.87130143  0.32696523  0.63393408  1
  O  O49  1  0.46726387  0.12071282  0.63435133  1
  O  O50  1  0.67717844  0.53886187  0.64252807  1
  O  O51  1  0.87123224  0.50564005  0.13428817  1
  O  O52  1  0.63304265  0.11698684  0.13298127  1
  O  O53  1  0.48857862  0.37240714  0.13346120  1
  O  O54  1  0.45730292  0.30689775  0.03040620  1
  O  O55  1  0.84793381  0.54129174  0.03045028  1
  O  O56  1  0.69688883  0.14842876  0.02970321  1
  O  O57  1  0.46070739  0.12348358  0.52850082  1
  O  O58  1  0.65685823  0.53007692  0.52459359  1
  O  O59  1  0.86281462  0.31951687  0.52843901  1
  O  O60  1  0.54180230  0.68736467  0.97759228  1
  O  O61  1  0.14550304  0.46105968  0.97878943  1
  O  O62  1  0.30649512  0.85087632  0.97800348  1
  O  O63  1  0.53947620  0.87020245  0.46080619  1
  O  O64  1  0.33284774  0.47435874  0.45789285  1
  O  O65  1  0.13361103  0.66531125  0.46226570  1
  O  O66  1  0.13479678  0.65811241  0.35634843  1
  O  O67  1  0.52647141  0.86404152  0.35506875  1
  O  O68  1  0.34045727  0.49165338  0.35185683  1
  O  O69  1  0.10310912  0.47465677  0.87460926  1
  O  O70  1  0.36956588  0.89702837  0.87463607  1
  O  O71  1  0.53074211  0.62741193  0.87474535  1
  O  O72  1  0.01827966  0.81543988  0.40868557  1
  O  O73  1  0.79987960  0.97814932  0.40683387  1
  O  O74  1  0.17363027  0.21687933  0.40443532  1
  O  O75  1  0.01477865  0.19668595  0.92339249  1
  O  O76  1  0.18204346  0.99053607  0.91986224  1
  O  O77  1  0.80866374  0.80930248  0.92382923  1
  O  O78  1  0.00558554  0.19274240  0.58010573  1
  O  O79  1  0.20228158  0.04212657  0.58154103  1
  O  O80  1  0.84202660  0.82542849  0.57716448  1
  O  O81  1  0.96867881  0.79505203  0.08967130  1
  O  O82  1  0.82207093  0.01753624  0.09015233  1
  O  O83  1  0.20035118  0.18454165  0.08850202  1
  O  O84  1  0.68560883  0.17783204  0.76069503  1
  O  O85  1  0.46888180  0.31748542  0.75871720  1
  O  O86  1  0.83152096  0.54258733  0.75966516  1
  O  O87  1  0.69844443  0.52919879  0.23135631  1
  O  O88  1  0.84892342  0.32664451  0.23001391  1
  O  O89  1  0.50046521  0.17296857  0.23262036  1
  O  O90  1  0.64161710  0.49327023  0.93639859  1
  O  O91  1  0.85430324  0.35422908  0.93492383  1
  O  O92  1  0.49672224  0.14360749  0.93562631  1
  O  O93  1  0.63928096  0.13490478  0.40521234  1
  O  O94  1  0.48841295  0.36518932  0.40269858  1
  O  O95  1  0.86789957  0.50016181  0.40701169  1
  O  O96  1  0.36097112  0.50030545  0.07375132  1
  O  O97  1  0.13218963  0.64036731  0.07738181  1
  O  O98  1  0.50609348  0.86110459  0.07453342  1
  O  O99  1  0.32925198  0.85531085  0.58291340  1
  O  O100  1  0.49790326  0.65630005  0.58771049  1
  O  O101  1  0.12862906  0.50435795  0.58091888  1
  O  O102  1  0.32803494  0.82528320  0.25266587  1
  O  O103  1  0.52342658  0.66749303  0.24810248  1
  O  O104  1  0.15984906  0.46766044  0.24754707  1
  O  O105  1  0.28877628  0.45143234  0.76154808  1
  O  O106  1  0.14201795  0.67146864  0.76396498  1
  O  O107  1  0.51382967  0.82943730  0.75795187  1
