# generated using pymatgen
data_La3Br6N
_symmetry_space_group_name_H-M   'P 1'
_cell_length_a   11.27459757
_cell_length_b   11.95130831
_cell_length_c   17.27433091
_cell_angle_alpha   90.00000000
_cell_angle_beta   90.00000000
_cell_angle_gamma   90.00000000
_symmetry_Int_Tables_number   1
_chemical_formula_structural   La3Br6N
_chemical_formula_sum   'La24 Br48 N8'
_cell_volume   2327.65030308
_cell_formula_units_Z   8
loop_
 _symmetry_equiv_pos_site_id
 _symmetry_equiv_pos_as_xyz
  1  'x, y, z'
loop_
 _atom_site_type_symbol
 _atom_site_label
 _atom_site_symmetry_multiplicity
 _atom_site_fract_x
 _atom_site_fract_y
 _atom_site_fract_z
 _atom_site_occupancy
  La  La0  1  0.13681030  0.02011463  0.44155180  1
  La  La1  1  0.63681030  0.47988537  0.55844820  1
  La  La2  1  0.86318970  0.52011463  0.05844820  1
  La  La3  1  0.36318970  0.97988537  0.94155180  1
  La  La4  1  0.86318970  0.97988537  0.55844820  1
  La  La5  1  0.36318970  0.52011463  0.44155180  1
  La  La6  1  0.13681030  0.47988537  0.94155180  1
  La  La7  1  0.63681030  0.02011463  0.05844820  1
  La  La8  1  0.34804785  0.96154222  0.17301547  1
  La  La9  1  0.84804785  0.53845778  0.82698453  1
  La  La10  1  0.65195215  0.46154222  0.32698453  1
  La  La11  1  0.15195215  0.03845778  0.67301547  1
  La  La12  1  0.65195215  0.03845778  0.82698453  1
  La  La13  1  0.15195215  0.46154222  0.17301547  1
  La  La14  1  0.34804785  0.53845778  0.67301547  1
  La  La15  1  0.84804785  0.96154222  0.32698453  1
  La  La16  1  0.00993366  0.22055630  0.05025145  1
  La  La17  1  0.50993366  0.27944370  0.94974855  1
  La  La18  1  0.99006634  0.72055630  0.44974855  1
  La  La19  1  0.49006634  0.77944370  0.55025145  1
  La  La20  1  0.99006634  0.77944370  0.94974855  1
  La  La21  1  0.49006634  0.72055630  0.05025145  1
  La  La22  1  0.00993366  0.27944370  0.55025145  1
  La  La23  1  0.50993366  0.22055630  0.44974855  1
  Br  Br24  1  0.25662271  0.78430205  0.45377951  1
  Br  Br25  1  0.75662271  0.71569795  0.54622049  1
  Br  Br26  1  0.74337729  0.28430205  0.04622049  1
  Br  Br27  1  0.24337729  0.21569795  0.95377951  1
  Br  Br28  1  0.74337729  0.21569795  0.54622049  1
  Br  Br29  1  0.24337729  0.28430205  0.45377951  1
  Br  Br30  1  0.25662271  0.71569795  0.95377951  1
  Br  Br31  1  0.75662271  0.78430205  0.04622049  1
  Br  Br32  1  0.36868525  0.06424507  0.33833621  1
  Br  Br33  1  0.86868525  0.43575493  0.66166379  1
  Br  Br34  1  0.63131475  0.56424507  0.16166379  1
  Br  Br35  1  0.13131475  0.93575493  0.83833621  1
  Br  Br36  1  0.63131475  0.93575493  0.66166379  1
  Br  Br37  1  0.13131475  0.56424507  0.33833621  1
  Br  Br38  1  0.36868525  0.43575493  0.83833621  1
  Br  Br39  1  0.86868525  0.06424507  0.16166379  1
  Br  Br40  1  0.10527041  0.91606852  0.27454269  1
  Br  Br41  1  0.60527041  0.58393148  0.72545731  1
  Br  Br42  1  0.89472959  0.41606852  0.22545731  1
  Br  Br43  1  0.39472959  0.08393148  0.77454269  1
  Br  Br44  1  0.89472959  0.08393148  0.72545731  1
  Br  Br45  1  0.39472959  0.41606852  0.27454269  1
  Br  Br46  1  0.10527041  0.58393148  0.77454269  1
  Br  Br47  1  0.60527041  0.91606852  0.22545731  1
  Br  Br48  1  0.64209455  0.96921541  0.44509009  1
  Br  Br49  1  0.14209455  0.53078459  0.55490991  1
  Br  Br50  1  0.35790545  0.46921541  0.05490991  1
  Br  Br51  1  0.85790545  0.03078459  0.94509009  1
  Br  Br52  1  0.35790545  0.03078459  0.55490991  1
  Br  Br53  1  0.85790545  0.46921541  0.44509009  1
  Br  Br54  1  0.64209455  0.53078459  0.94509009  1
  Br  Br55  1  0.14209455  0.96921541  0.05490991  1
  Br  Br56  1  0.16418832  0.21441821  0.18986308  1
  Br  Br57  1  0.66418832  0.28558179  0.81013692  1
  Br  Br58  1  0.83581168  0.71441821  0.31013692  1
  Br  Br59  1  0.33581168  0.78558179  0.68986308  1
  Br  Br60  1  0.83581168  0.78558179  0.81013692  1
  Br  Br61  1  0.33581168  0.71441821  0.18986308  1
  Br  Br62  1  0.16418832  0.28558179  0.68986308  1
  Br  Br63  1  0.66418832  0.21441821  0.31013692  1
  Br  Br64  1  0.53440092  0.68563590  0.37627427  1
  Br  Br65  1  0.03440092  0.81436410  0.62372573  1
  Br  Br66  1  0.46559908  0.18563590  0.12372573  1
  Br  Br67  1  0.96559908  0.31436410  0.87627427  1
  Br  Br68  1  0.46559908  0.31436410  0.62372573  1
  Br  Br69  1  0.96559908  0.18563590  0.37627427  1
  Br  Br70  1  0.53440092  0.81436410  0.87627427  1
  Br  Br71  1  0.03440092  0.68563590  0.12372573  1
  N  N72  1  0.54766983  0.09152027  0.94015399  1
  N  N73  1  0.04766983  0.40847973  0.05984601  1
  N  N74  1  0.45233017  0.59152027  0.55984601  1
  N  N75  1  0.95233017  0.90847973  0.44015399  1
  N  N76  1  0.45233017  0.90847973  0.05984601  1
  N  N77  1  0.95233017  0.59152027  0.94015399  1
  N  N78  1  0.54766983  0.40847973  0.44015399  1
  N  N79  1  0.04766983  0.09152027  0.55984601  1
