# generated using pymatgen
data_Na6Mg6Ti2SiS11O48
_symmetry_space_group_name_H-M   'P 1'
_cell_length_a   17.40949750
_cell_length_b   8.69808776
_cell_length_c   22.50625386
_cell_angle_alpha   90.09221492
_cell_angle_beta   90.06678876
_cell_angle_gamma   119.92384354
_symmetry_Int_Tables_number   1
_chemical_formula_structural   Na6Mg6Ti2SiS11O48
_chemical_formula_sum   'Na18 Mg18 Ti6 Si3 S33 O144'
_cell_volume   2953.75827215
_cell_formula_units_Z   3
loop_
 _symmetry_equiv_pos_site_id
 _symmetry_equiv_pos_as_xyz
  1  'x, y, z'
loop_
 _atom_site_type_symbol
 _atom_site_label
 _atom_site_symmetry_multiplicity
 _atom_site_fract_x
 _atom_site_fract_y
 _atom_site_fract_z
 _atom_site_occupancy
  Na  Na0  1  0.68411443  0.36117896  0.24481758  1
  Na  Na1  1  0.99549730  0.63435728  0.25373708  1
  Na  Na2  1  0.33503214  0.96596397  0.58967588  1
  Na  Na3  1  0.83572867  0.96650921  0.58999088  1
  Na  Na4  1  0.33367202  0.69604949  0.08233824  1
  Na  Na5  1  0.34602374  0.66477113  0.41470999  1
  Na  Na6  1  0.00669684  0.99722958  0.49716566  1
  Na  Na7  1  0.51000083  0.01284548  0.50046107  1
  Na  Na8  1  0.00191289  0.00014526  0.99891972  1
  Na  Na9  1  0.50923275  0.01277611  0.00125223  1
  Na  Na10  1  0.33214216  0.32998538  0.83840988  1
  Na  Na11  1  0.83172100  0.33010859  0.83835216  1
  Na  Na12  1  0.32961931  0.32156099  0.33026558  1
  Na  Na13  1  0.83754811  0.33674290  0.33483097  1
  Na  Na14  1  0.16877571  0.66989342  0.16593610  1
  Na  Na15  1  0.66468525  0.67235722  0.15905411  1
  Na  Na16  1  0.16701114  0.66597877  0.67382404  1
  Na  Na17  1  0.66785032  0.66658098  0.67425275  1
  Mg  Mg18  1  0.00200044  0.99720395  0.35257694  1
  Mg  Mg19  1  0.49919497  0.00194123  0.34995957  1
  Mg  Mg20  1  0.00075707  0.99773782  0.64981164  1
  Mg  Mg21  1  0.50113703  0.99799225  0.65006005  1
  Mg  Mg22  1  0.50230068  0.00442265  0.14826418  1
  Mg  Mg23  1  0.33391747  0.33471918  0.18326758  1
  Mg  Mg24  1  0.83250055  0.33139907  0.18209481  1
  Mg  Mg25  1  0.33254402  0.32782918  0.98239786  1
  Mg  Mg26  1  0.83118855  0.33100207  0.98252235  1
  Mg  Mg27  1  0.33132956  0.32684864  0.48207654  1
  Mg  Mg28  1  0.83522693  0.34036211  0.47991095  1
  Mg  Mg29  1  0.16337691  0.67031774  0.01541538  1
  Mg  Mg30  1  0.66674350  0.66647037  0.01643532  1
  Mg  Mg31  1  0.16117946  0.65861204  0.51724018  1
  Mg  Mg32  1  0.66350951  0.65986358  0.51942085  1
  Mg  Mg33  1  0.16900052  0.66680701  0.31617733  1
  Mg  Mg34  1  0.16842206  0.67310390  0.81532305  1
  Mg  Mg35  1  0.66878159  0.67348122  0.81537881  1
  Ti  Ti36  1  0.99348016  0.00443197  0.85145616  1
  Ti  Ti37  1  0.49448144  0.00560836  0.85164683  1
  Ti  Ti38  1  0.99115941  0.98950624  0.14938309  1
  Ti  Ti39  1  0.33456953  0.32710285  0.69170878  1
  Ti  Ti40  1  0.83505596  0.32822258  0.69111575  1
  Ti  Ti41  1  0.67196893  0.67369580  0.31399722  1
  Si  Si42  1  0.85407894  0.70542272  0.25342583  1
  Si  Si43  1  0.35055683  0.98726688  0.74482086  1
  Si  Si44  1  0.85023207  0.98802429  0.74470639  1
  S  S45  1  0.14697147  0.00480387  0.24957219  1
  S  S46  1  0.64485718  0.99548614  0.25123243  1
  S  S47  1  0.35215437  0.70394237  0.25008238  1
  S  S48  1  0.00047717  0.28954000  0.25002750  1
  S  S49  1  0.49837397  0.29359062  0.25192285  1
  S  S50  1  0.14459442  0.28953595  0.74952046  1
  S  S51  1  0.64485107  0.28987876  0.74947599  1
  S  S52  1  0.99977296  0.71007781  0.74954993  1
  S  S53  1  0.49976365  0.70992201  0.74951543  1
  S  S54  1  0.47943754  0.33634161  0.58335439  1
  S  S55  1  0.97919601  0.33558649  0.58321975  1
  S  S56  1  0.18718422  0.04434224  0.58383310  1
  S  S57  1  0.68809524  0.04650486  0.58274567  1
  S  S58  1  0.33404261  0.62390468  0.58177774  1
  S  S59  1  0.83385042  0.62256221  0.58289383  1
  S  S60  1  0.48071519  0.62542948  0.08351654  1
  S  S61  1  0.98150907  0.62896592  0.08459070  1
  S  S62  1  0.33296106  0.03924253  0.08359611  1
  S  S63  1  0.83339316  0.04052899  0.08370185  1
  S  S64  1  0.18478972  0.33061526  0.08361967  1
  S  S65  1  0.68522999  0.33377020  0.08374224  1
  S  S66  1  0.31424026  0.66543204  0.91681241  1
  S  S67  1  0.81355026  0.66560042  0.91595806  1
  S  S68  1  0.02056056  0.37551902  0.91575331  1
  S  S69  1  0.52091477  0.37603065  0.91543700  1
  S  S70  1  0.16531568  0.96211265  0.91569994  1
  S  S71  1  0.66546649  0.96046830  0.91617302  1
  S  S72  1  0.31403648  0.96271535  0.41776608  1
  S  S73  1  0.81276299  0.95927523  0.41868560  1
  S  S74  1  0.16585961  0.37081517  0.41722054  1
  S  S75  1  0.66572471  0.37414019  0.41606465  1
  S  S76  1  0.01965275  0.66703450  0.41609836  1
  S  S77  1  0.52169718  0.66793425  0.41653436  1
  O  O78  1  0.10928897  0.03321843  0.30350163  1
  O  O79  1  0.60555563  0.02994225  0.30389591  1
  O  O80  1  0.40484673  0.78636283  0.30501656  1
  O  O81  1  0.91879326  0.79479719  0.30736973  1
  O  O82  1  0.48732427  0.18853316  0.30526801  1
  O  O83  1  0.98991067  0.18708348  0.30323689  1
  O  O84  1  0.10538177  0.17519118  0.80320188  1
  O  O85  1  0.60520820  0.17514653  0.80320982  1
  O  O86  1  0.48502661  0.79304947  0.80290557  1
  O  O87  1  0.98532574  0.79374191  0.80300891  1
  O  O88  1  0.41905144  0.02791578  0.80418264  1
  O  O89  1  0.91853705  0.02812429  0.80421338  1
  O  O90  1  0.39460105  0.97529904  0.68465353  1
  O  O91  1  0.89469371  0.97563878  0.68484516  1
  O  O92  1  0.09414182  0.20883693  0.69557522  1
  O  O93  1  0.59418949  0.20906764  0.69552957  1
  O  O94  1  0.01447880  0.81431279  0.69583484  1
  O  O95  1  0.51435247  0.81392172  0.69570987  1
  O  O96  1  0.39482412  0.81264096  0.19649467  1
  O  O97  1  0.90038398  0.83312071  0.19260909  1
  O  O98  1  0.01287825  0.20258345  0.19560795  1
  O  O99  1  0.51936865  0.22004566  0.19904478  1
  O  O100  1  0.08742992  0.97640334  0.19642314  1
  O  O101  1  0.59176852  0.96487282  0.19747681  1
  O  O102  1  0.43425725  0.35633725  0.63760275  1
  O  O103  1  0.93354849  0.35601020  0.63756454  1
  O  O104  1  0.24574591  0.13411824  0.63754709  1
  O  O105  1  0.74561968  0.13426838  0.63692529  1
  O  O106  1  0.32392198  0.51356913  0.63464246  1
  O  O107  1  0.82306883  0.51502719  0.63695879  1
  O  O108  1  0.44020837  0.52001325  0.13738946  1
  O  O109  1  0.94267146  0.52876218  0.13991701  1
  O  O110  1  0.32090078  0.12049888  0.13723822  1
  O  O111  1  0.82233432  0.12081622  0.13790866  1
  O  O112  1  0.24112111  0.36318172  0.13661507  1
  O  O113  1  0.73543502  0.35568684  0.13989453  1
  O  O114  1  0.22423586  0.30218753  0.02995503  1
  O  O115  1  0.72953646  0.30978770  0.03191811  1
  O  O116  1  0.42378369  0.54316029  0.03067054  1
  O  O117  1  0.92603536  0.54927293  0.03209923  1
  O  O118  1  0.34492868  0.14438792  0.02995440  1
  O  O119  1  0.84899625  0.14872697  0.03055174  1
  O  O120  1  0.22762897  0.14914376  0.53043584  1
  O  O121  1  0.72894860  0.15150094  0.52937766  1
  O  O122  1  0.34354547  0.54285208  0.52656927  1
  O  O123  1  0.84256707  0.53787153  0.52942886  1
  O  O124  1  0.42326716  0.30643235  0.53084406  1
  O  O125  1  0.92234385  0.30376747  0.53091180  1
  O  O126  1  0.27905726  0.69854484  0.97233908  1
  O  O127  1  0.77758862  0.70110724  0.96972861  1
  O  O128  1  0.07383118  0.45052360  0.96966484  1
  O  O129  1  0.57379281  0.45052568  0.96934665  1
  O  O130  1  0.15003742  0.85582824  0.96993752  1
  O  O131  1  0.65063930  0.85396277  0.97017453  1
  O  O132  1  0.27502865  0.85472931  0.47246174  1
  O  O133  1  0.77137861  0.85403054  0.47239186  1
  O  O134  1  0.15495331  0.45375816  0.47124006  1
  O  O135  1  0.65364123  0.45916629  0.46846637  1
  O  O136  1  0.07428024  0.68654740  0.46870812  1
  O  O137  1  0.57436471  0.69217597  0.47001612  1
  O  O138  1  0.05913509  0.64399824  0.36027079  1
  O  O139  1  0.56605021  0.64628239  0.36292934  1
  O  O140  1  0.25969313  0.87654778  0.36487450  1
  O  O141  1  0.75418769  0.86034602  0.36480133  1
  O  O142  1  0.18186224  0.48404823  0.36434934  1
  O  O143  1  0.67619358  0.48483103  0.36057012  1
  O  O144  1  0.06133303  0.47815659  0.86225079  1
  O  O145  1  0.56171712  0.47842952  0.86187105  1
  O  O146  1  0.17762613  0.87813419  0.86305474  1
  O  O147  1  0.67767116  0.87780501  0.86313376  1
  O  O148  1  0.25948343  0.64232221  0.86490963  1
  O  O149  1  0.76067307  0.64070119  0.86280099  1
  O  O150  1  0.01227187  0.82931923  0.41382834  1
  O  O151  1  0.51001901  0.82596412  0.41011729  1
  O  O152  1  0.40294884  0.97476611  0.41198228  1
  O  O153  1  0.90033887  0.97814964  0.41098873  1
  O  O154  1  0.08711193  0.19359129  0.41098512  1
  O  O155  1  0.58624141  0.19806602  0.40870470  1
  O  O156  1  0.01324163  0.19178096  0.90923609  1
  O  O157  1  0.51365885  0.19188608  0.90892463  1
  O  O158  1  0.08401277  0.98093932  0.90802715  1
  O  O159  1  0.58421448  0.98018415  0.90831045  1
  O  O160  1  0.40608725  0.83049466  0.90874804  1
  O  O161  1  0.90632744  0.83087167  0.90814164  1
  O  O162  1  0.48933503  0.17681146  0.58813912  1
  O  O163  1  0.98923761  0.17654119  0.58864751  1
  O  O164  1  0.09893334  0.02377456  0.59128972  1
  O  O165  1  0.59941655  0.02501073  0.59019877  1
  O  O166  1  0.41440270  0.80358731  0.58598119  1
  O  O167  1  0.91396448  0.80265575  0.58676683  1
  O  O168  1  0.48739357  0.80405846  0.08918213  1
  O  O169  1  0.99157887  0.81358218  0.09127575  1
  O  O170  1  0.41224728  0.01479755  0.08902611  1
  O  O171  1  0.91789075  0.02667379  0.09025650  1
  O  O172  1  0.09509611  0.17141248  0.09161113  1
  O  O173  1  0.59600657  0.17285189  0.08845022  1
  O  O174  1  0.34729288  0.18179568  0.74067761  1
  O  O175  1  0.84717397  0.18231272  0.74044088  1
  O  O176  1  0.23614721  0.30895621  0.74344537  1
  O  O177  1  0.73598643  0.30850040  0.74363723  1
  O  O178  1  0.41461114  0.53176315  0.74302034  1
  O  O179  1  0.91478183  0.53203424  0.74334959  1
  O  O180  1  0.34342245  0.52602797  0.24484275  1
  O  O181  1  0.83684745  0.50701082  0.24270269  1
  O  O182  1  0.42117362  0.31587210  0.24455928  1
  O  O183  1  0.92106004  0.30945045  0.24222573  1
  O  O184  1  0.23576170  0.15800420  0.24081123  1
  O  O185  1  0.73519254  0.15010060  0.24497101  1
  O  O186  1  0.32715979  0.51073531  0.92245732  1
  O  O187  1  0.82750353  0.51198216  0.92242126  1
  O  O188  1  0.42995317  0.34614106  0.92102720  1
  O  O189  1  0.92979737  0.34671974  0.92188280  1
  O  O190  1  0.24423664  0.14151055  0.92187510  1
  O  O191  1  0.74426840  0.14073322  0.92235171  1
  O  O192  1  0.32501268  0.14156152  0.42289689  1
  O  O193  1  0.81599947  0.13189613  0.41931375  1
  O  O194  1  0.24838494  0.35676413  0.42226399  1
  O  O195  1  0.74680011  0.36149508  0.41876891  1
  O  O196  1  0.43156989  0.50829387  0.41976763  1
  O  O197  1  0.93057915  0.50554083  0.42108194  1
  O  O198  1  0.17671022  0.49349474  0.07723362  1
  O  O199  1  0.67694935  0.49480038  0.07774337  1
  O  O200  1  0.07092584  0.65197288  0.07828854  1
  O  O201  1  0.57010319  0.64735682  0.07688390  1
  O  O202  1  0.25395771  0.85570302  0.07804688  1
  O  O203  1  0.75696423  0.85983734  0.07791386  1
  O  O204  1  0.18279961  0.86889681  0.58023963  1
  O  O205  1  0.68310095  0.87012579  0.57940541  1
  O  O206  1  0.25441089  0.64669440  0.57884322  1
  O  O207  1  0.75408933  0.64609997  0.57960148  1
  O  O208  1  0.06624580  0.49793993  0.58005130  1
  O  O209  1  0.56675246  0.49820287  0.57970583  1
  O  O210  1  0.15016412  0.83599189  0.25273936  1
  O  O211  1  0.65244239  0.83186496  0.26006345  1
  O  O212  1  0.26331905  0.68829027  0.25527817  1
  O  O213  1  0.75339540  0.68670240  0.25946305  1
  O  O214  1  0.07976083  0.47142553  0.25252946  1
  O  O215  1  0.58144085  0.47563497  0.25959855  1
  O  O216  1  0.15455187  0.46515172  0.75806747  1
  O  O217  1  0.65435169  0.46506715  0.75802208  1
  O  O218  1  0.07322248  0.67619920  0.75791847  1
  O  O219  1  0.57302172  0.67564551  0.75787515  1
  O  O220  1  0.25332184  0.82951296  0.75569086  1
  O  O221  1  0.75307866  0.82996784  0.75554109  1
