# generated using pymatgen
data_V5CoO12
_symmetry_space_group_name_H-M   'P 1'
_cell_length_a   6.85228027
_cell_length_b   6.78143061
_cell_length_c   5.84104221
_cell_angle_alpha   74.18627321
_cell_angle_beta   104.20517058
_cell_angle_gamma   95.99366696
_symmetry_Int_Tables_number   1
_chemical_formula_structural   V5CoO12
_chemical_formula_sum   'V5 Co1 O12'
_cell_volume   252.96013051
_cell_formula_units_Z   1
loop_
 _symmetry_equiv_pos_site_id
 _symmetry_equiv_pos_as_xyz
  1  'x, y, z'
loop_
 _atom_site_type_symbol
 _atom_site_label
 _atom_site_symmetry_multiplicity
 _atom_site_fract_x
 _atom_site_fract_y
 _atom_site_fract_z
 _atom_site_occupancy
  V  V0  1  0.20522100  0.60977000  0.74977600  1
  V  V1  1  0.39635500  0.79757600  0.24629700  1
  V  V2  1  0.61264600  0.20675200  0.74761400  1
  V  V3  1  0.79330600  0.39086900  0.23933800  1
  V  V4  1  0.92112100  0.92048800  0.25731400  1
  Co  Co5  1  0.08808300  0.08290600  0.76448800  1
  O  O6  1  0.04331500  0.81831200  0.62799000  1
  O  O7  1  0.07768000  0.37958900  0.76204400  1
  O  O8  1  0.17618300  0.95712900  0.14005700  1
  O  O9  1  0.37017200  0.63763800  0.55516300  1
  O  O10  1  0.38712500  0.08551600  0.75028000  1
  O  O11  1  0.33917000  0.62101000  0.04610200  1
  O  O12  1  0.65321200  0.37966100  0.94223900  1
  O  O13  1  0.64013900  0.90745000  0.29077700  1
  O  O14  1  0.62475100  0.34208700  0.44023300  1
  O  O15  1  0.80383600  0.03620000  0.86990400  1
  O  O16  1  0.90178700  0.62785000  0.22363100  1
  O  O17  1  0.96589700  0.19919900  0.34675200  1
