# generated using pymatgen
data_NaMgNiIO6
_symmetry_space_group_name_H-M   'P 1'
_cell_length_a   5.22054000
_cell_length_b   5.22056893
_cell_length_c   5.77241500
_cell_angle_alpha   90.00055734
_cell_angle_beta   89.99874595
_cell_angle_gamma   120.00086305
_symmetry_Int_Tables_number   1
_chemical_formula_structural   NaMgNiIO6
_chemical_formula_sum   'Na1 Mg1 Ni1 I1 O6'
_cell_volume   136.24408721
_cell_formula_units_Z   1
loop_
 _symmetry_equiv_pos_site_id
 _symmetry_equiv_pos_as_xyz
  1  'x, y, z'
loop_
 _atom_site_type_symbol
 _atom_site_label
 _atom_site_symmetry_multiplicity
 _atom_site_fract_x
 _atom_site_fract_y
 _atom_site_fract_z
 _atom_site_occupancy
  Na  Na0  1  0.99999200  0.99999300  0.00000100  1
  Mg  Mg1  1  0.00005500  0.00002500  0.50000200  1
  Ni  Ni2  1  0.33334800  0.66667300  0.50000000  1
  I  I3  1  0.66655500  0.33327900  0.49999900  1
  O  O4  1  0.97285500  0.33062100  0.68183500  1
  O  O5  1  0.66938000  0.02715600  0.31817600  1
  O  O6  1  0.97285700  0.64223800  0.31816600  1
  O  O7  1  0.35779300  0.33062000  0.31818200  1
  O  O8  1  0.66937600  0.64222200  0.68182300  1
  O  O9  1  0.35778800  0.02717300  0.68181800  1
