# generated using pymatgen
data_Bi2(SeO3)3
_symmetry_space_group_name_H-M   'P 1'
_cell_length_a   4.67730780
_cell_length_b   13.50763056
_cell_length_c   15.28425487
_cell_angle_alpha   62.51112917
_cell_angle_beta   90.00000000
_cell_angle_gamma   90.00000000
_symmetry_Int_Tables_number   1
_chemical_formula_structural   Bi2(SeO3)3
_chemical_formula_sum   'Bi8 Se12 O36'
_cell_volume   856.62791558
_cell_formula_units_Z   4
loop_
 _symmetry_equiv_pos_site_id
 _symmetry_equiv_pos_as_xyz
  1  'x, y, z'
loop_
 _atom_site_type_symbol
 _atom_site_label
 _atom_site_symmetry_multiplicity
 _atom_site_fract_x
 _atom_site_fract_y
 _atom_site_fract_z
 _atom_site_occupancy
  Bi  Bi0  1  0.36067667  0.65196827  0.65687092  1
  Bi  Bi1  1  0.86067667  0.34803173  0.84312908  1
  Bi  Bi2  1  0.63932333  0.34803173  0.34312908  1
  Bi  Bi3  1  0.13932333  0.65196827  0.15687092  1
  Bi  Bi4  1  0.35943261  0.83239791  0.31014710  1
  Bi  Bi5  1  0.85943261  0.16760209  0.18985290  1
  Bi  Bi6  1  0.64056739  0.16760209  0.68985290  1
  Bi  Bi7  1  0.14056739  0.83239791  0.81014710  1
  Se  Se8  1  0.28905677  0.43227885  0.62133172  1
  Se  Se9  1  0.78905677  0.56772115  0.87866828  1
  Se  Se10  1  0.71094323  0.56772115  0.37866828  1
  Se  Se11  1  0.21094323  0.43227885  0.12133172  1
  Se  Se12  1  0.38509443  0.17167493  0.01761720  1
  Se  Se13  1  0.88509443  0.82832507  0.48238280  1
  Se  Se14  1  0.61490557  0.82832507  0.98238280  1
  Se  Se15  1  0.11490557  0.17167493  0.51761720  1
  Se  Se16  1  0.40673974  0.07008248  0.37009152  1
  Se  Se17  1  0.90673974  0.92991752  0.12990848  1
  Se  Se18  1  0.59326026  0.92991752  0.62990848  1
  Se  Se19  1  0.09326026  0.07008248  0.87009152  1
  O  O20  1  0.24778172  0.81905906  0.98932885  1
  O  O21  1  0.74778172  0.18094094  0.51067115  1
  O  O22  1  0.75221828  0.18094094  0.01067115  1
  O  O23  1  0.25221828  0.81905906  0.48932885  1
  O  O24  1  0.46906206  0.79738818  0.70625354  1
  O  O25  1  0.96906206  0.20261182  0.79374646  1
  O  O26  1  0.53093794  0.20261182  0.29374646  1
  O  O27  1  0.03093794  0.79738818  0.20625354  1
  O  O28  1  0.46747186  0.98858823  0.70031151  1
  O  O29  1  0.96747186  0.01141177  0.79968849  1
  O  O30  1  0.53252814  0.01141177  0.29968849  1
  O  O31  1  0.03252814  0.98858823  0.20031151  1
  O  O32  1  0.45312751  0.55886492  0.56361957  1
  O  O33  1  0.95312751  0.44113508  0.93638043  1
  O  O34  1  0.54687249  0.44113508  0.43638043  1
  O  O35  1  0.04687249  0.55886492  0.06361957  1
  O  O36  1  0.43324030  0.65502010  0.31753781  1
  O  O37  1  0.93324030  0.34497990  0.18246219  1
  O  O38  1  0.56675970  0.34497990  0.68246219  1
  O  O39  1  0.06675970  0.65502010  0.81753781  1
  O  O40  1  0.05111347  0.08419523  0.34457763  1
  O  O41  1  0.55111347  0.91580477  0.15542237  1
  O  O42  1  0.94888653  0.91580477  0.65542237  1
  O  O43  1  0.44888653  0.08419523  0.84457763  1
  O  O44  1  0.15470401  0.45735105  0.71621568  1
  O  O45  1  0.65470401  0.54264895  0.78378432  1
  O  O46  1  0.84529599  0.54264895  0.28378432  1
  O  O47  1  0.34529599  0.45735105  0.21621568  1
  O  O48  1  0.18978137  0.28988077  0.40988159  1
  O  O49  1  0.68978137  0.71011923  0.09011841  1
  O  O50  1  0.81021863  0.71011923  0.59011841  1
  O  O51  1  0.31021863  0.28988077  0.90988159  1
  O  O52  1  0.16686364  0.21130481  0.60781741  1
  O  O53  1  0.66686364  0.78869519  0.89218259  1
  O  O54  1  0.83313636  0.78869519  0.39218259  1
  O  O55  1  0.33313636  0.21130481  0.10781741  1
