# generated using pymatgen
data_Na6Hf3ZnSi2(PO6)4
_symmetry_space_group_name_H-M   'P 1'
_cell_length_a   15.70743705
_cell_length_b   9.06916817
_cell_length_c   9.08812926
_cell_angle_alpha   90.40586654
_cell_angle_beta   124.70707958
_cell_angle_gamma   89.85798931
_symmetry_Int_Tables_number   1
_chemical_formula_structural   Na6Hf3ZnSi2(PO6)4
_chemical_formula_sum   'Na12 Hf6 Zn2 Si4 P8 O48'
_cell_volume   1064.25661028
_cell_formula_units_Z   2
loop_
 _symmetry_equiv_pos_site_id
 _symmetry_equiv_pos_as_xyz
  1  'x, y, z'
loop_
 _atom_site_type_symbol
 _atom_site_label
 _atom_site_symmetry_multiplicity
 _atom_site_fract_x
 _atom_site_fract_y
 _atom_site_fract_z
 _atom_site_occupancy
  Na  Na0  1  0.25022884  0.74844239  0.99895779  1
  Na  Na1  1  0.74071826  0.74672921  0.47519982  1
  Na  Na2  1  0.75022884  0.24844239  0.99895779  1
  Na  Na3  1  0.24071826  0.24672921  0.47519982  1
  Na  Na4  1  0.51005947  0.08864817  0.76939986  1
  Na  Na5  1  0.49830210  0.88545454  0.23144904  1
  Na  Na6  1  0.01005947  0.58864817  0.76939986  1
  Na  Na7  1  0.99830210  0.38545454  0.23144904  1
  Na  Na8  1  0.79810547  0.92495014  0.20990006  1
  Na  Na9  1  0.18434845  0.08124262  0.80893147  1
  Na  Na10  1  0.29810547  0.42495014  0.20990006  1
  Na  Na11  1  0.68434845  0.58124262  0.80893147  1
  Hf  Hf12  1  0.10410918  0.74895557  0.55773420  1
  Hf  Hf13  1  0.89470823  0.75486194  0.93495334  1
  Hf  Hf14  1  0.89602909  0.25325723  0.44195094  1
  Hf  Hf15  1  0.60410918  0.24895557  0.55773420  1
  Hf  Hf16  1  0.39470823  0.25486194  0.93495334  1
  Hf  Hf17  1  0.39602909  0.75325723  0.44195094  1
  Zn  Zn18  1  0.10492212  0.24178214  0.05568960  1
  Zn  Zn19  1  0.60492212  0.74178214  0.05568960  1
  Si  Si20  1  0.64983837  0.89928196  0.75118482  1
  Si  Si21  1  0.35121233  0.10065164  0.25118450  1
  Si  Si22  1  0.14983837  0.39928196  0.75118482  1
  Si  Si23  1  0.85121233  0.60065164  0.25118450  1
  P  P24  1  0.99814705  0.95687540  0.74670992  1
  P  P25  1  0.00179010  0.04571852  0.25509589  1
  P  P26  1  0.49814705  0.45687540  0.74670992  1
  P  P27  1  0.50179010  0.54571852  0.25509589  1
  P  P28  1  0.35703889  0.89605878  0.76558548  1
  P  P29  1  0.64600746  0.10723240  0.24186262  1
  P  P30  1  0.85703889  0.39605878  0.76558548  1
  P  P31  1  0.14600746  0.60723240  0.24186262  1
  O  O32  1  0.15708864  0.57932785  0.73629223  1
  O  O33  1  0.85347705  0.56948403  0.75707561  1
  O  O34  1  0.84962925  0.41810792  0.25710713  1
  O  O35  1  0.15272114  0.43875704  0.25331212  1
  O  O36  1  0.65708864  0.07932785  0.73629223  1
  O  O37  1  0.35347705  0.06948403  0.75707561  1
  O  O38  1  0.34962925  0.91810792  0.25710713  1
  O  O39  1  0.65272114  0.93875704  0.25331212  1
  O  O40  1  0.43089177  0.54922370  0.57390666  1
  O  O41  1  0.56535828  0.55387786  0.91105668  1
  O  O42  1  0.56341825  0.45203636  0.42599763  1
  O  O43  1  0.44211966  0.43775061  0.09136504  1
  O  O44  1  0.93089177  0.04922370  0.57390666  1
  O  O45  1  0.06535828  0.05387786  0.91105668  1
  O  O46  1  0.06341825  0.95203636  0.42599763  1
  O  O47  1  0.94211966  0.93775061  0.09136504  1
  O  O48  1  0.25550090  0.84539048  0.74184472  1
  O  O49  1  0.74496345  0.81598561  0.75648108  1
  O  O50  1  0.74158441  0.16982466  0.25224314  1
  O  O51  1  0.25890335  0.18347649  0.24622352  1
  O  O52  1  0.75550090  0.34539048  0.74184472  1
  O  O53  1  0.24496345  0.31598561  0.75648108  1
  O  O54  1  0.24158441  0.66982466  0.25224314  1
  O  O55  1  0.75890335  0.68347649  0.24622352  1
  O  O56  1  0.36039297  0.84813242  0.60321720  1
  O  O57  1  0.64982524  0.87031776  0.92616589  1
  O  O58  1  0.64538679  0.16625161  0.40125704  1
  O  O59  1  0.35339877  0.13952969  0.07408684  1
  O  O60  1  0.86039297  0.34813242  0.60321720  1
  O  O61  1  0.14982524  0.37031776  0.92616589  1
  O  O62  1  0.14538679  0.66625161  0.40125704  1
  O  O63  1  0.85339877  0.63952969  0.07408684  1
  O  O64  1  0.45113591  0.84037342  0.94014876  1
  O  O65  1  0.54083014  0.82985998  0.57368736  1
  O  O66  1  0.54629899  0.16181041  0.06596725  1
  O  O67  1  0.46383529  0.15882254  0.42552366  1
  O  O68  1  0.95113591  0.34037342  0.94014876  1
  O  O69  1  0.04083014  0.32985998  0.57368736  1
  O  O70  1  0.04629899  0.66181041  0.06596725  1
  O  O71  1  0.96383529  0.65882254  0.42552366  1
  O  O72  1  0.07695001  0.85873491  0.73435591  1
  O  O73  1  0.92656737  0.84636187  0.75720023  1
  O  O74  1  0.91371051  0.13022314  0.25514871  1
  O  O75  1  0.07044643  0.15619702  0.24454622  1
  O  O76  1  0.57695001  0.35873491  0.73435591  1
  O  O77  1  0.42656737  0.34636187  0.75720023  1
  O  O78  1  0.41371051  0.63022314  0.25514871  1
  O  O79  1  0.57044643  0.65619702  0.24454622  1
