# generated using pymatgen
data_LiGaCl3
_symmetry_space_group_name_H-M   'P 1'
_cell_length_a   6.12982850
_cell_length_b   9.67455319
_cell_length_c   15.08643494
_cell_angle_alpha   90.00000000
_cell_angle_beta   90.00000000
_cell_angle_gamma   90.00000000
_symmetry_Int_Tables_number   1
_chemical_formula_structural   LiGaCl3
_chemical_formula_sum   'Li8 Ga8 Cl24'
_cell_volume   894.67615969
_cell_formula_units_Z   8
loop_
 _symmetry_equiv_pos_site_id
 _symmetry_equiv_pos_as_xyz
  1  'x, y, z'
loop_
 _atom_site_type_symbol
 _atom_site_label
 _atom_site_symmetry_multiplicity
 _atom_site_fract_x
 _atom_site_fract_y
 _atom_site_fract_z
 _atom_site_occupancy
  Li  Li0  1  0.38375670  0.99124066  0.36886181  1
  Li  Li1  1  0.88375670  0.00875934  0.13113819  1
  Li  Li2  1  0.61624330  0.49124066  0.63113819  1
  Li  Li3  1  0.11624330  0.50875934  0.86886181  1
  Li  Li4  1  0.61624330  0.00875934  0.63113819  1
  Li  Li5  1  0.11624330  0.99124066  0.86886181  1
  Li  Li6  1  0.38375670  0.50875934  0.36886181  1
  Li  Li7  1  0.88375670  0.49124066  0.13113819  1
  Ga  Ga8  1  0.54764447  0.75000000  0.99359255  1
  Ga  Ga9  1  0.04764447  0.25000000  0.50640745  1
  Ga  Ga10  1  0.45235553  0.25000000  0.00640745  1
  Ga  Ga11  1  0.95235553  0.75000000  0.49359255  1
  Ga  Ga12  1  0.41273258  0.75000000  0.14188989  1
  Ga  Ga13  1  0.91273258  0.25000000  0.35811011  1
  Ga  Ga14  1  0.58726742  0.25000000  0.85811011  1
  Ga  Ga15  1  0.08726742  0.75000000  0.64188989  1
  Cl  Cl16  1  0.04934405  0.75000000  0.15647855  1
  Cl  Cl17  1  0.54934405  0.25000000  0.34352145  1
  Cl  Cl18  1  0.95065595  0.25000000  0.84352145  1
  Cl  Cl19  1  0.45065595  0.75000000  0.65647855  1
  Cl  Cl20  1  0.21014569  0.75000000  0.38778555  1
  Cl  Cl21  1  0.71014569  0.25000000  0.11221445  1
  Cl  Cl22  1  0.78985431  0.25000000  0.61221445  1
  Cl  Cl23  1  0.28985431  0.75000000  0.88778555  1
  Cl  Cl24  1  0.95318304  0.57120988  0.72064468  1
  Cl  Cl25  1  0.45318304  0.42879012  0.77935532  1
  Cl  Cl26  1  0.04681696  0.07120988  0.27935532  1
  Cl  Cl27  1  0.54681696  0.92879012  0.22064468  1
  Cl  Cl28  1  0.04681696  0.42879012  0.27935532  1
  Cl  Cl29  1  0.54681696  0.57120988  0.22064468  1
  Cl  Cl30  1  0.95318304  0.92879012  0.72064468  1
  Cl  Cl31  1  0.45318304  0.07120988  0.77935532  1
  Cl  Cl32  1  0.73503487  0.93408840  0.46760417  1
  Cl  Cl33  1  0.23503487  0.06591160  0.03239583  1
  Cl  Cl34  1  0.26496513  0.43408840  0.53239583  1
  Cl  Cl35  1  0.76496513  0.56591160  0.96760417  1
  Cl  Cl36  1  0.26496513  0.06591160  0.53239583  1
  Cl  Cl37  1  0.76496513  0.93408840  0.96760417  1
  Cl  Cl38  1  0.73503487  0.56591160  0.46760417  1
  Cl  Cl39  1  0.23503487  0.43408840  0.03239583  1
