# generated using pymatgen
data_Sr2MgZrCrO6
_symmetry_space_group_name_H-M   'P 1'
_cell_length_a   6.60627882
_cell_length_b   5.71839895
_cell_length_c   5.79583101
_cell_angle_alpha   89.99952467
_cell_angle_beta   116.01868974
_cell_angle_gamma   115.64564220
_symmetry_Int_Tables_number   1
_chemical_formula_structural   Sr2MgZrCrO6
_chemical_formula_sum   'Sr2 Mg1 Zr1 Cr1 O6'
_cell_volume   172.43803383
_cell_formula_units_Z   1
loop_
 _symmetry_equiv_pos_site_id
 _symmetry_equiv_pos_as_xyz
  1  'x, y, z'
loop_
 _atom_site_type_symbol
 _atom_site_label
 _atom_site_symmetry_multiplicity
 _atom_site_fract_x
 _atom_site_fract_y
 _atom_site_fract_z
 _atom_site_occupancy
  Sr  Sr0  1  0.35583900  0.17792000  0.67792000  1
  Sr  Sr1  1  0.64416100  0.82208000  0.32208000  1
  Mg  Mg2  1  0.00000000  0.50000000  0.00000000  1
  Zr  Zr3  1  0.00000000  0.50000000  0.50000000  1
  Cr  Cr4  1  0.00000000  0.00000000  0.00000000  1
  O  O5  1  0.00000000  0.24573300  0.24124300  1
  O  O6  1  0.00000000  0.75426700  0.75875700  1
  O  O7  1  0.58876400  0.29438300  0.29438300  1
  O  O8  1  0.41123600  0.70561700  0.70561700  1
  O  O9  1  0.00000000  0.75426900  0.24124300  1
  O  O10  1  0.00000000  0.24573100  0.75875700  1
