# generated using pymatgen
data_MgMn2Co5O12
_symmetry_space_group_name_H-M   'P 1'
_cell_length_a   5.15740411
_cell_length_b   5.15896967
_cell_length_c   10.01553070
_cell_angle_alpha   84.37468657
_cell_angle_beta   95.58280251
_cell_angle_gamma   58.05481444
_symmetry_Int_Tables_number   1
_chemical_formula_structural   MgMn2Co5O12
_chemical_formula_sum   'Mg1 Mn2 Co5 O12'
_cell_volume   221.49799251
_cell_formula_units_Z   1
loop_
 _symmetry_equiv_pos_site_id
 _symmetry_equiv_pos_as_xyz
  1  'x, y, z'
loop_
 _atom_site_type_symbol
 _atom_site_label
 _atom_site_symmetry_multiplicity
 _atom_site_fract_x
 _atom_site_fract_y
 _atom_site_fract_z
 _atom_site_occupancy
  Mg  Mg0  1  0.91955600  0.91958400  0.75002000  1
  Mn  Mn1  1  0.24891400  0.24822900  0.75005600  1
  Mn  Mn2  1  0.75476500  0.75477800  0.25001500  1
  Co  Co3  1  0.08458600  0.08458800  0.24993100  1
  Co  Co4  1  0.00977200  0.49433300  0.99847900  1
  Co  Co5  1  0.49402800  0.01003200  0.50145400  1
  Co  Co6  1  0.42138000  0.42132200  0.25000700  1
  Co  Co7  1  0.58017500  0.57984400  0.74990200  1
  O  O8  1  0.94931600  0.24300800  0.85474300  1
  O  O9  1  0.24295700  0.94926100  0.64536300  1
  O  O10  1  0.13042200  0.37858200  0.35987900  1
  O  O11  1  0.37856600  0.13064100  0.14011100  1
  O  O12  1  0.28278900  0.51587000  0.85592300  1
  O  O13  1  0.51585700  0.28262100  0.64388600  1
  O  O14  1  0.46699900  0.73981600  0.35519300  1
  O  O15  1  0.73985100  0.46715700  0.14478800  1
  O  O16  1  0.61621300  0.85561400  0.85891300  1
  O  O17  1  0.85489900  0.61594000  0.64131600  1
  O  O18  1  0.77105000  0.04130700  0.35588600  1
  O  O19  1  0.04148100  0.77105000  0.14413300  1
