# generated using pymatgen
data_Ba2MgCrMoO6
_symmetry_space_group_name_H-M   'P 1'
_cell_length_a   6.06599690
_cell_length_b   6.58944749
_cell_length_c   6.06513916
_cell_angle_alpha   63.05497204
_cell_angle_beta   60.07936122
_cell_angle_gamma   63.09936206
_symmetry_Int_Tables_number   1
_chemical_formula_structural   Ba2MgCrMoO6
_chemical_formula_sum   'Ba2 Mg1 Cr1 Mo1 O6'
_cell_volume   179.08693455
_cell_formula_units_Z   1
loop_
 _symmetry_equiv_pos_site_id
 _symmetry_equiv_pos_as_xyz
  1  'x, y, z'
loop_
 _atom_site_type_symbol
 _atom_site_label
 _atom_site_symmetry_multiplicity
 _atom_site_fract_x
 _atom_site_fract_y
 _atom_site_fract_z
 _atom_site_occupancy
  Ba  Ba0  1  0.19079621  0.42573497  0.19097101  1
  Ba  Ba1  1  0.77764163  0.67120899  0.77729504  1
  Mg  Mg2  1  0.39872845  0.80536296  0.39859399  1
  Cr  Cr3  1  0.99478294  0.01553157  0.99483389  1
  Mo  Mo4  1  0.58058250  0.25673467  0.58066375  1
  O  O5  1  0.75996300  0.26999820  0.20949360  1
  O  O6  1  0.76087068  0.26690589  0.76089731  1
  O  O7  1  0.76206440  0.79597122  0.22071037  1
  O  O8  1  0.22055513  0.79640930  0.76186539  1
  O  O9  1  0.21971390  0.80082267  0.21977062  1
  O  O10  1  0.20930115  0.27031956  0.75990501  1
