# generated using pymatgen
data_Na3La2Sc2P3(SO8)3
_symmetry_space_group_name_H-M   'P 1'
_cell_length_a   9.13048265
_cell_length_b   9.12077140
_cell_length_c   23.91230510
_cell_angle_alpha   89.39377767
_cell_angle_beta   90.45562003
_cell_angle_gamma   119.88942999
_symmetry_Int_Tables_number   1
_chemical_formula_structural   Na3La2Sc2P3(SO8)3
_chemical_formula_sum   'Na9 La6 Sc6 P9 S9 O72'
_cell_volume   1726.36968299
_cell_formula_units_Z   3
loop_
 _symmetry_equiv_pos_site_id
 _symmetry_equiv_pos_as_xyz
  1  'x, y, z'
loop_
 _atom_site_type_symbol
 _atom_site_label
 _atom_site_symmetry_multiplicity
 _atom_site_fract_x
 _atom_site_fract_y
 _atom_site_fract_z
 _atom_site_occupancy
  Na  Na0  1  0.36085567  0.35938544  0.25278711  1
  Na  Na1  1  0.67846536  0.01123127  0.92333215  1
  Na  Na2  1  0.98631232  0.31188805  0.41137942  1
  Na  Na3  1  0.01364469  0.99111950  0.49299535  1
  Na  Na4  1  0.00800202  0.98217947  0.00732690  1
  Na  Na5  1  0.65157521  0.33902647  0.83886422  1
  Na  Na6  1  0.66472444  0.33499441  0.33473115  1
  Na  Na7  1  0.33812157  0.71338460  0.17611639  1
  Na  Na8  1  0.33234422  0.66817224  0.66893495  1
  La  La9  1  0.00358620  0.99341458  0.85321363  1
  La  La10  1  0.98777875  0.01335151  0.64262934  1
  La  La11  1  0.67428277  0.31850562  0.68307699  1
  La  La12  1  0.33765643  0.67308868  0.02904429  1
  La  La13  1  0.32256463  0.66247191  0.50716139  1
  La  La14  1  0.35028005  0.67844111  0.82301530  1
  Sc  Sc15  1  0.00866478  -0.00032154  0.34358688  1
  Sc  Sc16  1  0.00166104  0.00509923  0.15299703  1
  Sc  Sc17  1  0.67311751  0.31599714  0.18989572  1
  Sc  Sc18  1  0.66575607  0.33136424  0.99191256  1
  Sc  Sc19  1  0.66691804  0.34102441  0.47428264  1
  Sc  Sc20  1  0.31837505  0.66319006  0.31442309  1
  P  P21  1  0.29076650  0.99718163  0.24818389  1
  P  P22  1  0.00490489  0.29400214  0.25174459  1
  P  P23  1  0.68537743  0.99336958  0.75616512  1
  P  P24  1  0.95902020  0.32782351  0.57008270  1
  P  P25  1  0.68938724  0.05287193  0.08897160  1
  P  P26  1  0.63885396  0.65543036  0.92415796  1
  P  P27  1  0.34946613  0.98993741  0.92439544  1
  P  P28  1  0.33049324  0.35997104  0.40648439  1
  P  P29  1  0.02289312  0.66513460  0.40951891  1
  S  S30  1  0.70181898  0.70643524  0.24873223  1
  S  S31  1  0.31024364  0.31716493  0.74866274  1
  S  S32  1  0.00803550  0.69300115  0.74779335  1
  S  S33  1  0.36769513  0.04120665  0.57398408  1
  S  S34  1  0.67142902  0.62845175  0.57511503  1
  S  S35  1  0.94022837  0.62660816  0.09241679  1
  S  S36  1  0.37255554  0.31163896  0.09285112  1
  S  S37  1  0.01313636  0.36228635  0.92242162  1
  S  S38  1  0.64253344  0.97459300  0.40989261  1
  O  O39  1  0.20797841  0.03402041  0.29817662  1
  O  O40  1  0.80426678  0.79030888  0.29816605  1
  O  O41  1  0.97667579  0.19034780  0.30580229  1
  O  O42  1  0.21597747  0.22937091  0.80027617  1
  O  O43  1  0.02841631  0.78979036  0.80000432  1
  O  O44  1  0.75632228  -0.02742036  0.81325669  1
  O  O45  1  0.80366049  0.01202367  0.70669347  1
  O  O46  1  0.22531149  0.21529581  0.69821895  1
  O  O47  1  -0.00070420  0.78576964  0.69789784  1
  O  O48  1  0.78398624  0.80586880  0.19724709  1
  O  O49  1  0.03662954  0.20298102  0.20228807  1
  O  O50  1  0.17967457  0.96699998  0.19560053  1
  O  O51  1  0.86627837  0.31383502  0.62579333  1
  O  O52  1  0.43768838  0.12351882  0.62887322  1
  O  O53  1  0.67497034  0.54855443  0.62919031  1
  O  O54  1  0.84552754  0.52983862  0.14179768  1
  O  O55  1  0.67753759  0.15451608  0.13838389  1
  O  O56  1  0.46870636  0.32420046  0.14398352  1
  O  O57  1  0.46198192  0.30522677  0.04178873  1
  O  O58  1  0.85095849  0.54148169  0.03982002  1
  O  O59  1  0.69782282  0.14500438  0.03272805  1
  O  O60  1  0.47722560  0.14319464  0.52699782  1
  O  O61  1  0.65546443  0.51931694  0.52699954  1
  O  O62  1  0.86115850  0.34190576  0.51866888  1
  O  O63  1  0.53132748  0.67989198  0.96878647  1
  O  O64  1  0.12153945  0.45211921  0.97029006  1
  O  O65  1  0.32501383  0.86932103  0.97338330  1
  O  O66  1  0.58191857  0.88646037  0.46426159  1
  O  O67  1  0.28188863  0.43174240  0.45719196  1
  O  O68  1  0.11965435  0.70829659  0.46544440  1
  O  O69  1  0.12839693  0.63190672  0.36477184  1
  O  O70  1  0.52502284  0.87817748  0.36387676  1
  O  O71  1  0.35830291  0.47663774  0.35469749  1
  O  O72  1  0.08953378  0.44689725  0.86854599  1
  O  O73  1  0.37202129  0.91267904  0.86948847  1
  O  O74  1  0.55006192  0.62933149  0.86650211  1
  O  O75  1  -0.01017254  0.80868974  0.39392593  1
  O  O76  1  0.81524067  0.00173194  0.40072278  1
  O  O77  1  0.17297338  0.18177530  0.39846824  1
  O  O78  1  0.98119780  0.18390086  0.92252515  1
  O  O79  1  0.20013142  0.02377690  0.92221789  1
  O  O80  1  0.81287773  0.82348069  0.92391008  1
  O  O81  1  0.97232555  0.16488597  0.56435870  1
  O  O82  1  0.19668298  0.02196516  0.56729532  1
  O  O83  1  0.83160545  0.79338269  0.56905583  1
  O  O84  1  0.95926533  0.79877446  0.09257999  1
  O  O85  1  0.84995004  0.03640467  0.09469321  1
  O  O86  1  0.20350997  0.15459074  0.09362647  1
  O  O87  1  0.66701325  0.15328206  0.75941425  1
  O  O88  1  0.48419650  0.34316789  0.75348411  1
  O  O89  1  0.84928756  0.52738521  0.75361800  1
  O  O90  1  0.67540868  0.52980930  0.24525818  1
  O  O91  1  0.85091443  0.31976998  0.24283436  1
  O  O92  1  0.46877194  0.16026575  0.24209546  1
  O  O93  1  0.66288721  0.50391211  0.93681321  1
  O  O94  1  0.84544521  0.35123381  0.92725933  1
  O  O95  1  0.51863386  0.15815728  0.93192336  1
  O  O96  1  0.65915337  0.14775575  0.41290784  1
  O  O97  1  0.49102706  0.34679801  0.41740910  1
  O  O98  1  0.85151721  0.49392262  0.41459669  1
  O  O99  1  0.34846135  0.46142315  0.09031461  1
  O  O100  1  0.11146923  0.64220535  0.09333165  1
  O  O101  1  0.52892248  0.87454210  0.09126769  1
  O  O102  1  0.35616242  0.87318734  0.57606825  1
  O  O103  1  0.52562520  0.65770158  0.57584235  1
  O  O104  1  0.13700821  0.48501944  0.57482888  1
  O  O105  1  0.31284114  0.84073217  0.25884009  1
  O  O106  1  0.52838350  0.68693303  0.25346464  1
  O  O107  1  0.16988634  0.47151688  0.25720391  1
  O  O108  1  0.31644729  0.48200478  0.74359231  1
  O  O109  1  0.15435997  0.66579457  0.74297348  1
  O  O110  1  0.51083182  0.83522611  0.74543846  1
