# generated using pymatgen
data_Na10Hf5Mg3Si6(SO8)6
_symmetry_space_group_name_H-M   'P 1'
_cell_length_a   18.04198958
_cell_length_b   9.00939628
_cell_length_c   22.88831194
_cell_angle_alpha   90.06640803
_cell_angle_beta   89.83901004
_cell_angle_gamma   119.79450426
_symmetry_Int_Tables_number   1
_chemical_formula_structural   Na10Hf5Mg3Si6(SO8)6
_chemical_formula_sum   'Na30 Hf15 Mg9 Si18 S18 O144'
_cell_volume   3228.63062440
_cell_formula_units_Z   3
loop_
 _symmetry_equiv_pos_site_id
 _symmetry_equiv_pos_as_xyz
  1  'x, y, z'
loop_
 _atom_site_type_symbol
 _atom_site_label
 _atom_site_symmetry_multiplicity
 _atom_site_fract_x
 _atom_site_fract_y
 _atom_site_fract_z
 _atom_site_occupancy
  Na  Na0  1  0.31741550  0.99918835  0.24651267  1
  Na  Na1  1  0.19517602  0.37080753  0.24593255  1
  Na  Na2  1  0.68899672  0.36921263  0.24568903  1
  Na  Na3  1  0.99784588  0.64140929  0.25053743  1
  Na  Na4  1  0.31856184  0.61984458  0.75285796  1
  Na  Na5  1  0.81885772  0.62882762  0.74875794  1
  Na  Na6  1  0.99468362  0.36254947  0.75010374  1
  Na  Na7  1  0.49782486  0.37282876  0.74490678  1
  Na  Na8  1  0.18044631  0.00670266  0.74826479  1
  Na  Na9  1  0.68522631  0.00893465  0.74921178  1
  Na  Na10  1  0.64646589  0.34516501  0.57877874  1
  Na  Na11  1  0.32352337  0.68361380  0.08115671  1
  Na  Na12  1  0.82571072  0.68561430  0.08618345  1
  Na  Na13  1  0.16531396  0.31555089  0.92114930  1
  Na  Na14  1  0.99141034  0.30693939  0.41933488  1
  Na  Na15  1  0.16458693  0.03033781  0.41786105  1
  Na  Na16  1  0.66310560  0.03076085  0.41469216  1
  Na  Na17  1  0.84405125  0.66778572  0.41682583  1
  Na  Na18  1  0.00140009  0.00354324  0.49941169  1
  Na  Na19  1  0.49549951  0.00895058  0.49631684  1
  Na  Na20  1  0.00548188  0.01868306  0.99973719  1
  Na  Na21  1  0.50214044  0.01666330  0.99656701  1
  Na  Na22  1  0.34125555  0.35131586  0.83361466  1
  Na  Na23  1  0.83705153  0.33448145  0.82892632  1
  Na  Na24  1  0.33554324  0.35506025  0.32754106  1
  Na  Na25  1  0.83222924  0.33427688  0.33086665  1
  Na  Na26  1  0.16923565  0.66324874  0.16019173  1
  Na  Na27  1  0.66561473  0.66341265  0.16104845  1
  Na  Na28  1  0.16248507  0.66068746  0.66277538  1
  Na  Na29  1  0.66052822  0.66398635  0.66255778  1
  Hf  Hf30  1  0.00098054  0.99231260  0.35344383  1
  Hf  Hf31  1  0.99813211  0.00508476  0.84930658  1
  Hf  Hf32  1  0.50216548  0.99875537  0.85651441  1
  Hf  Hf33  1  0.00120652  0.00196238  0.65113813  1
  Hf  Hf34  1  0.50257305  0.00622621  0.64687499  1
  Hf  Hf35  1  0.00571948  0.99902854  0.14692292  1
  Hf  Hf36  1  0.50005940  0.00174294  0.14624255  1
  Hf  Hf37  1  0.33478303  0.34078082  0.97904902  1
  Hf  Hf38  1  0.82960838  0.32706174  0.98126524  1
  Hf  Hf39  1  0.33800230  0.33859704  0.48391043  1
  Hf  Hf40  1  0.83307061  0.33536442  0.47758274  1
  Hf  Hf41  1  0.17173104  0.66584809  0.31646714  1
  Hf  Hf42  1  0.67383924  0.67206905  0.31683226  1
  Hf  Hf43  1  0.15916664  0.64669488  0.81884368  1
  Hf  Hf44  1  0.65945624  0.65605715  0.81306404  1
  Mg  Mg45  1  0.49685979  0.99610174  0.35176515  1
  Mg  Mg46  1  0.33885629  0.34765987  0.68294746  1
  Mg  Mg47  1  0.83556576  0.33524257  0.68942347  1
  Mg  Mg48  1  0.32870267  0.34431763  0.18546482  1
  Mg  Mg49  1  0.82856012  0.33660086  0.18163184  1
  Mg  Mg50  1  0.16659291  0.64371317  0.01637626  1
  Mg  Mg51  1  0.65874804  0.64178340  0.01909747  1
  Mg  Mg52  1  0.16214470  0.65769195  0.51531096  1
  Mg  Mg53  1  0.66236456  0.65452908  0.51638548  1
  Si  Si54  1  0.15055638  0.00110492  0.25056322  1
  Si  Si55  1  0.35876471  0.70848559  0.25204901  1
  Si  Si56  1  0.85254090  0.70364795  0.24795706  1
  Si  Si57  1  0.14973779  0.29388483  0.74939722  1
  Si  Si58  1  0.64700783  0.28956805  0.74985906  1
  Si  Si59  1  0.00145130  0.70820336  0.75029442  1
  Si  Si60  1  0.49720442  0.70681159  0.74959464  1
  Si  Si61  1  0.85220808  0.99970900  0.74883087  1
  Si  Si62  1  0.48269874  0.33993088  0.58655432  1
  Si  Si63  1  0.18618652  0.33662753  0.08415705  1
  Si  Si64  1  0.68609148  0.33801287  0.08552313  1
  Si  Si65  1  0.31395961  0.67311462  0.91937689  1
  Si  Si66  1  0.01593533  0.36838461  0.92008378  1
  Si  Si67  1  0.52011889  0.37349690  0.91863931  1
  Si  Si68  1  0.81037359  0.95361885  0.42069052  1
  Si  Si69  1  0.16957401  0.37631933  0.41890962  1
  Si  Si70  1  0.65857217  0.36305095  0.41872835  1
  Si  Si71  1  0.02493715  0.66790435  0.41822590  1
  S  S72  1  0.64540728  0.99843935  0.25071178  1
  S  S73  1  0.99728870  0.28931166  0.24956490  1
  S  S74  1  0.49951520  0.29110441  0.25080138  1
  S  S75  1  0.35442307  0.00004186  0.75012081  1
  S  S76  1  0.98006074  0.33543785  0.58410628  1
  S  S77  1  0.18794485  0.03852096  0.58407982  1
  S  S78  1  0.68900045  0.03846448  0.58406271  1
  S  S79  1  0.33076639  0.62567032  0.58447853  1
  S  S80  1  0.83443993  0.62729905  0.58435054  1
  S  S81  1  0.48028324  0.62209196  0.08506570  1
  S  S82  1  0.98026243  0.62131231  0.08395687  1
  S  S83  1  0.33194839  0.04323616  0.08518756  1
  S  S84  1  0.83187931  0.04258578  0.08440705  1
  S  S85  1  0.81254718  0.66792757  0.91877789  1
  S  S86  1  0.16617003  0.95386388  0.91877020  1
  S  S87  1  0.66794257  0.95449937  0.91910094  1
  S  S88  1  0.31418296  0.95809781  0.41899621  1
  S  S89  1  0.52155108  0.66704167  0.41744171  1
  O  O90  1  0.10390862  0.03482961  0.30689480  1
  O  O91  1  0.60836507  0.02975813  0.30361654  1
  O  O92  1  0.41435187  0.81145477  0.30670447  1
  O  O93  1  0.91145247  0.79741664  0.30591142  1
  O  O94  1  0.48753659  0.18665185  0.30259673  1
  O  O95  1  0.98572021  0.18926475  0.30348732  1
  O  O96  1  0.10455387  0.17488005  0.80738909  1
  O  O97  1  0.59929820  0.16421872  0.80430892  1
  O  O98  1  0.48251561  0.80198783  0.80469082  1
  O  O99  1  0.98420778  0.79830778  0.80644873  1
  O  O100  1  0.40891683  0.02955775  0.80166928  1
  O  O101  1  0.91515437  0.03483210  0.80482286  1
  O  O102  1  0.39345917  0.96661186  0.69765219  1
  O  O103  1  0.89752226  0.95905277  0.69315378  1
  O  O104  1  0.08275374  0.20554924  0.69468897  1
  O  O105  1  0.58447874  0.20739904  0.69188659  1
  O  O106  1  0.02037425  0.83643775  0.69382832  1
  O  O107  1  0.51510905  0.83237598  0.69279857  1
  O  O108  1  0.39928610  0.83267925  0.19221944  1
  O  O109  1  0.89684042  0.82356653  0.19021016  1
  O  O110  1  0.01303612  0.20724590  0.19842837  1
  O  O111  1  0.51779833  0.21211779  0.19810615  1
  O  O112  1  0.08325693  0.96444017  0.19611096  1
  O  O113  1  0.59112066  0.97702976  0.19839418  1
  O  O114  1  0.43554632  0.35228854  0.64427488  1
  O  O115  1  0.93721412  0.35319628  0.63620618  1
  O  O116  1  0.23769751  0.12180833  0.63666353  1
  O  O117  1  0.73986702  0.12410209  0.63643400  1
  O  O118  1  0.31825404  0.52276700  0.63711284  1
  O  O119  1  0.82294393  0.51883695  0.63583096  1
  O  O120  1  0.44052762  0.51727874  0.13649582  1
  O  O121  1  0.94155856  0.52160423  0.13763952  1
  O  O122  1  0.32553711  0.12517917  0.13888015  1
  O  O123  1  0.82324528  0.12658997  0.13638086  1
  O  O124  1  0.24384432  0.36276945  0.14099081  1
  O  O125  1  0.74338541  0.36560062  0.14302195  1
  O  O126  1  0.23155636  0.30413479  0.02531366  1
  O  O127  1  0.73540445  0.30836549  0.02861326  1
  O  O128  1  0.42503434  0.54618167  0.03207223  1
  O  O129  1  0.92255476  0.53785732  0.03256868  1
  O  O130  1  0.34760308  0.15142807  0.03281434  1
  O  O131  1  0.84684599  0.15205115  0.03122260  1
  O  O132  1  0.22925117  0.14784052  0.53022691  1
  O  O133  1  0.72875293  0.15175317  0.53101169  1
  O  O134  1  0.34429327  0.54009837  0.53202150  1
  O  O135  1  0.84578262  0.54254393  0.53057361  1
  O  O136  1  0.41996371  0.30955439  0.52859793  1
  O  O137  1  0.92671551  0.31203639  0.53041697  1
  O  O138  1  0.27400941  0.70311730  0.97692956  1
  O  O139  1  0.77429228  0.69546210  0.97059003  1
  O  O140  1  0.08004661  0.45930824  0.97195312  1
  O  O141  1  0.57927063  0.46359734  0.97254024  1
  O  O142  1  0.15442795  0.85059889  0.96892724  1
  O  O143  1  0.65772779  0.85297621  0.96978584  1
  O  O144  1  0.27254783  0.85280645  0.46973852  1
  O  O145  1  0.76698458  0.83184085  0.47476816  1
  O  O146  1  0.14815713  0.46015059  0.47274512  1
  O  O147  1  0.65208519  0.45234343  0.47667479  1
  O  O148  1  0.08623996  0.71368455  0.47276899  1
  O  O149  1  0.57473253  0.69543117  0.46869427  1
  O  O150  1  0.06140898  0.62824861  0.35748236  1
  O  O151  1  0.55994181  0.63654142  0.36371609  1
  O  O152  1  0.25907027  0.88337315  0.36447029  1
  O  O153  1  0.74954908  0.87644687  0.36136249  1
  O  O154  1  0.18216783  0.48553232  0.35777869  1
  O  O155  1  0.68205200  0.49140716  0.35983758  1
  O  O156  1  0.05682706  0.47845962  0.85759605  1
  O  O157  1  0.56185181  0.48840891  0.85765902  1
  O  O158  1  0.17893869  0.87940848  0.86285136  1
  O  O159  1  0.68154435  0.88211046  0.86353094  1
  O  O160  1  0.25453526  0.63692983  0.85883931  1
  O  O161  1  0.76135795  0.64279347  0.86449539  1
  O  O162  1  0.00806702  0.83119468  0.41053912  1
  O  O163  1  0.51267246  0.82047902  0.40966178  1
  O  O164  1  0.39951312  0.98206383  0.41001328  1
  O  O165  1  0.90697716  0.98553754  0.40850817  1
  O  O166  1  0.08260491  0.18602448  0.40896926  1
  O  O167  1  0.58368437  0.16789247  0.40791750  1
  O  O168  1  0.01224021  0.18110400  0.91132827  1
  O  O169  1  0.50986245  0.18409117  0.90763664  1
  O  O170  1  0.09050943  0.98019058  0.91129959  1
  O  O171  1  0.59191180  0.97700242  0.91198563  1
  O  O172  1  0.40979845  0.83298136  0.90944881  1
  O  O173  1  0.89988237  0.81812932  0.91122876  1
  O  O174  1  0.49162525  0.16070396  0.58765387  1
  O  O175  1  0.98706616  0.17592095  0.58731505  1
  O  O176  1  0.10117515  0.02514580  0.58707717  1
  O  O177  1  0.60284824  0.03069547  0.58816338  1
  O  O178  1  0.41045245  0.79596304  0.58894498  1
  O  O179  1  0.91353864  0.79829200  0.58765878  1
  O  O180  1  0.48390872  0.79538577  0.09094717  1
  O  O181  1  0.98091591  0.79224136  0.08804859  1
  O  O182  1  0.41106217  0.01986898  0.08973470  1
  O  O183  1  0.90955447  0.02011832  0.08841698  1
  O  O184  1  0.08894478  0.16111187  0.08942967  1
  O  O185  1  0.59103924  0.16183816  0.09147272  1
  O  O186  1  0.34339760  0.15004606  0.74313312  1
  O  O187  1  0.84360660  0.16776520  0.74224381  1
  O  O188  1  0.24150570  0.30633969  0.74176165  1
  O  O189  1  0.74064980  0.31284969  0.74158854  1
  O  O190  1  0.41534270  0.51664496  0.74583553  1
  O  O191  1  0.91878549  0.52192006  0.74256565  1
  O  O192  1  0.34241381  0.51651594  0.24610844  1
  O  O193  1  0.84567226  0.51512317  0.24623946  1
  O  O194  1  0.42296102  0.30473209  0.24078533  1
  O  O195  1  0.92329767  0.31348538  0.24175135  1
  O  O196  1  0.24550829  0.16181985  0.24532930  1
  O  O197  1  0.73162235  0.14955027  0.24276363  1
  O  O198  1  0.31700476  0.48995616  0.92280808  1
  O  O199  1  0.82149249  0.51081150  0.92431781  1
  O  O200  1  0.42296013  0.34763440  0.92448498  1
  O  O201  1  0.92057543  0.34866076  0.92460958  1
  O  O202  1  0.24335841  0.13056964  0.92231139  1
  O  O203  1  0.74520850  0.13114885  0.92336635  1
  O  O204  1  0.31796058  0.13004176  0.42388286  1
  O  O205  1  0.82228027  0.14816583  0.42553849  1
  O  O206  1  0.25078710  0.34004797  0.42477516  1
  O  O207  1  0.75090007  0.35459270  0.42482364  1
  O  O208  1  0.43413419  0.51151638  0.42402344  1
  O  O209  1  0.92772541  0.49852934  0.42557930  1
  O  O210  1  0.17967068  0.51028561  0.08064114  1
  O  O211  1  0.68392999  0.51573111  0.07893586  1
  O  O212  1  0.06607656  0.65192204  0.07571292  1
  O  O213  1  0.56710827  0.65373134  0.07664436  1
  O  O214  1  0.25737610  0.87182697  0.07860910  1
  O  O215  1  0.75684666  0.87176735  0.07573752  1
  O  O216  1  0.17969637  0.86861230  0.57683598  1
  O  O217  1  0.67804291  0.86996638  0.57608188  1
  O  O218  1  0.25608835  0.64801591  0.57581772  1
  O  O219  1  0.75799110  0.64356664  0.57858817  1
  O  O220  1  0.06532864  0.48758529  0.57842593  1
  O  O221  1  0.57895733  0.50138123  0.57967514  1
  O  O222  1  0.15219315  0.82090056  0.25705994  1
  O  O223  1  0.65063618  0.83875808  0.25527287  1
  O  O224  1  0.26007843  0.69260063  0.25585139  1
  O  O225  1  0.75482744  0.67852451  0.25487046  1
  O  O226  1  0.07677128  0.46214960  0.25478815  1
  O  O227  1  0.57798300  0.46425819  0.25613918  1
  O  O228  1  0.15794222  0.48532968  0.75484337  1
  O  O229  1  0.65598642  0.48032404  0.75677661  1
  O  O230  1  0.09161055  0.70219407  0.75595198  1
  O  O231  1  0.58679323  0.69861035  0.75618161  1
  O  O232  1  0.26826097  0.84453165  0.75633325  1
  O  O233  1  0.75987936  0.82727423  0.75880608  1
