# generated using pymatgen
data_ScTa3(PO4)6
_symmetry_space_group_name_H-M   'P 1'
_cell_length_a   8.79816864
_cell_length_b   8.79816836
_cell_length_c   22.67785126
_cell_angle_alpha   90.00000000
_cell_angle_beta   90.00000000
_cell_angle_gamma   120.00000107
_symmetry_Int_Tables_number   1
_chemical_formula_structural   ScTa3(PO4)6
_chemical_formula_sum   'Sc3 Ta9 P18 O72'
_cell_volume   1520.25723764
_cell_formula_units_Z   3
loop_
 _symmetry_equiv_pos_site_id
 _symmetry_equiv_pos_as_xyz
  1  'x, y, z'
loop_
 _atom_site_type_symbol
 _atom_site_label
 _atom_site_symmetry_multiplicity
 _atom_site_fract_x
 _atom_site_fract_y
 _atom_site_fract_z
 _atom_site_occupancy
  Sc  Sc0  1  -0.00000000  -0.00000000  0.35809589  1
  Sc  Sc1  1  0.66666700  0.33333300  0.68977367  1
  Sc  Sc2  1  0.66666700  0.33333300  0.19113090  1
  Ta  Ta3  1  -0.00000000  -0.00000000  0.85666556  1
  Ta  Ta4  1  -0.00000000  -0.00000000  0.64081457  1
  Ta  Ta5  1  -0.00000000  -0.00000000  0.14716552  1
  Ta  Ta6  1  0.66666700  0.33333300  0.97887020  1
  Ta  Ta7  1  0.66666700  0.33333300  0.47499229  1
  Ta  Ta8  1  0.33333300  0.66666700  0.02409675  1
  Ta  Ta9  1  0.33333300  0.66666700  0.52187463  1
  Ta  Ta10  1  0.33333300  0.66666700  0.30779101  1
  Ta  Ta11  1  0.33333300  0.66666700  0.80782635  1
  P  P12  1  0.28569067  0.00012984  0.25172145  1
  P  P13  1  0.71443917  0.71430933  0.25172145  1
  P  P14  1  -0.00012984  0.28556083  0.25172145  1
  P  P15  1  0.28279135  0.28265195  0.74995841  1
  P  P16  1  0.99986060  0.71720865  0.74995841  1
  P  P17  1  0.71734805  0.00013940  0.74995841  1
  P  P18  1  0.95165173  0.33501999  0.58341537  1
  P  P19  1  0.38336926  0.04834827  0.58341537  1
  P  P20  1  0.66498001  0.61663074  0.58341537  1
  P  P21  1  0.95214644  0.62155543  0.08380962  1
  P  P22  1  0.66940999  0.04785356  0.08380962  1
  P  P23  1  0.37844457  0.33059001  0.08380962  1
  P  P24  1  0.61619868  0.66494288  0.91632155  1
  P  P25  1  0.04874320  0.38380132  0.91632155  1
  P  P26  1  0.33505712  0.95125680  0.91632155  1
  P  P27  1  0.61639858  0.95092630  0.41639149  1
  P  P28  1  0.33452672  0.38360142  0.41639149  1
  P  P29  1  0.04907370  0.66547328  0.41639149  1
  O  O30  1  0.20102092  0.02552767  0.30529104  1
  O  O31  1  0.82450674  0.79897908  0.30529104  1
  O  O32  1  0.97447233  0.17549326  0.30529104  1
  O  O33  1  0.18851509  0.16935280  0.80555635  1
  O  O34  1  0.98083771  0.81148491  0.80555635  1
  O  O35  1  0.83064720  0.01916229  0.80555635  1
  O  O36  1  0.80235075  0.96583081  0.69571811  1
  O  O37  1  0.16348006  0.19764925  0.69571811  1
  O  O38  1  0.03416919  0.83651994  0.69571811  1
  O  O39  1  0.80207894  0.83537078  0.19491798  1
  O  O40  1  0.03329184  0.19792106  0.19491798  1
  O  O41  1  0.16462922  0.96670816  0.19491798  1
  O  O42  1  0.87787505  0.36957972  0.63836632  1
  O  O43  1  0.49170568  0.12212495  0.63836632  1
  O  O44  1  0.63042028  0.50829432  0.63836632  1
  O  O45  1  0.87916948  0.50726265  0.13649361  1
  O  O46  1  0.62809417  0.12083052  0.13649361  1
  O  O47  1  0.49273735  0.37190583  0.13649361  1
  O  O48  1  0.46870446  0.30424450  0.02737790  1
  O  O49  1  0.83554103  0.53129554  0.02737790  1
  O  O50  1  0.69575550  0.16445897  0.02737790  1
  O  O51  1  0.46724689  0.16570485  0.52866805  1
  O  O52  1  0.69845896  0.53275311  0.52866805  1
  O  O53  1  0.83429515  0.30154104  0.52866805  1
  O  O54  1  0.53134752  0.69668015  0.97044734  1
  O  O55  1  0.16533163  0.46865248  0.97044734  1
  O  O56  1  0.30331985  0.83466837  0.97044734  1
  O  O57  1  0.52205893  0.83722284  0.47158348  1
  O  O58  1  0.31516291  0.47794107  0.47158348  1
  O  O59  1  0.16277716  0.68483709  0.47158348  1
  O  O60  1  0.13464420  0.63123082  0.36215628  1
  O  O61  1  0.49658562  0.86535580  0.36215628  1
  O  O62  1  0.36876918  0.50341438  0.36215628  1
  O  O63  1  0.13543124  0.50005231  0.86172364  1
  O  O64  1  0.36462007  0.86456876  0.86172364  1
  O  O65  1  0.49994769  0.63537993  0.86172364  1
  O  O66  1  0.02777291  0.82278315  0.41154164  1
  O  O67  1  0.79501024  0.97222709  0.41154164  1
  O  O68  1  0.17721685  0.20498976  0.41154164  1
  O  O69  1  0.02710653  0.19996550  0.90613174  1
  O  O70  1  0.17285897  0.97289347  0.90613174  1
  O  O71  1  0.80003450  0.82714103  0.90613174  1
  O  O72  1  0.97329877  0.16938441  0.59298808  1
  O  O73  1  0.19608564  0.02670123  0.59298808  1
  O  O74  1  0.83061559  0.80391436  0.59298808  1
  O  O75  1  0.97453202  0.80581628  0.09080325  1
  O  O76  1  0.83128426  0.02546798  0.09080325  1
  O  O77  1  0.19418372  0.16871574  0.09080325  1
  O  O78  1  0.69569694  0.15730960  0.74438163  1
  O  O79  1  0.46161366  0.30430306  0.74438163  1
  O  O80  1  0.84269040  0.53838634  0.74438163  1
  O  O81  1  0.68651747  0.53437089  0.23983174  1
  O  O82  1  0.84785442  0.31348253  0.23983174  1
  O  O83  1  0.46562911  0.15214558  0.23983174  1
  O  O84  1  0.63802641  0.50381908  0.92698147  1
  O  O85  1  0.86579367  0.36197359  0.92698147  1
  O  O86  1  0.49618092  0.13420633  0.92698147  1
  O  O87  1  0.62824294  0.13237491  0.42788247  1
  O  O88  1  0.50413297  0.37175706  0.42788247  1
  O  O89  1  0.86762509  0.49586703  0.42788247  1
  O  O90  1  0.35356004  0.49108342  0.06855332  1
  O  O91  1  0.13752238  0.64643996  0.06855332  1
  O  O92  1  0.50891658  0.86247762  0.06855332  1
  O  O93  1  0.35227765  0.86225792  0.57084715  1
  O  O94  1  0.50997927  0.64772235  0.57084715  1
  O  O95  1  0.13774208  0.49002073  0.57084715  1
  O  O96  1  0.29704897  0.82797298  0.25908689  1
  O  O97  1  0.53092301  0.70295103  0.25908689  1
  O  O98  1  0.17202702  0.46907699  0.25908689  1
  O  O99  1  0.29503339  0.46457416  0.76135354  1
  O  O100  1  0.16953977  0.70496661  0.76135354  1
  O  O101  1  0.53542584  0.83046023  0.76135354  1
