# generated using pymatgen
data_Sr8MgMn6O20
_symmetry_space_group_name_H-M   'P 1'
_cell_length_a   5.61634744
_cell_length_b   6.72871584
_cell_length_c   13.60473994
_cell_angle_alpha   89.71290227
_cell_angle_beta   91.61410971
_cell_angle_gamma   110.85641405
_symmetry_Int_Tables_number   1
_chemical_formula_structural   Sr8MgMn6O20
_chemical_formula_sum   'Sr8 Mg1 Mn6 O20'
_cell_volume   480.24818488
_cell_formula_units_Z   1
loop_
 _symmetry_equiv_pos_site_id
 _symmetry_equiv_pos_as_xyz
  1  'x, y, z'
loop_
 _atom_site_type_symbol
 _atom_site_label
 _atom_site_symmetry_multiplicity
 _atom_site_fract_x
 _atom_site_fract_y
 _atom_site_fract_z
 _atom_site_occupancy
  Sr  Sr0  1  0.18025800  0.47001900  0.15994900  1
  Sr  Sr1  1  0.68818600  0.49286400  0.94394800  1
  Sr  Sr2  1  0.72583800  0.47658500  0.40487300  1
  Sr  Sr3  1  0.26720700  0.52078400  0.60091200  1
  Sr  Sr4  1  0.99387700  0.93141100  0.61756700  1
  Sr  Sr5  1  0.00816000  0.05818700  0.35937800  1
  Sr  Sr6  1  0.47431000  0.06519400  0.14491700  1
  Sr  Sr7  1  0.61404900  0.96442100  0.81104600  1
  Mg  Mg8  1  0.27035900  0.78375600  0.94803200  1
  Mn  Mn9  1  0.66604300  0.26793800  0.64354400  1
  Mn  Mn10  1  0.33952200  0.74366500  0.34875200  1
  Mn  Mn11  1  0.80650500  0.74419200  0.15850100  1
  Mn  Mn12  1  0.18957600  0.28134800  0.83566100  1
  Mn  Mn13  1  0.50351100  0.00117100  0.49620000  1
  Mn  Mn14  1  0.97711900  0.99984100  0.99667300  1
  O  O15  1  0.46076200  0.25511900  0.75794000  1
  O  O16  1  0.05261800  0.73974300  0.27150000  1
  O  O17  1  0.55048100  0.77744200  0.23824200  1
  O  O18  1  0.94766400  0.23420100  0.71683000  1
  O  O19  1  0.16966400  0.78805000  0.46877100  1
  O  O20  1  0.38608700  0.22105500  0.54267700  1
  O  O21  1  0.33565500  0.12969700  0.96935800  1
  O  O22  1  0.05390900  0.74619600  0.05843100  1
  O  O23  1  0.83550600  0.20835800  0.52244400  1
  O  O24  1  0.62645700  0.78818000  0.45179200  1
  O  O25  1  0.61707500  0.83833600  0.01564900  1
  O  O26  1  0.92914700  0.23550700  0.93336300  1
  O  O27  1  0.79768300  0.55124900  0.62406500  1
  O  O28  1  0.22257200  0.44607800  0.34801300  1
  O  O29  1  0.98840600  0.07552200  0.14194700  1
  O  O30  1  0.97480000  0.85979100  0.87187800  1
  O  O31  1  0.50350100  0.92596400  0.63393800  1
  O  O32  1  0.63803500  0.44944800  0.14025300  1
  O  O33  1  0.33449800  0.58602500  0.85450800  1
  O  O34  1  0.49001000  0.07414500  0.35907500  1
