# generated using pymatgen
data_NaTa3ZnSi3(SO8)3
_symmetry_space_group_name_H-M   'P 1'
_cell_length_a   8.86527606
_cell_length_b   8.84053321
_cell_length_c   22.84562982
_cell_angle_alpha   90.29243001
_cell_angle_beta   89.75723715
_cell_angle_gamma   120.11692834
_symmetry_Int_Tables_number   1
_chemical_formula_structural   NaTa3ZnSi3(SO8)3
_chemical_formula_sum   'Na3 Ta9 Zn3 Si9 S9 O72'
_cell_volume   1548.76350243
_cell_formula_units_Z   3
loop_
 _symmetry_equiv_pos_site_id
 _symmetry_equiv_pos_as_xyz
  1  'x, y, z'
loop_
 _atom_site_type_symbol
 _atom_site_label
 _atom_site_symmetry_multiplicity
 _atom_site_fract_x
 _atom_site_fract_y
 _atom_site_fract_z
 _atom_site_occupancy
  Na  Na0  1  0.99678088  0.99820187  0.99065236  1
  Na  Na1  1  0.68418049  0.33813840  0.84179394  1
  Na  Na2  1  0.65705579  0.33314063  0.33880623  1
  Ta  Ta3  1  0.00872939  0.00907959  0.35495146  1
  Ta  Ta4  1  0.99806535  0.98853280  0.64832075  1
  Ta  Ta5  1  0.00112860  0.99304828  0.14837544  1
  Ta  Ta6  1  0.66487070  0.32055923  0.68862043  1
  Ta  Ta7  1  0.67759326  0.34022853  0.18977274  1
  Ta  Ta8  1  0.31815684  0.65277459  0.02100345  1
  Ta  Ta9  1  0.33038328  0.66373752  0.52297319  1
  Ta  Ta10  1  0.33515205  0.65760128  0.30643253  1
  Ta  Ta11  1  0.32292870  0.66658913  0.80952367  1
  Zn  Zn12  1  0.98047832  0.99904106  0.85317897  1
  Zn  Zn13  1  0.69917191  0.35290845  0.97696092  1
  Zn  Zn14  1  0.63853985  0.32781060  0.47844140  1
  Si  Si15  1  0.28958348  0.00189458  0.25083049  1
  Si  Si16  1  0.71934693  0.71568715  0.25205353  1
  Si  Si17  1  0.99640006  0.28081925  0.24962463  1
  Si  Si18  1  0.99140728  0.71248179  0.75492388  1
  Si  Si19  1  0.71507693  0.99640909  0.75328993  1
  Si  Si20  1  0.37625086  0.04903593  0.58012935  1
  Si  Si21  1  0.95101044  0.62363249  0.08040700  1
  Si  Si22  1  0.03561096  0.35959748  0.91390064  1
  Si  Si23  1  0.34046093  0.38000014  0.41635298  1
  S  S24  1  0.29033813  0.28881870  0.75011887  1
  S  S25  1  0.95304932  0.33095037  0.58170303  1
  S  S26  1  0.66781470  0.62369491  0.58199303  1
  S  S27  1  0.66815732  0.04436931  0.08218427  1
  S  S28  1  0.38018918  0.33135328  0.08128628  1
  S  S29  1  0.61517406  0.66243082  0.91710906  1
  S  S30  1  0.33476043  0.95341092  0.91784250  1
  S  S31  1  0.61999064  0.95085308  0.41610266  1
  S  S32  1  0.04691991  0.66540547  0.41687274  1
  O  O33  1  0.19842723  0.03748353  0.30814177  1
  O  O34  1  0.83952581  0.80136658  0.30933538  1
  O  O35  1  0.96301434  0.15957269  0.30769089  1
  O  O36  1  0.22831677  0.18336448  0.80216342  1
  O  O37  1  0.95971457  0.79497196  0.81109446  1
  O  O38  1  0.83552134  0.05977678  0.80854031  1
  O  O39  1  0.80863963  0.97714359  0.69303050  1
  O  O40  1  0.18018139  0.20787841  0.69687705  1
  O  O41  1  0.02609470  0.83260189  0.69437250  1
  O  O42  1  0.80687132  0.83393067  0.19377526  1
  O  O43  1  0.03016161  0.19683217  0.19196425  1
  O  O44  1  0.16593561  0.96894546  0.19384733  1
  O  O45  1  0.87487317  0.36725551  0.63489324  1
  O  O46  1  0.50195043  0.14256717  0.63794882  1
  O  O47  1  0.63507213  0.51508094  0.63445455  1
  O  O48  1  0.85967537  0.50084469  0.13957569  1
  O  O49  1  0.63908340  0.12542749  0.13617050  1
  O  O50  1  0.48582301  0.35702306  0.13518248  1
  O  O51  1  0.44982512  0.29572463  0.02922912  1
  O  O52  1  0.83057662  0.54861106  0.02548115  1
  O  O53  1  0.69775786  0.14943186  0.03043393  1
  O  O54  1  0.45611336  0.16147841  0.52376377  1
  O  O55  1  0.70657683  0.55684863  0.52940576  1
  O  O56  1  0.85068209  0.30329736  0.52938156  1
  O  O57  1  0.52410629  0.68106382  0.97122400  1
  O  O58  1  0.16237318  0.47789201  0.97312022  1
  O  O59  1  0.32312373  0.84231448  0.97084812  1
  O  O60  1  0.53098229  0.84190804  0.46967230  1
  O  O61  1  0.31252408  0.47889653  0.47422209  1
  O  O62  1  0.15948363  0.69417371  0.47058101  1
  O  O63  1  0.13547101  0.64672978  0.36467450  1
  O  O64  1  0.50861019  0.86597708  0.36414916  1
  O  O65  1  0.35039329  0.50300584  0.36081466  1
  O  O66  1  0.15257592  0.49542219  0.85954459  1
  O  O67  1  0.35701995  0.86547724  0.86363712  1
  O  O68  1  0.51165075  0.65459080  0.86424049  1
  O  O69  1  0.03403772  0.82593883  0.41136546  1
  O  O70  1  0.78839190  0.95334075  0.41055245  1
  O  O71  1  0.15815749  0.19060206  0.40799425  1
  O  O72  1  0.04209373  0.18266737  0.91501958  1
  O  O73  1  0.17284265  0.95516661  0.91550614  1
  O  O74  1  0.78744805  0.81852363  0.91705354  1
  O  O75  1  0.98277148  0.18466097  0.59413358  1
  O  O76  1  0.18430498  0.02276466  0.59727474  1
  O  O77  1  0.81877342  0.80430686  0.59280950  1
  O  O78  1  0.98679266  0.82391249  0.09222641  1
  O  O79  1  0.82548042  0.02484422  0.09194007  1
  O  O80  1  0.19774417  0.18295147  0.09145491  1
  O  O81  1  0.68006732  0.16337353  0.73750225  1
  O  O82  1  0.47178828  0.31980200  0.73711132  1
  O  O83  1  0.82756157  0.51928310  0.73544776  1
  O  O84  1  0.69011020  0.51999499  0.24051343  1
  O  O85  1  0.82392141  0.30070275  0.24138788  1
  O  O86  1  0.47813733  0.17208251  0.23785847  1
  O  O87  1  0.61515037  0.49695995  0.91932596  1
  O  O88  1  0.85452016  0.35749480  0.91637008  1
  O  O89  1  0.49233141  0.12373883  0.92255528  1
  O  O90  1  0.64774483  0.12711176  0.42118955  1
  O  O91  1  0.51350947  0.36770434  0.41572862  1
  O  O92  1  0.87710029  0.50850925  0.42388270  1
  O  O93  1  0.36589155  0.49444799  0.07563730  1
  O  O94  1  0.14893421  0.64787714  0.07304297  1
  O  O95  1  0.51361100  0.86583047  0.07615566  1
  O  O96  1  0.35254940  0.85090048  0.57069757  1
  O  O97  1  0.51039264  0.64603457  0.57408892  1
  O  O98  1  0.13199265  0.49455727  0.57535677  1
  O  O99  1  0.30744689  0.83376818  0.26560716  1
  O  O100  1  0.52874011  0.69695414  0.26077328  1
  O  O101  1  0.16221174  0.47426515  0.26106459  1
  O  O102  1  0.31136644  0.46575407  0.75580580  1
  O  O103  1  0.16429429  0.68783794  0.76056534  1
  O  O104  1  0.52163684  0.82485362  0.76165241  1
