# generated using pymatgen
data_Na4HfAlSi2PO12
_symmetry_space_group_name_H-M   'P 1'
_cell_length_a   8.97871536
_cell_length_b   8.97871505
_cell_length_c   22.15395563
_cell_angle_alpha   89.45491579
_cell_angle_beta   90.54508420
_cell_angle_gamma   119.47024260
_symmetry_Int_Tables_number   1
_chemical_formula_structural   Na4HfAlSi2PO12
_chemical_formula_sum   'Na24 Hf6 Al6 Si12 P6 O72'
_cell_volume   1554.81112998
_cell_formula_units_Z   6
loop_
 _symmetry_equiv_pos_site_id
 _symmetry_equiv_pos_as_xyz
  1  'x, y, z'
loop_
 _atom_site_type_symbol
 _atom_site_label
 _atom_site_symmetry_multiplicity
 _atom_site_fract_x
 _atom_site_fract_y
 _atom_site_fract_z
 _atom_site_occupancy
  Na  Na0  1  0.63970361  0.00394909  0.25014472  1
  Na  Na1  1  0.36899062  0.36678750  0.24648587  1
  Na  Na2  1  0.99189819  0.62681887  0.24961353  1
  Na  Na3  1  0.63321250  0.63100938  0.74648587  1
  Na  Na4  1  0.99605091  0.36029639  0.75014472  1
  Na  Na5  1  0.37318113  0.00810181  0.74961353  1
  Na  Na6  1  0.30637061  0.33728209  0.58347772  1
  Na  Na7  1  0.03565762  0.70012050  0.57981887  1
  Na  Na8  1  0.65856519  0.96015187  0.58294653  1
  Na  Na9  1  0.29987950  0.96434238  0.07981887  1
  Na  Na10  1  0.66271791  0.69362939  0.08347772  1
  Na  Na11  1  0.03984813  0.34143481  0.08294653  1
  Na  Na12  1  0.97303661  0.67061609  0.91681172  1
  Na  Na13  1  0.70232362  0.03345450  0.91315287  1
  Na  Na14  1  0.32523119  0.29348587  0.91628053  1
  Na  Na15  1  0.96654550  0.29767638  0.41315287  1
  Na  Na16  1  0.32938391  0.02696339  0.41681172  1
  Na  Na17  1  0.70651413  0.67476881  0.41628053  1
  Na  Na18  1  0.99829224  0.99402512  0.49702741  1
  Na  Na19  1  0.00597488  0.00170776  0.99702741  1
  Na  Na20  1  0.66495924  0.32735812  0.83036041  1
  Na  Na21  1  0.67264188  0.33504076  0.33036041  1
  Na  Na22  1  0.33162524  0.66069212  0.16369441  1
  Na  Na23  1  0.33930788  0.66837476  0.66369441  1
  Hf  Hf24  1  0.99833539  0.99991141  0.64828359  1
  Hf  Hf25  1  0.00008859  0.00166461  0.14828359  1
  Hf  Hf26  1  0.66500239  0.33324441  0.98161659  1
  Hf  Hf27  1  0.66675559  0.33499761  0.48161659  1
  Hf  Hf28  1  0.33166839  0.66657841  0.31495059  1
  Hf  Hf29  1  0.33342159  0.66833161  0.81495059  1
  Al  Al30  1  0.98350365  0.98863623  0.35167466  1
  Al  Al31  1  0.01136377  0.01649635  0.85167466  1
  Al  Al32  1  0.65017065  0.32196923  0.68500766  1
  Al  Al33  1  0.67803077  0.34982935  0.18500766  1
  Al  Al34  1  0.31683665  0.65530323  0.01834166  1
  Al  Al35  1  0.34469677  0.68316335  0.51834166  1
  Si  Si36  1  0.70945477  0.70346430  0.25112860  1
  Si  Si37  1  0.99231390  0.28772022  0.25169055  1
  Si  Si38  1  0.29653570  0.29054523  0.75112860  1
  Si  Si39  1  0.71227978  0.00768610  0.75169055  1
  Si  Si40  1  0.37612177  0.03679730  0.58446160  1
  Si  Si41  1  0.65898090  0.62105322  0.58502355  1
  Si  Si42  1  0.96320270  0.62387823  0.08446160  1
  Si  Si43  1  0.37894678  0.34101910  0.08502355  1
  Si  Si44  1  0.04278777  0.37013130  0.91779560  1
  Si  Si45  1  0.32564690  0.95438722  0.91835755  1
  Si  Si46  1  0.62986870  0.95721223  0.41779560  1
  Si  Si47  1  0.04561278  0.67435310  0.41835755  1
  P  P48  1  0.29333868  0.00587484  0.25212866  1
  P  P49  1  0.99412516  0.70666132  0.75212866  1
  P  P50  1  0.96000568  0.33920784  0.58546166  1
  P  P51  1  0.66079216  0.03999432  0.08546166  1
  P  P52  1  0.62667168  0.67254184  0.91879566  1
  P  P53  1  0.32745816  0.37332832  0.41879566  1
  O  O54  1  0.20556639  0.03406300  0.30741343  1
  O  O55  1  0.83422691  0.79570735  0.30916207  1
  O  O56  1  0.96757714  0.16380726  0.30997792  1
  O  O57  1  0.20429265  0.16577309  0.80916207  1
  O  O58  1  0.96593700  0.79443361  0.80741343  1
  O  O59  1  0.83619274  0.03242286  0.80997792  1
  O  O60  1  0.78965882  0.96421508  0.69172348  1
  O  O61  1  0.17462577  0.20989613  0.69129496  1
  O  O62  1  0.03149507  0.82047923  0.69478446  1
  O  O63  1  0.79010387  0.82537423  0.19129496  1
  O  O64  1  0.03578492  0.21034118  0.19172348  1
  O  O65  1  0.17952077  0.96850493  0.19478446  1
  O  O66  1  0.87223339  0.36739600  0.64074643  1
  O  O67  1  0.50089391  0.12904035  0.64249507  1
  O  O68  1  0.63424414  0.49714026  0.64331092  1
  O  O69  1  0.87095965  0.49910609  0.14249507  1
  O  O70  1  0.63260400  0.12776661  0.14074643  1
  O  O71  1  0.50285974  0.36575586  0.14331092  1
  O  O72  1  0.45632582  0.29754808  0.02505648  1
  O  O73  1  0.84129277  0.54322913  0.02462796  1
  O  O74  1  0.69816207  0.15381223  0.02811746  1
  O  O75  1  0.45677087  0.15870723  0.52462796  1
  O  O76  1  0.70245192  0.54367418  0.52505648  1
  O  O77  1  0.84618777  0.30183793  0.52811746  1
  O  O78  1  0.53889939  0.70073000  0.97408043  1
  O  O79  1  0.16755991  0.46237435  0.97582907  1
  O  O80  1  0.30091014  0.83047426  0.97664492  1
  O  O81  1  0.53762565  0.83244009  0.47582907  1
  O  O82  1  0.29927000  0.46110061  0.47408043  1
  O  O83  1  0.16952574  0.69908986  0.47664492  1
  O  O84  1  0.12299182  0.63088208  0.35839048  1
  O  O85  1  0.50795877  0.87656313  0.35796196  1
  O  O86  1  0.36482807  0.48714623  0.36145146  1
  O  O87  1  0.12343687  0.49204123  0.85796196  1
  O  O88  1  0.36911792  0.87700818  0.85839048  1
  O  O89  1  0.51285377  0.63517193  0.86145146  1
  O  O90  1  0.03081242  0.84908066  0.40944750  1
  O  O91  1  0.82115979  0.97760457  0.41065710  1
  O  O92  1  0.16991409  0.19405470  0.41093952  1
  O  O93  1  0.02239543  0.17884021  0.91065710  1
  O  O94  1  0.15091934  0.96918758  0.90944750  1
  O  O95  1  0.80594530  0.83008591  0.91093952  1
  O  O96  1  0.97681357  0.17459489  0.58910915  1
  O  O97  1  0.18489686  0.01900366  0.58870589  1
  O  O98  1  0.83020665  0.81309042  0.58860694  1
  O  O99  1  0.98099634  0.81510314  0.08870589  1
  O  O100  1  0.82540511  0.02318643  0.08910915  1
  O  O101  1  0.18690958  0.16979335  0.08860694  1
  O  O102  1  0.69747942  0.18241366  0.74278050  1
  O  O103  1  0.48782679  0.31093757  0.74399010  1
  O  O104  1  0.83658109  0.52738770  0.74427252  1
  O  O105  1  0.68906243  0.51217321  0.24399010  1
  O  O106  1  0.81758634  0.30252058  0.24278050  1
  O  O107  1  0.47261230  0.16341891  0.24427252  1
  O  O108  1  0.64348057  0.50792789  0.92244215  1
  O  O109  1  0.85156386  0.35233666  0.92203889  1
  O  O110  1  0.49687365  0.14642342  0.92193994  1
  O  O111  1  0.64766334  0.14843614  0.42203889  1
  O  O112  1  0.49207211  0.35651943  0.42244215  1
  O  O113  1  0.85357658  0.50312635  0.42193994  1
  O  O114  1  0.36414542  0.51574766  0.07611450  1
  O  O115  1  0.15449279  0.64427157  0.07732410  1
  O  O116  1  0.50324709  0.86072170  0.07760652  1
  O  O117  1  0.35572843  0.84550721  0.57732410  1
  O  O118  1  0.48425234  0.63585458  0.57611450  1
  O  O119  1  0.13927830  0.49675291  0.57760652  1
  O  O120  1  0.31014657  0.84126189  0.25577615  1
  O  O121  1  0.51822986  0.68567066  0.25537289  1
  O  O122  1  0.16353965  0.47975742  0.25527394  1
  O  O123  1  0.31432934  0.48177014  0.75537289  1
  O  O124  1  0.15873811  0.68985343  0.75577615  1
  O  O125  1  0.52024258  0.83646035  0.75527394  1
