# generated using pymatgen
data_Nb10Zn2Si9(SO8)9
_symmetry_space_group_name_H-M   'P 1'
_cell_length_a   8.85805920
_cell_length_b   8.89546506
_cell_length_c   22.90800453
_cell_angle_alpha   90.28153566
_cell_angle_beta   89.86429578
_cell_angle_gamma   119.80478691
_symmetry_Int_Tables_number   1
_chemical_formula_structural   Nb10Zn2Si9(SO8)9
_chemical_formula_sum   'Nb10 Zn2 Si9 S9 O72'
_cell_volume   1566.28513808
_cell_formula_units_Z   1
loop_
 _symmetry_equiv_pos_site_id
 _symmetry_equiv_pos_as_xyz
  1  'x, y, z'
loop_
 _atom_site_type_symbol
 _atom_site_label
 _atom_site_symmetry_multiplicity
 _atom_site_fract_x
 _atom_site_fract_y
 _atom_site_fract_z
 _atom_site_occupancy
  Nb  Nb0  1  -0.00006942  0.00084348  0.36089750  1
  Nb  Nb1  1  0.99926901  0.98849445  0.85984442  1
  Nb  Nb2  1  0.00341073  0.00051668  0.64453522  1
  Nb  Nb3  1  0.00571238  0.00509949  0.14063858  1
  Nb  Nb4  1  0.65122331  0.32966154  0.97100174  1
  Nb  Nb5  1  0.67799963  0.32961313  0.47439715  1
  Nb  Nb6  1  0.33229877  0.65449616  0.01819336  1
  Nb  Nb7  1  0.32508232  0.65938594  0.52298994  1
  Nb  Nb8  1  0.33402760  0.66416775  0.31323876  1
  Nb  Nb9  1  0.32303586  0.66518223  0.80938692  1
  Zn  Zn10  1  0.69063397  0.34872304  0.69179900  1
  Zn  Zn11  1  0.66087804  0.33720029  0.18566323  1
  Si  Si12  1  0.99189388  0.70762457  0.74899332  1
  Si  Si13  1  0.94987073  0.32994096  0.58664110  1
  Si  Si14  1  0.39266604  0.34319126  0.08665984  1
  Si  Si15  1  0.61436770  0.66829286  0.91320309  1
  Si  Si16  1  0.04471717  0.37909794  0.91439842  1
  Si  Si17  1  0.33173615  0.94277167  0.91703451  1
  Si  Si18  1  0.61144271  0.94521131  0.41784880  1
  Si  Si19  1  0.33923145  0.38532707  0.41738756  1
  Si  Si20  1  0.05157947  0.66682044  0.41683163  1
  S  S21  1  0.28458877  0.99863277  0.24961775  1
  S  S22  1  0.71718145  0.71573295  0.24975837  1
  S  S23  1  0.99625233  0.28397345  0.24873841  1
  S  S24  1  0.28662342  0.28376764  0.74955894  1
  S  S25  1  0.71369958  0.99782229  0.75037067  1
  S  S26  1  0.38275333  0.04875702  0.58473648  1
  S  S27  1  0.66552394  0.62050416  0.58430379  1
  S  S28  1  0.95557208  0.61913711  0.08584958  1
  S  S29  1  0.66402376  0.04513903  0.08555502  1
  O  O30  1  0.19450679  0.02046192  0.30124585  1
  O  O31  1  0.82450919  0.80798009  0.30209818  1
  O  O32  1  0.97574930  0.17611922  0.30062083  1
  O  O33  1  0.19929022  0.17895652  0.80138541  1
  O  O34  1  0.98699049  0.82339031  0.80514329  1
  O  O35  1  0.82365438  0.02392680  0.80221607  1
  O  O36  1  0.80339954  0.97459428  0.69705181  1
  O  O37  1  0.17024890  0.20154523  0.69596112  1
  O  O38  1  0.02744633  0.84049952  0.69265191  1
  O  O39  1  0.79928078  0.82609218  0.19743797  1
  O  O40  1  0.02355756  0.19565853  0.19633944  1
  O  O41  1  0.17105570  0.97300016  0.19712146  1
  O  O42  1  0.87086104  0.36997859  0.64142255  1
  O  O43  1  0.48161809  0.12214597  0.63708136  1
  O  O44  1  0.62706161  0.51642255  0.63592182  1
  O  O45  1  0.88646617  0.51884328  0.13870062  1
  O  O46  1  0.64251322  0.12084234  0.13889927  1
  O  O47  1  0.49364331  0.36984777  0.14542350  1
  O  O48  1  0.47690027  0.30426095  0.02849226  1
  O  O49  1  0.84639465  0.54757016  0.03406077  1
  O  O50  1  0.70486036  0.15455634  0.03368119  1
  O  O51  1  0.45894596  0.15574742  0.53148997  1
  O  O52  1  0.69612799  0.54237123  0.53133663  1
  O  O53  1  0.83150023  0.30467068  0.52642532  1
  O  O54  1  0.52850302  0.69614662  0.97327168  1
  O  O55  1  0.16903632  0.46954117  0.97228874  1
  O  O56  1  0.30254416  0.83045359  0.97571009  1
  O  O57  1  0.53006220  0.82784211  0.47407120  1
  O  O58  1  0.29864140  0.47234719  0.47266113  1
  O  O59  1  0.17299806  0.70440649  0.47316103  1
  O  O60  1  0.14036122  0.63494658  0.35813016  1
  O  O61  1  0.49401898  0.85590427  0.35816114  1
  O  O62  1  0.36508906  0.50415830  0.35848304  1
  O  O63  1  0.13499683  0.50626782  0.85854544  1
  O  O64  1  0.36653292  0.85771408  0.85923681  1
  O  O65  1  0.49356008  0.63104086  0.85698842  1
  O  O66  1  0.02931149  0.83519057  0.40185960  1
  O  O67  1  0.80547201  0.97471376  0.40194381  1
  O  O68  1  0.16807133  0.19744863  0.40101436  1
  O  O69  1  0.02661623  0.19353223  0.90105878  1
  O  O70  1  0.17004222  0.97710755  0.90703799  1
  O  O71  1  0.80548769  0.83820603  0.90667531  1
  O  O72  1  0.97814637  0.16120414  0.59467169  1
  O  O73  1  0.20181943  0.02686974  0.59037820  1
  O  O74  1  0.82372764  0.79836032  0.59156448  1
  O  O75  1  0.97161524  0.79971501  0.09593158  1
  O  O76  1  0.82492395  0.02086978  0.09509670  1
  O  O77  1  0.18901270  0.16444712  0.09669288  1
  O  O78  1  0.68681019  0.14359596  0.74314431  1
  O  O79  1  0.45268184  0.29560953  0.73962590  1
  O  O80  1  0.82123984  0.52840680  0.74783674  1
  O  O81  1  0.70318597  0.54726528  0.24552380  1
  O  O82  1  0.84487093  0.30263318  0.24017502  1
  O  O83  1  0.45575894  0.14777017  0.24365154  1
  O  O84  1  0.64157904  0.50196383  0.92732233  1
  O  O85  1  0.86032821  0.36207465  0.93409098  1
  O  O86  1  0.50490028  0.13447616  0.92655227  1
  O  O87  1  0.63208522  0.13608281  0.42616255  1
  O  O88  1  0.50213087  0.35996561  0.43131455  1
  O  O89  1  0.85945184  0.50238234  0.42711644  1
  O  O90  1  0.34942092  0.49825857  0.07292713  1
  O  O91  1  0.13536063  0.65505499  0.07630809  1
  O  O92  1  0.51597399  0.86939572  0.07645754  1
  O  O93  1  0.35666139  0.87126615  0.57420016  1
  O  O94  1  0.51627975  0.65131316  0.57276076  1
  O  O95  1  0.14525051  0.49682879  0.57112909  1
  O  O96  1  0.29182911  0.83534691  0.25574148  1
  O  O97  1  0.54229700  0.70216884  0.25690163  1
  O  O98  1  0.15858944  0.45488424  0.25512069  1
  O  O99  1  0.29759684  0.45582668  0.75538598  1
  O  O100  1  0.17545889  0.70218500  0.75794598  1
  O  O101  1  0.54585959  0.83219994  0.75568908  1
