# generated using pymatgen
data_Na3MgNbSi2SO12
_symmetry_space_group_name_H-M   'P 1'
_cell_length_a   9.04833513
_cell_length_b   9.04833483
_cell_length_c   22.56820392
_cell_angle_alpha   89.51864090
_cell_angle_beta   90.48135910
_cell_angle_gamma   119.67945921
_symmetry_Int_Tables_number   1
_chemical_formula_structural   Na3MgNbSi2SO12
_chemical_formula_sum   'Na18 Mg6 Nb6 Si12 S6 O72'
_cell_volume   1605.23340216
_cell_formula_units_Z   6
loop_
 _symmetry_equiv_pos_site_id
 _symmetry_equiv_pos_as_xyz
  1  'x, y, z'
loop_
 _atom_site_type_symbol
 _atom_site_label
 _atom_site_symmetry_multiplicity
 _atom_site_fract_x
 _atom_site_fract_y
 _atom_site_fract_z
 _atom_site_occupancy
  Na  Na0  1  0.65651509  0.01165434  0.25305874  1
  Na  Na1  1  0.97655379  0.61666125  0.24669030  1
  Na  Na2  1  0.98834566  0.34348491  0.75305874  1
  Na  Na3  1  0.38333875  0.02344621  0.74669030  1
  Na  Na4  1  0.32318209  0.34498734  0.58639174  1
  Na  Na5  1  0.64322079  0.94999425  0.58002330  1
  Na  Na6  1  0.65501266  0.67681791  0.08639174  1
  Na  Na7  1  0.05000575  0.35677921  0.08002330  1
  Na  Na8  1  0.98984809  0.67832134  0.91972574  1
  Na  Na9  1  0.30988679  0.28332825  0.91335730  1
  Na  Na10  1  0.32167866  0.01015191  0.41972574  1
  Na  Na11  1  0.71667175  0.69011321  0.41335730  1
  Na  Na12  1  0.98897832  0.98244378  0.49336053  1
  Na  Na13  1  0.01755622  0.01102168  0.99336053  1
  Na  Na14  1  0.65564532  0.31577678  0.82669353  1
  Na  Na15  1  0.68422322  0.34435468  0.32669353  1
  Na  Na16  1  0.32231132  0.64911078  0.16002753  1
  Na  Na17  1  0.35088922  0.67768868  0.66002753  1
  Mg  Mg18  1  0.98177327  0.99363024  0.35218601  1
  Mg  Mg19  1  0.00636976  0.01822673  0.85218601  1
  Mg  Mg20  1  0.64844027  0.32696324  0.68551901  1
  Mg  Mg21  1  0.67303676  0.35155973  0.18551901  1
  Mg  Mg22  1  0.31510627  0.66029724  0.01885301  1
  Mg  Mg23  1  0.33970276  0.68489373  0.51885301  1
  Nb  Nb24  1  0.99554163  0.99825201  0.64696442  1
  Nb  Nb25  1  0.00174799  0.00445837  0.14696442  1
  Nb  Nb26  1  0.66220863  0.33158501  0.98029742  1
  Nb  Nb27  1  0.66841499  0.33779137  0.48029742  1
  Nb  Nb28  1  0.32887463  0.66491901  0.31363142  1
  Nb  Nb29  1  0.33508099  0.67112537  0.81363142  1
  Si  Si30  1  0.70449278  0.70262437  0.25305084  1
  Si  Si31  1  0.99801389  0.29117520  0.25197812  1
  Si  Si32  1  0.29737563  0.29550722  0.75305084  1
  Si  Si33  1  0.70882480  0.00198611  0.75197812  1
  Si  Si34  1  0.37115978  0.03595737  0.58638384  1
  Si  Si35  1  0.66468089  0.62450820  0.58531112  1
  Si  Si36  1  0.96404263  0.62884022  0.08638384  1
  Si  Si37  1  0.37549180  0.33531911  0.08531112  1
  Si  Si38  1  0.03782578  0.36929137  0.91971784  1
  Si  Si39  1  0.33134689  0.95784220  0.91864512  1
  Si  Si40  1  0.63070863  0.96217422  0.41971784  1
  Si  Si41  1  0.04215780  0.66865311  0.41864512  1
  S  S42  1  0.29200429  0.00268491  0.25155610  1
  S  S43  1  0.99731509  0.70799571  0.75155610  1
  S  S44  1  0.95867129  0.33601791  0.58488910  1
  S  S45  1  0.66398209  0.04132871  0.08488910  1
  S  S46  1  0.62533729  0.66935191  0.91822310  1
  S  S47  1  0.33064809  0.37466271  0.41822310  1
  O  O48  1  0.21769722  0.02421033  0.30546649  1
  O  O49  1  0.82281991  0.78875476  0.30940730  1
  O  O50  1  0.97790652  0.17206202  0.30603257  1
  O  O51  1  0.21124524  0.17718009  0.80940730  1
  O  O52  1  0.97578967  0.78230278  0.80546649  1
  O  O53  1  0.82793798  0.02209348  0.80603257  1
  O  O54  1  0.80137287  0.97132070  0.69044895  1
  O  O55  1  0.16342041  0.19588145  0.69302138  1
  O  O56  1  0.02670094  0.82250913  0.69843580  1
  O  O57  1  0.80411855  0.83657959  0.19302138  1
  O  O58  1  0.02867930  0.19862713  0.19044895  1
  O  O59  1  0.17749087  0.97329906  0.19843580  1
  O  O60  1  0.88436422  0.35754333  0.63879949  1
  O  O61  1  0.48948691  0.12208776  0.64274030  1
  O  O62  1  0.64457352  0.50539502  0.63936557  1
  O  O63  1  0.87791224  0.51051309  0.14274030  1
  O  O64  1  0.64245667  0.11563578  0.13879949  1
  O  O65  1  0.49460498  0.35542648  0.13936557  1
  O  O66  1  0.46803987  0.30465370  0.02378195  1
  O  O67  1  0.83008741  0.52921445  0.02635438  1
  O  O68  1  0.69336794  0.15584213  0.03176880  1
  O  O69  1  0.47078555  0.16991259  0.52635438  1
  O  O70  1  0.69534630  0.53196013  0.52378195  1
  O  O71  1  0.84415787  0.30663206  0.53176880  1
  O  O72  1  0.55103022  0.69087733  0.97213349  1
  O  O73  1  0.15615291  0.45542176  0.97607430  1
  O  O74  1  0.31123952  0.83872902  0.97269957  1
  O  O75  1  0.54457824  0.84384709  0.47607430  1
  O  O76  1  0.30912267  0.44896978  0.47213349  1
  O  O77  1  0.16127098  0.68876048  0.47269957  1
  O  O78  1  0.13470587  0.63798770  0.35711595  1
  O  O79  1  0.49675341  0.86254845  0.35968838  1
  O  O80  1  0.36003394  0.48917613  0.36510280  1
  O  O81  1  0.13745155  0.50324659  0.85968838  1
  O  O82  1  0.36201230  0.86529413  0.85711595  1
  O  O83  1  0.51082387  0.63996606  0.86510280  1
  O  O84  1  0.02667793  0.83842373  0.40995041  1
  O  O85  1  0.81614443  0.98472314  0.41255947  1
  O  O86  1  0.19196185  0.20197842  0.40900683  1
  O  O87  1  0.01527686  0.18385557  0.91255947  1
  O  O88  1  0.16157627  0.97332207  0.90995041  1
  O  O89  1  0.79802158  0.80803815  0.90900683  1
  O  O90  1  0.96525466  0.16979336  0.58669404  1
  O  O91  1  0.18484262  0.03612366  0.59030365  1
  O  O92  1  0.83707751  0.82084314  0.58982806  1
  O  O93  1  0.96387634  0.81515738  0.09030365  1
  O  O94  1  0.83020664  0.03474534  0.08669404  1
  O  O95  1  0.17915686  0.16292249  0.08982806  1
  O  O96  1  0.69334493  0.17175673  0.74328341  1
  O  O97  1  0.48281143  0.31805614  0.74589247  1
  O  O98  1  0.85862885  0.53531142  0.74233983  1
  O  O99  1  0.68194386  0.51718857  0.24589247  1
  O  O100  1  0.82824327  0.30665507  0.24328341  1
  O  O101  1  0.46468858  0.14137115  0.24233983  1
  O  O102  1  0.63192166  0.50312636  0.92002704  1
  O  O103  1  0.85150962  0.36945666  0.92363665  1
  O  O104  1  0.50374451  0.15417614  0.92316106  1
  O  O105  1  0.63054334  0.14849038  0.42363665  1
  O  O106  1  0.49687364  0.36807834  0.42002704  1
  O  O107  1  0.84582386  0.49625549  0.42316106  1
  O  O108  1  0.36001093  0.50509073  0.07661741  1
  O  O109  1  0.14947743  0.65139014  0.07922647  1
  O  O110  1  0.52529485  0.86864542  0.07567383  1
  O  O111  1  0.34860986  0.85052257  0.57922647  1
  O  O112  1  0.49490927  0.63998907  0.57661741  1
  O  O113  1  0.13135458  0.47470515  0.57567383  1
  O  O114  1  0.29858766  0.83646036  0.25336104  1
  O  O115  1  0.51817562  0.70279066  0.25697065  1
  O  O116  1  0.17041051  0.48751014  0.25649506  1
  O  O117  1  0.29720934  0.48182438  0.75697065  1
  O  O118  1  0.16353964  0.70141234  0.75336104  1
  O  O119  1  0.51248986  0.82958949  0.75649506  1
