# generated using pymatgen
data_MgV4O5F7
_symmetry_space_group_name_H-M   'P 1'
_cell_length_a   5.12820447
_cell_length_b   7.75171617
_cell_length_c   5.43557898
_cell_angle_alpha   92.68306006
_cell_angle_beta   87.36031077
_cell_angle_gamma   90.28616582
_symmetry_Int_Tables_number   1
_chemical_formula_structural   MgV4O5F7
_chemical_formula_sum   'Mg1 V4 O5 F7'
_cell_volume   215.61045935
_cell_formula_units_Z   1
loop_
 _symmetry_equiv_pos_site_id
 _symmetry_equiv_pos_as_xyz
  1  'x, y, z'
loop_
 _atom_site_type_symbol
 _atom_site_label
 _atom_site_symmetry_multiplicity
 _atom_site_fract_x
 _atom_site_fract_y
 _atom_site_fract_z
 _atom_site_occupancy
  Mg  Mg0  1  0.00353700  0.21560500  0.59992400  1
  V  V1  1  0.48846500  0.50315800  0.49678700  1
  V  V2  1  0.47491600  0.96392500  0.50476800  1
  V  V3  1  0.04190300  0.50152400  0.99872500  1
  V  V4  1  0.99111300  0.99253800  0.01120400  1
  O  O5  1  0.72572000  0.96387700  0.21394000  1
  O  O6  1  0.39937700  0.75472100  0.49911900  1
  O  O7  1  0.28161400  0.45796800  0.19217000  1
  O  O8  1  0.25377500  0.05373200  0.77674600  1
  O  O9  1  0.19206100  0.43220100  0.68357700  1
  F  F10  1  0.89209400  0.25118100  0.97729900  1
  F  F11  1  0.79095900  0.56337500  0.27707200  1
  F  F12  1  0.78659000  0.96624900  0.70093400  1
  F  F13  1  0.71519800  0.54585500  0.78951000  1
  F  F14  1  0.64645900  0.25273300  0.49449100  1
  F  F15  1  0.19969700  0.07709000  0.30841600  1
  F  F16  1  0.11652300  0.75426200  0.98782100  1
