# generated using pymatgen
data_Na3CaSn(PO4)3
_symmetry_space_group_name_H-M   'P 1'
_cell_length_a   15.95156040
_cell_length_b   9.21245140
_cell_length_c   9.10470113
_cell_angle_alpha   90.00000000
_cell_angle_beta   125.33153633
_cell_angle_gamma   90.00000000
_symmetry_Int_Tables_number   1
_chemical_formula_structural   Na3CaSn(PO4)3
_chemical_formula_sum   'Na12 Ca4 Sn4 P12 O48'
_cell_volume   1091.53611258
_cell_formula_units_Z   4
loop_
 _symmetry_equiv_pos_site_id
 _symmetry_equiv_pos_as_xyz
  1  'x, y, z'
loop_
 _atom_site_type_symbol
 _atom_site_label
 _atom_site_symmetry_multiplicity
 _atom_site_fract_x
 _atom_site_fract_y
 _atom_site_fract_z
 _atom_site_occupancy
  Na  Na0  1  0.25629005  0.72172168  0.99442800  1
  Na  Na1  1  0.75629005  0.77827832  0.49442800  1
  Na  Na2  1  0.75629005  0.22172168  0.99442800  1
  Na  Na3  1  0.25629005  0.27827832  0.49442800  1
  Na  Na4  1  0.50374891  0.11269216  0.74559129  1
  Na  Na5  1  0.50374891  0.88730784  0.24559129  1
  Na  Na6  1  0.00374891  0.61269216  0.74559129  1
  Na  Na7  1  0.00374891  0.38730784  0.24559129  1
  Na  Na8  1  0.17923506  0.94017410  0.28985450  1
  Na  Na9  1  0.17923506  0.05982590  0.78985450  1
  Na  Na10  1  0.67923506  0.44017410  0.28985450  1
  Na  Na11  1  0.67923506  0.55982590  0.78985450  1
  Ca  Ca12  1  0.10514006  0.74808465  0.56658287  1
  Ca  Ca13  1  0.10514006  0.25191535  0.06658287  1
  Ca  Ca14  1  0.60514006  0.24808465  0.56658287  1
  Ca  Ca15  1  0.60514006  0.75191535  0.06658287  1
  Sn  Sn16  1  0.89607893  0.75660311  0.94396712  1
  Sn  Sn17  1  0.89607893  0.24339689  0.44396712  1
  Sn  Sn18  1  0.39607893  0.25660311  0.94396712  1
  Sn  Sn19  1  0.39607893  0.74339689  0.44396712  1
  P  P20  1  0.99393077  0.95363669  0.76063418  1
  P  P21  1  0.99393077  0.04636331  0.26063418  1
  P  P22  1  0.49393077  0.45363669  0.76063418  1
  P  P23  1  0.49393077  0.54636331  0.26063418  1
  P  P24  1  0.35600992  0.91410787  0.76056301  1
  P  P25  1  0.64858083  0.87966727  0.74278749  1
  P  P26  1  0.64858083  0.12033273  0.24278749  1
  P  P27  1  0.35600992  0.08589213  0.26056301  1
  P  P28  1  0.85600992  0.41410787  0.76056301  1
  P  P29  1  0.14858083  0.37966727  0.74278749  1
  P  P30  1  0.14858083  0.62033273  0.24278749  1
  P  P31  1  0.85600992  0.58589213  0.26056301  1
  O  O32  1  0.15567530  0.54541871  0.75283776  1
  O  O33  1  0.85200685  0.58746083  0.74784703  1
  O  O34  1  0.85200685  0.41253917  0.24784703  1
  O  O35  1  0.15567530  0.45458129  0.25283776  1
  O  O36  1  0.65567530  0.04541871  0.75283776  1
  O  O37  1  0.35200685  0.08746083  0.74784703  1
  O  O38  1  0.35200685  0.91253917  0.24784703  1
  O  O39  1  0.65567530  0.95458129  0.25283776  1
  O  O40  1  0.43412650  0.55474678  0.58901199  1
  O  O41  1  0.55795755  0.53745188  0.93451970  1
  O  O42  1  0.55795755  0.46254812  0.43451970  1
  O  O43  1  0.43412650  0.44525322  0.08901199  1
  O  O44  1  0.93412650  0.05474678  0.58901199  1
  O  O45  1  0.05795755  0.03745188  0.93451970  1
  O  O46  1  0.05795755  0.96254812  0.43451970  1
  O  O47  1  0.93412650  0.94525322  0.08901199  1
  O  O48  1  0.26314634  0.86120870  0.75398168  1
  O  O49  1  0.73813711  0.80616385  0.74147997  1
  O  O50  1  0.73813711  0.19383615  0.24147997  1
  O  O51  1  0.26314634  0.13879130  0.25398168  1
  O  O52  1  0.76314634  0.36120870  0.75398168  1
  O  O53  1  0.23813711  0.30616385  0.74147997  1
  O  O54  1  0.23813711  0.69383615  0.24147997  1
  O  O55  1  0.76314634  0.63879130  0.25398168  1
  O  O56  1  0.35206473  0.87120196  0.58576709  1
  O  O57  1  0.65241627  0.81698582  0.89910383  1
  O  O58  1  0.65241627  0.18301418  0.39910383  1
  O  O59  1  0.35206473  0.12879804  0.08576709  1
  O  O60  1  0.85206473  0.37120196  0.58576709  1
  O  O61  1  0.15241627  0.31698582  0.89910383  1
  O  O62  1  0.15241627  0.68301418  0.39910383  1
  O  O63  1  0.85206473  0.62879804  0.08576709  1
  O  O64  1  0.45569511  0.86953652  0.93335296  1
  O  O65  1  0.54680452  0.82624024  0.55822902  1
  O  O66  1  0.54680452  0.17375976  0.05822902  1
  O  O67  1  0.45569511  0.13046348  0.43335296  1
  O  O68  1  0.95569511  0.36953652  0.93335296  1
  O  O69  1  0.04680452  0.32624024  0.55822902  1
  O  O70  1  0.04680452  0.67375976  0.05822902  1
  O  O71  1  0.95569511  0.63046348  0.43335296  1
  O  O72  1  0.06501877  0.84941490  0.74814132  1
  O  O73  1  0.90793644  0.86085852  0.75131920  1
  O  O74  1  0.90793644  0.13914148  0.25131920  1
  O  O75  1  0.06501877  0.15058510  0.24814132  1
  O  O76  1  0.56501877  0.34941490  0.74814132  1
  O  O77  1  0.40793644  0.36085852  0.75131920  1
  O  O78  1  0.40793644  0.63914148  0.25131920  1
  O  O79  1  0.56501877  0.65058510  0.24814132  1
