# generated using pymatgen
data_MgGe2(WO4)2
_symmetry_space_group_name_H-M   'P 1'
_cell_length_a   5.28273004
_cell_length_b   6.34343600
_cell_length_c   5.22078455
_cell_angle_alpha   90.00000000
_cell_angle_beta   87.28800239
_cell_angle_gamma   90.00000000
_symmetry_Int_Tables_number   1
_chemical_formula_structural   MgGe2(WO4)2
_chemical_formula_sum   'Mg1 Ge2 W2 O8'
_cell_volume   174.75598737
_cell_formula_units_Z   1
loop_
 _symmetry_equiv_pos_site_id
 _symmetry_equiv_pos_as_xyz
  1  'x, y, z'
loop_
 _atom_site_type_symbol
 _atom_site_label
 _atom_site_symmetry_multiplicity
 _atom_site_fract_x
 _atom_site_fract_y
 _atom_site_fract_z
 _atom_site_occupancy
  Mg  Mg0  1  0.00000000  0.59638700  0.25000000  1
  Ge  Ge1  1  0.50000000  0.35124600  0.75000000  1
  Ge  Ge2  1  0.50000000  0.72656700  0.25000000  1
  W  W3  1  0.00000000  0.85354000  0.75000000  1
  W  W4  1  0.00000000  0.14560300  0.25000000  1
  O  O5  1  0.19610800  0.09165700  0.55587900  1
  O  O6  1  0.20596600  0.87965900  0.07273600  1
  O  O7  1  0.21298900  0.64104700  0.57806000  1
  O  O8  1  0.22615600  0.36346500  0.10422500  1
  O  O9  1  0.78701100  0.64104700  0.92194000  1
  O  O10  1  0.77384400  0.36346500  0.39577500  1
  O  O11  1  0.80389200  0.09165700  0.94412100  1
  O  O12  1  0.79403400  0.87965900  0.42726400  1
