# generated using pymatgen
data_Na4Y2Ti2Si3(SO8)3
_symmetry_space_group_name_H-M   'P 1'
_cell_length_a   9.14167954
_cell_length_b   9.11512227
_cell_length_c   22.97619228
_cell_angle_alpha   90.31696212
_cell_angle_beta   89.94511636
_cell_angle_gamma   119.56309553
_symmetry_Int_Tables_number   1
_chemical_formula_structural   Na4Y2Ti2Si3(SO8)3
_chemical_formula_sum   'Na12 Y6 Ti6 Si9 S9 O72'
_cell_volume   1665.27072313
_cell_formula_units_Z   3
loop_
 _symmetry_equiv_pos_site_id
 _symmetry_equiv_pos_as_xyz
  1  'x, y, z'
loop_
 _atom_site_type_symbol
 _atom_site_label
 _atom_site_symmetry_multiplicity
 _atom_site_fract_x
 _atom_site_fract_y
 _atom_site_fract_z
 _atom_site_occupancy
  Na  Na0  1  0.97780078  0.64141519  0.25322969  1
  Na  Na1  1  0.99285267  0.35356817  0.74352349  1
  Na  Na2  1  0.65630751  0.97851885  0.59505218  1
  Na  Na3  1  0.66485611  0.69475870  0.07839870  1
  Na  Na4  1  0.33839908  0.31111219  0.90475572  1
  Na  Na5  1  0.31460282  0.01636632  0.41982671  1
  Na  Na6  1  0.00837020  0.98262244  0.50718365  1
  Na  Na7  1  0.98634136  0.98450143  0.00062047  1
  Na  Na8  1  0.64615770  0.30581527  0.82430075  1
  Na  Na9  1  0.65176663  0.34186828  0.33629812  1
  Na  Na10  1  0.32288811  0.66957848  0.17237402  1
  Na  Na11  1  0.30487123  0.67018378  0.66140515  1
  Y  Y12  1  0.99333498  0.99320163  0.35342756  1
  Y  Y13  1  0.99114612  0.98692222  0.85117784  1
  Y  Y14  1  0.65812944  0.33351032  0.68573224  1
  Y  Y15  1  0.65708134  0.32380089  0.18776577  1
  Y  Y16  1  0.32734715  0.67489705  0.01789492  1
  Y  Y17  1  0.31806113  0.65626128  0.51996711  1
  Ti  Ti18  1  0.02349871  0.03787047  0.64742555  1
  Ti  Ti19  1  0.98570298  0.96551960  0.15594896  1
  Ti  Ti20  1  0.68567340  0.36474737  0.98100519  1
  Ti  Ti21  1  0.68353695  0.33505087  0.48880585  1
  Ti  Ti22  1  0.31898672  0.66708319  0.31191593  1
  Ti  Ti23  1  0.37671167  0.67633448  0.80637607  1
  Si  Si24  1  0.28888586  0.98743740  0.25508672  1
  Si  Si25  1  0.68464838  0.70148473  0.25175123  1
  Si  Si26  1  0.29638455  0.30084430  0.75666758  1
  Si  Si27  1  0.71367464  0.99801066  0.74607409  1
  Si  Si28  1  0.96524213  0.32976858  0.58987267  1
  Si  Si29  1  0.36957181  0.04842723  0.58029985  1
  Si  Si30  1  0.96379095  0.63752347  0.08860604  1
  Si  Si31  1  0.63107142  0.66564023  0.92084724  1
  Si  Si32  1  0.02233228  0.64783626  0.41598798  1
  S  S33  1  0.01440835  0.29649322  0.24725076  1
  S  S34  1  0.02105864  0.71158968  0.74912654  1
  S  S35  1  0.68620901  0.63730446  0.57954099  1
  S  S36  1  0.68221472  0.04897270  0.07928767  1
  S  S37  1  0.36635462  0.32087492  0.07846123  1
  S  S38  1  0.02335979  0.37069364  0.91746428  1
  S  S39  1  0.35081213  0.97508372  0.91476016  1
  S  S40  1  0.61301728  0.96280009  0.41564590  1
  S  S41  1  0.34632515  0.38034188  0.41237014  1
  O  O42  1  0.21932323  0.01805069  0.31491297  1
  O  O43  1  0.81969973  0.79720323  0.30166326  1
  O  O44  1  0.99629353  0.20824962  0.30178653  1
  O  O45  1  0.21439365  0.20421794  0.81632589  1
  O  O46  1  0.00351175  0.78611451  0.80436037  1
  O  O47  1  0.81878867  0.01720884  0.80385238  1
  O  O48  1  0.80817509  0.97327739  0.68778338  1
  O  O49  1  0.16421194  0.19937441  0.69989470  1
  O  O50  1  0.03290875  0.81438965  0.69788514  1
  O  O51  1  0.78742713  0.82242974  0.19021659  1
  O  O52  1  0.02235571  0.20064626  0.19544897  1
  O  O53  1  0.14564855  0.95776650  0.20030220  1
  O  O54  1  0.88953449  0.35455764  0.64922032  1
  O  O55  1  0.49107104  0.13428832  0.63479820  1
  O  O56  1  0.66200489  0.54592529  0.63402556  1
  O  O57  1  0.87089250  0.53260070  0.14512028  1
  O  O58  1  0.66201369  0.12042797  0.13374821  1
  O  O59  1  0.47184056  0.34255758  0.12996547  1
  O  O60  1  0.45687822  0.30933550  0.02442337  1
  O  O61  1  0.82920965  0.52742772  0.03014064  1
  O  O62  1  0.68311317  0.14958473  0.02804446  1
  O  O63  1  0.46975722  0.16895665  0.52044842  1
  O  O64  1  0.68967412  0.53307339  0.52823532  1
  O  O65  1  0.82838863  0.30703093  0.53440923  1
  O  O66  1  0.53943563  0.66829223  0.98014731  1
  O  O67  1  0.13134067  0.46285051  0.96804501  1
  O  O68  1  0.33194976  0.87942966  0.96889357  1
  O  O69  1  0.54994660  0.87041838  0.47035661  1
  O  O70  1  0.34445951  0.46463895  0.46653955  1
  O  O71  1  0.15511377  0.68979386  0.46707393  1
  O  O72  1  0.12823890  0.63166860  0.35540896  1
  O  O73  1  0.49977755  0.86269932  0.36534454  1
  O  O74  1  0.34881609  0.48154718  0.36028338  1
  O  O75  1  0.09125201  0.46327952  0.86307614  1
  O  O76  1  0.35661657  0.88003714  0.86301499  1
  O  O77  1  0.50053801  0.63872486  0.86401260  1
  O  O78  1  0.00438532  0.81766135  0.41374329  1
  O  O79  1  0.78807265  0.00121152  0.40756276  1
  O  O80  1  0.19176437  0.20918571  0.41209274  1
  O  O81  1  0.01072653  0.20125148  0.91745432  1
  O  O82  1  0.20563640  0.00662266  0.91401122  1
  O  O83  1  0.82137718  0.81596252  0.91843419  1
  O  O84  1  0.95929302  0.14276336  0.58967161  1
  O  O85  1  0.18183258  0.03198236  0.59263084  1
  O  O86  1  0.84505727  0.80038830  0.57974663  1
  O  O87  1  0.96194442  0.82148619  0.09071973  1
  O  O88  1  0.84000756  0.03676427  0.08042126  1
  O  O89  1  0.19960402  0.16936180  0.08202017  1
  O  O90  1  0.68581275  0.15942105  0.74570968  1
  O  O91  1  0.48736542  0.34506749  0.75046310  1
  O  O92  1  0.87367177  0.53823297  0.74625790  1
  O  O93  1  0.67096347  0.51808309  0.24580967  1
  O  O94  1  0.87136881  0.33105031  0.24255499  1
  O  O95  1  0.47620552  0.13031785  0.24225999  1
  O  O96  1  0.63433125  0.47868640  0.92603380  1
  O  O97  1  0.85013317  0.34950022  0.92755066  1
  O  O98  1  0.50813923  0.14425465  0.91806422  1
  O  O99  1  0.61015850  0.12705721  0.41782697  1
  O  O100  1  0.49585084  0.35673994  0.41083543  1
  O  O101  1  0.83818405  0.47266141  0.42657375  1
  O  O102  1  0.35224716  0.47772134  0.07611503  1
  O  O103  1  0.15067372  0.66862072  0.08159107  1
  O  O104  1  0.53712507  0.87087052  0.07587404  1
  O  O105  1  0.35961968  0.86559146  0.57544882  1
  O  O106  1  0.54348930  0.67112871  0.57243659  1
  O  O107  1  0.15490976  0.47595371  0.58194713  1
  O  O108  1  0.28009150  0.79876262  0.25723957  1
  O  O109  1  0.50210762  0.69292396  0.26007331  1
  O  O110  1  0.17423512  0.46677926  0.24844766  1
  O  O111  1  0.29328949  0.48541123  0.76131060  1
  O  O112  1  0.17753625  0.69554608  0.75301444  1
  O  O113  1  0.52440171  0.82026523  0.75533163  1
