# generated using pymatgen
data_NaMgCuO2
_symmetry_space_group_name_H-M   'P 1'
_cell_length_a   3.30970568
_cell_length_b   3.51175929
_cell_length_c   6.95983966
_cell_angle_alpha   90.18496595
_cell_angle_beta   73.69688921
_cell_angle_gamma   58.39378051
_symmetry_Int_Tables_number   1
_chemical_formula_structural   NaMgCuO2
_chemical_formula_sum   'Na1 Mg1 Cu1 O2'
_cell_volume   64.99618807
_cell_formula_units_Z   1
loop_
 _symmetry_equiv_pos_site_id
 _symmetry_equiv_pos_as_xyz
  1  'x, y, z'
loop_
 _atom_site_type_symbol
 _atom_site_label
 _atom_site_symmetry_multiplicity
 _atom_site_fract_x
 _atom_site_fract_y
 _atom_site_fract_z
 _atom_site_occupancy
  Na  Na0  1  0.57893538  0.23429153  0.53239463  1
  Mg  Mg1  1  0.54874809  0.73922944  0.17528807  1
  Cu  Cu2  1  0.03267851  -0.00083627  0.85445919  1
  O  O3  1  0.13211979  0.44683687  0.28943626  1
  O  O4  1  0.83251823  0.59833543  0.86270785  1
