# generated using pymatgen
data_Na10Mg4Al4Si3(S3O16)3
_symmetry_space_group_name_H-M   'P 1'
_cell_length_a   17.50149846
_cell_length_b   8.75628654
_cell_length_c   21.92169258
_cell_angle_alpha   89.84491047
_cell_angle_beta   88.46758803
_cell_angle_gamma   120.11460538
_symmetry_Int_Tables_number   1
_chemical_formula_structural   Na10Mg4Al4Si3(S3O16)3
_chemical_formula_sum   'Na30 Mg12 Al12 Si9 S27 O144'
_cell_volume   2904.46632794
_cell_formula_units_Z   3
loop_
 _symmetry_equiv_pos_site_id
 _symmetry_equiv_pos_as_xyz
  1  'x, y, z'
loop_
 _atom_site_type_symbol
 _atom_site_label
 _atom_site_symmetry_multiplicity
 _atom_site_fract_x
 _atom_site_fract_y
 _atom_site_fract_z
 _atom_site_occupancy
  Na  Na0  1  0.18853176  0.37126976  0.24462948  1
  Na  Na1  1  0.68862004  0.37417426  0.24436079  1
  Na  Na2  1  0.98941922  0.64176059  0.25549914  1
  Na  Na3  1  0.49208628  0.63570791  0.26253866  1
  Na  Na4  1  0.32640182  0.65698735  0.74461523  1
  Na  Na5  1  0.82229423  0.64848409  0.74484260  1
  Na  Na6  1  0.99164548  0.34528739  0.75301120  1
  Na  Na7  1  0.18781143  0.00135582  0.74064442  1
  Na  Na8  1  0.68766152  0.00455145  0.74090335  1
  Na  Na9  1  0.52013234  0.70432484  0.57300124  1
  Na  Na10  1  0.32320175  0.97356527  0.59092328  1
  Na  Na11  1  0.82337839  0.96760751  0.58902288  1
  Na  Na12  1  0.15421223  0.98063379  0.08012040  1
  Na  Na13  1  0.65400629  0.98063982  0.07981561  1
  Na  Na14  1  0.32620713  0.68106327  0.09357470  1
  Na  Na15  1  0.82580099  0.68076955  0.09404874  1
  Na  Na16  1  0.65898112  0.00732058  0.42682646  1
  Na  Na17  1  0.35596760  0.67096004  0.40862637  1
  Na  Na18  1  0.01846000  0.00384938  0.49974658  1
  Na  Na19  1  0.51060307  0.01399439  0.49877371  1
  Na  Na20  1  0.00924550  0.03081259  0.99884305  1
  Na  Na21  1  0.50971674  0.03303668  0.99846036  1
  Na  Na22  1  0.34771387  0.31768209  0.83248353  1
  Na  Na23  1  0.83363943  0.31579086  0.83468160  1
  Na  Na24  1  0.33723778  0.32955853  0.33418667  1
  Na  Na25  1  0.83925605  0.35211101  0.33245121  1
  Na  Na26  1  0.17062648  0.65145693  0.16573591  1
  Na  Na27  1  0.67136593  0.65291574  0.16702233  1
  Na  Na28  1  0.16365628  0.68154821  0.66003528  1
  Na  Na29  1  0.66180404  0.65922707  0.66323852  1
  Mg  Mg30  1  0.99681865  0.99038493  0.35277112  1
  Mg  Mg31  1  0.49786551  0.99325695  0.35250826  1
  Mg  Mg32  1  0.99756720  0.00333148  0.85384625  1
  Mg  Mg33  1  0.49747003  0.00281805  0.85424405  1
  Mg  Mg34  1  0.33186052  0.31621628  0.68363289  1
  Mg  Mg35  1  0.83094535  0.32346336  0.68242397  1
  Mg  Mg36  1  0.33128991  0.33923399  0.18483479  1
  Mg  Mg37  1  0.83043319  0.34012226  0.18401848  1
  Mg  Mg38  1  0.16356764  0.65237922  0.01797455  1
  Mg  Mg39  1  0.66286461  0.65105196  0.01769888  1
  Mg  Mg40  1  0.16156225  0.67024199  0.51963185  1
  Mg  Mg41  1  0.66627082  0.67074220  0.51729908  1
  Al  Al42  1  0.99807410  0.99650240  0.64563567  1
  Al  Al43  1  0.50261005  0.01461602  0.64960776  1
  Al  Al44  1  0.99439171  0.01414729  0.15026341  1
  Al  Al45  1  0.49622206  0.01124352  0.14981293  1
  Al  Al46  1  0.32669352  0.32687961  0.98229542  1
  Al  Al47  1  0.82611489  0.32680433  0.98247338  1
  Al  Al48  1  0.33105739  0.32478610  0.48080120  1
  Al  Al49  1  0.83097646  0.33306415  0.48457292  1
  Al  Al50  1  0.17362272  0.67900050  0.31627571  1
  Al  Al51  1  0.67367857  0.67778677  0.32019148  1
  Al  Al52  1  0.17619157  0.67586234  0.81986565  1
  Al  Al53  1  0.66746017  0.66820517  0.81712315  1
  Si  Si54  1  0.35268475  0.71303900  0.25053850  1
  Si  Si55  1  0.85251881  0.71595054  0.25104810  1
  Si  Si56  1  0.35488017  0.00043878  0.75234780  1
  Si  Si57  1  0.85392333  0.99705138  0.75055730  1
  Si  Si58  1  0.18244090  0.04328421  0.58451248  1
  Si  Si59  1  0.68185355  0.04061470  0.58587998  1
  Si  Si60  1  0.18065187  0.32523952  0.08671711  1
  Si  Si61  1  0.67995708  0.32541075  0.08615838  1
  Si  Si62  1  0.51733383  0.65415234  0.41844137  1
  S  S63  1  0.14609200  0.99207883  0.25098772  1
  S  S64  1  0.64695701  0.99452478  0.24915598  1
  S  S65  1  -0.00013989  0.29272322  0.25165421  1
  S  S66  1  0.49984667  0.28952332  0.25001751  1
  S  S67  1  0.14457972  0.29630025  0.75151357  1
  S  S68  1  0.64286808  0.29756715  0.75184501  1
  S  S69  1  0.00217842  0.71238639  0.75149325  1
  S  S70  1  0.50343985  0.71010434  0.75187841  1
  S  S71  1  0.48041080  0.32843101  0.58201448  1
  S  S72  1  0.97809708  0.33046016  0.58266090  1
  S  S73  1  0.33352653  0.62286317  0.58279251  1
  S  S74  1  0.83664743  0.62537347  0.58238424  1
  S  S75  1  0.47747198  0.62220791  0.08036464  1
  S  S76  1  0.97745495  0.62186468  0.08019382  1
  S  S77  1  0.33798408  0.05310592  0.08039579  1
  S  S78  1  0.83815014  0.05425698  0.08033450  1
  S  S79  1  0.31391151  0.65570294  0.91834024  1
  S  S80  1  0.81258674  0.65551034  0.91706853  1
  S  S81  1  0.01766273  0.38191197  0.91651145  1
  S  S82  1  0.51767993  0.38170546  0.91744696  1
  S  S83  1  0.17062244  0.96414112  0.91775158  1
  S  S84  1  0.67037983  0.96265869  0.91723131  1
  S  S85  1  0.30925647  0.96238055  0.41706159  1
  S  S86  1  0.81684875  0.97084069  0.41867400  1
  S  S87  1  0.16436609  0.37719370  0.41566241  1
  S  S88  1  0.67398166  0.38207578  0.41644146  1
  S  S89  1  0.01750856  0.65444228  0.41689035  1
  O  O90  1  0.10868078  0.03649575  0.30432262  1
  O  O91  1  0.60902462  0.03025049  0.30468811  1
  O  O92  1  0.41056689  0.79601129  0.30994701  1
  O  O93  1  0.92029302  0.80158691  0.30491177  1
  O  O94  1  0.49207605  0.19106638  0.30570097  1
  O  O95  1  0.99094898  0.19257012  0.30694140  1
  O  O96  1  0.11017439  0.18003841  0.80575753  1
  O  O97  1  0.60706125  0.18120406  0.80558221  1
  O  O98  1  0.49173297  0.79106691  0.80676759  1
  O  O99  1  0.98965065  0.78958566  0.80703029  1
  O  O100  1  0.40895270  0.00962146  0.81006879  1
  O  O101  1  0.91907003  0.03662202  0.80546013  1
  O  O102  1  0.40089840  0.96110747  0.68924660  1
  O  O103  1  0.89865927  0.95579740  0.68814510  1
  O  O104  1  0.08800368  0.21505577  0.69803107  1
  O  O105  1  0.59069248  0.21559011  0.69670871  1
  O  O106  1  0.01999558  0.82866668  0.69667858  1
  O  O107  1  0.52246114  0.82564772  0.69588074  1
  O  O108  1  0.40154217  0.83283722  0.18686442  1
  O  O109  1  0.89884993  0.83385190  0.18589686  1
  O  O110  1  0.01914720  0.21260689  0.19657318  1
  O  O111  1  0.51493389  0.20472988  0.19485929  1
  O  O112  1  0.09184918  0.96167252  0.19548766  1
  O  O113  1  0.59159851  0.97141416  0.19479831  1
  O  O114  1  0.44330649  0.36879481  0.63664555  1
  O  O115  1  0.94358556  0.36060433  0.64105588  1
  O  O116  1  0.23935114  0.11721308  0.64591474  1
  O  O117  1  0.74107119  0.12383588  0.64493970  1
  O  O118  1  0.32740654  0.52891574  0.64029744  1
  O  O119  1  0.82887368  0.53200286  0.64049388  1
  O  O120  1  0.44264613  0.52308704  0.13818234  1
  O  O121  1  0.94294981  0.52366990  0.13824630  1
  O  O122  1  0.32620075  0.13408223  0.13521391  1
  O  O123  1  0.82663914  0.13511081  0.13513784  1
  O  O124  1  0.23873998  0.35870794  0.14653234  1
  O  O125  1  0.73848773  0.35937011  0.14568507  1
  O  O126  1  0.23047448  0.28150848  0.02837661  1
  O  O127  1  0.73008308  0.28174324  0.02794226  1
  O  O128  1  0.42051149  0.52467814  0.02828261  1
  O  O129  1  0.92042700  0.52336825  0.02822285  1
  O  O130  1  0.35189355  0.16130657  0.02401721  1
  O  O131  1  0.85207500  0.16223205  0.02384684  1
  O  O132  1  0.23835840  0.17442653  0.52576390  1
  O  O133  1  0.73178015  0.16116637  0.52303147  1
  O  O134  1  0.34819406  0.53673543  0.52837280  1
  O  O135  1  0.84901189  0.53441199  0.52896879  1
  O  O136  1  0.42505377  0.30072921  0.52803405  1
  O  O137  1  0.91941046  0.31077836  0.53110952  1
  O  O138  1  0.27044225  0.67858189  0.97251549  1
  O  O139  1  0.77010211  0.67777194  0.97193130  1
  O  O140  1  0.06836576  0.46877917  0.96945248  1
  O  O141  1  0.56673832  0.46413272  0.97164421  1
  O  O142  1  0.15988679  0.86116707  0.97351032  1
  O  O143  1  0.65988079  0.86018384  0.97305162  1
  O  O144  1  0.27084097  0.85060068  0.47234335  1
  O  O145  1  0.77815785  0.87158737  0.47615509  1
  O  O146  1  0.15511268  0.46157430  0.47017357  1
  O  O147  1  0.66441316  0.46594228  0.47079180  1
  O  O148  1  0.06952654  0.67033943  0.46906911  1
  O  O149  1  0.57622640  0.69120146  0.47757533  1
  O  O150  1  0.06050337  0.63371669  0.35863297  1
  O  O151  1  0.57104978  0.63844561  0.35655506  1
  O  O152  1  0.25363630  0.87165624  0.36310949  1
  O  O153  1  0.75791922  0.87915983  0.36629239  1
  O  O154  1  0.17556628  0.48879493  0.35879125  1
  O  O155  1  0.68452880  0.48703938  0.35936921  1
  O  O156  1  0.06424381  0.49203142  0.85902840  1
  O  O157  1  0.56499336  0.49540266  0.86165030  1
  O  O158  1  0.17827316  0.86898774  0.86203629  1
  O  O159  1  0.67884225  0.86997818  0.86138534  1
  O  O160  1  0.25955309  0.63435154  0.86251839  1
  O  O161  1  0.75894963  0.63410933  0.86136417  1
  O  O162  1  0.00878872  0.81325524  0.41263731  1
  O  O163  1  0.50660120  0.83131192  0.41371558  1
  O  O164  1  0.39946359  0.99159360  0.40858030  1
  O  O165  1  0.90565222  0.99727118  0.41058668  1
  O  O166  1  0.08741134  0.19837268  0.41025462  1
  O  O167  1  0.59644865  0.20100446  0.41163456  1
  O  O168  1  0.00886722  0.20550185  0.91240202  1
  O  O169  1  0.50865063  0.20550847  0.91203940  1
  O  O170  1  0.09368685  0.98900653  0.91192198  1
  O  O171  1  0.59397124  0.98905712  0.91172347  1
  O  O172  1  0.40381057  0.80796215  0.91224059  1
  O  O173  1  0.90243883  0.80952092  0.91073871  1
  O  O174  1  0.48055655  0.15787713  0.58983420  1
  O  O175  1  0.97651317  0.15727476  0.58617954  1
  O  O176  1  0.08474417  0.03096665  0.59266117  1
  O  O177  1  0.58143619  0.01868814  0.59339547  1
  O  O178  1  0.41429786  0.80424505  0.58340267  1
  O  O179  1  0.91638498  0.80676742  0.58273084  1
  O  O180  1  0.47958170  0.79575212  0.08211371  1
  O  O181  1  0.97955406  0.79512529  0.08159181  1
  O  O182  1  0.41600565  0.02698352  0.08367196  1
  O  O183  1  0.91692613  0.02986959  0.08359314  1
  O  O184  1  0.08253110  0.13714024  0.09444670  1
  O  O185  1  0.58217278  0.13702707  0.09319147  1
  O  O186  1  0.33722608  0.16433510  0.74806968  1
  O  O187  1  0.83926697  0.16689054  0.74647502  1
  O  O188  1  0.23746624  0.34134469  0.74180699  1
  O  O189  1  0.73616974  0.33808633  0.74288311  1
  O  O190  1  0.42286895  0.53659674  0.74430036  1
  O  O191  1  0.92150060  0.53551237  0.74457014  1
  O  O192  1  0.34061582  0.51332047  0.24721141  1
  O  O193  1  0.83931088  0.51613247  0.24576250  1
  O  O194  1  0.42141982  0.30893956  0.24387689  1
  O  O195  1  0.92154361  0.31077485  0.24373824  1
  O  O196  1  0.23787813  0.13560048  0.24255988  1
  O  O197  1  0.73766358  0.14344017  0.24177052  1
  O  O198  1  0.31813962  0.48862186  0.92261284  1
  O  O199  1  0.81865261  0.48969106  0.92196534  1
  O  O200  1  0.42808196  0.36615424  0.92143495  1
  O  O201  1  0.92809769  0.36612194  0.92034735  1
  O  O202  1  0.25488707  0.13902713  0.91864030  1
  O  O203  1  0.75483935  0.13813119  0.91885202  1
  O  O204  1  0.31222335  0.13433576  0.42075599  1
  O  O205  1  0.82083224  0.14775744  0.42113716  1
  O  O206  1  0.24807372  0.36924573  0.41668715  1
  O  O207  1  0.75582738  0.36432281  0.41930394  1
  O  O208  1  0.41551375  0.47757583  0.42530871  1
  O  O209  1  0.92723100  0.49051321  0.42318256  1
  O  O210  1  0.17351791  0.50151172  0.07764691  1
  O  O211  1  0.67370431  0.50285919  0.07767202  1
  O  O212  1  0.06995514  0.66202073  0.07263227  1
  O  O213  1  0.57005037  0.66324220  0.07271826  1
  O  O214  1  0.25688190  0.87464713  0.07538527  1
  O  O215  1  0.75748213  0.87575377  0.07523064  1
  O  O216  1  0.17160391  0.84666072  0.57664353  1
  O  O217  1  0.67086018  0.84178065  0.58136433  1
  O  O218  1  0.25459297  0.64165014  0.57815304  1
  O  O219  1  0.75715774  0.64254721  0.57695182  1
  O  O220  1  0.06849543  0.47447980  0.57382247  1
  O  O221  1  0.57204173  0.47337889  0.57459360  1
  O  O222  1  0.14485782  0.81996454  0.26053259  1
  O  O223  1  0.64837121  0.82549783  0.25478986  1
  O  O224  1  0.25083438  0.68727692  0.25674293  1
  O  O225  1  0.75194527  0.69155065  0.26069568  1
  O  O226  1  0.07994340  0.47572727  0.25400875  1
  O  O227  1  0.58081241  0.46954903  0.25058157  1
  O  O228  1  0.14562804  0.46935695  0.76087236  1
  O  O229  1  0.64677925  0.47177174  0.75945355  1
  O  O230  1  0.08050976  0.68581947  0.75548269  1
  O  O231  1  0.58377595  0.68934156  0.75704461  1
  O  O232  1  0.25331650  0.81436403  0.75840172  1
  O  O233  1  0.75396630  0.81384153  0.75966026  1
