# generated using pymatgen
data_NaZrInSi(SO6)2
_symmetry_space_group_name_H-M   'P 1'
_cell_length_a   8.95099965
_cell_length_b   8.99171033
_cell_length_c   23.57536302
_cell_angle_alpha   89.65253105
_cell_angle_beta   90.00000000
_cell_angle_gamma   119.85034152
_symmetry_Int_Tables_number   1
_chemical_formula_structural   NaZrInSi(SO6)2
_chemical_formula_sum   'Na6 Zr6 In6 Si6 S12 O72'
_cell_volume   1645.67935051
_cell_formula_units_Z   6
loop_
 _symmetry_equiv_pos_site_id
 _symmetry_equiv_pos_as_xyz
  1  'x, y, z'
loop_
 _atom_site_type_symbol
 _atom_site_label
 _atom_site_symmetry_multiplicity
 _atom_site_fract_x
 _atom_site_fract_y
 _atom_site_fract_z
 _atom_site_occupancy
  Na  Na0  1  0.02116408  0.01172547  0.50411266  1
  Na  Na1  1  0.99056140  0.01172547  0.00411266  1
  Na  Na2  1  0.68609936  0.33144064  0.83643232  1
  Na  Na3  1  0.64534228  0.33144064  0.33643232  1
  Na  Na4  1  0.34126397  0.68830550  0.16998652  1
  Na  Na5  1  0.34704053  0.68830550  0.66998652  1
  Zr  Zr6  1  0.01972190  0.01358286  0.35410601  1
  Zr  Zr7  1  0.99386096  0.01358286  0.85410601  1
  Zr  Zr8  1  0.65744642  0.31056067  0.68639142  1
  Zr  Zr9  1  0.65311524  0.31056067  0.18639142  1
  Zr  Zr10  1  0.33265394  0.66583310  0.01980581  1
  Zr  Zr11  1  0.33317816  0.66583310  0.51980581  1
  In  In12  1  0.99709013  0.99693227  0.64946987  1
  In  In13  1  0.99984214  0.99693227  0.14946987  1
  In  In14  1  0.68261454  0.32592770  0.98204142  1
  In  In15  1  0.64331416  0.32592770  0.48204142  1
  In  In16  1  0.33655301  0.67095874  0.31540348  1
  In  In17  1  0.33440473  0.67095874  0.81540348  1
  Si  Si18  1  0.28848050  0.99054016  0.24866170  1
  Si  Si19  1  0.70205966  0.99054016  0.74866170  1
  Si  Si20  1  0.36246675  0.03350446  0.58356902  1
  Si  Si21  1  0.67103871  0.03350446  0.08356902  1
  Si  Si22  1  0.04319658  0.38227984  0.91509922  1
  Si  Si23  1  0.33908226  0.38227984  0.41509922  1
  S  S24  1  0.70820018  0.70604178  0.25026915  1
  S  S25  1  0.00080342  0.29414519  0.24962295  1
  S  S26  1  0.29334177  0.29414519  0.74962295  1
  S  S27  1  0.99784160  0.70604178  0.75026915  1
  S  S28  1  0.95556256  0.33403916  0.58156840  1
  S  S29  1  0.66864531  0.62552139  0.58308630  1
  S  S30  1  0.95687708  0.62552139  0.08308630  1
  S  S31  1  0.37847760  0.33403916  0.08156840  1
  S  S32  1  0.62677638  0.66276845  0.91748567  1
  S  S33  1  0.33285748  0.96145514  0.91655002  1
  S  S34  1  0.62859666  0.96145514  0.41655002  1
  S  S35  1  0.03599108  0.66276845  0.41748567  1
  O  O36  1  0.19696337  0.02087922  0.30531427  1
  O  O37  1  0.81336335  0.79215023  0.30125987  1
  O  O38  1  0.97137173  0.18419768  0.30107583  1
  O  O39  1  0.21282595  0.18419768  0.80107583  1
  O  O40  1  0.97878688  0.79215023  0.80125987  1
  O  O41  1  0.82391584  0.02087922  0.80531427  1
  O  O42  1  0.78827676  0.96774993  0.69197552  1
  O  O43  1  0.19265846  0.21600261  0.69833950  1
  O  O44  1  0.02680458  0.80888055  0.69821928  1
  O  O45  1  0.78207598  0.80888055  0.19821928  1
  O  O46  1  0.02334415  0.21600261  0.19833950  1
  O  O47  1  0.17947317  0.96774993  0.19197552  1
  O  O48  1  0.87429079  0.35910649  0.63332613  1
  O  O49  1  0.48815242  0.12899725  0.63951348  1
  O  O50  1  0.64599962  0.51976167  0.63437397  1
  O  O51  1  0.87376305  0.51976167  0.13437397  1
  O  O52  1  0.64084583  0.12899725  0.13951348  1
  O  O53  1  0.48481670  0.35910649  0.13332613  1
  O  O54  1  0.46109968  0.31628636  0.03026052  1
  O  O55  1  0.85371725  0.55162894  0.03150739  1
  O  O56  1  0.69974306  0.14560070  0.02719416  1
  O  O57  1  0.44585865  0.14560070  0.52719416  1
  O  O58  1  0.69791269  0.55162894  0.53150739  1
  O  O59  1  0.85518768  0.31628636  0.53026052  1
  O  O60  1  0.54561151  0.69475626  0.96805090  1
  O  O61  1  0.16151621  0.47455233  0.97188346  1
  O  O62  1  0.31269414  0.85394874  0.96782062  1
  O  O63  1  0.54125360  0.85394874  0.46782062  1
  O  O64  1  0.31303513  0.47455233  0.47188346  1
  O  O65  1  0.14914375  0.69475626  0.46805090  1
  O  O66  1  0.11269458  0.64078373  0.36561390  1
  O  O67  1  0.52400701  0.89060957  0.36531621  1
  O  O68  1  0.35810340  0.48978338  0.35820348  1
  O  O69  1  0.13167897  0.48978338  0.85820348  1
  O  O70  1  0.36660156  0.89060957  0.86531621  1
  O  O71  1  0.52808815  0.64078373  0.86561390  1
  O  O72  1  0.01467069  0.81788912  0.41217543  1
  O  O73  1  0.79676589  0.96685384  0.41120357  1
  O  O74  1  0.16053902  0.18814309  0.41081512  1
  O  O75  1  0.02760408  0.18814309  0.91081512  1
  O  O76  1  0.17008795  0.96685384  0.91120357  1
  O  O77  1  0.80321843  0.81788912  0.91217543  1
  O  O78  1  0.97644883  0.18224200  0.58733502  1
  O  O79  1  0.17246560  0.01354284  0.59060014  1
  O  O80  1  0.81672758  0.80027918  0.58739366  1
  O  O81  1  0.98355160  0.80027918  0.08739366  1
  O  O82  1  0.84107724  0.01354284  0.09060014  1
  O  O83  1  0.20579318  0.18224200  0.08733502  1
  O  O84  1  0.69129487  0.17030105  0.74409450  1
  O  O85  1  0.46909582  0.31265179  0.74480733  1
  O  O86  1  0.83786008  0.53553831  0.74471101  1
  O  O87  1  0.69767923  0.53553831  0.24471101  1
  O  O88  1  0.84355696  0.31265179  0.24480733  1
  O  O89  1  0.47900718  0.17030105  0.24409450  1
  O  O90  1  0.64175445  0.50852134  0.92586375  1
  O  O91  1  0.85082178  0.35853191  0.91753754  1
  O  O92  1  0.47906525  0.13794887  0.92296100  1
  O  O93  1  0.65888463  0.13794887  0.42296100  1
  O  O94  1  0.50771113  0.35853191  0.41753754  1
  O  O95  1  0.86676788  0.50852134  0.42586375  1
  O  O96  1  0.36163857  0.49165193  0.07753597  1
  O  O97  1  0.13035757  0.63741648  0.07756604  1
  O  O98  1  0.49392183  0.84440783  0.07698491  1
  O  O99  1  0.35048500  0.84440783  0.57698491  1
  O  O100  1  0.50705791  0.63741648  0.57756604  1
  O  O101  1  0.13001235  0.49165193  0.57753597  1
  O  O102  1  0.31550842  0.82573142  0.25569445  1
  O  O103  1  0.53237161  0.68199335  0.25452182  1
  O  O104  1  0.15289794  0.46511748  0.25528830  1
  O  O105  1  0.31221854  0.46511748  0.75528830  1
  O  O106  1  0.14962074  0.68199335  0.75452182  1
  O  O107  1  0.51022200  0.82573142  0.75569445  1
