# generated using pymatgen
data_Na3Sc4P3(SO8)3
_symmetry_space_group_name_H-M   'P 1'
_cell_length_a   8.88738784
_cell_length_b   8.88605859
_cell_length_c   23.06759917
_cell_angle_alpha   89.71188693
_cell_angle_beta   90.28289164
_cell_angle_gamma   120.26470709
_symmetry_Int_Tables_number   1
_chemical_formula_structural   Na3Sc4P3(SO8)3
_chemical_formula_sum   'Na9 Sc12 P9 S9 O72'
_cell_volume   1573.41957540
_cell_formula_units_Z   3
loop_
 _symmetry_equiv_pos_site_id
 _symmetry_equiv_pos_as_xyz
  1  'x, y, z'
loop_
 _atom_site_type_symbol
 _atom_site_label
 _atom_site_symmetry_multiplicity
 _atom_site_fract_x
 _atom_site_fract_y
 _atom_site_fract_z
 _atom_site_occupancy
  Na  Na0  1  0.35866299  0.35906068  0.25145875  1
  Na  Na1  1  0.69159275  0.02488675  0.91670924  1
  Na  Na2  1  0.97479844  0.30735891  0.41673683  1
  Na  Na3  1  0.00491960  0.99665266  0.50034880  1
  Na  Na4  1  0.00243529  0.99436459  0.00074335  1
  Na  Na5  1  0.66145133  0.33668644  0.83279924  1
  Na  Na6  1  0.66620633  0.33335341  0.33333988  1
  Na  Na7  1  0.33163670  0.67866739  0.16617510  1
  Na  Na8  1  0.33333208  0.66665243  0.66671098  1
  Sc  Sc9  1  0.01320104  0.00197315  0.35136019  1
  Sc  Sc10  1  0.99937468  0.99385565  0.85157263  1
  Sc  Sc11  1  0.99097565  0.00575158  0.64806743  1
  Sc  Sc12  1  0.00024763  0.00479808  0.14856118  1
  Sc  Sc13  1  0.67573736  0.32762040  0.68530557  1
  Sc  Sc14  1  0.67128994  0.31749405  0.18507706  1
  Sc  Sc15  1  0.66175328  0.33289263  0.98168355  1
  Sc  Sc16  1  0.66626627  0.33882632  0.48191487  1
  Sc  Sc17  1  0.34416970  0.68142899  0.01813533  1
  Sc  Sc18  1  0.31955043  0.65567732  0.51836789  1
  Sc  Sc19  1  0.32110176  0.66573602  0.31532066  1
  Sc  Sc20  1  0.34775362  0.67772220  0.81510866  1
  P  P21  1  0.29192104  0.99839659  0.24860526  1
  P  P22  1  0.99883059  0.29088180  0.25124085  1
  P  P23  1  0.70841832  0.00045747  0.75091441  1
  P  P24  1  0.95821082  0.33283243  0.58237611  1
  P  P25  1  0.66893837  0.04019980  0.08202310  1
  P  P26  1  0.62489632  0.66371509  0.91676783  1
  P  P27  1  0.33048509  0.95859305  0.91656562  1
  P  P28  1  0.33691833  0.37632066  0.41568928  1
  P  P29  1  0.03971993  0.66860984  0.41736214  1
  S  S30  1  0.70785724  0.70774665  0.24999587  1
  S  S31  1  0.29237723  0.29226148  0.74981094  1
  S  S32  1  0.00025569  0.70824362  0.74928820  1
  S  S33  1  0.37421481  0.04109590  0.58351120  1
  S  S34  1  0.66653179  0.62506914  0.58399017  1
  S  S35  1  0.95828008  0.62468979  0.08349937  1
  S  S36  1  0.37443206  0.33455303  0.08416896  1
  S  S37  1  0.04374704  0.37686527  0.91669652  1
  S  S38  1  0.62424073  0.95703875  0.41697105  1
  O  O39  1  0.21005511  0.03205418  0.30266454  1
  O  O40  1  0.81374836  0.78749546  0.30202529  1
  O  O41  1  0.97124059  0.18287393  0.30691928  1
  O  O42  1  0.21183889  0.18471750  0.80201369  1
  O  O43  1  0.97544037  0.78879715  0.80166425  1
  O  O44  1  0.81703652  0.02723221  0.80647234  1
  O  O45  1  0.79668351  0.97482492  0.69745995  1
  O  O46  1  0.18553139  0.20888831  0.69754434  1
  O  O47  1  0.02662766  0.81591541  0.69733205  1
  O  O48  1  0.78846565  0.81416573  0.19759465  1
  O  O49  1  0.03044410  0.20505643  0.19797915  1
  O  O50  1  0.17801415  0.97212253  0.19495199  1
  O  O51  1  0.87001378  0.35860139  0.63588689  1
  O  O52  1  0.48123041  0.12456247  0.63580793  1
  O  O53  1  0.64000733  0.51732147  0.63601659  1
  O  O54  1  0.87529983  0.51923649  0.13569846  1
  O  O55  1  0.64130812  0.12718490  0.13538242  1
  O  O56  1  0.47849117  0.36050186  0.13731855  1
  O  O57  1  0.45808583  0.31026647  0.03256323  1
  O  O58  1  0.85118469  0.54359128  0.03107452  1
  O  O59  1  0.69376629  0.14971473  0.02664415  1
  O  O60  1  0.45469788  0.14850311  0.53136143  1
  O  O61  1  0.69116850  0.54450022  0.53168876  1
  O  O62  1  0.84968649  0.30613862  0.52687191  1
  O  O63  1  0.54135224  0.69788599  0.97002979  1
  O  O64  1  0.14831116  0.45573531  0.96904818  1
  O  O65  1  0.30294269  0.84616336  0.97080182  1
  O  O66  1  0.54377731  0.85184961  0.46943389  1
  O  O67  1  0.30454869  0.46268956  0.46876411  1
  O  O68  1  0.15404595  0.69637287  0.47116176  1
  O  O69  1  0.12212077  0.63374535  0.36387953  1
  O  O70  1  0.51919318  0.87794896  0.36475527  1
  O  O71  1  0.36278353  0.48330023  0.35977555  1
  O  O72  1  0.12263508  0.48175117  0.86422476  1
  O  O73  1  0.36477409  0.87491198  0.86326074  1
  O  O74  1  0.51251636  0.63646710  0.86245034  1
  O  O75  1  0.01668742  0.82715195  0.41038053  1
  O  O76  1  0.80244286  0.98130692  0.41119526  1
  O  O77  1  0.16475160  0.19599584  0.41094224  1
  O  O78  1  0.01888990  0.19767280  0.91086014  1
  O  O79  1  0.17170131  0.98161320  0.90931938  1
  O  O80  1  0.80495819  0.83474765  0.90997855  1
  O  O81  1  0.97811723  0.16997495  0.58955910  1
  O  O82  1  0.19878127  0.02076602  0.59013955  1
  O  O83  1  0.82657857  0.79935986  0.58958901  1
  O  O84  1  0.97758040  0.80027238  0.08902824  1
  O  O85  1  0.83158144  0.02135630  0.08954977  1
  O  O86  1  0.19994558  0.17458473  0.08881934  1
  O  O87  1  0.68857991  0.16335468  0.74378074  1
  O  O88  1  0.46789027  0.31264893  0.74319383  1
  O  O89  1  0.84008193  0.53394514  0.74372138  1
  O  O90  1  0.68356548  0.52972708  0.24334527  1
  O  O91  1  0.84057956  0.31536306  0.24415215  1
  O  O92  1  0.47121065  0.17130317  0.24293755  1
  O  O93  1  0.64797785  0.50491786  0.92396484  1
  O  O94  1  0.86453916  0.35226806  0.92238223  1
  O  O95  1  0.50150749  0.13864936  0.92329738  1
  O  O96  1  0.64752225  0.13575908  0.42260925  1
  O  O97  1  0.49512089  0.35240339  0.42370353  1
  O  O98  1  0.86038386  0.49709700  0.42364185  1
  O  O99  1  0.35360533  0.48882818  0.07694586  1
  O  O100  1  0.13186866  0.63996593  0.07747946  1
  O  O101  1  0.50272235  0.85772509  0.07784368  1
  O  O102  1  0.36006571  0.86805171  0.57759638  1
  O  O103  1  0.51238876  0.64655658  0.57702720  1
  O  O104  1  0.14172307  0.49722303  0.57814794  1
  O  O105  1  0.31638288  0.84069218  0.25613570  1
  O  O106  1  0.53056699  0.68576331  0.25559889  1
  O  O107  1  0.16999066  0.47144730  0.25577502  1
  O  O108  1  0.30657274  0.46533313  0.75575282  1
  O  O109  1  0.15427426  0.68665337  0.75631078  1
  O  O110  1  0.52502948  0.83603654  0.75513296  1
