# generated using pymatgen
data_Na2GaSn(PO4)3
_symmetry_space_group_name_H-M   'P 1'
_cell_length_a   8.75864339
_cell_length_b   8.75864311
_cell_length_c   22.34268139
_cell_angle_alpha   90.07390153
_cell_angle_beta   89.92609847
_cell_angle_gamma   120.41472307
_symmetry_Int_Tables_number   1
_chemical_formula_structural   Na2GaSn(PO4)3
_chemical_formula_sum   'Na12 Ga6 Sn6 P18 O72'
_cell_volume   1478.11757327
_cell_formula_units_Z   6
loop_
 _symmetry_equiv_pos_site_id
 _symmetry_equiv_pos_as_xyz
  1  'x, y, z'
loop_
 _atom_site_type_symbol
 _atom_site_label
 _atom_site_symmetry_multiplicity
 _atom_site_fract_x
 _atom_site_fract_y
 _atom_site_fract_z
 _atom_site_occupancy
  Na  Na0  1  0.36545098  0.36223767  0.24893020  1
  Na  Na1  1  0.63776233  0.63454902  0.74893020  1
  Na  Na2  1  0.03211798  0.69557067  0.58226320  1
  Na  Na3  1  0.30442933  0.96788202  0.08226320  1
  Na  Na4  1  0.69878398  0.02890467  0.91559720  1
  Na  Na5  1  0.97109533  0.30121602  0.41559720  1
  Na  Na6  1  0.00002134  0.99939034  0.49737267  1
  Na  Na7  1  0.00060966  -0.00002134  0.99737267  1
  Na  Na8  1  0.66668834  0.33272334  0.83070567  1
  Na  Na9  1  0.66727666  0.33331166  0.33070567  1
  Na  Na10  1  0.33335434  0.66605734  0.16403967  1
  Na  Na11  1  0.33394266  0.66664566  0.66403967  1
  Ga  Ga12  1  0.99856775  0.99278392  0.35187712  1
  Ga  Ga13  1  0.00721608  0.00143225  0.85187712  1
  Ga  Ga14  1  0.66523475  0.32611692  0.68521012  1
  Ga  Ga15  1  0.67388308  0.33476525  0.18521012  1
  Ga  Ga16  1  0.33190075  0.65945092  0.01854412  1
  Ga  Ga17  1  0.34054908  0.66809925  0.51854412  1
  Sn  Sn18  1  0.00146998  0.00653466  0.64857882  1
  Sn  Sn19  1  0.99346534  0.99853002  0.14857882  1
  Sn  Sn20  1  0.66813698  0.33986766  0.98191182  1
  Sn  Sn21  1  0.66013234  0.33186302  0.48191182  1
  Sn  Sn22  1  0.33480298  0.67320166  0.31524582  1
  Sn  Sn23  1  0.32679834  0.66519702  0.81524582  1
  P  P24  1  0.29252645  0.00166933  0.25011466  1
  P  P25  1  0.71110631  0.70653128  0.25152071  1
  P  P26  1  0.99279797  0.28910732  0.25219889  1
  P  P27  1  0.29346872  0.28889369  0.75152071  1
  P  P28  1  0.99833067  0.70747355  0.75011466  1
  P  P29  1  0.71089268  0.00720203  0.75219889  1
  P  P30  1  0.95919345  0.33500233  0.58344766  1
  P  P31  1  0.37777331  0.03986428  0.58485371  1
  P  P32  1  0.65946497  0.62244032  0.58553189  1
  P  P33  1  0.96013572  0.62222669  0.08485371  1
  P  P34  1  0.66499767  0.04080655  0.08344766  1
  P  P35  1  0.37755968  0.34053503  0.08553189  1
  P  P36  1  0.62585945  0.66833633  0.91678166  1
  P  P37  1  0.04443931  0.37319828  0.91818771  1
  P  P38  1  0.32613097  0.95577432  0.91886589  1
  P  P39  1  0.62680172  0.95556069  0.41818771  1
  P  P40  1  0.33166367  0.37414055  0.41678166  1
  P  P41  1  0.04422568  0.67386903  0.41886589  1
  O  O42  1  0.20626973  0.03744019  0.30416394  1
  O  O43  1  0.82497825  0.79290567  0.30665312  1
  O  O44  1  0.96845470  0.17958266  0.30894815  1
  O  O45  1  0.20709433  0.17502175  0.80665312  1
  O  O46  1  0.96255981  0.79373027  0.80416394  1
  O  O47  1  0.82041734  0.03154530  0.80894815  1
  O  O48  1  0.78499159  0.95884367  0.69614736  1
  O  O49  1  0.18135767  0.21793405  0.69386303  1
  O  O50  1  0.03329100  0.81658588  0.69136070  1
  O  O51  1  0.78206595  0.81864233  0.19386303  1
  O  O52  1  0.04115633  0.21500841  0.19614736  1
  O  O53  1  0.18341412  0.96670900  0.19136070  1
  O  O54  1  0.87293673  0.37077319  0.63749694  1
  O  O55  1  0.49164525  0.12623867  0.63998612  1
  O  O56  1  0.63512170  0.51291566  0.64228115  1
  O  O57  1  0.87376133  0.50835475  0.13998612  1
  O  O58  1  0.62922681  0.12706327  0.13749694  1
  O  O59  1  0.48708434  0.36487830  0.14228115  1
  O  O60  1  0.45165859  0.29217667  0.02948036  1
  O  O61  1  0.84802467  0.55126705  0.02719603  1
  O  O62  1  0.69995800  0.14991888  0.02469370  1
  O  O63  1  0.44873295  0.15197533  0.52719603  1
  O  O64  1  0.70782333  0.54834141  0.52948036  1
  O  O65  1  0.85008112  0.30004200  0.52469370  1
  O  O66  1  0.53960273  0.70410719  0.97083094  1
  O  O67  1  0.15831125  0.45957267  0.97332012  1
  O  O68  1  0.30178770  0.84624966  0.97561515  1
  O  O69  1  0.54042733  0.84168875  0.47332012  1
  O  O70  1  0.29589281  0.46039727  0.47083094  1
  O  O71  1  0.15375034  0.69821230  0.47561515  1
  O  O72  1  0.11832459  0.62551067  0.36281436  1
  O  O73  1  0.51469067  0.88460105  0.36053003  1
  O  O74  1  0.36662400  0.48325288  0.35802770  1
  O  O75  1  0.11539895  0.48530933  0.86053003  1
  O  O76  1  0.37448933  0.88167541  0.86281436  1
  O  O77  1  0.51674712  0.63337600  0.85802770  1
  O  O78  1  0.02574543  0.83673867  0.41038520  1
  O  O79  1  0.81442109  0.98166237  0.41101841  1
  O  O80  1  0.16216185  0.19042918  0.41002647  1
  O  O81  1  0.01833763  0.18557891  0.91101841  1
  O  O82  1  0.16326133  0.97425457  0.91038520  1
  O  O83  1  0.80957082  0.83783815  0.91002647  1
  O  O84  1  0.97628706  0.16783876  0.58828951  1
  O  O85  1  0.18668578  0.01421851  0.58910303  1
  O  O86  1  0.83410966  0.80826043  0.58944803  1
  O  O87  1  0.98578149  0.81331422  0.08910303  1
  O  O88  1  0.83216124  0.02371294  0.08828951  1
  O  O89  1  0.19173957  0.16589034  0.08944803  1
  O  O90  1  0.69241243  0.17007167  0.74371820  1
  O  O91  1  0.48108809  0.31499537  0.74435141  1
  O  O92  1  0.82882885  0.52376218  0.74335947  1
  O  O93  1  0.68500463  0.51891191  0.24435141  1
  O  O94  1  0.82992833  0.30758757  0.24371820  1
  O  O95  1  0.47623782  0.17117115  0.24335947  1
  O  O96  1  0.64295406  0.50117176  0.92162251  1
  O  O97  1  0.85335278  0.34755151  0.92243603  1
  O  O98  1  0.50077666  0.14159343  0.92278103  1
  O  O99  1  0.65244849  0.14664722  0.42243603  1
  O  O100  1  0.49882824  0.35704594  0.42162251  1
  O  O101  1  0.85840657  0.49922334  0.42278103  1
  O  O102  1  0.35907843  0.50340567  0.07705220  1
  O  O103  1  0.14775409  0.64832937  0.07768541  1
  O  O104  1  0.49549485  0.85709618  0.07669347  1
  O  O105  1  0.35167063  0.85224591  0.57768541  1
  O  O106  1  0.49659433  0.64092157  0.57705220  1
  O  O107  1  0.14290382  0.50450515  0.57669347  1
  O  O108  1  0.30962006  0.83450576  0.25495651  1
  O  O109  1  0.52001878  0.68088551  0.25577003  1
  O  O110  1  0.16744266  0.47492743  0.25611503  1
  O  O111  1  0.31911449  0.47998122  0.75577003  1
  O  O112  1  0.16549424  0.69037994  0.75495651  1
  O  O113  1  0.52507257  0.83255734  0.75611503  1
