# generated using pymatgen
data_Na3Ti2Si2PO12
_symmetry_space_group_name_H-M   'P 1'
_cell_length_a   8.87754268
_cell_length_b   8.87754238
_cell_length_c   22.29004277
_cell_angle_alpha   89.92534661
_cell_angle_beta   90.07465339
_cell_angle_gamma   119.92358721
_symmetry_Int_Tables_number   1
_chemical_formula_structural   Na3Ti2Si2PO12
_chemical_formula_sum   'Na18 Ti12 Si12 P6 O72'
_cell_volume   1522.51104181
_cell_formula_units_Z   6
loop_
 _symmetry_equiv_pos_site_id
 _symmetry_equiv_pos_as_xyz
  1  'x, y, z'
loop_
 _atom_site_type_symbol
 _atom_site_label
 _atom_site_symmetry_multiplicity
 _atom_site_fract_x
 _atom_site_fract_y
 _atom_site_fract_z
 _atom_site_occupancy
  Na  Na0  1  0.00022718  0.99835388  0.50010446  1
  Na  Na1  1  0.00164612  0.99977282  0.00010446  1
  Na  Na2  1  0.66689418  0.33168688  0.83343746  1
  Na  Na3  1  0.66831312  0.33310582  0.33343746  1
  Na  Na4  1  0.33356018  0.66502088  0.16677146  1
  Na  Na5  1  0.33497912  0.66643982  0.66677146  1
  Na  Na6  1  0.63457807  0.00091098  0.24995499  1
  Na  Na7  1  0.00034002  0.63317665  0.25048421  1
  Na  Na8  1  0.99908902  0.36542193  0.74995499  1
  Na  Na9  1  0.36682335  0.99965998  0.75048421  1
  Na  Na10  1  0.30124507  0.33424398  0.58328799  1
  Na  Na11  1  0.66700702  0.96650965  0.58381721  1
  Na  Na12  1  0.66575602  0.69875493  0.08328799  1
  Na  Na13  1  0.03349035  0.33299298  0.08381721  1
  Na  Na14  1  0.96791107  0.66757798  0.91662199  1
  Na  Na15  1  0.33367302  0.29984365  0.91715121  1
  Na  Na16  1  0.33242202  0.03208893  0.41662199  1
  Na  Na17  1  0.70015635  0.66632698  0.41715121  1
  Ti  Ti18  1  0.98901142  0.99840216  0.35210103  1
  Ti  Ti19  1  0.00159784  0.01098858  0.85210103  1
  Ti  Ti20  1  0.99726227  0.99326083  0.64850531  1
  Ti  Ti21  1  0.00673917  0.00273773  0.14850531  1
  Ti  Ti22  1  0.65567842  0.33173516  0.68543403  1
  Ti  Ti23  1  0.66826484  0.34432158  0.18543403  1
  Ti  Ti24  1  0.66392927  0.32659383  0.98183831  1
  Ti  Ti25  1  0.67340617  0.33607073  0.48183831  1
  Ti  Ti26  1  0.32234442  0.66506916  0.01876803  1
  Ti  Ti27  1  0.33493084  0.67765558  0.51876803  1
  Ti  Ti28  1  0.33059527  0.65992783  0.31517231  1
  Ti  Ti29  1  0.34007217  0.66940473  0.81517231  1
  Si  Si30  1  0.70638015  0.70860585  0.24943559  1
  Si  Si31  1  0.00358338  0.29156764  0.24965222  1
  Si  Si32  1  0.29139415  0.29361985  0.74943559  1
  Si  Si33  1  0.70843236  0.99641662  0.74965222  1
  Si  Si34  1  0.37304715  0.04193885  0.58276859  1
  Si  Si35  1  0.67025038  0.62490064  0.58298522  1
  Si  Si36  1  0.95806115  0.62695285  0.08276859  1
  Si  Si37  1  0.37509936  0.32974962  0.08298522  1
  Si  Si38  1  0.03971315  0.37527285  0.91610259  1
  Si  Si39  1  0.33691638  0.95823464  0.91631922  1
  Si  Si40  1  0.62472715  0.96028685  0.41610259  1
  Si  Si41  1  0.04176536  0.66308362  0.41631922  1
  P  P42  1  0.29034984  0.00406191  0.25079819  1
  P  P43  1  0.99593809  0.70965016  0.75079819  1
  P  P44  1  0.95701684  0.33739491  0.58413119  1
  P  P45  1  0.66260509  0.04298316  0.08413119  1
  P  P46  1  0.62368284  0.67072891  0.91746519  1
  P  P47  1  0.32927109  0.37631716  0.41746519  1
  O  O48  1  0.20618637  0.03105095  0.30703455  1
  O  O49  1  0.83476211  0.79794551  0.30820320  1
  O  O50  1  0.96680072  0.16042055  0.30692159  1
  O  O51  1  0.20205449  0.16523789  0.80820320  1
  O  O52  1  0.96894905  0.79381363  0.80703455  1
  O  O53  1  0.83957945  0.03319928  0.80692159  1
  O  O54  1  0.80202138  0.96871977  0.69052311  1
  O  O55  1  0.16510732  0.19952742  0.69141333  1
  O  O56  1  0.03325723  0.83105822  0.69543114  1
  O  O57  1  0.80047258  0.83489268  0.19141333  1
  O  O58  1  0.03128023  0.19797862  0.19052311  1
  O  O59  1  0.16894178  0.96674277  0.19543114  1
  O  O60  1  0.87285337  0.36438395  0.64036755  1
  O  O61  1  0.50142911  0.13127851  0.64153620  1
  O  O62  1  0.63346772  0.49375355  0.64025459  1
  O  O63  1  0.86872149  0.49857089  0.14153620  1
  O  O64  1  0.63561605  0.12714663  0.14036755  1
  O  O65  1  0.50624645  0.36653228  0.14025459  1
  O  O66  1  0.46868838  0.30205277  0.02385611  1
  O  O67  1  0.83177432  0.53286042  0.02474633  1
  O  O68  1  0.69992423  0.16439122  0.02876414  1
  O  O69  1  0.46713958  0.16822568  0.52474633  1
  O  O70  1  0.69794723  0.53131162  0.52385611  1
  O  O71  1  0.83560878  0.30007577  0.52876414  1
  O  O72  1  0.53951937  0.69771795  0.97370155  1
  O  O73  1  0.16809511  0.46461251  0.97487020  1
  O  O74  1  0.30013372  0.82708755  0.97358859  1
  O  O75  1  0.53538749  0.83190489  0.47487020  1
  O  O76  1  0.30228205  0.46048063  0.47370155  1
  O  O77  1  0.17291245  0.69986628  0.47358859  1
  O  O78  1  0.13535438  0.63538677  0.35719011  1
  O  O79  1  0.49844032  0.86619442  0.35808033  1
  O  O80  1  0.36659023  0.49772522  0.36209814  1
  O  O81  1  0.13380558  0.50155968  0.85808033  1
  O  O82  1  0.36461323  0.86464562  0.85719011  1
  O  O83  1  0.50227478  0.63340977  0.86209814  1
  O  O84  1  0.02782263  0.83998242  0.40965549  1
  O  O85  1  0.81356432  0.97086248  0.40944486  1
  O  O86  1  0.17286140  0.19244790  0.40939157  1
  O  O87  1  0.02913752  0.18643568  0.90944486  1
  O  O88  1  0.16001758  0.97217737  0.90965549  1
  O  O89  1  0.80755210  0.82713860  0.90939157  1
  O  O90  1  0.97344490  0.17073934  0.58913932  1
  O  O91  1  0.18584318  0.03009326  0.59123705  1
  O  O92  1  0.83729702  0.81951321  0.59056878  1
  O  O93  1  0.96990674  0.81415682  0.09123705  1
  O  O94  1  0.82926066  0.02655510  0.08913932  1
  O  O95  1  0.18048679  0.16270298  0.09056878  1
  O  O96  1  0.69448963  0.17331542  0.74298849  1
  O  O97  1  0.48023132  0.30419548  0.74277786  1
  O  O98  1  0.83952840  0.52578090  0.74272457  1
  O  O99  1  0.69580452  0.51976868  0.24277786  1
  O  O100  1  0.82668458  0.30551037  0.24298849  1
  O  O101  1  0.47421910  0.16047160  0.24272457  1
  O  O102  1  0.64011190  0.50407234  0.92247232  1
  O  O103  1  0.85251018  0.36342626  0.92457005  1
  O  O104  1  0.50396402  0.15284621  0.92390178  1
  O  O105  1  0.63657374  0.14748982  0.42457005  1
  O  O106  1  0.49592766  0.35988810  0.42247232  1
  O  O107  1  0.84715379  0.49603598  0.42390178  1
  O  O108  1  0.36115563  0.50664942  0.07632249  1
  O  O109  1  0.14689732  0.63752948  0.07611186  1
  O  O110  1  0.50619440  0.85911490  0.07605857  1
  O  O111  1  0.36247052  0.85310268  0.57611186  1
  O  O112  1  0.49335058  0.63884437  0.57632249  1
  O  O113  1  0.14088510  0.49380560  0.57605857  1
  O  O114  1  0.30677790  0.83740634  0.25580632  1
  O  O115  1  0.51917618  0.69676026  0.25790405  1
  O  O116  1  0.17063002  0.48618021  0.25723578  1
  O  O117  1  0.30323974  0.48082382  0.75790405  1
  O  O118  1  0.16259366  0.69322210  0.75580632  1
  O  O119  1  0.51381979  0.82936998  0.75723578  1
