# generated using pymatgen
data_NaZnSnP(SO6)2
_symmetry_space_group_name_H-M   'P 1'
_cell_length_a   8.71291974
_cell_length_b   8.72000612
_cell_length_c   22.86082087
_cell_angle_alpha   89.86457168
_cell_angle_beta   90.00000000
_cell_angle_gamma   119.97312115
_symmetry_Int_Tables_number   1
_chemical_formula_structural   NaZnSnP(SO6)2
_chemical_formula_sum   'Na6 Zn6 Sn6 P6 S12 O72'
_cell_volume   1504.59253702
_cell_formula_units_Z   6
loop_
 _symmetry_equiv_pos_site_id
 _symmetry_equiv_pos_as_xyz
  1  'x, y, z'
loop_
 _atom_site_type_symbol
 _atom_site_label
 _atom_site_symmetry_multiplicity
 _atom_site_fract_x
 _atom_site_fract_y
 _atom_site_fract_z
 _atom_site_occupancy
  Na  Na0  1  0.98820265  0.99134722  0.50396672  1
  Na  Na1  1  0.00314457  0.99134722  0.00396672  1
  Na  Na2  1  0.66094171  0.32136389  0.83740364  1
  Na  Na3  1  0.66042319  0.32136389  0.33740364  1
  Na  Na4  1  0.32617580  0.67194069  0.17076965  1
  Na  Na5  1  0.34576389  0.67194069  0.67076965  1
  Zn  Zn6  1  0.98165795  0.98701001  0.64790377  1
  Zn  Zn7  1  0.00535206  0.98701001  0.14790377  1
  Zn  Zn8  1  0.66586764  0.33246004  0.98192093  1
  Zn  Zn9  1  0.66659340  0.33246004  0.48192093  1
  Zn  Zn10  1  0.34049662  0.68628565  0.31533632  1
  Zn  Zn11  1  0.34578803  0.68628565  0.81533632  1
  Sn  Sn12  1  0.00120443  0.00048013  0.35025741  1
  Sn  Sn13  1  0.99927570  0.00048013  0.85025741  1
  Sn  Sn14  1  0.66652179  0.33172367  0.68370187  1
  Sn  Sn15  1  0.66520287  0.33172367  0.18370187  1
  Sn  Sn16  1  0.32400879  0.67087492  0.01708363  1
  Sn  Sn17  1  0.34686513  0.67087492  0.51708363  1
  P  P18  1  0.29300025  0.99946893  0.24844711  1
  P  P19  1  0.70646868  0.99946893  0.74844711  1
  P  P20  1  0.66948649  0.62341148  0.58132167  1
  P  P21  1  0.95392599  0.62341148  0.08132167  1
  P  P22  1  0.33606144  0.96634368  0.91487910  1
  P  P23  1  0.63028124  0.96634368  0.41487910  1
  S  S24  1  0.70454465  0.70589586  0.24861969  1
  S  S25  1  0.00228051  0.29424553  0.24812539  1
  S  S26  1  0.29196502  0.29424553  0.74812539  1
  S  S27  1  0.00135122  0.70589586  0.74861969  1
  S  S28  1  0.96356488  0.33477271  0.58136571  1
  S  S29  1  0.36947373  0.03890436  0.58227610  1
  S  S30  1  0.66943163  0.03890436  0.08227610  1
  S  S31  1  0.37120883  0.33477271  0.08136571  1
  S  S32  1  0.62352658  0.66480556  0.91592205  1
  S  S33  1  0.04144077  0.37469223  0.91447192  1
  S  S34  1  0.33325046  0.37469223  0.41447192  1
  S  S35  1  0.04127798  0.66480556  0.41592205  1
  O  O36  1  0.21734629  0.03864803  0.30612619  1
  O  O37  1  0.81459328  0.78017975  0.30345238  1
  O  O38  1  0.96398354  0.18347163  0.30328085  1
  O  O39  1  0.21948809  0.18347163  0.80328085  1
  O  O40  1  0.96558647  0.78017975  0.80345238  1
  O  O41  1  0.82130174  0.03864803  0.80612619  1
  O  O42  1  0.79423289  0.97836906  0.69477467  1
  O  O43  1  0.18735244  0.20848678  0.69636163  1
  O  O44  1  0.02841903  0.81484492  0.69710450  1
  O  O45  1  0.78642589  0.81484492  0.19710450  1
  O  O46  1  0.02113433  0.20848678  0.19636163  1
  O  O47  1  0.18413616  0.97836906  0.19477467  1
  O  O48  1  0.88940126  0.36961106  0.63649816  1
  O  O49  1  0.48227326  0.11099752  0.63674466  1
  O  O50  1  0.63141022  0.50979534  0.63933376  1
  O  O51  1  0.87838612  0.50979534  0.13933376  1
  O  O52  1  0.62872527  0.11099752  0.13674466  1
  O  O53  1  0.48021080  0.36961106  0.13649816  1
  O  O54  1  0.45379873  0.30812452  0.03016257  1
  O  O55  1  0.84480481  0.53420450  0.02761118  1
  O  O56  1  0.69056159  0.14362348  0.03018650  1
  O  O57  1  0.45306289  0.14362348  0.53018650  1
  O  O58  1  0.68940069  0.53420450  0.52761118  1
  O  O59  1  0.85432679  0.30812452  0.53016257  1
  O  O60  1  0.54669616  0.69771943  0.97082566  1
  O  O61  1  0.15157777  0.44639649  0.96967490  1
  O  O62  1  0.29382458  0.85041406  0.97232899  1
  O  O63  1  0.55658848  0.85041406  0.47232899  1
  O  O64  1  0.29481772  0.44639649  0.46967490  1
  O  O65  1  0.15102227  0.69771943  0.47082566  1
  O  O66  1  0.12312689  0.64021140  0.36404358  1
  O  O67  1  0.51974585  0.87968288  0.36138058  1
  O  O68  1  0.35226381  0.48048466  0.36282821  1
  O  O69  1  0.12821984  0.48048466  0.86282821  1
  O  O70  1  0.35993603  0.87968288  0.86138058  1
  O  O71  1  0.51708351  0.64021140  0.86404358  1
  O  O72  1  0.02829083  0.83200507  0.41198333  1
  O  O73  1  0.81918515  0.97984331  0.41006693  1
  O  O74  1  0.16881017  0.19279324  0.41157031  1
  O  O75  1  0.02398307  0.19279324  0.91157031  1
  O  O76  1  0.16065816  0.97984331  0.91006693  1
  O  O77  1  0.80371424  0.83200507  0.91198333  1
  O  O78  1  0.98942667  0.18248544  0.58894913  1
  O  O79  1  0.19541906  0.02213772  0.59080641  1
  O  O80  1  0.83156128  0.80752442  0.58755395  1
  O  O81  1  0.97596313  0.80752442  0.08755395  1
  O  O82  1  0.82671866  0.02213772  0.09080641  1
  O  O83  1  0.19305877  0.18248544  0.08894913  1
  O  O84  1  0.69023107  0.17346116  0.74418729  1
  O  O85  1  0.47433202  0.31126912  0.74493370  1
  O  O86  1  0.83386205  0.52705318  0.74457341  1
  O  O87  1  0.69319214  0.52705318  0.24457341  1
  O  O88  1  0.83693810  0.31126912  0.24493370  1
  O  O89  1  0.48323109  0.17346116  0.24418729  1
  O  O90  1  0.64759008  0.51139152  0.92281009  1
  O  O91  1  0.86583916  0.35552477  0.92169318  1
  O  O92  1  0.49783323  0.14951779  0.92344761  1
  O  O93  1  0.65168556  0.14951779  0.42344761  1
  O  O94  1  0.48968661  0.35552477  0.42169318  1
  O  O95  1  0.86380244  0.51139152  0.42281009  1
  O  O96  1  0.36091217  0.50305345  0.07637931  1
  O  O97  1  0.14395511  0.63864197  0.07902095  1
  O  O98  1  0.50571284  0.85622527  0.07816764  1
  O  O99  1  0.35051142  0.85622527  0.57816764  1
  O  O100  1  0.49468586  0.63864197  0.57902095  1
  O  O101  1  0.14214028  0.50305345  0.57637931  1
  O  O102  1  0.31347331  0.83664553  0.25504032  1
  O  O103  1  0.52636147  0.68005893  0.25603701  1
  O  O104  1  0.15889746  0.46907608  0.25628777  1
  O  O105  1  0.31017761  0.46907608  0.75628777  1
  O  O106  1  0.15369646  0.68005893  0.75603701  1
  O  O107  1  0.52317122  0.83664553  0.75504032  1
