# generated using pymatgen
data_NaNbZnSi(SO6)2
_symmetry_space_group_name_H-M   'P 1'
_cell_length_a   8.80057242
_cell_length_b   8.80057213
_cell_length_c   22.94044021
_cell_angle_alpha   89.48234108
_cell_angle_beta   90.51765892
_cell_angle_gamma   119.50666135
_symmetry_Int_Tables_number   1
_chemical_formula_structural   NaNbZnSi(SO6)2
_chemical_formula_sum   'Na6 Nb6 Zn6 Si6 S12 O72'
_cell_volume   1546.20839657
_cell_formula_units_Z   6
loop_
 _symmetry_equiv_pos_site_id
 _symmetry_equiv_pos_as_xyz
  1  'x, y, z'
loop_
 _atom_site_type_symbol
 _atom_site_label
 _atom_site_symmetry_multiplicity
 _atom_site_fract_x
 _atom_site_fract_y
 _atom_site_fract_z
 _atom_site_occupancy
  Na  Na0  1  0.98630032  0.99522684  0.49186410  1
  Na  Na1  1  0.00477316  0.01369968  0.99186410  1
  Na  Na2  1  0.67218426  0.32230292  0.82526793  1
  Na  Na3  1  0.67769708  0.32781574  0.32526793  1
  Na  Na4  1  0.33114782  0.65073256  0.15920181  1
  Na  Na5  1  0.34926744  0.66885218  0.65920181  1
  Nb  Nb6  1  0.97706731  0.98634156  0.64533686  1
  Nb  Nb7  1  0.01365844  0.02293269  0.14533686  1
  Nb  Nb8  1  0.66547443  0.33231050  0.97904838  1
  Nb  Nb9  1  0.66768950  0.33452557  0.47904838  1
  Nb  Nb10  1  0.33774553  0.67235333  0.31231670  1
  Nb  Nb11  1  0.32764667  0.66225447  0.81231670  1
  Zn  Zn12  1  0.97791125  0.00606473  0.35189817  1
  Zn  Zn13  1  0.99393527  0.02208875  0.85189817  1
  Zn  Zn14  1  0.66140033  0.32818062  0.68458292  1
  Zn  Zn15  1  0.67181938  0.33859967  0.18458292  1
  Zn  Zn16  1  0.32421161  0.63948205  0.01916695  1
  Zn  Zn17  1  0.36051795  0.67578839  0.51916695  1
  Si  Si18  1  0.99113511  0.29755992  0.25220906  1
  Si  Si19  1  0.70244008  0.00886489  0.75220906  1
  Si  Si20  1  0.65256930  0.60926342  0.58703324  1
  Si  Si21  1  0.39073658  0.34743070  0.08703324  1
  Si  Si22  1  0.04295204  0.36873165  0.91900776  1
  Si  Si23  1  0.63126835  0.95704796  0.41900776  1
  S  S24  1  0.28576078  0.00028320  0.25271631  1
  S  S25  1  0.71294219  0.71062668  0.25125331  1
  S  S26  1  0.28937332  0.28705781  0.75125331  1
  S  S27  1  -0.00028320  0.71423922  0.75271631  1
  S  S28  1  0.96140627  0.33787210  0.58358385  1
  S  S29  1  0.37268191  0.04145784  0.58404345  1
  S  S30  1  0.95854216  0.62731809  0.08404345  1
  S  S31  1  0.66212790  0.03859373  0.08358385  1
  S  S32  1  0.62529559  0.66911533  0.91791605  1
  S  S33  1  0.33169441  0.95279447  0.91785279  1
  S  S34  1  0.33088467  0.37470441  0.41791605  1
  S  S35  1  0.04720553  0.66830559  0.41785279  1
  O  O36  1  0.20055378  0.01391557  0.30430413  1
  O  O37  1  0.81447578  0.78691518  0.30390718  1
  O  O38  1  0.97553602  0.18211463  0.30655929  1
  O  O39  1  0.21308482  0.18552422  0.80390718  1
  O  O40  1  0.98608443  0.79944622  0.80430413  1
  O  O41  1  0.81788536  0.02446398  0.80655929  1
  O  O42  1  0.80236853  0.97329225  0.69241926  1
  O  O43  1  0.18017453  0.20948353  0.69832463  1
  O  O44  1  0.02918736  0.82502088  0.69800751  1
  O  O45  1  0.79051647  0.81982547  0.19832463  1
  O  O46  1  0.02670774  0.19763147  0.19241926  1
  O  O47  1  0.17497912  0.97081264  0.19800751  1
  O  O48  1  0.88196055  0.35554420  0.63596514  1
  O  O49  1  0.47892174  0.11613409  0.63570396  1
  O  O50  1  0.64958511  0.50670381  0.64366192  1
  O  O51  1  0.88386591  0.52107826  0.13570396  1
  O  O52  1  0.64445580  0.11803945  0.13596514  1
  O  O53  1  0.49329619  0.35041489  0.14366192  1
  O  O54  1  0.47842202  0.30988078  0.02744214  1
  O  O55  1  0.84385930  0.53550741  0.03054173  1
  O  O56  1  0.69898977  0.15535169  0.03024611  1
  O  O57  1  0.46449259  0.15614070  0.53054173  1
  O  O58  1  0.69011922  0.52157798  0.52744214  1
  O  O59  1  0.84464831  0.30101023  0.53024611  1
  O  O60  1  0.54948357  0.69734692  0.96969446  1
  O  O61  1  0.15210484  0.46646707  0.97406864  1
  O  O62  1  0.31775401  0.85564066  0.97057991  1
  O  O63  1  0.53353293  0.84789516  0.47406864  1
  O  O64  1  0.30265308  0.45051643  0.46969446  1
  O  O65  1  0.14435934  0.68224599  0.47057991  1
  O  O66  1  0.12813275  0.63566845  0.36429318  1
  O  O67  1  0.50082624  0.85983856  0.35951844  1
  O  O68  1  0.35928347  0.48784309  0.36467089  1
  O  O69  1  0.14016144  0.49917376  0.85951844  1
  O  O70  1  0.36433155  0.87186725  0.86429318  1
  O  O71  1  0.51215691  0.64071653  0.86467089  1
  O  O72  1  0.02441644  0.81868040  0.40790690  1
  O  O73  1  0.82257199  0.98249919  0.41434563  1
  O  O74  1  0.19125834  0.19661657  0.40957308  1
  O  O75  1  0.01750081  0.17742801  0.91434563  1
  O  O76  1  0.18131960  0.97558356  0.90790690  1
  O  O77  1  0.80338343  0.80874166  0.90957308  1
  O  O78  1  0.97929942  0.17345506  0.58847453  1
  O  O79  1  0.20212077  0.04129714  0.58786549  1
  O  O80  1  0.84338184  0.81051814  0.59242172  1
  O  O81  1  0.95870286  0.79787923  0.08786549  1
  O  O82  1  0.82654494  0.02070058  0.08847453  1
  O  O83  1  0.18948186  0.15661816  0.09242172  1
  O  O84  1  0.67690769  0.17283229  0.74084217  1
  O  O85  1  0.46702535  0.32057728  0.74556443  1
  O  O86  1  0.85390614  0.53946599  0.74559259  1
  O  O87  1  0.67942272  0.53297465  0.24556443  1
  O  O88  1  0.82716771  0.32309231  0.24084217  1
  O  O89  1  0.46053401  0.14609386  0.24559259  1
  O  O90  1  0.63083645  0.49819958  0.92273759  1
  O  O91  1  0.84507552  0.35740876  0.92578326  1
  O  O92  1  0.49745430  0.13266690  0.92199879  1
  O  O93  1  0.64259124  0.15492448  0.42578326  1
  O  O94  1  0.50180042  0.36916355  0.42273759  1
  O  O95  1  0.86733310  0.50254570  0.42199879  1
  O  O96  1  0.35425027  0.50641770  0.08204824  1
  O  O97  1  0.13571192  0.66047167  0.07582794  1
  O  O98  1  0.51152515  0.86819460  0.07314706  1
  O  O99  1  0.33952833  0.86428808  0.57582794  1
  O  O100  1  0.49358230  0.64574973  0.58204824  1
  O  O101  1  0.13180540  0.48847485  0.57314706  1
  O  O102  1  0.29661467  0.83156695  0.25556084  1
  O  O103  1  0.53178621  0.69926787  0.25690163  1
  O  O104  1  0.17722646  0.48936419  0.25919994  1
  O  O105  1  0.30073213  0.46821379  0.75690163  1
  O  O106  1  0.16843305  0.70338533  0.75556084  1
  O  O107  1  0.51063581  0.82277354  0.75919994  1
