# generated using pymatgen
data_Na5Ti2Nb2Si5PO24
_symmetry_space_group_name_H-M   'P 1'
_cell_length_a   8.93138458
_cell_length_b   8.91631437
_cell_length_c   22.48857013
_cell_angle_alpha   89.94135187
_cell_angle_beta   90.19302370
_cell_angle_gamma   119.93352539
_symmetry_Int_Tables_number   1
_chemical_formula_structural   Na5Ti2Nb2Si5PO24
_chemical_formula_sum   'Na15 Ti6 Nb6 Si15 P3 O72'
_cell_volume   1551.97444905
_cell_formula_units_Z   3
loop_
 _symmetry_equiv_pos_site_id
 _symmetry_equiv_pos_as_xyz
  1  'x, y, z'
loop_
 _atom_site_type_symbol
 _atom_site_label
 _atom_site_symmetry_multiplicity
 _atom_site_fract_x
 _atom_site_fract_y
 _atom_site_fract_z
 _atom_site_occupancy
  Na  Na0  1  0.63749279  0.00491130  0.24912212  1
  Na  Na1  1  0.36659696  0.36256079  0.24924762  1
  Na  Na2  1  0.99574165  0.63191656  0.24917469  1
  Na  Na3  1  0.99901602  0.36473839  0.75009349  1
  Na  Na4  1  0.03474388  0.69826639  0.58117591  1
  Na  Na5  1  0.66166195  0.96399073  0.58132714  1
  Na  Na6  1  0.96650993  0.66646855  0.91796176  1
  Na  Na7  1  0.70088640  0.03479021  0.91762716  1
  Na  Na8  1  0.33251510  0.29901409  0.91841767  1
  Na  Na9  1  0.00471884  0.00514942  0.49448948  1
  Na  Na10  1  0.00104101  0.00056336  0.00186189  1
  Na  Na11  1  0.66198338  0.33181580  0.83354384  1
  Na  Na12  1  0.66727199  0.33260310  0.33375676  1
  Na  Na13  1  0.33394856  0.66592348  0.16196549  1
  Na  Na14  1  0.33855688  0.66510070  0.66399664  1
  Ti  Ti15  1  0.99378855  0.99354843  0.35367645  1
  Ti  Ti16  1  0.00632325  0.00445438  0.85067358  1
  Ti  Ti17  1  0.66837333  0.33980640  0.18381531  1
  Ti  Ti18  1  0.66538523  0.33094886  0.98523454  1
  Ti  Ti19  1  0.31847021  0.65787807  0.02275332  1
  Ti  Ti20  1  0.33443883  0.66708946  0.51747436  1
  Nb  Nb21  1  0.00274175  0.00304057  0.64574655  1
  Nb  Nb22  1  0.00415644  0.00107643  0.14435635  1
  Nb  Nb23  1  0.66204182  0.33381672  0.68693016  1
  Nb  Nb24  1  0.66887087  0.33228439  0.47723827  1
  Nb  Nb25  1  0.33129352  0.66816595  0.31538999  1
  Nb  Nb26  1  0.33515170  0.67407349  0.81237069  1
  Si  Si27  1  0.28954828  0.00392522  0.25144743  1
  Si  Si28  1  0.71307783  0.71137498  0.24998625  1
  Si  Si29  1  0.99674865  0.28524214  0.25088716  1
  Si  Si30  1  0.29232136  0.28912291  0.75140844  1
  Si  Si31  1  0.99803780  0.71327251  0.75139894  1
  Si  Si32  1  0.71098106  0.99729902  0.75098852  1
  Si  Si33  1  0.96229480  0.33792901  0.58280406  1
  Si  Si34  1  0.37668116  0.04348517  0.58170255  1
  Si  Si35  1  0.65851106  0.62005560  0.58166050  1
  Si  Si36  1  0.95468714  0.62011810  0.08277674  1
  Si  Si37  1  0.38041164  0.33877728  0.08253669  1
  Si  Si38  1  0.04105167  0.37500295  0.91784003  1
  Si  Si39  1  0.33339646  0.95841088  0.91953548  1
  Si  Si40  1  0.62816879  0.95585845  0.41799696  1
  Si  Si41  1  0.04413476  0.67274678  0.41819051  1
  P  P42  1  0.66268885  0.04206091  0.08342383  1
  P  P43  1  0.62199789  0.66761888  0.91822166  1
  P  P44  1  0.32922479  0.37501534  0.41768382  1
  O  O45  1  0.19705925  0.03722369  0.30746229  1
  O  O46  1  0.83894545  0.80115449  0.30709656  1
  O  O47  1  0.96377964  0.15984745  0.30746850  1
  O  O48  1  0.19905899  0.16906025  0.80974434  1
  O  O49  1  0.97082289  0.80349637  0.80991141  1
  O  O50  1  0.83546434  0.03360541  0.80901240  1
  O  O51  1  0.79987383  0.96945880  0.69145400  1
  O  O52  1  0.16336412  0.19888452  0.69420093  1
  O  O53  1  0.03092708  0.83040628  0.69175416  1
  O  O54  1  0.80036698  0.83854725  0.19289293  1
  O  O55  1  0.03654952  0.19881519  0.19299946  1
  O  O56  1  0.16200596  0.96191699  0.19328010  1
  O  O57  1  0.87115660  0.36791726  0.64184470  1
  O  O58  1  0.50282143  0.13432869  0.63982022  1
  O  O59  1  0.63652943  0.50050359  0.64044184  1
  O  O60  1  0.86418928  0.50098984  0.14212740  1
  O  O61  1  0.63860453  0.13022911  0.13947820  1
  O  O62  1  0.49907683  0.36119730  0.14183533  1
  O  O63  1  0.47078107  0.30452113  0.02404230  1
  O  O64  1  0.83399612  0.52755746  0.02392393  1
  O  O65  1  0.69411393  0.15908731  0.02726207  1
  O  O66  1  0.47020714  0.16976376  0.52556235  1
  O  O67  1  0.70401770  0.53211893  0.52652647  1
  O  O68  1  0.82833271  0.29654243  0.52708399  1
  O  O69  1  0.53787197  0.70180912  0.97160226  1
  O  O70  1  0.17376678  0.47021784  0.97324386  1
  O  O71  1  0.29920918  0.82565911  0.97379536  1
  O  O72  1  0.53083438  0.83516685  0.47581965  1
  O  O73  1  0.30683883  0.46879021  0.47151285  1
  O  O74  1  0.16508464  0.69406422  0.47581576  1
  O  O75  1  0.13297569  0.63623915  0.35895946  1
  O  O76  1  0.50355346  0.86459555  0.35883089  1
  O  O77  1  0.36146027  0.49037702  0.36069544  1
  O  O78  1  0.13211997  0.49851359  0.85886915  1
  O  O79  1  0.36826005  0.86609492  0.86071565  1
  O  O80  1  0.50439575  0.63383278  0.86195443  1
  O  O81  1  0.02802790  0.84359019  0.40937287  1
  O  O82  1  0.81695608  0.97660776  0.40944506  1
  O  O83  1  0.16964378  0.19727468  0.41035039  1
  O  O84  1  0.02227110  0.18342145  0.91051601  1
  O  O85  1  0.15987645  0.97419565  0.91037241  1
  O  O86  1  0.80356616  0.82876491  0.91010309  1
  O  O87  1  0.96852977  0.15867633  0.58975621  1
  O  O88  1  0.18398283  0.01849126  0.58996464  1
  O  O89  1  0.83508809  0.81027693  0.59021396  1
  O  O90  1  0.97191159  0.81069691  0.08958291  1
  O  O91  1  0.82898854  0.02875584  0.08925288  1
  O  O92  1  0.18920493  0.16511351  0.08976294  1
  O  O93  1  0.69914542  0.17327599  0.74388663  1
  O  O94  1  0.48070440  0.30732697  0.74439454  1
  O  O95  1  0.83392971  0.51767366  0.74463942  1
  O  O96  1  0.69082141  0.51827072  0.24292318  1
  O  O97  1  0.82798826  0.30900792  0.24270071  1
  O  O98  1  0.48247204  0.16977170  0.24242294  1
  O  O99  1  0.64064182  0.50307539  0.92241489  1
  O  O100  1  0.85037288  0.35717028  0.92359031  1
  O  O101  1  0.50601038  0.14993319  0.92332539  1
  O  O102  1  0.63895199  0.14452592  0.42320035  1
  O  O103  1  0.49611302  0.36251333  0.42336733  1
  O  O104  1  0.85435954  0.49723230  0.42373061  1
  O  O105  1  0.36294753  0.51037220  0.07471937  1
  O  O106  1  0.14637853  0.64145605  0.07559439  1
  O  O107  1  0.50365106  0.86355901  0.07544415  1
  O  O108  1  0.35749985  0.85269590  0.57675432  1
  O  O109  1  0.49532804  0.64965989  0.57651544  1
  O  O110  1  0.14782950  0.51041360  0.57598737  1
  O  O111  1  0.30792494  0.82856718  0.25677265  1
  O  O112  1  0.51959465  0.68828230  0.25718324  1
  O  O113  1  0.17089488  0.47814216  0.25690237  1
  O  O114  1  0.30264706  0.47578578  0.75798324  1
  O  O115  1  0.16735096  0.68671762  0.75725068  1
  O  O116  1  0.52092724  0.82682645  0.75731863  1
