# generated using pymatgen
data_Mn2O2F9
_symmetry_space_group_name_H-M   'P 1'
_cell_length_a   9.60803241
_cell_length_b   9.60803241
_cell_length_c   9.09368286
_cell_angle_alpha   79.75656442
_cell_angle_beta   79.75656442
_cell_angle_gamma   51.46879536
_symmetry_Int_Tables_number   1
_chemical_formula_structural   Mn2O2F9
_chemical_formula_sum   'Mn8 O8 F36'
_cell_volume   643.77350263
_cell_formula_units_Z   4
loop_
 _symmetry_equiv_pos_site_id
 _symmetry_equiv_pos_as_xyz
  1  'x, y, z'
loop_
 _atom_site_type_symbol
 _atom_site_label
 _atom_site_symmetry_multiplicity
 _atom_site_fract_x
 _atom_site_fract_y
 _atom_site_fract_z
 _atom_site_occupancy
  Mn  Mn0  1  0.82189456  0.32639506  0.94584804  1
  Mn  Mn1  1  0.25873887  0.99246443  0.06275607  1
  Mn  Mn2  1  0.00753557  0.74126113  0.43724393  1
  Mn  Mn3  1  0.74126113  0.00753557  0.93724393  1
  Mn  Mn4  1  0.99246443  0.25873887  0.56275607  1
  Mn  Mn5  1  0.32639506  0.82189456  0.44584804  1
  Mn  Mn6  1  0.17810544  0.67360494  0.05415196  1
  Mn  Mn7  1  0.67360494  0.17810544  0.55415196  1
  O  O8  1  0.73774316  0.64146127  0.28684019  1
  O  O9  1  0.35853873  0.26225684  0.21315981  1
  O  O10  1  0.26225684  0.35853873  0.71315981  1
  O  O11  1  0.64146127  0.73774316  0.78684019  1
  O  O12  1  0.81612689  0.57215805  0.17742087  1
  O  O13  1  0.42784195  0.18387311  0.32257913  1
  O  O14  1  0.18387311  0.42784195  0.82257913  1
  O  O15  1  0.57215805  0.81612689  0.67742087  1
  F  F16  1  0.06948681  0.57695222  0.08938786  1
  F  F17  1  0.48501863  0.85768263  0.08595817  1
  F  F18  1  0.14231737  0.51498137  0.41404183  1
  F  F19  1  0.51498137  0.14231737  0.91404183  1
  F  F20  1  0.85768263  0.48501863  0.58595817  1
  F  F21  1  0.50489822  0.63882901  0.34749514  1
  F  F22  1  0.36117099  0.49510178  0.15250486  1
  F  F23  1  0.49510178  0.36117099  0.65250486  1
  F  F24  1  0.78785701  0.28677092  0.52144461  1
  F  F25  1  0.71322908  0.21214299  0.97855539  1
  F  F26  1  0.21214299  0.71322908  0.47855539  1
  F  F27  1  0.28677092  0.78785701  0.02144461  1
  F  F28  1  0.94144036  0.20727953  0.76968623  1
  F  F29  1  0.79272047  0.05855964  0.73031377  1
  F  F30  1  0.05855964  0.79272047  0.23031377  1
  F  F31  1  0.20727953  0.94144036  0.26968623  1
  F  F32  1  0.93051319  0.42304778  0.91061214  1
  F  F33  1  0.57695222  0.06948681  0.58938786  1
  F  F34  1  0.63882901  0.50489822  0.84749514  1
  F  F35  1  0.42304778  0.93051319  0.41061214  1
  F  F36  1  0.18674021  0.21742823  0.60425852  1
  F  F37  1  0.78257177  0.81325979  0.89574148  1
  F  F38  1  0.42168595  0.71830701  0.61669408  1
  F  F39  1  0.21742823  0.18674021  0.10425852  1
  F  F40  1  0.03855683  0.28791054  0.37122338  1
  F  F41  1  0.71208946  0.96144317  0.12877662  1
  F  F42  1  0.96144317  0.71208946  0.62877662  1
  F  F43  1  0.28791054  0.03855683  0.87122338  1
  F  F44  1  0.00935595  0.12156624  0.05082406  1
  F  F45  1  0.87843376  0.99064405  0.44917594  1
  F  F46  1  0.99064405  0.87843376  0.94917594  1
  F  F47  1  0.12156624  0.00935595  0.55082406  1
  F  F48  1  0.71830701  0.42168595  0.11669408  1
  F  F49  1  0.57831405  0.28169299  0.38330592  1
  F  F50  1  0.28169299  0.57831405  0.88330592  1
  F  F51  1  0.81325979  0.78257177  0.39574148  1
