# generated using pymatgen
data_Na7Nb2Al2Si5PO24
_symmetry_space_group_name_H-M   'P 1'
_cell_length_a   8.94050725
_cell_length_b   8.94494504
_cell_length_c   22.17469460
_cell_angle_alpha   89.79195914
_cell_angle_beta   90.00946129
_cell_angle_gamma   119.93065237
_symmetry_Int_Tables_number   1
_chemical_formula_structural   Na7Nb2Al2Si5PO24
_chemical_formula_sum   'Na21 Nb6 Al6 Si15 P3 O72'
_cell_volume   1536.83600351
_cell_formula_units_Z   3
loop_
 _symmetry_equiv_pos_site_id
 _symmetry_equiv_pos_as_xyz
  1  'x, y, z'
loop_
 _atom_site_type_symbol
 _atom_site_label
 _atom_site_symmetry_multiplicity
 _atom_site_fract_x
 _atom_site_fract_y
 _atom_site_fract_z
 _atom_site_occupancy
  Na  Na0  1  0.63878082  0.00704766  0.24934736  1
  Na  Na1  1  0.37009515  0.36351701  0.24763022  1
  Na  Na2  1  0.99212326  0.62835287  0.24819206  1
  Na  Na3  1  0.63588400  0.62863294  0.74809544  1
  Na  Na4  1  0.99210943  0.36219020  0.74853510  1
  Na  Na5  1  0.37186091  0.00883164  0.74814747  1
  Na  Na6  1  0.30392193  0.33929037  0.58198196  1
  Na  Na7  1  0.03734567  0.69777750  0.58139009  1
  Na  Na8  1  0.65995559  0.96235339  0.58168458  1
  Na  Na9  1  0.30065378  0.96419084  0.08065509  1
  Na  Na10  1  0.03971367  0.34243911  0.08231102  1
  Na  Na11  1  0.97151511  0.67429666  0.91540849  1
  Na  Na12  1  0.32510960  0.29440365  0.91547369  1
  Na  Na13  1  0.32589607  0.02935361  0.41543545  1
  Na  Na14  1  0.70472022  0.67356375  0.41546920  1
  Na  Na15  1  0.99786979  0.00436653  0.49498774  1
  Na  Na16  1  0.99008878  0.99666597  0.99579233  1
  Na  Na17  1  0.66724305  0.32584825  0.82993275  1
  Na  Na18  1  0.67372747  0.33257139  0.33032080  1
  Na  Na19  1  0.33876085  0.66389704  0.16155097  1
  Na  Na20  1  0.33438163  0.66688228  0.66262114  1
  Nb  Nb21  1  0.99929642  0.99941009  0.64704070  1
  Nb  Nb22  1  0.00000278  0.99688879  0.14650948  1
  Nb  Nb23  1  0.66630734  0.33100768  0.97996853  1
  Nb  Nb24  1  0.67410054  0.33204433  0.47993732  1
  Nb  Nb25  1  0.32975701  0.66868664  0.31340050  1
  Nb  Nb26  1  0.33078841  0.66959058  0.81373476  1
  Al  Al27  1  0.99334830  0.99782184  0.35159376  1
  Al  Al28  1  0.00225946  0.00614116  0.85177191  1
  Al  Al29  1  0.66624357  0.33304927  0.68586739  1
  Al  Al30  1  0.66807754  0.34077157  0.18674162  1
  Al  Al31  1  0.32705978  0.65866117  0.01862182  1
  Al  Al32  1  0.33563041  0.67251996  0.51968122  1
  Si  Si33  1  0.29318691  0.00876708  0.25283204  1
  Si  Si34  1  0.71354501  0.70659074  0.25259139  1
  Si  Si35  1  0.99216231  0.28350426  0.25183353  1
  Si  Si36  1  0.29448015  0.28695087  0.75231572  1
  Si  Si37  1  0.99162728  0.70731532  0.75321851  1
  Si  Si38  1  0.71519352  0.00728923  0.75288757  1
  Si  Si39  1  0.96222939  0.34124055  0.58638454  1
  Si  Si40  1  0.38149273  0.04184737  0.58525090  1
  Si  Si41  1  0.65902940  0.61827354  0.58500633  1
  Si  Si42  1  0.95748932  0.62025232  0.08539422  1
  Si  Si43  1  0.38454680  0.34789694  0.08570381  1
  Si  Si44  1  0.04275577  0.36722588  0.91892873  1
  Si  Si45  1  0.32828462  0.95329980  0.92004815  1
  Si  Si46  1  0.63071604  0.95552417  0.41889936  1
  Si  Si47  1  0.04584189  0.67264738  0.41949797  1
  P  P48  1  0.65934253  0.03814206  0.08518656  1
  P  P49  1  0.62343385  0.67597190  0.91938226  1
  P  P50  1  0.32438123  0.37381021  0.41885115  1
  O  O51  1  0.20021973  0.03641956  0.31035350  1
  O  O52  1  0.83490140  0.79632267  0.31022379  1
  O  O53  1  0.96354151  0.15728179  0.30740446  1
  O  O54  1  0.20256859  0.16452208  0.80972197  1
  O  O55  1  0.96527400  0.80125057  0.81064340  1
  O  O56  1  0.84260012  0.03561322  0.80767618  1
  O  O57  1  0.79568646  0.96376757  0.69123208  1
  O  O58  1  0.16707526  0.20390945  0.69195469  1
  O  O59  1  0.03635084  0.83282279  0.69230891  1
  O  O60  1  0.80086926  0.83822650  0.19361952  1
  O  O61  1  0.03561362  0.20372040  0.19038921  1
  O  O62  1  0.16651719  0.96381037  0.19232279  1
  O  O63  1  0.86898063  0.37071792  0.64368569  1
  O  O64  1  0.50274236  0.13401155  0.64302179  1
  O  O65  1  0.63131504  0.49794515  0.64321926  1
  O  O66  1  0.86559297  0.49573002  0.14282858  1
  O  O67  1  0.63287439  0.12494850  0.14088458  1
  O  O68  1  0.49756454  0.35950220  0.14401183  1
  O  O69  1  0.46630940  0.30023029  0.02552870  1
  O  O70  1  0.83586388  0.53066314  0.02466173  1
  O  O71  1  0.69733539  0.16254398  0.02902206  1
  O  O72  1  0.46390000  0.16744809  0.52475851  1
  O  O73  1  0.70117849  0.53474093  0.52482689  1
  O  O74  1  0.83065199  0.29753289  0.52717910  1
  O  O75  1  0.53008912  0.69420252  0.97277428  1
  O  O76  1  0.16584074  0.46373296  0.97582566  1
  O  O77  1  0.30189136  0.82982023  0.97679356  1
  O  O78  1  0.53382170  0.83207414  0.47630087  1
  O  O79  1  0.30585720  0.46432300  0.47448377  1
  O  O80  1  0.16915824  0.69950089  0.47642938  1
  O  O81  1  0.13178381  0.63577293  0.35835306  1
  O  O82  1  0.50116320  0.86587145  0.35884010  1
  O  O83  1  0.36262868  0.49201979  0.36135342  1
  O  O84  1  0.13253765  0.49812285  0.85888151  1
  O  O85  1  0.36467486  0.86757343  0.85854443  1
  O  O86  1  0.50877669  0.63534785  0.86075210  1
  O  O87  1  0.02750089  0.84354032  0.41031913  1
  O  O88  1  0.81702305  0.97158776  0.40930387  1
  O  O89  1  0.17095356  0.19269223  0.41095458  1
  O  O90  1  0.02775975  0.18150464  0.90914563  1
  O  O91  1  0.15745167  0.97222682  0.91058898  1
  O  O92  1  0.80698160  0.82802104  0.91095092  1
  O  O93  1  0.97518055  0.16338467  0.58856997  1
  O  O94  1  0.18816774  0.02526435  0.58886041  1
  O  O95  1  0.83627505  0.81121898  0.58873230  1
  O  O96  1  0.97918999  0.81559501  0.08857596  1
  O  O97  1  0.83088307  0.03168613  0.08834181  1
  O  O98  1  0.18875331  0.16689790  0.08906438  1
  O  O99  1  0.69017825  0.17332755  0.74312996  1
  O  O100  1  0.48469989  0.30975416  0.74295845  1
  O  O101  1  0.82658223  0.51654418  0.74376804  1
  O  O102  1  0.69035884  0.51623890  0.24321461  1
  O  O103  1  0.82525711  0.30807790  0.24204947  1
  O  O104  1  0.48522710  0.17186672  0.24240129  1
  O  O105  1  0.63843398  0.50555275  0.92306260  1
  O  O106  1  0.85518915  0.36295301  0.92250774  1
  O  O107  1  0.50016055  0.14976856  0.92290376  1
  O  O108  1  0.63342548  0.14253665  0.42184126  1
  O  O109  1  0.49418909  0.36097073  0.42189333  1
  O  O110  1  0.84946731  0.50075065  0.42184162  1
  O  O111  1  0.35411893  0.50964372  0.07566160  1
  O  O112  1  0.15050818  0.64569399  0.07685467  1
  O  O113  1  0.50134812  0.86379924  0.07563495  1
  O  O114  1  0.35743973  0.85053977  0.57676120  1
  O  O115  1  0.49129305  0.64142102  0.57576914  1
  O  O116  1  0.15195656  0.50667381  0.57528424  1
  O  O117  1  0.30803412  0.82997429  0.25562664  1
  O  O118  1  0.52002180  0.68859790  0.25671304  1
  O  O119  1  0.17002509  0.47682190  0.25636565  1
  O  O120  1  0.31125399  0.48001486  0.75663138  1
  O  O121  1  0.17053660  0.69219761  0.75584579  1
  O  O122  1  0.52272418  0.82903428  0.75634858  1
