# generated using pymatgen
data_Na3ZnGaSi(SO6)2
_symmetry_space_group_name_H-M   'P 1'
_cell_length_a   8.95370688
_cell_length_b   8.94479626
_cell_length_c   22.10608942
_cell_angle_alpha   90.10833963
_cell_angle_beta   90.00000000
_cell_angle_gamma   120.03295881
_symmetry_Int_Tables_number   1
_chemical_formula_structural   Na3ZnGaSi(SO6)2
_chemical_formula_sum   'Na18 Zn6 Ga6 Si6 S12 O72'
_cell_volume   1532.74713268
_cell_formula_units_Z   6
loop_
 _symmetry_equiv_pos_site_id
 _symmetry_equiv_pos_as_xyz
  1  'x, y, z'
loop_
 _atom_site_type_symbol
 _atom_site_label
 _atom_site_symmetry_multiplicity
 _atom_site_fract_x
 _atom_site_fract_y
 _atom_site_fract_z
 _atom_site_occupancy
  Na  Na0  1  0.63277716  0.00662439  0.25191433  1
  Na  Na1  1  0.00281375  0.63620737  0.24128762  1
  Na  Na2  1  0.63339362  0.63620737  0.74128762  1
  Na  Na3  1  0.37384723  0.00662439  0.75191433  1
  Na  Na4  1  0.31289680  0.34410631  0.58566540  1
  Na  Na5  1  0.66065985  0.95167816  0.58080617  1
  Na  Na6  1  0.29101931  0.95167816  0.08080617  1
  Na  Na7  1  0.03121050  0.34410631  0.08566540  1
  Na  Na8  1  0.97930826  0.67926794  0.92277045  1
  Na  Na9  1  0.69659321  0.03219587  0.90881826  1
  Na  Na10  1  0.33560166  0.03219587  0.40881826  1
  Na  Na11  1  0.69995868  0.67926794  0.42277045  1
  Na  Na12  1  0.98452036  0.99446702  0.49758383  1
  Na  Na13  1  0.00994666  0.99446702  0.99758383  1
  Na  Na14  1  0.66461070  0.31853377  0.83130524  1
  Na  Na15  1  0.65392406  0.31853377  0.33130524  1
  Na  Na16  1  0.33186033  0.66151700  0.16497325  1
  Na  Na17  1  0.32965567  0.66151700  0.66497325  1
  Zn  Zn18  1  0.00616972  0.01307784  0.34923020  1
  Zn  Zn19  1  0.00690812  0.01307784  0.84923020  1
  Zn  Zn20  1  0.67561643  0.33022558  0.68259455  1
  Zn  Zn21  1  0.65461014  0.33022558  0.18259455  1
  Zn  Zn22  1  0.31692296  0.67467190  0.01551766  1
  Zn  Zn23  1  0.35774795  0.67467190  0.51551766  1
  Ga  Ga24  1  0.97064750  0.96843347  0.65011272  1
  Ga  Ga25  1  0.99778597  0.96843347  0.15011272  1
  Ga  Ga26  1  0.65290599  0.33584843  0.98455062  1
  Ga  Ga27  1  0.68294345  0.33584843  0.48455062  1
  Ga  Ga28  1  0.34017257  0.69539111  0.31919183  1
  Ga  Ga29  1  0.35521754  0.69539111  0.81919183  1
  Si  Si30  1  0.29711310  0.00315222  0.25259268  1
  Si  Si31  1  0.70603911  0.00315222  0.75259268  1
  Si  Si32  1  0.67121394  0.62019111  0.58409972  1
  Si  Si33  1  0.94897817  0.62019111  0.08409972  1
  Si  Si34  1  0.33536737  0.97698659  0.91896419  1
  Si  Si35  1  0.64161822  0.97698659  0.41896419  1
  S  S36  1  0.70108430  0.70604959  0.25198322  1
  S  S37  1  0.00865371  0.29667387  0.24877474  1
  S  S38  1  0.28802016  0.29667387  0.74877474  1
  S  S39  1  0.00496530  0.70604959  0.75198322  1
  S  S40  1  0.96551495  0.33315309  0.58373192  1
  S  S41  1  0.36187121  0.03562163  0.58442304  1
  S  S42  1  0.67375142  0.03562163  0.08442304  1
  S  S43  1  0.36763913  0.33315309  0.08373192  1
  S  S44  1  0.61774145  0.65768872  0.91742291  1
  S  S45  1  0.04626694  0.37928269  0.91619509  1
  S  S46  1  0.33301474  0.37928269  0.41619509  1
  S  S47  1  0.03994627  0.65768872  0.41742291  1
  O  O48  1  0.20983578  0.02080159  0.31384252  1
  O  O49  1  0.80379280  0.78356353  0.30700679  1
  O  O50  1  0.97589219  0.18558525  0.30156380  1
  O  O51  1  0.20969306  0.18558525  0.80156380  1
  O  O52  1  0.97977073  0.78356353  0.80700679  1
  O  O53  1  0.81096581  0.02080159  0.81384252  1
  O  O54  1  0.78860202  0.96062655  0.69173860  1
  O  O55  1  0.18843181  0.21405164  0.69198553  1
  O  O56  1  0.04232061  0.82394002  0.69802969  1
  O  O57  1  0.78161942  0.82394002  0.19802969  1
  O  O58  1  0.02561983  0.21405164  0.19198553  1
  O  O59  1  0.17202454  0.96062655  0.19173860  1
  O  O60  1  0.88786453  0.35471397  0.63851580  1
  O  O61  1  0.47084667  0.11050222  0.63864974  1
  O  O62  1  0.63985639  0.50533403  0.64407563  1
  O  O63  1  0.86547865  0.50533403  0.14407563  1
  O  O64  1  0.63965655  0.11050222  0.13864974  1
  O  O65  1  0.46685044  0.35471397  0.13851580  1
  O  O66  1  0.44491092  0.29434900  0.02962915  1
  O  O67  1  0.83528110  0.52687053  0.02137828  1
  O  O68  1  0.70136254  0.14551398  0.02952008  1
  O  O69  1  0.44415243  0.14551398  0.52952008  1
  O  O70  1  0.69159043  0.52687053  0.52137828  1
  O  O71  1  0.84943908  0.29434900  0.52962915  1
  O  O72  1  0.52806161  0.67586294  0.96957469  1
  O  O73  1  0.13924174  0.45062222  0.97354401  1
  O  O74  1  0.29845099  0.85910143  0.97861224  1
  O  O75  1  0.56064944  0.85910143  0.47861224  1
  O  O76  1  0.31137948  0.45062222  0.47354401  1
  O  O77  1  0.14780033  0.67586294  0.46957469  1
  O  O78  1  0.11477249  0.63434289  0.35935269  1
  O  O79  1  0.51089327  0.89062471  0.35894430  1
  O  O80  1  0.35260397  0.49284309  0.36345479  1
  O  O81  1  0.14023812  0.49284309  0.86345479  1
  O  O82  1  0.37973045  0.89062471  0.85894430  1
  O  O83  1  0.51956940  0.63434289  0.85935269  1
  O  O84  1  0.02263588  0.81443926  0.41475373  1
  O  O85  1  0.82545207  0.98453864  0.40946316  1
  O  O86  1  0.18600450  0.20186296  0.41223010  1
  O  O87  1  0.01585846  0.20186296  0.91223010  1
  O  O88  1  0.15908657  0.98453864  0.90946316  1
  O  O89  1  0.79180337  0.81443926  0.91475373  1
  O  O90  1  0.98604269  0.17530609  0.58707871  1
  O  O91  1  0.19347117  0.03338991  0.59061502  1
  O  O92  1  0.84439019  0.81909736  0.58577728  1
  O  O93  1  0.97470717  0.81909736  0.08577728  1
  O  O94  1  0.83991874  0.03338991  0.09061502  1
  O  O95  1  0.18926340  0.17530609  0.08707871  1
  O  O96  1  0.66895066  0.16320447  0.74478832  1
  O  O97  1  0.46561174  0.32121582  0.74578690  1
  O  O98  1  0.84821093  0.53752937  0.74430073  1
  O  O99  1  0.68931945  0.53752937  0.24430073  1
  O  O100  1  0.85560508  0.32121582  0.24578690  1
  O  O101  1  0.49425481  0.16320447  0.24478832  1
  O  O102  1  0.64153658  0.50366959  0.91958587  1
  O  O103  1  0.87333491  0.36965299  0.91654360  1
  O  O104  1  0.52363407  0.16386019  0.92611472  1
  O  O105  1  0.64022712  0.16386019  0.42611472  1
  O  O106  1  0.49631907  0.36965299  0.41654360  1
  O  O107  1  0.86213400  0.50366959  0.41958587  1
  O  O108  1  0.34923336  0.48625128  0.07553629  1
  O  O109  1  0.14455916  0.64343803  0.08165936  1
  O  O110  1  0.52472551  0.86022322  0.07752621  1
  O  O111  1  0.33549672  0.86022322  0.57752621  1
  O  O112  1  0.49887787  0.64343803  0.58165936  1
  O  O113  1  0.13701692  0.48625128  0.57553629  1
  O  O114  1  0.30778147  0.81722731  0.25436876  1
  O  O115  1  0.52659998  0.68953639  0.25560321  1
  O  O116  1  0.16711341  0.46996186  0.25434002  1
  O  O117  1  0.30284745  0.46996186  0.75434002  1
  O  O118  1  0.16293542  0.68953639  0.75560321  1
  O  O119  1  0.50944484  0.81722731  0.75436876  1
