# generated using pymatgen
data_Rb5Au3O2
_symmetry_space_group_name_H-M   'P 1'
_cell_length_a   5.68718062
_cell_length_b   7.37208349
_cell_length_c   14.32534903
_cell_angle_alpha   90.00000000
_cell_angle_beta   90.00000000
_cell_angle_gamma   90.00000000
_symmetry_Int_Tables_number   1
_chemical_formula_structural   Rb5Au3O2
_chemical_formula_sum   'Rb10 Au6 O4'
_cell_volume   600.60988887
_cell_formula_units_Z   2
loop_
 _symmetry_equiv_pos_site_id
 _symmetry_equiv_pos_as_xyz
  1  'x, y, z'
loop_
 _atom_site_type_symbol
 _atom_site_label
 _atom_site_symmetry_multiplicity
 _atom_site_fract_x
 _atom_site_fract_y
 _atom_site_fract_z
 _atom_site_occupancy
  Rb  Rb0  1  0.50000000  0.17140546  0.89702078  1
  Rb  Rb1  1  0.50000000  0.82859454  0.10297922  1
  Rb  Rb2  1  0.00000000  0.00000000  0.50000000  1
  Rb  Rb3  1  0.00000000  0.50000000  0.00000000  1
  Rb  Rb4  1  0.00000000  0.11485526  0.23534296  1
  Rb  Rb5  1  0.00000000  0.88514474  0.76465704  1
  Rb  Rb6  1  0.00000000  0.61485526  0.26465704  1
  Rb  Rb7  1  0.00000000  0.38514474  0.73534296  1
  Rb  Rb8  1  0.50000000  0.32859454  0.39702078  1
  Rb  Rb9  1  0.50000000  0.67140546  0.60297922  1
  Au  Au10  1  0.50000000  0.14703487  0.64440917  1
  Au  Au11  1  0.50000000  0.85296513  0.35559083  1
  Au  Au12  1  0.50000000  0.64703487  0.85559083  1
  Au  Au13  1  0.50000000  0.35296513  0.14440917  1
  Au  Au14  1  0.00000000  0.50000000  0.50000000  1
  Au  Au15  1  0.00000000  0.00000000  -0.00000000  1
  O  O16  1  0.00000000  0.17448644  0.89125862  1
  O  O17  1  0.00000000  0.82551356  0.10874138  1
  O  O18  1  0.00000000  0.67448644  0.60874138  1
  O  O19  1  0.00000000  0.32551356  0.39125862  1
