# generated using pymatgen
data_Na6NbGa3Si2(PO6)4
_symmetry_space_group_name_H-M   'P 1'
_cell_length_a   8.83355346
_cell_length_b   8.84364034
_cell_length_c   22.00934148
_cell_angle_alpha   90.07478534
_cell_angle_beta   89.66942886
_cell_angle_gamma   119.89735307
_symmetry_Int_Tables_number   1
_chemical_formula_structural   Na6NbGa3Si2(PO6)4
_chemical_formula_sum   'Na18 Nb3 Ga9 Si6 P12 O72'
_cell_volume   1490.54307811
_cell_formula_units_Z   3
loop_
 _symmetry_equiv_pos_site_id
 _symmetry_equiv_pos_as_xyz
  1  'x, y, z'
loop_
 _atom_site_type_symbol
 _atom_site_label
 _atom_site_symmetry_multiplicity
 _atom_site_fract_x
 _atom_site_fract_y
 _atom_site_fract_z
 _atom_site_occupancy
  Na  Na0  1  0.99882340  0.99196681  0.50230963  1
  Na  Na1  1  0.98401025  0.99285860  0.99722566  1
  Na  Na2  1  0.66388613  0.33414119  0.82872150  1
  Na  Na3  1  0.66426494  0.33777725  0.32935181  1
  Na  Na4  1  0.33438306  0.66000545  0.16217820  1
  Na  Na5  1  0.33191566  0.66501934  0.66382636  1
  Na  Na6  1  0.63971897  0.00805341  0.24652534  1
  Na  Na7  1  0.99611001  0.35918832  0.74702048  1
  Na  Na8  1  0.36437919  0.00417293  0.74960873  1
  Na  Na9  1  0.29958202  0.33315637  0.58610447  1
  Na  Na10  1  0.66823294  0.96665972  0.58432521  1
  Na  Na11  1  0.29612316  0.96347371  0.08380210  1
  Na  Na12  1  0.03611567  0.33606154  0.08281234  1
  Na  Na13  1  0.97368830  0.67793322  0.91484404  1
  Na  Na14  1  0.32507613  0.29477798  0.91432383  1
  Na  Na15  1  0.96366112  0.29562480  0.41709916  1
  Na  Na16  1  0.33374060  0.03619517  0.41526243  1
  Na  Na17  1  0.70152676  0.67011867  0.41816223  1
  Nb  Nb18  1  0.66738648  0.33083389  0.97836744  1
  Nb  Nb19  1  0.33212218  0.67171192  0.30991626  1
  Nb  Nb20  1  0.33927786  0.66298246  0.81322637  1
  Ga  Ga21  1  0.99861871  0.00000847  0.34790583  1
  Ga  Ga22  1  0.00135592  0.00357186  0.85305685  1
  Ga  Ga23  1  0.00157736  0.99699369  0.65007602  1
  Ga  Ga24  1  0.99803133  0.99242864  0.14939391  1
  Ga  Ga25  1  0.66453211  0.34116253  0.68421371  1
  Ga  Ga26  1  0.66031085  0.33593625  0.18657592  1
  Ga  Ga27  1  0.66624717  0.33017117  0.48470089  1
  Ga  Ga28  1  0.33846456  0.66703929  0.01558576  1
  Ga  Ga29  1  0.33369829  0.67028941  0.51847307  1
  Si  Si30  1  0.28881962  0.01251102  0.24865074  1
  Si  Si31  1  0.29211259  0.28534835  0.74769817  1
  Si  Si32  1  0.63126799  0.67946902  0.91948299  1
  Si  Si33  1  0.04490263  0.37146157  0.91887319  1
  Si  Si34  1  0.33004964  0.95208075  0.91870046  1
  Si  Si35  1  0.63060880  0.96231058  0.41923094  1
  P  P36  1  0.71685591  0.70773890  0.24973419  1
  P  P37  1  0.99754992  0.28757711  0.24829154  1
  P  P38  1  0.99361030  0.70889038  0.74949969  1
  P  P39  1  0.71531780  0.00213006  0.74787102  1
  P  P40  1  0.95936531  0.33684286  0.58338918  1
  P  P41  1  0.37209343  0.03876763  0.58355611  1
  P  P42  1  0.67030696  0.62576655  0.58227102  1
  P  P43  1  0.95544203  0.62532250  0.08638490  1
  P  P44  1  0.66652542  0.03612240  0.08684169  1
  P  P45  1  0.37422317  0.33775459  0.08606649  1
  P  P46  1  0.33289559  0.37586250  0.41906761  1
  P  P47  1  0.04152888  0.66683083  0.41922166  1
  O  O48  1  0.20578593  0.03256910  0.31215300  1
  O  O49  1  0.81643029  0.78582164  0.30940420  1
  O  O50  1  0.96219400  0.17576152  0.30668812  1
  O  O51  1  0.20944075  0.16929748  0.80875927  1
  O  O52  1  0.96731783  0.78519050  0.80822347  1
  O  O53  1  0.82914124  0.03403323  0.80345683  1
  O  O54  1  0.78755502  0.96692247  0.68878615  1
  O  O55  1  0.16684455  0.20867620  0.68810393  1
  O  O56  1  0.03435530  0.82805355  0.69378327  1
  O  O57  1  0.78956877  0.83306472  0.19548572  1
  O  O58  1  0.03109652  0.20857966  0.19126502  1
  O  O59  1  0.17195374  0.96557642  0.18819344  1
  O  O60  1  0.87430711  0.36263055  0.64090587  1
  O  O61  1  0.49146340  0.12120427  0.63945778  1
  O  O62  1  0.63168381  0.50372800  0.63695222  1
  O  O63  1  0.86671044  0.50085730  0.13978779  1
  O  O64  1  0.63515664  0.12209197  0.14282415  1
  O  O65  1  0.48991185  0.36297984  0.14028817  1
  O  O66  1  0.46089844  0.30575771  0.02781902  1
  O  O67  1  0.84520079  0.53723531  0.02735846  1
  O  O68  1  0.69674245  0.16060823  0.03041861  1
  O  O69  1  0.45242222  0.15595413  0.52573528  1
  O  O70  1  0.69808521  0.54573468  0.52299595  1
  O  O71  1  0.84442420  0.30217615  0.52573061  1
  O  O72  1  0.54090416  0.70371703  0.97806810  1
  O  O73  1  0.16125773  0.45642014  0.97879071  1
  O  O74  1  0.29204076  0.83431051  0.97892798  1
  O  O75  1  0.54340030  0.83388752  0.47710440  1
  O  O76  1  0.29598433  0.45483499  0.47594938  1
  O  O77  1  0.16188355  0.70210528  0.47338231  1
  O  O78  1  0.12840786  0.63225241  0.36210308  1
  O  O79  1  0.50055135  0.86716951  0.35935552  1
  O  O80  1  0.36289793  0.49595967  0.36314201  1
  O  O81  1  0.12931435  0.50135131  0.85843289  1
  O  O82  1  0.36826730  0.86968642  0.85700396  1
  O  O83  1  0.49788007  0.62746408  0.85986997  1
  O  O84  1  0.02331903  0.83032759  0.41191832  1
  O  O85  1  0.82311111  0.98045926  0.40952988  1
  O  O86  1  0.16999537  0.19296261  0.41254702  1
  O  O87  1  0.02634898  0.18386718  0.91041994  1
  O  O88  1  0.16308031  0.97807539  0.91169258  1
  O  O89  1  0.82501737  0.83593903  0.90894259  1
  O  O90  1  0.97496885  0.16810859  0.58666580  1
  O  O91  1  0.19105512  0.02571000  0.58890126  1
  O  O92  1  0.83013659  0.81167788  0.58843322  1
  O  O93  1  0.97370712  0.80850996  0.08835808  1
  O  O94  1  0.83832128  0.03007103  0.08958591  1
  O  O95  1  0.19143819  0.16815071  0.08791517  1
  O  O96  1  0.69273170  0.16566369  0.74299634  1
  O  O97  1  0.48513528  0.30387799  0.74240783  1
  O  O98  1  0.83964385  0.51999128  0.74318905  1
  O  O99  1  0.69428355  0.52626262  0.24324079  1
  O  O100  1  0.83609034  0.30967072  0.24345592  1
  O  O101  1  0.49154326  0.16962694  0.24467002  1
  O  O102  1  0.64123185  0.49553534  0.92424196  1
  O  O103  1  0.85570076  0.36566188  0.92295082  1
  O  O104  1  0.50409065  0.14886591  0.92411028  1
  O  O105  1  0.64405066  0.15408111  0.42299597  1
  O  O106  1  0.50116117  0.36218696  0.42280470  1
  O  O107  1  0.85919267  0.50096559  0.42277914  1
  O  O108  1  0.34921231  0.49723840  0.08041284  1
  O  O109  1  0.13897724  0.64281321  0.08104517  1
  O  O110  1  0.49868104  0.85972343  0.07977249  1
  O  O111  1  0.36036235  0.85812107  0.57749470  1
  O  O112  1  0.50049408  0.64110285  0.57854711  1
  O  O113  1  0.14585010  0.49772828  0.57749824  1
  O  O114  1  0.31244181  0.83157065  0.25644162  1
  O  O115  1  0.52843711  0.69028453  0.25705581  1
  O  O116  1  0.16536868  0.47077108  0.25672964  1
  O  O117  1  0.30550054  0.48048300  0.75349471  1
  O  O118  1  0.16491854  0.69269143  0.75346257  1
  O  O119  1  0.52531685  0.84052464  0.75342569  1
