# generated using pymatgen
data_Na4CaTiSi(PO6)2
_symmetry_space_group_name_H-M   'P 1'
_cell_length_a   9.29629051
_cell_length_b   9.27937549
_cell_length_c   22.06900318
_cell_angle_alpha   90.37236496
_cell_angle_beta   90.00000000
_cell_angle_gamma   120.06031810
_symmetry_Int_Tables_number   1
_chemical_formula_structural   Na4CaTiSi(PO6)2
_chemical_formula_sum   'Na24 Ca6 Ti6 Si6 P12 O72'
_cell_volume   1647.65110272
_cell_formula_units_Z   6
loop_
 _symmetry_equiv_pos_site_id
 _symmetry_equiv_pos_as_xyz
  1  'x, y, z'
loop_
 _atom_site_type_symbol
 _atom_site_label
 _atom_site_symmetry_multiplicity
 _atom_site_fract_x
 _atom_site_fract_y
 _atom_site_fract_z
 _atom_site_occupancy
  Na  Na0  1  0.64867889  0.01396975  0.24448480  1
  Na  Na1  1  0.36687949  0.35592292  0.24991858  1
  Na  Na2  1  0.99027731  0.62639305  0.24352492  1
  Na  Na3  1  0.63611574  0.62639305  0.74352492  1
  Na  Na4  1  0.98904343  0.35592292  0.74991858  1
  Na  Na5  1  0.36529086  0.01396975  0.74448480  1
  Na  Na6  1  0.30919769  0.34644901  0.58227943  1
  Na  Na7  1  0.03324600  0.69179689  0.57904873  1
  Na  Na8  1  0.65303950  0.96341582  0.57531175  1
  Na  Na9  1  0.31037732  0.96341582  0.07531175  1
  Na  Na10  1  0.65855189  0.69179689  0.07904873  1
  Na  Na11  1  0.03725232  0.34644901  0.08227943  1
  Na  Na12  1  0.98346154  0.68260930  0.91429443  1
  Na  Na13  1  0.70356028  0.03009856  0.91031929  1
  Na  Na14  1  0.32341746  0.29878632  0.91205171  1
  Na  Na15  1  0.97536785  0.29878632  0.41205171  1
  Na  Na16  1  0.32653728  0.03009856  0.41031929  1
  Na  Na17  1  0.69914676  0.68260930  0.41429443  1
  Na  Na18  1  0.99731094  0.00510715  0.49811702  1
  Na  Na19  1  0.00779621  0.00510715  0.99811702  1
  Na  Na20  1  0.66609998  0.32592553  0.83234755  1
  Na  Na21  1  0.65982655  0.32592553  0.33234755  1
  Na  Na22  1  0.32259356  0.66165466  0.16513652  1
  Na  Na23  1  0.33906011  0.66165466  0.66513652  1
  Ca  Ca24  1  0.00077190  0.00101376  0.34818173  1
  Ca  Ca25  1  0.00024186  0.00101376  0.84818173  1
  Ca  Ca26  1  0.66473653  0.33161335  0.68148699  1
  Ca  Ca27  1  0.66687782  0.33161335  0.18148699  1
  Ca  Ca28  1  0.33274823  0.66806824  0.01473383  1
  Ca  Ca29  1  0.33531901  0.66806824  0.51473383  1
  Ti  Ti30  1  0.98184829  0.98798610  0.65084252  1
  Ti  Ti31  1  0.00613781  0.98798610  0.15084252  1
  Ti  Ti32  1  0.66835866  0.33245260  0.98393559  1
  Ti  Ti33  1  0.66409494  0.33245260  0.48393559  1
  Ti  Ti34  1  0.33773640  0.68332996  0.31703644  1
  Ti  Ti35  1  0.34559256  0.68332996  0.81703644  1
  Si  Si36  1  0.29846532  0.98943140  0.25419120  1
  Si  Si37  1  0.69096607  0.98943140  0.75419120  1
  Si  Si38  1  0.67445991  0.63715000  0.58665445  1
  Si  Si39  1  0.96269110  0.63715000  0.08665445  1
  Si  Si40  1  0.34638281  0.97894432  0.92061940  1
  Si  Si41  1  0.63256051  0.97894432  0.42061940  1
  P  P42  1  0.69287863  0.70723163  0.25073092  1
  P  P43  1  0.01411817  0.30220031  0.24954233  1
  P  P44  1  0.28808214  0.30220031  0.74954233  1
  P  P45  1  0.01435300  0.70723163  0.75073092  1
  P  P46  1  0.95702171  0.31903873  0.58404655  1
  P  P47  1  0.35887858  0.04160404  0.58313717  1
  P  P48  1  0.68272646  0.04160404  0.08313717  1
  P  P49  1  0.36201802  0.31903873  0.08404655  1
  P  P50  1  0.62643184  0.65305469  0.91755371  1
  P  P51  1  0.02975815  0.37737922  0.91709017  1
  P  P52  1  0.34762007  0.37737922  0.41709017  1
  P  P53  1  0.02662185  0.65305469  0.41755371  1
  O  O54  1  0.22452142  0.01654927  0.31473145  1
  O  O55  1  0.78664272  0.77854555  0.30960978  1
  O  O56  1  0.98805300  0.20923145  0.30864144  1
  O  O57  1  0.22117845  0.20923145  0.80864144  1
  O  O58  1  0.99190282  0.77854555  0.80960978  1
  O  O59  1  0.79202785  0.01654927  0.81473145  1
  O  O60  1  0.80505856  0.96778235  0.69569212  1
  O  O61  1  0.16800505  0.19412951  0.69489719  1
  O  O62  1  0.02781465  0.82658003  0.69580266  1
  O  O63  1  0.79876537  0.82658003  0.19580266  1
  O  O64  1  0.02612447  0.19412951  0.19489719  1
  O  O65  1  0.16272379  0.96778235  0.19569212  1
  O  O66  1  0.88800190  0.34195984  0.64333541  1
  O  O67  1  0.45560541  0.10767346  0.64197599  1
  O  O68  1  0.65430058  0.54143831  0.64797949  1
  O  O69  1  0.88713873  0.54143831  0.14797949  1
  O  O70  1  0.65206905  0.10767346  0.14197599  1
  O  O71  1  0.45395893  0.34195984  0.14333541  1
  O  O72  1  0.46707031  0.30372769  0.02905155  1
  O  O73  1  0.82709553  0.52357495  0.02840554  1
  O  O74  1  0.69129345  0.16329309  0.02933692  1
  O  O75  1  0.47200064  0.16329309  0.52933692  1
  O  O76  1  0.69648042  0.52357495  0.52840554  1
  O  O77  1  0.83665838  0.30372769  0.52905155  1
  O  O78  1  0.55647083  0.67594850  0.97651921  1
  O  O79  1  0.12232732  0.44445452  0.97658626  1
  O  O80  1  0.31577980  0.87199808  0.97963514  1
  O  O81  1  0.55621729  0.87199808  0.47963514  1
  O  O82  1  0.32212620  0.44445452  0.47658626  1
  O  O83  1  0.11947667  0.67594850  0.47651921  1
  O  O84  1  0.13445171  0.63970263  0.36286271  1
  O  O85  1  0.49529137  0.85920952  0.36172943  1
  O  O86  1  0.36363288  0.49542102  0.36242557  1
  O  O87  1  0.13178715  0.49542102  0.86242557  1
  O  O88  1  0.36391715  0.85920952  0.86172943  1
  O  O89  1  0.50524992  0.63970263  0.86286271  1
  O  O90  1  0.99478284  0.79885408  0.41093209  1
  O  O91  1  0.81730192  0.00880249  0.41267154  1
  O  O92  1  0.20108501  0.19901175  0.41095889  1
  O  O93  1  0.99792674  0.19901175  0.91095889  1
  O  O94  1  0.19150057  0.00880249  0.91267154  1
  O  O95  1  0.80407125  0.79885408  0.91093209  1
  O  O96  1  0.95948751  0.15028314  0.58471930  1
  O  O97  1  0.19387602  0.04717321  0.58243993  1
  O  O98  1  0.85849343  0.82175635  0.58940306  1
  O  O99  1  0.96326292  0.82175635  0.08940306  1
  O  O100  1  0.85329719  0.04717321  0.08243993  1
  O  O101  1  0.19079563  0.15028314  0.08471930  1
  O  O102  1  0.65494812  0.14006341  0.74615869  1
  O  O103  1  0.46523176  0.33110913  0.74347203  1
  O  O104  1  0.86819464  0.52930134  0.74435769  1
  O  O105  1  0.66110770  0.52930134  0.24435769  1
  O  O106  1  0.86587837  0.33110913  0.24347203  1
  O  O107  1  0.48511629  0.14006341  0.24615869  1
  O  O108  1  0.62611442  0.48318078  0.91709582  1
  O  O109  1  0.85775238  0.37522773  0.91921993  1
  O  O110  1  0.52796375  0.15749161  0.92194373  1
  O  O111  1  0.62952886  0.15749161  0.42194373  1
  O  O112  1  0.51747635  0.37522773  0.41921993  1
  O  O113  1  0.85706736  0.48318078  0.41709582  1
  O  O114  1  0.33399403  0.46703447  0.07657584  1
  O  O115  1  0.14952491  0.66980272  0.08133620  1
  O  O116  1  0.53886942  0.86321271  0.07549204  1
  O  O117  1  0.32434229  0.86321271  0.57549204  1
  O  O118  1  0.52027681  0.66980272  0.58133620  1
  O  O119  1  0.13303944  0.46703447  0.57657584  1
  O  O120  1  0.29402852  0.80479664  0.25589220  1
  O  O121  1  0.52296795  0.70696488  0.25101634  1
  O  O122  1  0.18274852  0.47208646  0.25047910  1
  O  O123  1  0.28933693  0.47208646  0.75047910  1
  O  O124  1  0.18399593  0.70696488  0.75101634  1
  O  O125  1  0.51076712  0.80479664  0.75589220  1
