# generated using pymatgen
data_NaLa2Ga2PS5O24
_symmetry_space_group_name_H-M   'P 1'
_cell_length_a   8.83909472
_cell_length_b   8.85014217
_cell_length_c   23.94046900
_cell_angle_alpha   89.86152530
_cell_angle_beta   90.24279359
_cell_angle_gamma   119.64196418
_symmetry_Int_Tables_number   1
_chemical_formula_structural   NaLa2Ga2PS5O24
_chemical_formula_sum   'Na3 La6 Ga6 P3 S15 O72'
_cell_volume   1627.69475300
_cell_formula_units_Z   3
loop_
 _symmetry_equiv_pos_site_id
 _symmetry_equiv_pos_as_xyz
  1  'x, y, z'
loop_
 _atom_site_type_symbol
 _atom_site_label
 _atom_site_symmetry_multiplicity
 _atom_site_fract_x
 _atom_site_fract_y
 _atom_site_fract_z
 _atom_site_occupancy
  Na  Na0  1  0.00012284  0.98639900  0.99622692  1
  Na  Na1  1  0.65456577  0.33147685  0.83032267  1
  Na  Na2  1  0.68036008  0.33174200  0.34607697  1
  La  La3  1  0.00095347  0.98775712  0.84481288  1
  La  La4  1  0.99896346  0.00661843  0.16231495  1
  La  La5  1  0.67511863  0.33482309  0.19739848  1
  La  La6  1  0.65656632  0.33746891  0.97601126  1
  La  La7  1  0.34080926  0.67166829  0.01773838  1
  La  La8  1  0.33942925  0.67506471  0.80163740  1
  Ga  Ga9  1  0.99581481  0.00248814  0.35893594  1
  Ga  Ga10  1  0.00095816  0.00172368  0.63944828  1
  Ga  Ga11  1  0.66446478  0.33159916  0.66740847  1
  Ga  Ga12  1  0.66452604  0.33446551  0.48833728  1
  Ga  Ga13  1  0.33418234  0.66782008  0.51472251  1
  Ga  Ga14  1  0.32825917  0.65946754  0.32843308  1
  P  P15  1  0.01570938  0.30701279  0.27088823  1
  P  P16  1  0.64260054  0.66955430  0.91158534  1
  P  P17  1  0.33201539  0.97346237  0.91145551  1
  S  S18  1  0.28829288  0.98176471  0.27086968  1
  S  S19  1  0.69188622  0.71037524  0.27089311  1
  S  S20  1  0.30700653  0.27843327  0.73140430  1
  S  S21  1  0.96994741  0.68956351  0.72978327  1
  S  S22  1  0.72477526  0.03131014  0.73138257  1
  S  S23  1  0.95839849  0.33523184  0.57693051  1
  S  S24  1  0.37580938  0.04012246  0.57731891  1
  S  S25  1  0.66326205  0.62416180  0.57740755  1
  S  S26  1  0.96925359  0.64500266  0.08632422  1
  S  S27  1  0.67750652  0.03370345  0.08568708  1
  S  S28  1  0.35333792  0.32391201  0.08861170  1
  S  S29  1  0.02969449  0.36060033  0.91136447  1
  S  S30  1  0.61981964  0.95577090  0.42191107  1
  S  S31  1  0.34059459  0.37889881  0.42321540  1
  S  S32  1  0.04080598  0.66460099  0.42243334  1
  O  O33  1  0.19093429  0.00807396  0.31693019  1
  O  O34  1  0.82093106  0.80005617  0.31644756  1
  O  O35  1  0.98021460  0.17407630  0.31860570  1
  O  O36  1  0.24292413  0.18287992  0.78469860  1
  O  O37  1  0.93756319  0.75130198  0.78348777  1
  O  O38  1  0.81928813  0.06032374  0.78480205  1
  O  O39  1  0.81748064  0.00350115  0.68422711  1
  O  O40  1  0.18768554  0.18512088  0.68402433  1
  O  O41  1  0.99905977  0.81351911  0.68367117  1
  O  O42  1  0.76034636  0.79528056  0.21612895  1
  O  O43  1  0.03222771  0.23557974  0.21383470  1
  O  O44  1  0.20075886  0.96103541  0.21615028  1
  O  O45  1  0.88249812  0.37955121  0.62557328  1
  O  O46  1  0.49624790  0.11474185  0.62617095  1
  O  O47  1  0.61698195  0.50264728  0.62583375  1
  O  O48  1  0.86292204  0.55475768  0.13665638  1
  O  O49  1  0.69681241  0.14009798  0.13638702  1
  O  O50  1  0.44419756  0.30814337  0.13893628  1
  O  O51  1  0.44443589  0.32265645  0.03694496  1
  O  O52  1  0.87661962  0.55433372  0.03456635  1
  O  O53  1  0.67602853  0.12531142  0.03426869  1
  O  O54  1  0.44880688  0.16371837  0.52874590  1
  O  O55  1  0.71352698  0.55064678  0.52878676  1
  O  O56  1  0.83428591  0.28527182  0.52804367  1
  O  O57  1  0.54303738  0.64046918  0.96693235  1
  O  O58  1  0.10647199  0.45289325  0.96433297  1
  O  O59  1  0.34294378  0.88764884  0.96615981  1
  O  O60  1  0.54517870  0.84299759  0.47241416  1
  O  O61  1  0.30019247  0.45511728  0.47283728  1
  O  O62  1  0.15647333  0.70398068  0.47250455  1
  O  O63  1  0.11655773  0.62172212  0.37357908  1
  O  O64  1  0.50006393  0.87850593  0.37330742  1
  O  O65  1  0.38633789  0.49829391  0.37440450  1
  O  O66  1  0.13891367  0.45043434  0.86226320  1
  O  O67  1  0.29915261  0.85829380  0.85908029  1
  O  O68  1  0.54592245  0.68664621  0.86012127  1
  O  O69  1  0.01785413  0.81697401  0.41129191  1
  O  O70  1  0.79353684  0.97500906  0.41140751  1
  O  O71  1  0.19101039  0.20484556  0.41207401  1
  O  O72  1  0.00946227  0.18535499  0.91630075  1
  O  O73  1  0.17891628  0.00927899  0.91779838  1
  O  O74  1  0.81965060  0.83716396  0.91792502  1
  O  O75  1  0.98426504  0.18442032  0.58914964  1
  O  O76  1  0.19958328  0.01461512  0.58945722  1
  O  O77  1  0.81265443  0.79905333  0.58990527  1
  O  O78  1  0.99301758  0.82261503  0.08443912  1
  O  O79  1  0.82994900  0.00669411  0.08266035  1
  O  O80  1  0.17689561  0.16981421  0.08528330  1
  O  O81  1  0.71204184  0.19172913  0.72191052  1
  O  O82  1  0.48055274  0.29089630  0.72228235  1
  O  O83  1  0.80913656  0.51917742  0.71983990  1
  O  O84  1  0.66035479  0.52949913  0.26906903  1
  O  O85  1  0.85545848  0.33516442  0.26930293  1
  O  O86  1  0.46446640  0.13782075  0.26902206  1
  O  O87  1  0.67188619  0.51412682  0.90136737  1
  O  O88  1  0.85695404  0.34625717  0.90295797  1
  O  O89  1  0.50178850  0.14672263  0.90287697  1
  O  O90  1  0.63754000  0.13278845  0.43128189  1
  O  O91  1  0.50134727  0.36253324  0.43390510  1
  O  O92  1  0.86539242  0.50563445  0.43253859  1
  O  O93  1  0.34268205  0.48342620  0.09234727  1
  O  O94  1  0.13795844  0.65170760  0.09063297  1
  O  O95  1  0.51713819  0.86580405  0.09142140  1
  O  O96  1  0.36164864  0.86950963  0.56431629  1
  O  O97  1  0.50726522  0.64019717  0.56406663  1
  O  O98  1  0.12885756  0.49017180  0.56385407  1
  O  O99  1  0.30049201  0.82368086  0.27971423  1
  O  O100  1  0.52891089  0.71330978  0.28025018  1
  O  O101  1  0.18596393  0.47964789  0.28015083  1
  O  O102  1  0.32684821  0.45261977  0.73557764  1
  O  O103  1  0.12242589  0.66605928  0.73425884  1
  O  O104  1  0.54959367  0.87864929  0.73487748  1
