# generated using pymatgen
data_LaGa(SO4)3
_symmetry_space_group_name_H-M   'P 1'
_cell_length_a   8.95259702
_cell_length_b   8.95259672
_cell_length_c   23.79349538
_cell_angle_alpha   90.00000000
_cell_angle_beta   90.00000000
_cell_angle_gamma   120.00000112
_symmetry_Int_Tables_number   1
_chemical_formula_structural   LaGa(SO4)3
_chemical_formula_sum   'La6 Ga6 S18 O72'
_cell_volume   1651.53176513
_cell_formula_units_Z   6
loop_
 _symmetry_equiv_pos_site_id
 _symmetry_equiv_pos_as_xyz
  1  'x, y, z'
loop_
 _atom_site_type_symbol
 _atom_site_label
 _atom_site_symmetry_multiplicity
 _atom_site_fract_x
 _atom_site_fract_y
 _atom_site_fract_z
 _atom_site_occupancy
  La  La0  1  0.00000000  -0.00000000  0.84715222  1
  La  La1  1  0.66666700  0.33333300  0.98618078  1
  La  La2  1  0.33333300  0.66666700  0.03113883  1
  La  La3  1  0.33333300  0.66666700  0.52136856  1
  La  La4  1  0.33333300  0.66666700  0.31196544  1
  La  La5  1  0.33333300  0.66666700  0.80219517  1
  Ga  Ga6  1  0.00000000  -0.00000000  0.34919565  1
  Ga  Ga7  1  0.00000000  -0.00000000  0.64374606  1
  Ga  Ga8  1  0.00000000  -0.00000000  0.15331300  1
  Ga  Ga9  1  0.66666700  0.33333300  0.68002000  1
  Ga  Ga10  1  0.66666700  0.33333300  0.18958694  1
  Ga  Ga11  1  0.66666700  0.33333300  0.48413735  1
  S  S12  1  0.28880711  0.02096896  0.24733637  1
  S  S13  1  0.73216184  0.71119289  0.24733637  1
  S  S14  1  0.97903104  0.26783816  0.24733637  1
  S  S15  1  0.30470179  0.28120627  0.73749245  1
  S  S16  1  0.97650448  0.69529821  0.73749245  1
  S  S17  1  0.71879373  0.02349552  0.73749245  1
  S  S18  1  0.93450516  0.31236404  0.58599663  1
  S  S19  1  0.37785989  0.06549484  0.58599663  1
  S  S20  1  0.68763596  0.62214011  0.58599663  1
  S  S21  1  0.94787327  0.63803479  0.09584055  1
  S  S22  1  0.69016252  0.05212673  0.09584055  1
  S  S23  1  0.36196521  0.30983748  0.09584055  1
  S  S24  1  0.62805295  0.66666700  0.91666700  1
  S  S25  1  0.03861305  0.37194705  0.91666700  1
  S  S26  1  0.33333300  0.96138695  0.91666700  1
  S  S27  1  0.65375737  0.98709137  0.41666700  1
  S  S28  1  0.33333300  0.34624263  0.41666700  1
  S  S29  1  0.01290863  0.66666700  0.41666700  1
  O  O30  1  0.21013477  0.04784900  0.29933212  1
  O  O31  1  0.83771423  0.78986523  0.29933212  1
  O  O32  1  0.95215100  0.16228577  0.29933212  1
  O  O33  1  0.24051608  0.18871140  0.79153056  1
  O  O34  1  0.94819533  0.75948392  0.79153056  1
  O  O35  1  0.81128860  0.05180467  0.79153056  1
  O  O36  1  0.81328207  0.99469116  0.69119402  1
  O  O37  1  0.18140909  0.18671793  0.69119402  1
  O  O38  1  0.00530884  0.81859091  0.69119402  1
  O  O39  1  0.80965299  0.82130401  0.19752536  1
  O  O40  1  0.01165101  0.19034701  0.19752536  1
  O  O41  1  0.17869599  0.98834899  0.19752536  1
  O  O42  1  0.85701401  0.34498401  0.63580764  1
  O  O43  1  0.48797101  0.14298599  0.63580764  1
  O  O44  1  0.65501599  0.51202899  0.63580764  1
  O  O45  1  0.85338493  0.51474209  0.14213898  1
  O  O46  1  0.66135816  0.14661507  0.14213898  1
  O  O47  1  0.48525791  0.33864184  0.14213898  1
  O  O48  1  0.42615092  0.28152833  0.04180244  1
  O  O49  1  0.85537840  0.57384908  0.04180244  1
  O  O50  1  0.71847167  0.14462160  0.04180244  1
  O  O51  1  0.45653223  0.17104723  0.53400088  1
  O  O52  1  0.71451600  0.54346777  0.53400088  1
  O  O53  1  0.82895277  0.28548400  0.53400088  1
  O  O54  1  0.53989279  0.67727562  0.96801547  1
  O  O55  1  0.13738183  0.46010721  0.96801547  1
  O  O56  1  0.32272438  0.86261817  0.96801547  1
  O  O57  1  0.57792639  0.87072081  0.46569758  1
  O  O58  1  0.29279342  0.42207361  0.46569758  1
  O  O59  1  0.12927919  0.70720658  0.46569758  1
  O  O60  1  0.08873961  0.62612742  0.36763642  1
  O  O61  1  0.53738681  0.91126039  0.36763642  1
  O  O62  1  0.37387258  0.46261319  0.36763642  1
  O  O63  1  0.12677321  0.47071583  0.86531853  1
  O  O64  1  0.34394162  0.87322679  0.86531853  1
  O  O65  1  0.52928417  0.65605838  0.86531853  1
  O  O66  1  0.99338176  0.81978994  0.40358845  1
  O  O67  1  0.82640818  0.00661824  0.40358845  1
  O  O68  1  0.18021006  0.17359182  0.40358845  1
  O  O69  1  0.02278994  0.20065422  0.91461396  1
  O  O70  1  0.17786428  0.97721006  0.91461396  1
  O  O71  1  0.79934578  0.82213572  0.91461396  1
  O  O72  1  0.95171186  0.15596548  0.59350140  1
  O  O73  1  0.20425362  0.04828814  0.59350140  1
  O  O74  1  0.84403452  0.79574638  0.59350140  1
  O  O75  1  0.96714080  0.81051690  0.10420482  1
  O  O76  1  0.84337610  0.03285920  0.10420482  1
  O  O77  1  0.18948310  0.15662390  0.10420482  1
  O  O78  1  0.69952620  0.17670910  0.72912818  1
  O  O79  1  0.47718390  0.30047380  0.72912818  1
  O  O80  1  0.82329090  0.52281610  0.72912818  1
  O  O81  1  0.71495514  0.53758662  0.23983160  1
  O  O82  1  0.82263248  0.28504486  0.23983160  1
  O  O83  1  0.46241338  0.17736752  0.23983160  1
  O  O84  1  0.64387706  0.51119728  0.91871904  1
  O  O85  1  0.86732122  0.35612294  0.91871904  1
  O  O86  1  0.48880272  0.13267878  0.91871904  1
  O  O87  1  0.67328524  0.15974118  0.42974455  1
  O  O88  1  0.48645694  0.32671476  0.42974455  1
  O  O89  1  0.84025882  0.51354306  0.42974455  1
  O  O90  1  0.34603889  0.46537357  0.09245820  1
  O  O91  1  0.11933367  0.65396111  0.09245820  1
  O  O92  1  0.53462643  0.88066633  0.09245820  1
  O  O93  1  0.35798458  0.89257161  0.57944470  1
  O  O94  1  0.53458604  0.64201542  0.57944470  1
  O  O95  1  0.10742839  0.46541396  0.57944470  1
  O  O96  1  0.30868142  0.86792004  0.25388930  1
  O  O97  1  0.55923761  0.69131858  0.25388930  1
  O  O98  1  0.13207996  0.44076239  0.25388930  1
  O  O99  1  0.32062711  0.45266767  0.74087580  1
  O  O100  1  0.13203957  0.67937289  0.74087580  1
  O  O101  1  0.54733233  0.86796043  0.74087580  1
