# generated using pymatgen
data_NaSc2Ge2P3(SO8)3
_symmetry_space_group_name_H-M   'P 1'
_cell_length_a   8.58707763
_cell_length_b   8.58055171
_cell_length_c   22.32377582
_cell_angle_alpha   90.28431756
_cell_angle_beta   90.18382353
_cell_angle_gamma   120.13327727
_symmetry_Int_Tables_number   1
_chemical_formula_structural   NaSc2Ge2P3(SO8)3
_chemical_formula_sum   'Na3 Sc6 Ge6 P9 S9 O72'
_cell_volume   1422.52296747
_cell_formula_units_Z   3
loop_
 _symmetry_equiv_pos_site_id
 _symmetry_equiv_pos_as_xyz
  1  'x, y, z'
loop_
 _atom_site_type_symbol
 _atom_site_label
 _atom_site_symmetry_multiplicity
 _atom_site_fract_x
 _atom_site_fract_y
 _atom_site_fract_z
 _atom_site_occupancy
  Na  Na0  1  0.67864013  0.33523092  0.83462749  1
  Na  Na1  1  0.66326219  0.34069312  0.33160636  1
  Na  Na2  1  0.34372127  0.67409927  0.16686073  1
  Sc  Sc3  1  0.67442821  0.33461620  0.68797055  1
  Sc  Sc4  1  0.65320089  0.32856855  0.18574020  1
  Sc  Sc5  1  0.66545415  0.32354129  0.98487764  1
  Sc  Sc6  1  0.66496210  0.33796087  0.47980915  1
  Sc  Sc7  1  0.33550931  0.66738376  0.30984007  1
  Sc  Sc8  1  0.32727916  0.66801692  0.80744476  1
  Ge  Ge9  1  0.01357709  0.99345540  0.35461726  1
  Ge  Ge10  1  0.99180055  0.00249339  0.85501640  1
  Ge  Ge11  1  0.99357522  0.99207108  0.64931315  1
  Ge  Ge12  1  0.99806086  0.99920571  0.14560816  1
  Ge  Ge13  1  0.33359799  0.65426195  0.01952860  1
  Ge  Ge14  1  0.32285165  0.65895554  0.51284444  1
  P  P15  1  0.27877286  0.00002691  0.24882467  1
  P  P16  1  0.72650122  0.72388182  0.24991722  1
  P  P17  1  0.99639165  0.72476392  0.75121191  1
  P  P18  1  0.72176216  0.00094740  0.75015099  1
  P  P19  1  0.66652142  0.02912391  0.08365674  1
  P  P20  1  0.36195127  0.32858569  0.08328540  1
  P  P21  1  0.04691530  0.37331490  0.91535185  1
  P  P22  1  0.32227953  0.37028508  0.41508293  1
  P  P23  1  0.04664104  0.67251874  0.41567557  1
  S  S24  1  0.99689513  0.27774023  0.25042852  1
  S  S25  1  0.28070220  0.27719473  0.74981699  1
  S  S26  1  0.97099760  0.33253678  0.58334483  1
  S  S27  1  0.36288703  0.02874126  0.58343786  1
  S  S28  1  0.66339346  0.63620388  0.58338081  1
  S  S29  1  0.96745427  0.63402935  0.08355331  1
  S  S30  1  0.62776489  0.67179174  0.91585480  1
  S  S31  1  0.32392329  0.95347031  0.91611998  1
  S  S32  1  0.62937656  0.95369066  0.41719545  1
  O  O33  1  0.20166267  0.03576156  0.30734754  1
  O  O34  1  0.83741302  0.81108052  0.30899034  1
  O  O35  1  0.97030457  0.17048564  0.30550109  1
  O  O36  1  0.20327603  0.16587736  0.80432797  1
  O  O37  1  0.96510191  0.81088471  0.80832825  1
  O  O38  1  0.84264166  0.04272538  0.80709920  1
  O  O39  1  0.80612470  0.97335806  0.69207994  1
  O  O40  1  0.17072994  0.19859580  0.69380228  1
  O  O41  1  0.03035390  0.83693643  0.69283669  1
  O  O42  1  0.80989998  0.83791070  0.19283262  1
  O  O43  1  0.02591508  0.19919324  0.19492880  1
  O  O44  1  0.16353930  0.97392290  0.19222591  1
  O  O45  1  0.89233130  0.36838619  0.63657787  1
  O  O46  1  0.47703809  0.11043823  0.63689163  1
  O  O47  1  0.63087793  0.52381138  0.63649869  1
  O  O48  1  0.89183098  0.52117992  0.13659182  1
  O  O49  1  0.62603940  0.10886318  0.13867762  1
  O  O50  1  0.48398098  0.37514513  0.13848305  1
  O  O51  1  0.44607983  0.29826941  0.02772658  1
  O  O52  1  0.85726810  0.55483709  0.02962670  1
  O  O53  1  0.70276033  0.14587996  0.02824142  1
  O  O54  1  0.44246326  0.14291103  0.53088307  1
  O  O55  1  0.69982315  0.55682259  0.53080859  1
  O  O56  1  0.85539874  0.29602804  0.53074380  1
  O  O57  1  0.54893894  0.70636412  0.97109501  1
  O  O58  1  0.16744875  0.46167205  0.97321318  1
  O  O59  1  0.29535059  0.84289348  0.97088741  1
  O  O60  1  0.54613278  0.83875600  0.47264642  1
  O  O61  1  0.29042728  0.45603810  0.47389131  1
  O  O62  1  0.16632260  0.70973967  0.47435257  1
  O  O63  1  0.13043828  0.63923801  0.36151335  1
  O  O64  1  0.51556228  0.87716678  0.36421322  1
  O  O65  1  0.36269463  0.49076999  0.36145997  1
  O  O66  1  0.13297306  0.48854756  0.86061104  1
  O  O67  1  0.35828445  0.87521204  0.86295661  1
  O  O68  1  0.51733823  0.64302650  0.86262494  1
  O  O69  1  0.02845625  0.84260029  0.41009554  1
  O  O70  1  0.80735861  0.97076396  0.41082380  1
  O  O71  1  0.14803488  0.18441436  0.40746888  1
  O  O72  1  0.03436444  0.18465864  0.90831878  1
  O  O73  1  0.15854148  0.96798248  0.90889978  1
  O  O74  1  0.80926668  0.83852345  0.91056438  1
  O  O75  1  0.99203629  0.17095675  0.59282924  1
  O  O76  1  0.18063704  0.01114508  0.59210376  1
  O  O77  1  0.82935850  0.81896813  0.59132561  1
  O  O78  1  0.98709053  0.81427429  0.09112122  1
  O  O79  1  0.83212344  0.00623707  0.09365678  1
  O  O80  1  0.17452961  0.16272360  0.09432490  1
  O  O81  1  0.70410176  0.17009185  0.74407759  1
  O  O82  1  0.45861609  0.29313824  0.74354817  1
  O  O83  1  0.82487768  0.53944273  0.74508754  1
  O  O84  1  0.71359111  0.53962764  0.24582555  1
  O  O85  1  0.83698698  0.29678688  0.24539531  1
  O  O86  1  0.46621666  0.16855031  0.24589824  1
  O  O87  1  0.64966174  0.51433011  0.92305983  1
  O  O88  1  0.85953335  0.35000082  0.92316311  1
  O  O89  1  0.48215114  0.13557655  0.92212800  1
  O  O90  1  0.64748426  0.13219421  0.42613249  1
  O  O91  1  0.48458370  0.34425435  0.42537361  1
  O  O92  1  0.86052040  0.50639272  0.42533219  1
  O  O93  1  0.34233282  0.50094945  0.07495342  1
  O  O94  1  0.15152995  0.65490406  0.07517563  1
  O  O95  1  0.49163782  0.83879194  0.07198503  1
  O  O96  1  0.34642935  0.84754157  0.57442733  1
  O  O97  1  0.50233432  0.65668996  0.57350016  1
  O  O98  1  0.15224951  0.49749740  0.57488732  1
  O  O99  1  0.29279012  0.82983582  0.25272298  1
  O  O100  1  0.53994787  0.70572995  0.25380478  1
  O  O101  1  0.16015605  0.45665072  0.25384109  1
  O  O102  1  0.29786889  0.45383295  0.75497725  1
  O  O103  1  0.16214019  0.70684436  0.75625438  1
  O  O104  1  0.54130911  0.83230027  0.75673804  1
