# generated using pymatgen
data_Na6Ca4Nb8Si9(SO8)9
_symmetry_space_group_name_H-M   'P 1'
_cell_length_a   9.00612830
_cell_length_b   9.01214863
_cell_length_c   23.32637771
_cell_angle_alpha   89.67893737
_cell_angle_beta   90.16274957
_cell_angle_gamma   119.96860680
_symmetry_Int_Tables_number   1
_chemical_formula_structural   Na6Ca4Nb8Si9(SO8)9
_chemical_formula_sum   'Na6 Ca4 Nb8 Si9 S9 O72'
_cell_volume   1640.11722013
_cell_formula_units_Z   1
loop_
 _symmetry_equiv_pos_site_id
 _symmetry_equiv_pos_as_xyz
  1  'x, y, z'
loop_
 _atom_site_type_symbol
 _atom_site_label
 _atom_site_symmetry_multiplicity
 _atom_site_fract_x
 _atom_site_fract_y
 _atom_site_fract_z
 _atom_site_occupancy
  Na  Na0  1  0.00010397  0.00111998  0.49361226  1
  Na  Na1  1  0.99156297  0.00624700  0.00033779  1
  Na  Na2  1  0.67928536  0.33440668  0.82258176  1
  Na  Na3  1  0.66461652  0.31896604  0.32278233  1
  Na  Na4  1  0.33097884  0.66640908  0.17313397  1
  Na  Na5  1  0.33152893  0.67153200  0.66129006  1
  Ca  Ca6  1  0.67370968  0.33499834  0.69061011  1
  Ca  Ca7  1  0.66545460  0.32617198  0.19181557  1
  Ca  Ca8  1  0.33557964  0.66267460  0.01595075  1
  Ca  Ca9  1  0.33212853  0.66953496  0.51374590  1
  Nb  Nb10  1  0.01211483  0.01262556  0.35583541  1
  Nb  Nb11  1  0.98227868  0.98817529  0.85336032  1
  Nb  Nb12  1  0.98745490  0.98438100  0.64660619  1
  Nb  Nb13  1  0.01115638  0.01062517  0.15278580  1
  Nb  Nb14  1  0.67816297  0.34050834  0.97650359  1
  Nb  Nb15  1  0.66459787  0.32481196  0.47020679  1
  Nb  Nb16  1  0.31921631  0.66389092  0.31787001  1
  Nb  Nb17  1  0.33059575  0.65777017  0.81167780  1
  Si  Si18  1  0.28933308  0.99130776  0.25416241  1
  Si  Si19  1  0.01252873  0.30204690  0.25404886  1
  Si  Si20  1  0.00788207  0.71564530  0.75261880  1
  Si  Si21  1  0.70263162  0.99073638  0.75093440  1
  Si  Si22  1  0.62142346  0.66489870  0.91785508  1
  Si  Si23  1  0.04707865  0.37156623  0.91660096  1
  Si  Si24  1  0.62529049  0.94855786  0.41587806  1
  Si  Si25  1  0.33274867  0.37944835  0.41791787  1
  Si  Si26  1  0.03966137  0.67299286  0.41846131  1
  S  S27  1  0.71234446  0.72325925  0.25075628  1
  S  S28  1  0.27713571  0.28597773  0.75116667  1
  S  S29  1  0.95818155  0.32589514  0.58417878  1
  S  S30  1  0.36934298  0.04532038  0.58494128  1
  S  S31  1  0.66913772  0.62653686  0.58418870  1
  S  S32  1  0.95368793  0.63164941  0.08245458  1
  S  S33  1  0.67461538  0.04470133  0.08298976  1
  S  S34  1  0.36981356  0.32229423  0.08351273  1
  S  S35  1  0.33578325  0.96468151  0.91504721  1
  O  O36  1  0.16850089  0.99097222  0.30481568  1
  O  O37  1  0.81254085  0.80719435  0.30103242  1
  O  O38  1  0.99681770  0.17378762  0.30490303  1
  O  O39  1  0.19263868  0.18832405  0.80327225  1
  O  O40  1  0.01222114  0.83527407  0.80539075  1
  O  O41  1  0.82490875  0.00296438  0.80566307  1
  O  O42  1  0.80929601  0.97307306  0.69366842  1
  O  O43  1  0.17399124  0.20591206  0.69842156  1
  O  O44  1  0.03058234  0.83658726  0.69313798  1
  O  O45  1  0.80490613  0.83122642  0.19584536  1
  O  O46  1  0.02795787  0.19234637  0.19350446  1
  O  O47  1  0.16537703  0.97145278  0.19276658  1
  O  O48  1  0.87496358  0.33939982  0.63581536  1
  O  O49  1  0.46596101  0.12861266  0.63653710  1
  O  O50  1  0.65933991  0.53454812  0.63668159  1
  O  O51  1  0.87038797  0.53078728  0.13308420  1
  O  O52  1  0.66188396  0.12768963  0.13417156  1
  O  O53  1  0.46574401  0.33567895  0.13503448  1
  O  O54  1  0.45654820  0.30318877  0.03096465  1
  O  O55  1  0.84252459  0.53247538  0.02882363  1
  O  O56  1  0.69100916  0.15504427  0.03010827  1
  O  O57  1  0.45491970  0.15015816  0.53231755  1
  O  O58  1  0.69523328  0.54828910  0.53251122  1
  O  O59  1  0.85146093  0.30278280  0.53197044  1
  O  O60  1  0.57126269  0.71767169  0.97477983  1
  O  O61  1  0.14202431  0.43511719  0.97483831  1
  O  O62  1  0.29861876  0.86555215  0.96728258  1
  O  O63  1  0.57237231  0.85597563  0.47525505  1
  O  O64  1  0.28831862  0.43246138  0.47597902  1
  O  O65  1  0.14309675  0.72061465  0.47551431  1
  O  O66  1  0.12995424  0.63161743  0.36190246  1
  O  O67  1  0.49448024  0.85944075  0.36028045  1
  O  O68  1  0.36552356  0.50290959  0.36110424  1
  O  O69  1  0.13724214  0.50049782  0.86002496  1
  O  O70  1  0.36605891  0.88222373  0.86452741  1
  O  O71  1  0.49571109  0.63551687  0.86167450  1
  O  O72  1  0.99146826  0.81803267  0.40085139  1
  O  O73  1  0.81829199  0.99288808  0.39931452  1
  O  O74  1  0.18192917  0.18084048  0.40406273  1
  O  O75  1  0.01336010  0.17987400  0.90161239  1
  O  O76  1  0.19315248  -0.00024986  0.90431992  1
  O  O77  1  0.82174563  0.81431510  0.90254172  1
  O  O78  1  0.97022125  0.16126711  0.58983105  1
  O  O79  1  0.19371644  0.03684499  0.58958753  1
  O  O80  1  0.84046057  0.80783127  0.58942595  1
  O  O81  1  0.95637289  0.79957743  0.08271119  1
  O  O82  1  0.83698111  0.03390349  0.08468987  1
  O  O83  1  0.19319854  0.15567467  0.08686408  1
  O  O84  1  0.68114876  0.15310016  0.75256920  1
  O  O85  1  0.44833983  0.31033744  0.74803530  1
  O  O86  1  0.83828495  0.53673088  0.75328072  1
  O  O87  1  0.69650856  0.55527675  0.24453973  1
  O  O88  1  0.84932692  0.32300481  0.25142087  1
  O  O89  1  0.46553391  0.16428103  0.25262361  1
  O  O90  1  0.63898492  0.48712074  0.92799842  1
  O  O91  1  0.84667918  0.34835785  0.92689870  1
  O  O92  1  0.49641122  0.13838409  0.92208426  1
  O  O93  1  0.64187012  0.14546255  0.42471118  1
  O  O94  1  0.50827292  0.35765575  0.42674017  1
  O  O95  1  0.84999740  0.49008167  0.42753040  1
  O  O96  1  0.34014932  0.46631538  0.07909639  1
  O  O97  1  0.12502875  0.65829026  0.07566807  1
  O  O98  1  0.52457956  0.87524057  0.07766335  1
  O  O99  1  0.33904020  0.87121625  0.58180618  1
  O  O100  1  0.53018142  0.66302943  0.58142288  1
  O  O101  1  0.13130738  0.47100753  0.58089616  1
  O  O102  1  0.29887352  0.81460425  0.25616607  1
  O  O103  1  0.54437535  0.71522530  0.25074886  1
  O  O104  1  0.19602958  0.48079566  0.25641383  1
  O  O105  1  0.28779703  0.45996718  0.75500339  1
  O  O106  1  0.18598223  0.70532715  0.76013537  1
  O  O107  1  0.52087257  0.80865415  0.75870967  1
