# generated using pymatgen
data_Na2Ca2Hf6Si3(S3O16)3
_symmetry_space_group_name_H-M   'P 1'
_cell_length_a   17.98577904
_cell_length_b   8.99114374
_cell_length_c   23.45256556
_cell_angle_alpha   90.03830108
_cell_angle_beta   89.95365189
_cell_angle_gamma   120.00712823
_symmetry_Int_Tables_number   1
_chemical_formula_structural   Na2Ca2Hf6Si3(S3O16)3
_chemical_formula_sum   'Na6 Ca6 Hf18 Si9 S27 O144'
_cell_volume   3284.23196017
_cell_formula_units_Z   3
loop_
 _symmetry_equiv_pos_site_id
 _symmetry_equiv_pos_as_xyz
  1  'x, y, z'
loop_
 _atom_site_type_symbol
 _atom_site_label
 _atom_site_symmetry_multiplicity
 _atom_site_fract_x
 _atom_site_fract_y
 _atom_site_fract_z
 _atom_site_occupancy
  Na  Na0  1  0.00207160  0.99009568  0.49390237  1
  Na  Na1  1  0.50023573  0.01197853  0.99798858  1
  Na  Na2  1  0.32991708  0.32394036  0.83849251  1
  Na  Na3  1  0.83509299  0.33397701  0.83592603  1
  Na  Na4  1  0.32522809  0.32268525  0.33194975  1
  Na  Na5  1  0.83200293  0.33815943  0.33591959  1
  Ca  Ca6  1  0.00478684  0.99560608  0.35336984  1
  Ca  Ca7  1  0.49957205  0.00718527  0.85551787  1
  Ca  Ca8  1  0.00143922  0.00704882  0.65029335  1
  Ca  Ca9  1  0.50083312  0.99405348  0.15085841  1
  Ca  Ca10  1  0.83592085  0.33464376  0.98071174  1
  Ca  Ca11  1  0.33542889  0.33522070  0.47896231  1
  Hf  Hf12  1  0.50981223  0.01108376  0.35423073  1
  Hf  Hf13  1  0.01101440  0.00976041  0.85543291  1
  Hf  Hf14  1  0.50465838  0.00172914  0.64367236  1
  Hf  Hf15  1  0.01077141  0.00740710  0.14633586  1
  Hf  Hf16  1  0.32458493  0.32730020  0.68608104  1
  Hf  Hf17  1  0.83339497  0.32518097  0.68173685  1
  Hf  Hf18  1  0.32807972  0.33627977  0.18547282  1
  Hf  Hf19  1  0.82653736  0.32106962  0.18683477  1
  Hf  Hf20  1  0.32677746  0.32171496  0.97726684  1
  Hf  Hf21  1  0.82641715  0.33147104  0.47528403  1
  Hf  Hf22  1  0.16402473  0.66998546  0.02441687  1
  Hf  Hf23  1  0.66403787  0.65885672  0.02270387  1
  Hf  Hf24  1  0.16489780  0.66976133  0.51875723  1
  Hf  Hf25  1  0.66404485  0.66130717  0.52153030  1
  Hf  Hf26  1  0.15760891  0.66789248  0.31050012  1
  Hf  Hf27  1  0.67019333  0.66501625  0.31048969  1
  Hf  Hf28  1  0.16953552  0.67302946  0.81199339  1
  Hf  Hf29  1  0.65947560  0.65691558  0.81436860  1
  Si  Si30  1  0.14898633  0.00440770  0.25062434  1
  Si  Si31  1  0.64685723  0.99778761  0.25010600  1
  Si  Si32  1  0.14676381  0.29619313  0.75017382  1
  Si  Si33  1  0.68996776  0.04105538  0.58173506  1
  Si  Si34  1  0.18920206  0.33716789  0.08184501  1
  Si  Si35  1  0.51969538  0.37599197  0.91956428  1
  Si  Si36  1  0.16686588  0.95119855  0.91684406  1
  Si  Si37  1  0.66514570  0.38062402  0.41644109  1
  Si  Si38  1  0.01918341  0.66445446  0.41850427  1
  S  S39  1  0.35242123  0.70521576  0.25290444  1
  S  S40  1  0.85370040  0.70496432  0.24736712  1
  S  S41  1  0.99809100  0.29138248  0.24830400  1
  S  S42  1  0.49903900  0.29383953  0.25171594  1
  S  S43  1  0.64887722  0.29453996  0.74903238  1
  S  S44  1  0.99807418  0.70277540  0.75203961  1
  S  S45  1  0.49918035  0.70503771  0.74850846  1
  S  S46  1  0.35448031  0.00284088  0.74779778  1
  S  S47  1  0.85149869  -0.00005576  0.75231251  1
  S  S48  1  0.47875282  0.33202719  0.58530817  1
  S  S49  1  0.97812381  0.33676963  0.58011293  1
  S  S50  1  0.18793536  0.03786416  0.58182224  1
  S  S51  1  0.33351912  0.62714530  0.58466821  1
  S  S52  1  0.83224634  0.61889355  0.58120146  1
  S  S53  1  0.47751792  0.61935992  0.08044131  1
  S  S54  1  0.97794268  0.62559232  0.08487137  1
  S  S55  1  0.33330797  0.04691924  0.08135126  1
  S  S56  1  0.83380344  0.03861805  0.08449629  1
  S  S57  1  0.68787552  0.33589742  0.08214330  1
  S  S58  1  0.30786594  0.66367250  0.91899281  1
  S  S59  1  0.80992937  0.67145207  0.91441395  1
  S  S60  1  0.02460349  0.38061423  0.91472215  1
  S  S61  1  0.66763867  0.94957838  0.91700701  1
  S  S62  1  0.31037661  0.94812334  0.41410969  1
  S  S63  1  0.80813033  0.95194269  0.41867377  1
  S  S64  1  0.16733381  0.38490253  0.41692473  1
  S  S65  1  0.52491029  0.66917902  0.41441125  1
  O  O66  1  0.11643370  0.05324587  0.30636097  1
  O  O67  1  0.60090453  0.03289583  0.30600312  1
  O  O68  1  0.40942266  0.79124381  0.30274032  1
  O  O69  1  0.90282319  0.76876570  0.29962865  1
  O  O70  1  0.48339329  0.17910386  0.30214616  1
  O  O71  1  0.97740955  0.18958289  0.29999736  1
  O  O72  1  0.10079157  0.16912847  0.80602573  1
  O  O73  1  0.61563800  0.19174965  0.79939533  1
  O  O74  1  0.48155803  0.77133055  0.79955412  1
  O  O75  1  0.98208162  0.78552117  0.80222683  1
  O  O76  1  0.40491332  0.03849144  0.79917194  1
  O  O77  1  0.90755854  0.02977037  0.80246381  1
  O  O78  1  0.39732913  0.97675364  0.69761580  1
  O  O79  1  0.88346885  0.96743592  0.70025145  1
  O  O80  1  0.09460909  0.22417934  0.69332747  1
  O  O81  1  0.59272508  0.21044214  0.69834668  1
  O  O82  1  0.01314571  0.79980200  0.70006421  1
  O  O83  1  0.51201197  0.81771920  0.69807024  1
  O  O84  1  0.38424014  0.80281292  0.20069189  1
  O  O85  1  0.89423136  0.81532082  0.19723005  1
  O  O86  1  0.00935352  0.20484518  0.19784064  1
  O  O87  1  0.51469196  0.22650986  0.20000451  1
  O  O88  1  0.08677888  0.97420027  0.19483158  1
  O  O89  1  0.59493281  0.96494076  0.19309008  1
  O  O90  1  0.43633499  0.35995637  0.63561795  1
  O  O91  1  0.93817661  0.36292818  0.63407544  1
  O  O92  1  0.24255307  0.12625416  0.63429117  1
  O  O93  1  0.75019665  0.13697599  0.63904144  1
  O  O94  1  0.32039280  0.51312881  0.63550594  1
  O  O95  1  0.82141022  0.51222209  0.63410358  1
  O  O96  1  0.44104195  0.51711324  0.13323268  1
  O  O97  1  0.93573062  0.51228208  0.13471623  1
  O  O98  1  0.32230506  0.12912464  0.13319517  1
  O  O99  1  0.81844661  0.12587506  0.13456280  1
  O  O100  1  0.25044104  0.36698240  0.13782045  1
  O  O101  1  0.74236192  0.35845367  0.13368327  1
  O  O102  1  0.23636165  0.30672480  0.02772002  1
  O  O103  1  0.72738576  0.31171639  0.03129861  1
  O  O104  1  0.42424438  0.52753762  0.03048668  1
  O  O105  1  0.92858219  0.55619682  0.03285320  1
  O  O106  1  0.34419951  0.15384478  0.03013293  1
  O  O107  1  0.85103740  0.14328458  0.03357096  1
  O  O108  1  0.22831926  0.14426209  0.53210165  1
  O  O109  1  0.73620270  0.16722830  0.52886386  1
  O  O110  1  0.35284906  0.56063166  0.53447468  1
  O  O111  1  0.84380823  0.53309374  0.53113853  1
  O  O112  1  0.42819580  0.29565035  0.53416614  1
  O  O113  1  0.92341438  0.32004054  0.53135559  1
  O  O114  1  0.26347141  0.68187259  0.96936121  1
  O  O115  1  0.77044407  0.69385340  0.96692435  1
  O  O116  1  0.07452009  0.45634628  0.96738319  1
  O  O117  1  0.58435121  0.48688230  0.97276043  1
  O  O118  1  0.15463603  0.83311293  0.97224902  1
  O  O119  1  0.66304715  0.84957648  0.96877110  1
  O  O120  1  0.27037473  0.84692247  0.46798455  1
  O  O121  1  0.76269266  0.84525415  0.46979577  1
  O  O122  1  0.16434170  0.47983643  0.47001399  1
  O  O123  1  0.65421635  0.47451907  0.47300008  1
  O  O124  1  0.08287348  0.68247169  0.47328777  1
  O  O125  1  0.57554599  0.69356804  0.46786587  1
  O  O126  1  0.06692531  0.63930646  0.36210047  1
  O  O127  1  0.56955220  0.64892863  0.36476408  1
  O  O128  1  0.25459949  0.85898022  0.36454804  1
  O  O129  1  0.75736758  0.87374693  0.36644246  1
  O  O130  1  0.17619895  0.48755946  0.36553360  1
  O  O131  1  0.68088604  0.50128208  0.36135106  1
  O  O132  1  0.06915079  0.48938620  0.86434709  1
  O  O133  1  0.56876730  0.49491298  0.86128117  1
  O  O134  1  0.18128998  0.86232803  0.86049419  1
  O  O135  1  0.67611498  0.86208678  0.86436931  1
  O  O136  1  0.25739341  0.64149473  0.86592153  1
  O  O137  1  0.75356881  0.64890408  0.86358224  1
  O  O138  1  0.00924742  0.83027641  0.42089986  1
  O  O139  1  0.51551906  0.82312070  0.40724501  1
  O  O140  1  0.39470124  0.96035441  0.40668337  1
  O  O141  1  0.89351958  0.97282256  0.41592471  1
  O  O142  1  0.08760838  0.21948653  0.41762609  1
  O  O143  1  0.57962999  0.19318844  0.40687396  1
  O  O144  1  0.01458955  0.20691461  0.90658336  1
  O  O145  1  0.51320392  0.19262517  0.91855759  1
  O  O146  1  0.08055278  0.96663557  0.90674502  1
  O  O147  1  0.58914671  0.95906533  0.91391590  1
  O  O148  1  0.39358932  0.81428408  0.91501340  1
  O  O149  1  0.89408576  0.82737829  0.90512945  1
  O  O150  1  0.49058004  0.18118637  0.59843686  1
  O  O151  1  0.98543185  0.18364313  0.58504255  1
  O  O152  1  0.10127714  0.00935380  0.58891112  1
  O  O153  1  0.59592942  0.02244634  0.59756798  1
  O  O154  1  0.40870441  0.80069663  0.59881544  1
  O  O155  1  0.90700948  0.78904013  0.58686334  1
  O  O156  1  0.48652674  0.78965414  0.08313380  1
  O  O157  1  0.98782990  0.79721138  0.09524118  1
  O  O158  1  0.40803229  0.02466538  0.08518000  1
  O  O159  1  0.90670084  0.01360618  0.09805271  1
  O  O160  1  0.09452041  0.17121631  0.09422655  1
  O  O161  1  0.60090942  0.19196090  0.08841857  1
  O  O162  1  0.34318411  0.15555316  0.73637016  1
  O  O163  1  0.84374081  0.16183935  0.74539813  1
  O  O164  1  0.24519451  0.31577151  0.74320600  1
  O  O165  1  0.73745044  0.32202611  0.73761214  1
  O  O166  1  0.42565581  0.52877757  0.73596025  1
  O  O167  1  0.91967605  0.52562867  0.74595209  1
  O  O168  1  0.34743656  0.53192596  0.24629949  1
  O  O169  1  0.84198322  0.52871823  0.23608845  1
  O  O170  1  0.42262475  0.31678068  0.24585303  1
  O  O171  1  0.92465374  0.32333330  0.23582757  1
  O  O172  1  0.24686918  0.16679089  0.23683125  1
  O  O173  1  0.74503442  0.17432415  0.24323864  1
  O  O174  1  0.31516311  0.50625775  0.92395481  1
  O  O175  1  0.81806606  0.51704043  0.91718801  1
  O  O176  1  0.42838488  0.37185020  0.92454508  1
  O  O177  1  0.93867185  0.36242868  0.91738320  1
  O  O178  1  0.25050297  0.14404927  0.92239035  1
  O  O179  1  0.74534610  0.12078583  0.91818318  1
  O  O180  1  0.31948191  0.11924408  0.41877754  1
  O  O181  1  0.81441834  0.12348824  0.42478008  1
  O  O182  1  0.24430078  0.36733295  0.42056783  1
  O  O183  1  0.74934179  0.35617656  0.42263579  1
  O  O184  1  0.43960267  0.51584184  0.41864571  1
  O  O185  1  0.92749950  0.48432984  0.42597935  1
  O  O186  1  0.17805600  0.50295449  0.06990154  1
  O  O187  1  0.68548461  0.50083506  0.07658642  1
  O  O188  1  0.06486471  0.64367733  0.07796759  1
  O  O189  1  0.56588706  0.63984500  0.07295306  1
  O  O190  1  0.25385339  0.87573777  0.07411298  1
  O  O191  1  0.75498722  0.86811551  0.07629633  1
  O  O192  1  0.18606016  0.86996219  0.57681416  1
  O  O193  1  0.67672107  0.85200786  0.57178728  1
  O  O194  1  0.25675108  0.64468102  0.57812534  1
  O  O195  1  0.75283718  0.62976088  0.57502452  1
  O  O196  1  0.06465566  0.49296215  0.57462146  1
  O  O197  1  0.56514668  0.48606924  0.57831689  1
  O  O198  1  0.15885926  0.83314147  0.25802063  1
  O  O199  1  0.66327425  0.84184949  0.26746585  1
  O  O200  1  0.26495945  0.67338893  0.26524577  1
  O  O201  1  0.76628839  0.68300756  0.25461831  1
  O  O202  1  0.07707499  0.46174248  0.25478777  1
  O  O203  1  0.57494745  0.46642741  0.26351131  1
  O  O204  1  0.16366250  0.48559739  0.76704357  1
  O  O205  1  0.65785230  0.46847182  0.75620756  1
  O  O206  1  0.07281444  0.67917364  0.76356754  1
  O  O207  1  0.57840006  0.69127889  0.75516022  1
  O  O208  1  0.26795047  0.84927715  0.75443028  1
  O  O209  1  0.76380695  0.85347842  0.76429649  1
