# generated using pymatgen
data_NaTaSiGe(PO6)2
_symmetry_space_group_name_H-M   'P 1'
_cell_length_a   8.63253321
_cell_length_b   8.62451237
_cell_length_c   22.24997240
_cell_angle_alpha   90.43976087
_cell_angle_beta   90.00000000
_cell_angle_gamma   120.03076911
_symmetry_Int_Tables_number   1
_chemical_formula_structural   NaTaSiGe(PO6)2
_chemical_formula_sum   'Na6 Ta6 Si6 Ge6 P12 O72'
_cell_volume   1434.10553518
_cell_formula_units_Z   6
loop_
 _symmetry_equiv_pos_site_id
 _symmetry_equiv_pos_as_xyz
  1  'x, y, z'
loop_
 _atom_site_type_symbol
 _atom_site_label
 _atom_site_symmetry_multiplicity
 _atom_site_fract_x
 _atom_site_fract_y
 _atom_site_fract_z
 _atom_site_occupancy
  Na  Na0  1  0.00089402  0.00573932  0.49527068  1
  Na  Na1  1  0.00484530  0.00573932  0.99527068  1
  Na  Na2  1  0.67108473  0.33529032  0.82882177  1
  Na  Na3  1  0.66420659  0.33529032  0.32882177  1
  Na  Na4  1  0.33739959  0.66789604  0.16195674  1
  Na  Na5  1  0.33049544  0.66789604  0.66195674  1
  Ta  Ta6  1  0.00227142  0.00027616  0.64239195  1
  Ta  Ta7  1  0.99800475  0.00027616  0.14239195  1
  Ta  Ta8  1  0.66427236  0.33218805  0.97588312  1
  Ta  Ta9  1  0.66791669  0.33218805  0.47588312  1
  Ta  Ta10  1  0.33584847  0.66251986  0.30904739  1
  Ta  Ta11  1  0.32667039  0.66251986  0.80904739  1
  Si  Si12  1  0.72419900  0.71013215  0.25148534  1
  Si  Si13  1  0.98593315  0.71013215  0.75148534  1
  Si  Si14  1  0.96018942  0.34713012  0.58447102  1
  Si  Si15  1  0.38694170  0.34713012  0.08447102  1
  Si  Si16  1  0.05218445  0.37076470  0.91712194  1
  Si  Si17  1  0.31857925  0.37076470  0.41712194  1
  Ge  Ge18  1  0.00087446  0.99937133  0.35362798  1
  Ge  Ge19  1  0.99849687  0.99937133  0.85362798  1
  Ge  Ge20  1  0.67586350  0.33986044  0.68733739  1
  Ge  Ge21  1  0.66399794  0.33986044  0.18733739  1
  Ge  Ge22  1  0.33151981  0.65676158  0.02038562  1
  Ge  Ge23  1  0.32524077  0.65676158  0.52038562  1
  P  P24  1  0.29048864  0.01045296  0.25073528  1
  P  P25  1  0.98426693  0.27800065  0.25050858  1
  P  P26  1  0.29373372  0.27800065  0.75050858  1
  P  P27  1  0.71996432  0.01045296  0.75073528  1
  P  P28  1  0.39135846  0.04489414  0.58418044  1
  P  P29  1  0.65397408  0.61229887  0.58459422  1
  P  P30  1  0.95832579  0.61229887  0.08459422  1
  P  P31  1  0.65353668  0.04489414  0.08418044  1
  P  P32  1  0.62378094  0.67887588  0.91777225  1
  P  P33  1  0.32147500  0.94160005  0.91862234  1
  P  P34  1  0.62012404  0.94160005  0.41862234  1
  P  P35  1  0.05509394  0.67887588  0.41777225  1
  O  O36  1  0.20925186  0.04450476  0.30757227  1
  O  O37  1  0.84355374  0.80392562  0.31125266  1
  O  O38  1  0.95917504  0.16776362  0.30722197  1
  O  O39  1  0.20858857  0.16776362  0.80722197  1
  O  O40  1  0.96037188  0.80392562  0.81125266  1
  O  O41  1  0.83525290  0.04450476  0.80757227  1
  O  O42  1  0.80563457  0.98027110  0.69404265  1
  O  O43  1  0.17466157  0.20065511  0.69392509  1
  O  O44  1  0.02342562  0.83215585  0.69207319  1
  O  O45  1  0.80873023  0.83215585  0.19207319  1
  O  O46  1  0.02599353  0.20065511  0.19392509  1
  O  O47  1  0.17463653  0.98027110  0.19404265  1
  O  O48  1  0.86782549  0.37506420  0.64393071  1
  O  O49  1  0.50213284  0.13167540  0.64129469  1
  O  O50  1  0.62170473  0.49860962  0.64105714  1
  O  O51  1  0.87690590  0.49860962  0.14105714  1
  O  O52  1  0.62954357  0.13167540  0.14129469  1
  O  O53  1  0.50723972  0.37506420  0.14393071  1
  O  O54  1  0.47262875  0.30931574  0.02470816  1
  O  O55  1  0.84214687  0.52837334  0.02780647  1
  O  O56  1  0.69213939  0.16181670  0.02770650  1
  O  O57  1  0.46967831  0.16181670  0.52770650  1
  O  O58  1  0.68622746  0.52837334  0.52780647  1
  O  O59  1  0.83668798  0.30931574  0.52470816  1
  O  O60  1  0.54139560  0.70987291  0.97478208  1
  O  O61  1  0.17332652  0.46238549  0.97663588  1
  O  O62  1  0.29763647  0.83030221  0.97496664  1
  O  O63  1  0.53266474  0.83030221  0.47496664  1
  O  O64  1  0.28905798  0.46238549  0.47663588  1
  O  O65  1  0.16847631  0.70987291  0.47478208  1
  O  O66  1  0.13647397  0.64526557  0.36112571  1
  O  O67  1  0.50397380  0.86222664  0.36137187  1
  O  O68  1  0.35530396  0.49515489  0.35773459  1
  O  O69  1  0.13984993  0.49515489  0.85773459  1
  O  O70  1  0.35825184  0.86222664  0.86137187  1
  O  O71  1  0.50879060  0.64526557  0.86112571  1
  O  O72  1  0.03160661  0.84291404  0.41125723  1
  O  O73  1  0.80568077  0.96226556  0.41116370  1
  O  O74  1  0.14192096  0.17539382  0.40759388  1
  O  O75  1  0.03347286  0.17539382  0.90759388  1
  O  O76  1  0.15658479  0.96226556  0.91116370  1
  O  O77  1  0.81130742  0.84291404  0.91125723  1
  O  O78  1  0.98081347  0.16815205  0.58967011  1
  O  O79  1  0.20125775  0.02402990  0.58981471  1
  O  O80  1  0.82734976  0.79936966  0.58984959  1
  O  O81  1  0.97201990  0.79936966  0.08984959  1
  O  O82  1  0.82277215  0.02402990  0.08981471  1
  O  O83  1  0.18733858  0.16815205  0.08967011  1
  O  O84  1  0.69206717  0.17147431  0.74319764  1
  O  O85  1  0.47622480  0.29265459  0.74151373  1
  O  O86  1  0.80926807  0.51352786  0.74453812  1
  O  O87  1  0.70426079  0.51352786  0.24453812  1
  O  O88  1  0.81643079  0.29265459  0.24151373  1
  O  O89  1  0.47940815  0.17147431  0.24319764  1
  O  O90  1  0.64088227  0.50726365  0.92338188  1
  O  O91  1  0.85388946  0.35169794  0.92266662  1
  O  O92  1  0.49242316  0.13093784  0.92344766  1
  O  O93  1  0.63851568  0.13093784  0.42344766  1
  O  O94  1  0.49780947  0.35169794  0.42266662  1
  O  O95  1  0.86638238  0.50726365  0.42338188  1
  O  O96  1  0.37071130  0.52572386  0.07729809  1
  O  O97  1  0.14752671  0.64157968  0.07669213  1
  O  O98  1  0.48605284  0.86069841  0.07544234  1
  O  O99  1  0.37464457  0.86069841  0.57544234  1
  O  O100  1  0.49405197  0.64157968  0.57669213  1
  O  O101  1  0.15501157  0.52572386  0.57729809  1
  O  O102  1  0.30208367  0.83695728  0.25653132  1
  O  O103  1  0.52450966  0.69204720  0.25618173  1
  O  O104  1  0.15137923  0.46992096  0.25633719  1
  O  O105  1  0.31854073  0.46992096  0.75633719  1
  O  O106  1  0.16753654  0.69204720  0.75618173  1
  O  O107  1  0.53487261  0.83695728  0.75653132  1
