# generated using pymatgen
data_Na6Ti4Si7Ge4S5O48
_symmetry_space_group_name_H-M   'P 1'
_cell_length_a   17.31846104
_cell_length_b   8.66119582
_cell_length_c   22.17326423
_cell_angle_alpha   89.93965963
_cell_angle_beta   89.76018693
_cell_angle_gamma   119.99567162
_symmetry_Int_Tables_number   1
_chemical_formula_structural   Na6Ti4Si7Ge4S5O48
_chemical_formula_sum   'Na18 Ti12 Si21 Ge12 S15 O144'
_cell_volume   2880.44568202
_cell_formula_units_Z   3
loop_
 _symmetry_equiv_pos_site_id
 _symmetry_equiv_pos_as_xyz
  1  'x, y, z'
loop_
 _atom_site_type_symbol
 _atom_site_label
 _atom_site_symmetry_multiplicity
 _atom_site_fract_x
 _atom_site_fract_y
 _atom_site_fract_z
 _atom_site_occupancy
  Na  Na0  1  0.00002774  0.63005400  0.25150740  1
  Na  Na1  1  0.49749193  0.63806170  0.24640751  1
  Na  Na2  1  0.99863548  0.35751416  0.75096589  1
  Na  Na3  1  0.49962489  0.37188957  0.75273113  1
  Na  Na4  1  0.66443914  0.30842190  0.91758333  1
  Na  Na5  1  0.16513463  0.02260200  0.41470880  1
  Na  Na6  1  0.99728242  0.99034980  0.50212480  1
  Na  Na7  1  0.49681317  0.99383213  0.49781016  1
  Na  Na8  1  0.99773876  0.00056391  0.99903404  1
  Na  Na9  1  0.49643916  0.99795039  0.00447493  1
  Na  Na10  1  0.33142859  0.33530072  0.83450659  1
  Na  Na11  1  0.83392676  0.32956876  0.83514700  1
  Na  Na12  1  0.33283364  0.33770438  0.33015395  1
  Na  Na13  1  0.83224946  0.32739819  0.33165298  1
  Na  Na14  1  0.17392643  0.66943059  0.16805025  1
  Na  Na15  1  0.67078328  0.66847850  0.16176976  1
  Na  Na16  1  0.17479671  0.67784142  0.66499119  1
  Na  Na17  1  0.67222810  0.67740754  0.66945727  1
  Ti  Ti18  1  0.99867497  0.99126903  0.34876492  1
  Ti  Ti19  1  0.49801340  0.00393783  0.85009480  1
  Ti  Ti20  1  0.32329134  0.31999087  0.69356051  1
  Ti  Ti21  1  0.82505014  0.33307602  0.68835583  1
  Ti  Ti22  1  0.33295728  0.32778690  0.18413240  1
  Ti  Ti23  1  0.82373493  0.32548860  0.19315463  1
  Ti  Ti24  1  0.83289146  0.34142414  0.97818544  1
  Ti  Ti25  1  0.33333945  0.32488929  0.47696778  1
  Ti  Ti26  1  0.16717105  0.67800295  0.30661358  1
  Ti  Ti27  1  0.66392224  0.67489032  0.30852421  1
  Ti  Ti28  1  0.16728545  0.65489808  0.81186476  1
  Ti  Ti29  1  0.66724330  0.65826537  0.80893082  1
  Si  Si30  1  0.14662416  0.01103887  0.24750966  1
  Si  Si31  1  0.63575174  0.00604384  0.25089466  1
  Si  Si32  1  0.35721336  0.71590681  0.24717459  1
  Si  Si33  1  0.85348816  0.71341389  0.24816966  1
  Si  Si34  1  -0.00010798  0.28463431  0.24933544  1
  Si  Si35  1  0.13547563  0.26775594  0.75101271  1
  Si  Si36  1  0.64246286  0.28187425  0.74861114  1
  Si  Si37  1  0.50002321  0.71485715  0.74917597  1
  Si  Si38  1  0.35266476  0.99268039  0.74886605  1
  Si  Si39  1  0.85733781  0.99717968  0.74715713  1
  Si  Si40  1  0.18572459  0.04137554  0.58406349  1
  Si  Si41  1  0.83133539  0.62946321  0.58266509  1
  Si  Si42  1  0.48231540  0.62253726  0.08132681  1
  Si  Si43  1  0.33061398  0.03318490  0.08283513  1
  Si  Si44  1  0.68622442  0.32822091  0.08469337  1
  Si  Si45  1  0.81303214  0.68107575  0.91702768  1
  Si  Si46  1  0.02547084  0.38489925  0.91995786  1
  Si  Si47  1  0.51816438  0.37580042  0.91615505  1
  Si  Si48  1  0.31654164  0.95194228  0.41391561  1
  Si  Si49  1  0.01879944  0.65958035  0.41690399  1
  Si  Si50  1  0.52613687  0.66894507  0.41961130  1
  Ge  Ge51  1  0.49452809  0.96477311  0.35478849  1
  Ge  Ge52  1  0.99458653  0.02554480  0.85710599  1
  Ge  Ge53  1  0.99782406  0.99660503  0.64480396  1
  Ge  Ge54  1  0.49575991  0.99209994  0.65667259  1
  Ge  Ge55  1  0.99775224  0.00286241  0.15545207  1
  Ge  Ge56  1  0.49560140  0.97829907  0.13903133  1
  Ge  Ge57  1  0.34954735  0.33524886  0.98543487  1
  Ge  Ge58  1  0.84029230  0.35755530  0.48203476  1
  Ge  Ge59  1  0.16736812  0.67056242  0.01915050  1
  Ge  Ge60  1  0.66356546  0.63772152  0.02115765  1
  Ge  Ge61  1  0.17397880  0.70183478  0.51574199  1
  Ge  Ge62  1  0.66740486  0.66267812  0.51816404  1
  S  S63  1  0.49999994  0.28084683  0.25104670  1
  S  S64  1  0.00043143  0.71627562  0.75044661  1
  S  S65  1  0.48051552  0.33100949  0.58343939  1
  S  S66  1  0.97978568  0.33643679  0.58164636  1
  S  S67  1  0.68782976  0.04430051  0.58112359  1
  S  S68  1  0.33385380  0.62726843  0.58289267  1
  S  S69  1  0.98034595  0.62985988  0.08354127  1
  S  S70  1  0.83600541  0.04389858  0.08352314  1
  S  S71  1  0.18672858  0.32986991  0.08099858  1
  S  S72  1  0.31005587  0.66104576  0.91900379  1
  S  S73  1  0.16705262  0.95788312  0.91709745  1
  S  S74  1  0.66558715  0.94902773  0.91813898  1
  S  S75  1  0.81012761  0.95886499  0.41949116  1
  S  S76  1  0.16564175  0.38471664  0.41931628  1
  S  S77  1  0.66739333  0.37628923  0.41774288  1
  O  O78  1  0.10226789  0.03565014  0.31030176  1
  O  O79  1  0.59724180  0.04346797  0.31304411  1
  O  O80  1  0.41965425  0.78708223  0.30831009  1
  O  O81  1  0.91853327  0.79754210  0.30695784  1
  O  O82  1  0.48601238  0.17758052  0.30664783  1
  O  O83  1  0.98172550  0.15880415  0.30884488  1
  O  O84  1  0.09504036  0.14773618  0.81182499  1
  O  O85  1  0.60228875  0.16753650  0.81038195  1
  O  O86  1  0.48130878  0.80421046  0.80799371  1
  O  O87  1  0.98330984  0.78948970  0.80458012  1
  O  O88  1  0.41882023  0.03965422  0.80654186  1
  O  O89  1  0.92126153  0.05428832  0.80722725  1
  O  O90  1  0.39369640  0.95605295  0.68771206  1
  O  O91  1  0.90147803  0.95999149  0.68819107  1
  O  O92  1  0.07412217  0.19446484  0.69094348  1
  O  O93  1  0.57845156  0.19920434  0.68910839  1
  O  O94  1  0.01707186  0.82234841  0.69443348  1
  O  O95  1  0.52207721  0.83767722  0.68762024  1
  O  O96  1  0.40125577  0.84555186  0.18954317  1
  O  O97  1  0.89527385  0.83432085  0.18778971  1
  O  O98  1  0.02198674  0.20649200  0.18849652  1
  O  O99  1  0.51685531  0.21041801  0.19618079  1
  O  O100  1  0.07799949  0.95670478  0.18987017  1
  O  O101  1  0.57414955  0.95343601  0.19180908  1
  O  O102  1  0.44343087  0.36155796  0.63849856  1
  O  O103  1  0.93969411  0.36451522  0.63639742  1
  O  O104  1  0.25141332  0.13981766  0.64097183  1
  O  O105  1  0.74254193  0.12422267  0.63582416  1
  O  O106  1  0.32210072  0.52202511  0.63778550  1
  O  O107  1  0.81477521  0.49613388  0.64013827  1
  O  O108  1  0.43685277  0.49909606  0.14159609  1
  O  O109  1  0.94340581  0.52552525  0.13870657  1
  O  O110  1  0.31063853  0.12731177  0.14014266  1
  O  O111  1  0.82511677  0.12846612  0.13814899  1
  O  O112  1  0.24087301  0.36060488  0.13585542  1
  O  O113  1  0.75290185  0.36009616  0.14105496  1
  O  O114  1  0.22785524  0.30232774  0.02596711  1
  O  O115  1  0.73422845  0.30112026  0.02397666  1
  O  O116  1  0.41468894  0.53682612  0.02327061  1
  O  O117  1  0.92481867  0.54306978  0.02960848  1
  O  O118  1  0.34699342  0.15429796  0.02206602  1
  O  O119  1  0.85032841  0.15393580  0.02891414  1
  O  O120  1  0.23274318  0.16195355  0.52340275  1
  O  O121  1  0.73127201  0.15682427  0.52606970  1
  O  O122  1  0.34814634  0.54662843  0.52862636  1
  O  O123  1  0.84954027  0.53798354  0.52368929  1
  O  O124  1  0.42493800  0.30659574  0.52965319  1
  O  O125  1  0.92085169  0.30215576  0.52720951  1
  O  O126  1  0.27094038  0.69741943  0.97347129  1
  O  O127  1  0.76732623  0.71209290  0.97700164  1
  O  O128  1  0.09055951  0.48181093  0.97741447  1
  O  O129  1  0.58480527  0.46009292  0.97396300  1
  O  O130  1  0.15274302  0.84621531  0.97269044  1
  O  O131  1  0.65291919  0.84472833  0.97327462  1
  O  O132  1  0.27623015  0.83429275  0.47625308  1
  O  O133  1  0.77119903  0.84478304  0.47481655  1
  O  O134  1  0.15255532  0.46516071  0.47522383  1
  O  O135  1  0.65422570  0.45938283  0.47398270  1
  O  O136  1  0.08474757  0.70316102  0.47615692  1
  O  O137  1  0.59025958  0.70059839  0.47819150  1
  O  O138  1  0.06199358  0.63046037  0.35635625  1
  O  O139  1  0.56916102  0.63340729  0.35925445  1
  O  O140  1  0.24642292  0.86605771  0.35962028  1
  O  O141  1  0.75591967  0.87721315  0.36537808  1
  O  O142  1  0.18036426  0.48944588  0.36479539  1
  O  O143  1  0.68553347  0.49016120  0.36455910  1
  O  O144  1  0.06852508  0.50292719  0.85826469  1
  O  O145  1  0.56227134  0.49259431  0.85519419  1
  O  O146  1  0.18314357  0.87584884  0.86328841  1
  O  O147  1  0.68021539  0.87341508  0.86315761  1
  O  O148  1  0.25554586  0.63957389  0.86403615  1
  O  O149  1  0.74710342  0.63055668  0.85933697  1
  O  O150  1  0.01125356  0.84148610  0.41384925  1
  O  O151  1  0.51858852  0.84856634  0.41431720  1
  O  O152  1  0.41785434  0.98879606  0.40618054  1
  O  O153  1  0.89948731  0.98056923  0.41445733  1
  O  O154  1  0.08731169  0.20201992  0.41614717  1
  O  O155  1  0.58737420  0.20316222  0.41399479  1
  O  O156  1  0.01926429  0.19081044  0.91476054  1
  O  O157  1  0.51068972  0.17866023  0.91149459  1
  O  O158  1  0.08489862  0.96713504  0.91224137  1
  O  O159  1  0.58721892  0.97559470  0.91384377  1
  O  O160  1  0.39896007  0.81952845  0.91296632  1
  O  O161  1  0.91515889  0.84685951  0.90687119  1
  O  O162  1  0.48950602  0.16784803  0.58653930  1
  O  O163  1  0.98607226  0.17232656  0.58497265  1
  O  O164  1  0.08768426  0.02296047  0.59272818  1
  O  O165  1  0.59900929  0.02925578  0.58562759  1
  O  O166  1  0.41591913  0.81111041  0.58713906  1
  O  O167  1  0.92018147  0.82280409  0.59032846  1
  O  O168  1  0.48785556  0.81373782  0.08570347  1
  O  O169  1  0.98916244  0.81044193  0.08642525  1
  O  O170  1  0.42015233  0.02269312  0.09028551  1
  O  O171  1  0.91911521  0.02673748  0.08751565  1
  O  O172  1  0.09666639  0.16716159  0.08648102  1
  O  O173  1  0.58847446  0.15651269  0.09319947  1
  O  O174  1  0.34909008  0.17613778  0.74281199  1
  O  O175  1  0.85181110  0.18079066  0.73650931  1
  O  O176  1  0.23666239  0.30509784  0.74477061  1
  O  O177  1  0.74127697  0.30283148  0.74341567  1
  O  O178  1  0.41382725  0.51700377  0.73904314  1
  O  O179  1  0.92225980  0.53111415  0.74303197  1
  O  O180  1  0.34974588  0.52076639  0.23980371  1
  O  O181  1  0.84934242  0.52247668  0.24284493  1
  O  O182  1  0.42172498  0.30915004  0.24665458  1
  O  O183  1  0.91440687  0.31197646  0.24038623  1
  O  O184  1  0.24417474  0.18376646  0.24319842  1
  O  O185  1  0.73752801  0.16888761  0.24557727  1
  O  O186  1  0.31278301  0.49431651  0.92354870  1
  O  O187  1  0.82013925  0.49686808  0.92563148  1
  O  O188  1  0.41906827  0.35851338  0.92147236  1
  O  O189  1  0.92610888  0.35764523  0.92773767  1
  O  O190  1  0.24647195  0.13836534  0.92353314  1
  O  O191  1  0.74682276  0.13446112  0.92206160  1
  O  O192  1  0.32128408  0.14699563  0.42494296  1
  O  O193  1  0.81469849  0.13505347  0.42699386  1
  O  O194  1  0.24664848  0.36170487  0.42404181  1
  O  O195  1  0.74873272  0.35537057  0.42500485  1
  O  O196  1  0.42666638  0.49657020  0.42930504  1
  O  O197  1  0.92004949  0.47535440  0.42361789  1
  O  O198  1  0.17810700  0.49379989  0.07658741  1
  O  O199  1  0.68455261  0.51476715  0.07880408  1
  O  O200  1  0.07064237  0.64674460  0.07612179  1
  O  O201  1  0.58247927  0.64955785  0.07214282  1
  O  O202  1  0.23991429  0.83414823  0.07259530  1
  O  O203  1  0.75508480  0.86756488  0.07865006  1
  O  O204  1  0.17860912  0.84291670  0.57816092  1
  O  O205  1  0.68031885  0.86572855  0.57671000  1
  O  O206  1  0.25049814  0.63920476  0.57769034  1
  O  O207  1  0.74057637  0.64542658  0.57259934  1
  O  O208  1  0.06943515  0.49488309  0.57478330  1
  O  O209  1  0.57113863  0.49466867  0.57611862  1
  O  O210  1  0.15088235  0.82782240  0.25311929  1
  O  O211  1  0.64826504  0.82703256  0.25943675  1
  O  O212  1  0.25963549  0.69212432  0.25819538  1
  O  O213  1  0.75599269  0.68981057  0.25971879  1
  O  O214  1  0.08638297  0.48167280  0.25670018  1
  O  O215  1  0.58061418  0.46770894  0.25678478  1
  O  O216  1  0.14804255  0.47077169  0.75879587  1
  O  O217  1  0.65138943  0.47620209  0.75274671  1
  O  O218  1  0.08009202  0.69304690  0.75523754  1
  O  O219  1  0.58624097  0.69045729  0.75602033  1
  O  O220  1  0.25478134  0.82186869  0.75867661  1
  O  O221  1  0.75950095  0.82913342  0.75704239  1
