# generated using pymatgen
data_Na2La3Nb5(PO4)12
_symmetry_space_group_name_H-M   'P 1'
_cell_length_a   18.04064201
_cell_length_b   9.03033332
_cell_length_c   23.48785648
_cell_angle_alpha   89.96435111
_cell_angle_beta   90.10460590
_cell_angle_gamma   119.96487582
_symmetry_Int_Tables_number   1
_chemical_formula_structural   Na2La3Nb5(PO4)12
_chemical_formula_sum   'Na6 La9 Nb15 P36 O144'
_cell_volume   3314.99318933
_cell_formula_units_Z   3
loop_
 _symmetry_equiv_pos_site_id
 _symmetry_equiv_pos_as_xyz
  1  'x, y, z'
loop_
 _atom_site_type_symbol
 _atom_site_label
 _atom_site_symmetry_multiplicity
 _atom_site_fract_x
 _atom_site_fract_y
 _atom_site_fract_z
 _atom_site_occupancy
  Na  Na0  1  0.33169465  0.32953229  0.83229057  1
  Na  Na1  1  0.83503549  0.33761233  0.83281626  1
  Na  Na2  1  0.33291668  0.32863577  0.33120681  1
  Na  Na3  1  0.83328717  0.33871155  0.32923579  1
  Na  Na4  1  0.66653118  0.66556308  0.16558505  1
  Na  Na5  1  0.16547253  0.66443786  0.66474601  1
  La  La6  1  0.99067452  0.99701760  0.36333538  1
  La  La7  1  0.34090207  0.33508820  0.69195662  1
  La  La8  1  0.82545486  0.32931913  0.68933309  1
  La  La9  1  0.32977541  0.33038252  0.18808765  1
  La  La10  1  0.83528208  0.33362355  0.18562489  1
  La  La11  1  0.66654657  0.66692509  0.01020251  1
  La  La12  1  0.17402601  0.68087639  0.51652345  1
  La  La13  1  0.66987721  0.66862854  0.31193558  1
  La  La14  1  0.16604033  0.66655502  0.81243613  1
  Nb  Nb15  1  0.50342300  0.00441352  0.35726144  1
  Nb  Nb16  1  0.00332613  0.00243099  0.85661637  1
  Nb  Nb17  1  0.49651555  0.99645577  0.85663271  1
  Nb  Nb18  1  0.99625371  0.99619247  0.64205366  1
  Nb  Nb19  1  0.50457571  0.00563602  0.64180113  1
  Nb  Nb20  1  0.00494484  0.00427048  0.14603356  1
  Nb  Nb21  1  0.49577780  0.99626360  0.14367759  1
  Nb  Nb22  1  0.33624238  0.33819848  0.98503682  1
  Nb  Nb23  1  0.83082492  0.32728077  0.98457660  1
  Nb  Nb24  1  0.33075819  0.33484680  0.48186280  1
  Nb  Nb25  1  0.83732641  0.33760414  0.48418030  1
  Nb  Nb26  1  0.16593228  0.66597571  0.01596954  1
  Nb  Nb27  1  0.66249815  0.66316972  0.51778596  1
  Nb  Nb28  1  0.16640735  0.66506015  0.31077428  1
  Nb  Nb29  1  0.66779706  0.66782506  0.81144466  1
  P  P30  1  0.13961581  0.98335632  0.25215574  1
  P  P31  1  0.63493370  0.99550357  0.24996107  1
  P  P32  1  0.35852573  0.72689430  0.25522806  1
  P  P33  1  0.85306181  0.71915985  0.24453061  1
  P  P34  1  0.01021864  0.29981922  0.25018402  1
  P  P35  1  0.50135784  0.27471918  0.24972413  1
  P  P36  1  0.13532703  0.27292441  0.74932604  1
  P  P37  1  0.63440195  0.28529340  0.75422163  1
  P  P38  1  0.00058527  0.72803953  0.74913625  1
  P  P39  1  0.50876119  0.73310914  0.75401659  1
  P  P40  1  0.36319573  0.99078801  0.74867536  1
  P  P41  1  0.85812903  0.99043405  0.75466960  1
  P  P42  1  0.48058041  0.32914998  0.57952197  1
  P  P43  1  0.97777251  0.32680539  0.58658675  1
  P  P44  1  0.18306539  0.05094164  0.58504971  1
  P  P45  1  0.68652698  0.03385998  0.58166059  1
  P  P46  1  0.34078666  0.63216957  0.58658260  1
  P  P47  1  0.83145419  0.62999895  0.58010506  1
  P  P48  1  0.47998428  0.63427779  0.08532136  1
  P  P49  1  0.98281284  0.63532321  0.07885297  1
  P  P50  1  0.33192899  0.03416059  0.07985934  1
  P  P51  1  0.84007044  0.03761618  0.08402438  1
  P  P52  1  0.18573719  0.33772817  0.08074143  1
  P  P53  1  0.67878103  0.31836365  0.08280054  1
  P  P54  1  0.31514176  0.66241420  0.91867505  1
  P  P55  1  0.81598985  0.65838291  0.91204797  1
  P  P56  1  0.01537513  0.36767428  0.91854265  1
  P  P57  1  0.51379239  0.37029421  0.91196131  1
  P  P58  1  0.17047627  0.97059091  0.91860830  1
  P  P59  1  0.66976362  0.97121042  0.91214796  1
  P  P60  1  0.31616833  0.97473982  0.41143730  1
  P  P61  1  0.80654657  0.96580148  0.42380941  1
  P  P62  1  0.17880944  0.38806663  0.41544796  1
  P  P63  1  0.66947220  0.37149125  0.41955495  1
  P  P64  1  0.01414184  0.63760943  0.41475172  1
  P  P65  1  0.51621281  0.66307642  0.41869863  1
  O  O66  1  0.09753012  0.00778238  0.30323222  1
  O  O67  1  0.58659008  0.99256705  0.30595645  1
  O  O68  1  0.41535610  0.82525492  0.30710157  1
  O  O69  1  0.89500219  0.80157877  0.30040941  1
  O  O70  1  0.50739781  0.17735167  0.30313349  1
  O  O71  1  0.99521158  0.19865766  0.30376578  1
  O  O72  1  0.08656585  0.18022944  0.80581510  1
  O  O73  1  0.58190231  0.17379462  0.80456645  1
  O  O74  1  0.50136370  0.82637446  0.80704464  1
  O  O75  1  0.00688744  0.83655208  0.80321303  1
  O  O76  1  0.40826551  0.97684251  0.80345642  1
  O  O77  1  0.91409617  0.00443726  0.80710032  1
  O  O78  1  0.41593111  0.99619950  0.69442247  1
  O  O79  1  0.89749943  0.97104879  0.69899646  1
  O  O80  1  0.08115853  0.16786700  0.69639674  1
  O  O81  1  0.58948146  0.20575188  0.69677710  1
  O  O82  1  0.99741175  0.82229102  0.69373936  1
  O  O83  1  0.51818732  0.83651358  0.69914759  1
  O  O84  1  0.39938785  0.82469533  0.19883380  1
  O  O85  1  0.91390327  0.83312423  0.19213228  1
  O  O86  1  0.01824617  0.20159984  0.19630801  1
  O  O87  1  0.49746812  0.17324765  0.19366218  1
  O  O88  1  0.08922398  0.97415832  0.19496522  1
  O  O89  1  0.58139802  0.99483513  0.19618210  1
  O  O90  1  0.45471654  0.37899715  0.63362384  1
  O  O91  1  0.93771173  0.35423072  0.63878499  1
  O  O92  1  0.23700552  0.13291123  0.63671513  1
  O  O93  1  0.73710672  0.08463766  0.63618242  1
  O  O94  1  0.32964898  0.53148994  0.63962118  1
  O  O95  1  0.80600815  0.52259016  0.63318465  1
  O  O96  1  0.44335631  0.52673703  0.13799500  1
  O  O97  1  0.95649966  0.52711121  0.13134586  1
  O  O98  1  0.30566983  0.09109809  0.13214049  1
  O  O99  1  0.82252016  0.10626222  0.13762657  1
  O  O100  1  0.23866179  0.39336369  0.13406925  1
  O  O101  1  0.73241620  0.35068407  0.13545734  1
  O  O102  1  0.23713549  0.31004386  0.03134034  1
  O  O103  1  0.73191725  0.30134079  0.02974276  1
  O  O104  1  0.42085624  0.52909487  0.03229273  1
  O  O105  1  0.91610973  0.53294405  0.02880887  1
  O  O106  1  0.34938995  0.16461699  0.02949623  1
  O  O107  1  0.84525552  0.16194521  0.03203091  1
  O  O108  1  0.23218519  0.16304053  0.53014726  1
  O  O109  1  0.73348883  0.16323923  0.53312155  1
  O  O110  1  0.34710838  0.53240174  0.53309001  1
  O  O111  1  0.85058530  0.53725738  0.53046152  1
  O  O112  1  0.41626761  0.29515668  0.52988183  1
  O  O113  1  0.91989500  0.30978403  0.53298079  1
  O  O114  1  0.26603871  0.69167369  0.96734771  1
  O  O115  1  0.79132654  0.71092011  0.96602001  1
  O  O116  1  0.08005846  0.46787119  0.96712969  1
  O  O117  1  0.56365310  0.41653043  0.96640426  1
  O  O118  1  0.15510863  0.84167914  0.96713319  1
  O  O119  1  0.64360681  0.87105184  0.96644944  1
  O  O120  1  0.29402695  0.87699174  0.46665848  1
  O  O121  1  0.74745300  0.83558212  0.46947349  1
  O  O122  1  0.16662677  0.45590956  0.47015887  1
  O  O123  1  0.65265147  0.46745570  0.46819537  1
  O  O124  1  0.06159683  0.66440746  0.46970753  1
  O  O125  1  0.57643822  0.68904549  0.46945873  1
  O  O126  1  0.06563710  0.62052155  0.36293254  1
  O  O127  1  0.54455945  0.61411134  0.36479891  1
  O  O128  1  0.25124486  0.87697697  0.36279495  1
  O  O129  1  0.76275579  0.91440164  0.36619696  1
  O  O130  1  0.18989831  0.50738371  0.36346544  1
  O  O131  1  0.69315160  0.47334264  0.36478362  1
  O  O132  1  0.04230603  0.47254700  0.86437456  1
  O  O133  1  0.56429200  0.49949886  0.86291616  1
  O  O134  1  0.19516022  0.91631002  0.86425985  1
  O  O135  1  0.68475172  0.87076361  0.86311998  1
  O  O136  1  0.26361932  0.61193486  0.86412993  1
  O  O137  1  0.75014935  0.62976147  0.86291551  1
  O  O138  1  0.99309292  0.77643682  0.40521163  1
  O  O139  1  0.50663542  0.82384431  0.40972517  1
  O  O140  1  0.40721559  0.00862175  0.39460926  1
  O  O141  1  0.89298012  0.98277388  0.43136606  1
  O  O142  1  0.10989262  0.20474815  0.40582878  1
  O  O143  1  0.58929162  0.19117290  0.40993791  1
  O  O144  1  0.00704788  0.18893513  0.90972752  1
  O  O145  1  0.49591733  0.18809211  0.89506202  1
  O  O146  1  0.08919847  0.98706089  0.90940475  1
  O  O147  1  0.59582466  0.00555742  0.89554672  1
  O  O148  1  0.40512603  0.82388970  0.91017839  1
  O  O149  1  0.90632980  0.80713217  0.89468780  1
  O  O150  1  0.49080504  0.16805117  0.59060470  1
  O  O151  1  0.97583260  0.15156636  0.59436632  1
  O  O152  1  0.09382956  0.04230413  0.59176352  1
  O  O153  1  0.59873189  0.02612685  0.59317027  1
  O  O154  1  0.42747291  0.81050670  0.59432741  1
  O  O155  1  0.91292962  0.80636355  0.59077936  1
  O  O156  1  0.47617687  0.80231335  0.09254363  1
  O  O157  1  0.99216996  0.81326086  0.08851118  1
  O  O158  1  0.41264216  0.01943940  0.08968436  1
  O  O159  1  0.92716092  0.04093436  0.09165597  1
  O  O160  1  0.09926832  0.17293426  0.09012346  1
  O  O161  1  0.59161182  0.14699800  0.09049472  1
  O  O162  1  0.36240704  0.15740621  0.75562273  1
  O  O163  1  0.84459318  0.14342580  0.75604396  1
  O  O164  1  0.22138988  0.28083335  0.75360935  1
  O  O165  1  0.72342569  0.30735662  0.75788900  1
  O  O166  1  0.43092599  0.55547738  0.75605572  1
  O  O167  1  0.91843775  0.55629978  0.75474535  1
  O  O168  1  0.34679446  0.54789689  0.25583004  1
  O  O169  1  0.84417897  0.54269611  0.24395292  1
  O  O170  1  0.41924299  0.28233981  0.25468330  1
  O  O171  1  0.93910957  0.34200927  0.24436071  1
  O  O172  1  0.23179228  0.12725781  0.24716113  1
  O  O173  1  0.72157960  0.15849868  0.25352848  1
  O  O174  1  0.33036068  0.51257505  0.93620676  1
  O  O175  1  0.82310074  0.49385603  0.92055937  1
  O  O176  1  0.42383974  0.35532221  0.92064274  1
  O  O177  1  0.92575785  0.33961550  0.93658046  1
  O  O178  1  0.24549890  0.15103530  0.93609248  1
  O  O179  1  0.75260987  0.14944552  0.92119854  1
  O  O180  1  0.32387263  0.15481519  0.42136641  1
  O  O181  1  0.81385255  0.14101742  0.43862224  1
  O  O182  1  0.26471333  0.37784974  0.42354438  1
  O  O183  1  0.74578886  0.34658668  0.43734690  1
  O  O184  1  0.42746593  0.51015146  0.43674651  1
  O  O185  1  0.92336296  0.46586398  0.42181889  1
  O  O186  1  0.16977984  0.48502246  0.06017589  1
  O  O187  1  0.66165506  0.46302472  0.07308071  1
  O  O188  1  0.07168377  0.66098252  0.05859053  1
  O  O189  1  0.57076869  0.67521184  0.07574651  1
  O  O190  1  0.25737770  0.85589414  0.05997702  1
  O  O191  1  0.76852764  0.85893564  0.07297918  1
  O  O192  1  0.16460170  0.86823872  0.58005321  1
  O  O193  1  0.66521317  0.84978589  0.56453365  1
  O  O194  1  0.26985199  0.67499113  0.58159967  1
  O  O195  1  0.75753780  0.66044072  0.56069760  1
  O  O196  1  0.06962181  0.46760889  0.57913729  1
  O  O197  1  0.57020259  0.47700536  0.56182531  1
  O  O198  1  0.14282889  0.81198256  0.26013325  1
  O  O199  1  0.63821897  0.83115387  0.24571397  1
  O  O200  1  0.27052745  0.71819235  0.26485988  1
  O  O201  1  0.76830935  0.71489672  0.23530184  1
  O  O202  1  0.09734814  0.47511443  0.25844057  1
  O  O203  1  0.58294593  0.44709586  0.24546763  1
  O  O204  1  0.14030116  0.44626631  0.74580653  1
  O  O205  1  0.64147883  0.46555256  0.76378466  1
  O  O206  1  0.08231980  0.71776939  0.74544362  1
  O  O207  1  0.59163238  0.71887421  0.76395827  1
  O  O208  1  0.27546391  0.83162022  0.74350532  1
  O  O209  1  0.76846563  0.82158306  0.76536749  1
