# generated using pymatgen
data_MgV2(CO3)4
_symmetry_space_group_name_H-M   'P 1'
_cell_length_a   4.44735595
_cell_length_b   5.98304189
_cell_length_c   7.70814754
_cell_angle_alpha   92.21437417
_cell_angle_beta   88.46706834
_cell_angle_gamma   92.00765206
_symmetry_Int_Tables_number   1
_chemical_formula_structural   MgV2(CO3)4
_chemical_formula_sum   'Mg1 V2 C4 O12'
_cell_volume   204.75869569
_cell_formula_units_Z   1
loop_
 _symmetry_equiv_pos_site_id
 _symmetry_equiv_pos_as_xyz
  1  'x, y, z'
loop_
 _atom_site_type_symbol
 _atom_site_label
 _atom_site_symmetry_multiplicity
 _atom_site_fract_x
 _atom_site_fract_y
 _atom_site_fract_z
 _atom_site_occupancy
  Mg  Mg0  1  0.50000000  0.00000000  0.50000000  1
  V  V1  1  0.00000000  0.50000000  0.50000000  1
  V  V2  1  0.50000000  0.00000000  0.00000000  1
  C  C3  1  0.00616900  0.12939300  0.74986900  1
  C  C4  1  0.50105500  0.35798600  0.25676700  1
  C  C5  1  0.49894500  0.64201400  0.74323300  1
  C  C6  1  0.99383100  0.87060700  0.25013100  1
  O  O7  1  0.13666700  0.19510800  0.60306700  1
  O  O8  1  0.14940800  0.13587200  0.88923000  1
  O  O9  1  0.25207000  0.45440700  0.28049700  1
  O  O10  1  0.27491300  0.93922400  0.25249400  1
  O  O11  1  0.33932400  0.69197500  0.60499400  1
  O  O12  1  0.39648600  0.70089100  0.89335500  1
  O  O13  1  0.60351400  0.29910900  0.10664500  1
  O  O14  1  0.66067600  0.30802500  0.39500600  1
  O  O15  1  0.72508700  0.06077600  0.74750600  1
  O  O16  1  0.74793000  0.54559300  0.71950300  1
  O  O17  1  0.85059200  0.86412800  0.11077000  1
  O  O18  1  0.86333300  0.80489200  0.39693300  1
