# generated using pymatgen
data_Na2Mg2Si3Ge6(S3O16)3
_symmetry_space_group_name_H-M   'P 1'
_cell_length_a   16.92743225
_cell_length_b   8.46651108
_cell_length_c   22.04487551
_cell_angle_alpha   90.08300234
_cell_angle_beta   89.23919810
_cell_angle_gamma   120.17280283
_symmetry_Int_Tables_number   1
_chemical_formula_structural   Na2Mg2Si3Ge6(S3O16)3
_chemical_formula_sum   'Na6 Mg6 Si9 Ge18 S27 O144'
_cell_volume   2731.04441377
_cell_formula_units_Z   3
loop_
 _symmetry_equiv_pos_site_id
 _symmetry_equiv_pos_as_xyz
  1  'x, y, z'
loop_
 _atom_site_type_symbol
 _atom_site_label
 _atom_site_symmetry_multiplicity
 _atom_site_fract_x
 _atom_site_fract_y
 _atom_site_fract_z
 _atom_site_occupancy
  Na  Na0  1  0.00166183  0.99187347  0.49604013  1
  Na  Na1  1  0.50007339  0.01069310  0.99846799  1
  Na  Na2  1  0.33089533  0.32725707  0.83571586  1
  Na  Na3  1  0.83467027  0.33441217  0.83513158  1
  Na  Na4  1  0.32625233  0.32369560  0.33193796  1
  Na  Na5  1  0.83252211  0.33726235  0.33415295  1
  Mg  Mg6  1  0.00508800  0.99473440  0.35478734  1
  Mg  Mg7  1  0.50059629  0.00840236  0.85565756  1
  Mg  Mg8  1  0.00163049  0.00927519  0.64909692  1
  Mg  Mg9  1  0.50137654  0.99370772  0.14976155  1
  Mg  Mg10  1  0.83533131  0.33372391  0.98100750  1
  Mg  Mg11  1  0.33434324  0.33437870  0.47885315  1
  Si  Si12  1  0.14782441  0.00238803  0.25094735  1
  Si  Si13  1  0.64550515  0.99220853  0.24847552  1
  Si  Si14  1  0.14560714  0.29904075  0.74841753  1
  Si  Si15  1  0.69064035  0.04225068  0.58168503  1
  Si  Si16  1  0.18951143  0.33845041  0.08036849  1
  Si  Si17  1  0.52211627  0.38081141  0.92039953  1
  Si  Si18  1  0.16385097  0.93891069  0.91685382  1
  Si  Si19  1  0.66187115  0.38617402  0.41643962  1
  Si  Si20  1  0.02041516  0.66331506  0.42041966  1
  Ge  Ge21  1  0.51310256  0.02136865  0.35340746  1
  Ge  Ge22  1  0.01498569  0.00734540  0.85624596  1
  Ge  Ge23  1  0.50517091  0.00241201  0.64398650  1
  Ge  Ge24  1  0.01482289  0.00738024  0.14693319  1
  Ge  Ge25  1  0.32370239  0.32530779  0.68428340  1
  Ge  Ge26  1  0.83300491  0.32346088  0.67996313  1
  Ge  Ge27  1  0.32416773  0.33890710  0.18465840  1
  Ge  Ge28  1  0.82681006  0.32241147  0.18613078  1
  Ge  Ge29  1  0.32557200  0.31027267  0.97582004  1
  Ge  Ge30  1  0.82350371  0.33752888  0.47387308  1
  Ge  Ge31  1  0.16457158  0.66865650  0.02438762  1
  Ge  Ge32  1  0.66392706  0.65833915  0.02359771  1
  Ge  Ge33  1  0.16587695  0.67244808  0.51742539  1
  Ge  Ge34  1  0.66384847  0.66812039  0.51970338  1
  Ge  Ge35  1  0.15499160  0.66702544  0.31045980  1
  Ge  Ge36  1  0.66900293  0.66551169  0.31030162  1
  Ge  Ge37  1  0.16800008  0.66617377  0.81338404  1
  Ge  Ge38  1  0.66057153  0.66239657  0.81572828  1
  S  S39  1  0.35367221  0.71157309  0.25346901  1
  S  S40  1  0.85609326  0.71139090  0.24640339  1
  S  S41  1  0.99942308  0.28918660  0.24868750  1
  S  S42  1  0.49916118  0.29343978  0.24981419  1
  S  S43  1  0.64850825  0.29694820  0.74903663  1
  S  S44  1  0.99700001  0.70153984  0.74954620  1
  S  S45  1  0.50147931  0.70906096  0.74902922  1
  S  S46  1  0.35706656  0.00244674  0.74663756  1
  S  S47  1  0.85111588  0.99561126  0.75321122  1
  S  S48  1  0.47639689  0.33149058  0.58605276  1
  S  S49  1  0.97957370  0.33678123  0.58077734  1
  S  S50  1  0.18846506  0.03563879  0.58144009  1
  S  S51  1  0.33201165  0.62840488  0.58350373  1
  S  S52  1  0.83264170  0.62271182  0.58283278  1
  S  S53  1  0.47656464  0.61827327  0.08202919  1
  S  S54  1  0.97557212  0.62231122  0.08512033  1
  S  S55  1  0.33392145  0.04432246  0.08258857  1
  S  S56  1  0.83334284  0.03482366  0.08343213  1
  S  S57  1  0.68869796  0.33844238  0.08211991  1
  S  S58  1  0.30981413  0.66478477  0.91797033  1
  S  S59  1  0.81244403  0.67456417  0.91416793  1
  S  S60  1  0.02087201  0.37246028  0.91565991  1
  S  S61  1  0.66847121  0.95283395  0.91735784  1
  S  S62  1  0.31301402  0.95046135  0.41432021  1
  S  S63  1  0.81040599  0.95494826  0.41736023  1
  S  S64  1  0.16761805  0.38708949  0.41629886  1
  S  S65  1  0.52155729  0.66993056  0.41512149  1
  O  O66  1  0.11371569  0.06003151  0.30926390  1
  O  O67  1  0.60707616  0.04484014  0.31098115  1
  O  O68  1  0.41188140  0.79338936  0.30819571  1
  O  O69  1  0.90830548  0.78403114  0.30131639  1
  O  O70  1  0.47598401  0.17413234  0.30610264  1
  O  O71  1  0.97748356  0.17785535  0.30307279  1
  O  O72  1  0.10613368  0.16836545  0.81091949  1
  O  O73  1  0.61028979  0.18199655  0.80252549  1
  O  O74  1  0.48400698  0.78577574  0.80303770  1
  O  O75  1  0.97384601  0.77350120  0.80550522  1
  O  O76  1  0.41212275  0.03661771  0.80035447  1
  O  O77  1  0.90723128  0.02901817  0.80779020  1
  O  O78  1  0.39942288  0.96791758  0.69103961  1
  O  O79  1  0.88615741  0.96050664  0.69783009  1
  O  O80  1  0.08779799  0.22253671  0.68981793  1
  O  O81  1  0.59113673  0.21956496  0.69388802  1
  O  O82  1  0.01030194  0.80872397  0.69528721  1
  O  O83  1  0.51711397  0.82311698  0.69299284  1
  O  O84  1  0.38865282  0.81869042  0.19840445  1
  O  O85  1  0.89617028  0.82724309  0.19106664  1
  O  O86  1  0.01225593  0.20705203  0.19201344  1
  O  O87  1  0.51382812  0.21269249  0.19610048  1
  O  O88  1  0.08406284  0.95229160  0.18969799  1
  O  O89  1  0.58841087  0.95280225  0.18921709  1
  O  O90  1  0.43374856  0.36779482  0.64178034  1
  O  O91  1  0.94358895  0.37988507  0.63972037  1
  O  O92  1  0.24555092  0.11554771  0.63861837  1
  O  O93  1  0.75243473  0.12199541  0.64358618  1
  O  O94  1  0.31356197  0.51329574  0.64028090  1
  O  O95  1  0.81553851  0.50623314  0.63960064  1
  O  O96  1  0.43917952  0.50245713  0.13871263  1
  O  O97  1  0.93394550  0.50056597  0.14036273  1
  O  O98  1  0.31809040  0.12777343  0.13714559  1
  O  O99  1  0.81181608  0.11308640  0.13883439  1
  O  O100  1  0.25407235  0.39012830  0.14031150  1
  O  O101  1  0.74616670  0.37189800  0.13778364  1
  O  O102  1  0.23610071  0.29579546  0.02225797  1
  O  O103  1  0.73058560  0.31125027  0.02786265  1
  O  O104  1  0.42194114  0.53009598  0.02795144  1
  O  O105  1  0.92273823  0.54295572  0.03069469  1
  O  O106  1  0.35388299  0.15818698  0.02613290  1
  O  O107  1  0.85021486  0.14748998  0.02957114  1
  O  O108  1  0.23196180  0.15264285  0.52900351  1
  O  O109  1  0.73777050  0.17863012  0.52452421  1
  O  O110  1  0.35130479  0.55067248  0.53079222  1
  O  O111  1  0.85303533  0.54467863  0.52848829  1
  O  O112  1  0.42144455  0.29687297  0.53244263  1
  O  O113  1  0.92129971  0.31235327  0.52937153  1
  O  O114  1  0.26881811  0.69865344  0.97259490  1
  O  O115  1  0.77498834  0.71258921  0.97014712  1
  O  O116  1  0.07682035  0.44689819  0.97017632  1
  O  O117  1  0.59104729  0.47532519  0.97805423  1
  O  O118  1  0.14670878  0.81498709  0.97734567  1
  O  O119  1  0.65502868  0.84164541  0.97311172  1
  O  O120  1  0.27698098  0.84003915  0.47263254  1
  O  O121  1  0.77039122  0.84083542  0.47371153  1
  O  O122  1  0.15575028  0.47015811  0.47530319  1
  O  O123  1  0.64627376  0.47499871  0.47865872  1
  O  O124  1  0.08777356  0.71103714  0.47977189  1
  O  O125  1  0.57743900  0.70889577  0.47123656  1
  O  O126  1  0.06147685  0.60930276  0.36025866  1
  O  O127  1  0.56368207  0.63570240  0.36135120  1
  O  O128  1  0.25280198  0.86650934  0.36181041  1
  O  O129  1  0.75358881  0.87641822  0.36303440  1
  O  O130  1  0.18670849  0.50429272  0.36168041  1
  O  O131  1  0.68533213  0.51462856  0.35605540  1
  O  O132  1  0.06182476  0.48835336  0.86036171  1
  O  O133  1  0.56252875  0.50845085  0.85704131  1
  O  O134  1  0.18537599  0.85814100  0.85468709  1
  O  O135  1  0.68932022  0.87809336  0.86054844  1
  O  O136  1  0.25440905  0.63031102  0.86213675  1
  O  O137  1  0.75226945  0.63426292  0.85943987  1
  O  O138  1  0.00638581  0.83390192  0.41756937  1
  O  O139  1  0.51058843  0.83185573  0.40848175  1
  O  O140  1  0.40195623  0.96005604  0.40625665  1
  O  O141  1  0.90074954  0.97736188  0.41123910  1
  O  O142  1  0.08247249  0.21433317  0.41406303  1
  O  O143  1  0.56907788  0.18932233  0.41023231  1
  O  O144  1  0.00926111  0.18706162  0.90811213  1
  O  O145  1  0.51204494  0.18522269  0.91551594  1
  O  O146  1  0.06999586  0.94703020  0.91096280  1
  O  O147  1  0.58435548  0.95742570  0.91074089  1
  O  O148  1  0.40050297  0.82453287  0.91122992  1
  O  O149  1  0.90109037  0.84382086  0.90431422  1
  O  O150  1  0.48361921  0.16476074  0.59596880  1
  O  O151  1  0.98454381  0.17047153  0.58662392  1
  O  O152  1  0.09724694  0.00872677  0.58895522  1
  O  O153  1  0.59061814  0.02474123  0.59355350  1
  O  O154  1  0.41324646  0.81243669  0.59374507  1
  O  O155  1  0.91291976  0.80298666  0.59047945  1
  O  O156  1  0.48463642  0.79751565  0.08601549  1
  O  O157  1  0.98003403  0.80029995  0.09261468  1
  O  O158  1  0.41289128  0.02010816  0.08850114  1
  O  O159  1  0.91108251  0.00966896  0.09431804  1
  O  O160  1  0.08760440  0.16056939  0.09002007  1
  O  O161  1  0.59665307  0.18418787  0.08850143  1
  O  O162  1  0.35058996  0.17184773  0.73799262  1
  O  O163  1  0.84275761  0.16620891  0.74769909  1
  O  O164  1  0.24965201  0.31847489  0.74341186  1
  O  O165  1  0.74191218  0.31839678  0.74039587  1
  O  O166  1  0.42180899  0.52271056  0.74017514  1
  O  O167  1  0.91273006  0.51083074  0.74359710  1
  O  O168  1  0.35086482  0.52984671  0.24732393  1
  O  O169  1  0.84857481  0.52661864  0.23830147  1
  O  O170  1  0.42014173  0.32265893  0.24432632  1
  O  O171  1  0.92086247  0.32292681  0.23976999  1
  O  O172  1  0.25196465  0.18039910  0.23953592  1
  O  O173  1  0.74932040  0.18073092  0.24339757  1
  O  O174  1  0.31551505  0.49666609  0.92303199  1
  O  O175  1  0.82182754  0.51256762  0.92006387  1
  O  O176  1  0.42493692  0.37928644  0.92734143  1
  O  O177  1  0.93080365  0.35677650  0.92108264  1
  O  O178  1  0.25433712  0.14092389  0.92046829  1
  O  O179  1  0.74969435  0.13442495  0.92181232  1
  O  O180  1  0.32250950  0.13131549  0.42159606  1
  O  O181  1  0.81479805  0.13338576  0.42369855  1
  O  O182  1  0.24915567  0.36891196  0.42218650  1
  O  O183  1  0.75254050  0.36547547  0.42039881  1
  O  O184  1  0.43209012  0.50434485  0.42215104  1
  O  O185  1  0.92359390  0.46746639  0.42811208  1
  O  O186  1  0.17725593  0.51550009  0.06989142  1
  O  O187  1  0.68789100  0.51606208  0.07922233  1
  O  O188  1  0.06766426  0.64196290  0.08156391  1
  O  O189  1  0.57102164  0.64051274  0.07823968  1
  O  O190  1  0.24828790  0.86587600  0.07651792  1
  O  O191  1  0.74727913  0.85093450  0.07616792  1
  O  O192  1  0.18764245  0.85792078  0.57803043  1
  O  O193  1  0.67611199  0.83914329  0.57087277  1
  O  O194  1  0.24934325  0.64528257  0.57697054  1
  O  O195  1  0.74815442  0.63063950  0.57747190  1
  O  O196  1  0.07269627  0.50208941  0.57685522  1
  O  O197  1  0.56774921  0.49487855  0.58210462  1
  O  O198  1  0.16071393  0.82251627  0.25578244  1
  O  O199  1  0.66151118  0.82251676  0.26422568  1
  O  O200  1  0.25981847  0.67599842  0.26403719  1
  O  O201  1  0.76274243  0.68489649  0.25095598  1
  O  O202  1  0.08604805  0.46783303  0.25314921  1
  O  O203  1  0.58330358  0.47226825  0.25881644  1
  O  O204  1  0.16186753  0.50184017  0.76376056  1
  O  O205  1  0.65930067  0.48215112  0.75571842  1
  O  O206  1  0.07821156  0.68386011  0.75863109  1
  O  O207  1  0.58732543  0.69941696  0.75329150  1
  O  O208  1  0.26526895  0.84140055  0.75090351  1
  O  O209  1  0.75654102  0.83122543  0.76196914  1
