# generated using pymatgen
data_NaGa2Ge2P3(SO8)3
_symmetry_space_group_name_H-M   'P 1'
_cell_length_a   8.39841049
_cell_length_b   8.40022870
_cell_length_c   21.87073067
_cell_angle_alpha   89.99700841
_cell_angle_beta   90.07723342
_cell_angle_gamma   120.07521238
_symmetry_Int_Tables_number   1
_chemical_formula_structural   NaGa2Ge2P3(SO8)3
_chemical_formula_sum   'Na3 Ga6 Ge6 P9 S9 O72'
_cell_volume   1335.21738358
_cell_formula_units_Z   3
loop_
 _symmetry_equiv_pos_site_id
 _symmetry_equiv_pos_as_xyz
  1  'x, y, z'
loop_
 _atom_site_type_symbol
 _atom_site_label
 _atom_site_symmetry_multiplicity
 _atom_site_fract_x
 _atom_site_fract_y
 _atom_site_fract_z
 _atom_site_occupancy
  Na  Na0  1  0.67382762  0.33436356  0.83380466  1
  Na  Na1  1  0.66436624  0.33756926  0.33198410  1
  Na  Na2  1  0.33986127  0.67080015  0.16801095  1
  Ga  Ga3  1  0.67437399  0.33423630  0.68805646  1
  Ga  Ga4  1  0.65036524  0.32733257  0.18598950  1
  Ga  Ga5  1  0.66819196  0.32535275  0.98437992  1
  Ga  Ga6  1  0.66607575  0.33966067  0.47827887  1
  Ga  Ga7  1  0.33450401  0.66631491  0.31214112  1
  Ga  Ga8  1  0.32586060  0.66853455  0.81065820  1
  Ge  Ge9  1  0.01115931  0.99374717  0.35418654  1
  Ge  Ge10  1  0.99205585  0.00147283  0.85444558  1
  Ge  Ge11  1  0.99391789  0.99198415  0.64927429  1
  Ge  Ge12  1  0.99833816  0.99923937  0.14524447  1
  Ge  Ge13  1  0.33417219  0.65801552  0.02103433  1
  Ge  Ge14  1  0.32531212  0.66041635  0.51500228  1
  P  P15  1  0.28643143  0.99841343  0.24916499  1
  P  P16  1  0.71558593  0.71431452  0.24990863  1
  P  P17  1  -0.00022913  0.71527802  0.75088407  1
  P  P18  1  0.70953704  0.99725153  0.75019230  1
  P  P19  1  0.66809206  0.04112321  0.08380963  1
  P  P20  1  0.37331763  0.32901477  0.08270498  1
  P  P21  1  0.04412496  0.37742669  0.91588454  1
  P  P22  1  0.32900473  0.37433385  0.41506667  1
  P  P23  1  0.04475570  0.66675887  0.41561253  1
  S  S24  1  0.99813380  0.28560912  0.25038913  1
  S  S25  1  0.28739240  0.28708770  0.74976099  1
  S  S26  1  0.96046547  0.33221698  0.58304966  1
  S  S27  1  0.37348045  0.03963382  0.58335513  1
  S  S28  1  0.66434279  0.62622449  0.58350588  1
  S  S29  1  0.95717847  0.62510960  0.08359024  1
  S  S30  1  0.62334540  0.66570800  0.91582524  1
  S  S31  1  0.33093182  0.95640239  0.91640563  1
  S  S32  1  0.62637545  0.95684136  0.41658430  1
  O  O33  1  0.20811718  0.04104139  0.30747212  1
  O  O34  1  0.83372329  0.80030826  0.30885178  1
  O  O35  1  0.96314369  0.17183190  0.30649897  1
  O  O36  1  0.21062039  0.16984733  0.80530931  1
  O  O37  1  0.96180956  0.80113076  0.80833768  1
  O  O38  1  0.83651150  0.04303792  0.80715732  1
  O  O39  1  0.79484636  0.96384162  0.69166420  1
  O  O40  1  0.17232162  0.20868545  0.69322801  1
  O  O41  1  0.03925410  0.83485405  0.69197023  1
  O  O42  1  0.79842177  0.83554769  0.19214687  1
  O  O43  1  0.03553831  0.20884887  0.19438696  1
  O  O44  1  0.16483121  0.96309844  0.19183261  1
  O  O45  1  0.88378050  0.37062278  0.63800208  1
  O  O46  1  0.48782895  0.11936429  0.63857389  1
  O  O47  1  0.62843179  0.51145355  0.63845133  1
  O  O48  1  0.88387497  0.51106149  0.13856643  1
  O  O49  1  0.62802680  0.11969153  0.14090676  1
  O  O50  1  0.49354653  0.37833576  0.13984124  1
  O  O51  1  0.45451490  0.29788242  0.02466165  1
  O  O52  1  0.84786316  0.55103878  0.02755116  1
  O  O53  1  0.70651274  0.15472473  0.02580616  1
  O  O54  1  0.45257660  0.15474148  0.52873222  1
  O  O55  1  0.70390141  0.54965407  0.52917500  1
  O  O56  1  0.84432355  0.29482280  0.52872569  1
  O  O57  1  0.54770971  0.70659818  0.97171940  1
  O  O58  1  0.16645115  0.46189485  0.97407947  1
  O  O59  1  0.29580483  0.84138345  0.97214643  1
  O  O60  1  0.54749411  0.84118188  0.47373760  1
  O  O61  1  0.29342653  0.45577771  0.47520101  1
  O  O62  1  0.16509770  0.70950799  0.47537699  1
  O  O63  1  0.12735658  0.62960456  0.35968943  1
  O  O64  1  0.51023443  0.88118580  0.36221517  1
  O  O65  1  0.37175945  0.49797424  0.35972327  1
  O  O66  1  0.12898958  0.49576956  0.85904899  1
  O  O67  1  0.36978140  0.87973575  0.86155092  1
  O  O68  1  0.50990444  0.63265698  0.86081703  1
  O  O69  1  0.02420900  0.83836685  0.41036651  1
  O  O70  1  0.80828760  0.97497155  0.41019198  1
  O  O71  1  0.15386776  0.18468693  0.40802981  1
  O  O72  1  0.02881300  0.18554949  0.90803222  1
  O  O73  1  0.16308144  0.97179221  0.90893839  1
  O  O74  1  0.80823166  0.83421176  0.91022293  1
  O  O75  1  0.98018894  0.16631641  0.59160645  1
  O  O76  1  0.18851477  0.02351192  0.59123575  1
  O  O77  1  0.83331919  0.81172262  0.59057455  1
  O  O78  1  0.97740504  0.80908282  0.08999592  1
  O  O79  1  0.83766707  0.01860384  0.09252743  1
  O  O80  1  0.18152078  0.16001143  0.09249627  1
  O  O81  1  0.69346444  0.17030000  0.74305032  1
  O  O82  1  0.46861907  0.30210727  0.74290012  1
  O  O83  1  0.82452659  0.52737223  0.74352994  1
  O  O84  1  0.70253139  0.52650988  0.24396107  1
  O  O85  1  0.83452840  0.30449815  0.24413009  1
  O  O86  1  0.47689966  0.17034940  0.24525919  1
  O  O87  1  0.64305954  0.50311149  0.92320096  1
  O  O88  1  0.85363145  0.35782531  0.92352849  1
  O  O89  1  0.49431116  0.14062742  0.92231637  1
  O  O90  1  0.64182103  0.13818464  0.42518089  1
  O  O91  1  0.49849222  0.35330670  0.42450469  1
  O  O92  1  0.85613464  0.49473593  0.42474880  1
  O  O93  1  0.35296701  0.50454474  0.07579958  1
  O  O94  1  0.14498595  0.64555430  0.07629224  1
  O  O95  1  0.49044607  0.84678665  0.07402848  1
  O  O96  1  0.35664032  0.85491901  0.57555629  1
  O  O97  1  0.49939613  0.64688880  0.57514907  1
  O  O98  1  0.14570086  0.50038682  0.57601674  1
  O  O99  1  0.30129782  0.82518082  0.25586414  1
  O  O100  1  0.52545567  0.69648501  0.25596086  1
  O  O101  1  0.16497384  0.46792132  0.25508258  1
  O  O102  1  0.30504123  0.46789734  0.75609949  1
  O  O103  1  0.16892847  0.69692781  0.75675188  1
  O  O104  1  0.52472840  0.82555736  0.75886128  1
