# generated using pymatgen
data_NaLaTiP2SO12
_symmetry_space_group_name_H-M   'P 1'
_cell_length_a   9.07377752
_cell_length_b   9.26946011
_cell_length_c   23.33642454
_cell_angle_alpha   87.63227905
_cell_angle_beta   90.00000000
_cell_angle_gamma   119.30409438
_symmetry_Int_Tables_number   1
_chemical_formula_structural   NaLaTiP2SO12
_chemical_formula_sum   'Na6 La6 Ti6 P12 S6 O72'
_cell_volume   1709.71033077
_cell_formula_units_Z   6
loop_
 _symmetry_equiv_pos_site_id
 _symmetry_equiv_pos_as_xyz
  1  'x, y, z'
loop_
 _atom_site_type_symbol
 _atom_site_label
 _atom_site_symmetry_multiplicity
 _atom_site_fract_x
 _atom_site_fract_y
 _atom_site_fract_z
 _atom_site_occupancy
  Na  Na0  1  0.98118151  0.98475950  0.49208797  1
  Na  Na1  1  0.00357799  0.98475950  0.99208797  1
  Na  Na2  1  0.64784851  0.31809250  0.82542097  1
  Na  Na3  1  0.67024499  0.31809250  0.32542097  1
  Na  Na4  1  0.31451451  0.65142650  0.15875497  1
  Na  Na5  1  0.33691099  0.65142650  0.65875497  1
  La  La6  1  0.99499072  0.00536171  0.64262483  1
  La  La7  1  0.01037099  0.00536171  0.14262483  1
  La  La8  1  0.66165772  0.33869471  0.97595783  1
  La  La9  1  0.67703799  0.33869471  0.47595783  1
  La  La10  1  0.32832372  0.67202871  0.30929183  1
  La  La11  1  0.34370399  0.67202871  0.80929183  1
  Ti  Ti12  1  0.01755444  0.02399564  0.35419275  1
  Ti  Ti13  1  0.00644120  0.02399564  0.85419275  1
  Ti  Ti14  1  0.68422144  0.35732864  0.68752575  1
  Ti  Ti15  1  0.67310820  0.35732864  0.18752575  1
  Ti  Ti16  1  0.35088744  0.69066264  0.02085975  1
  Ti  Ti17  1  0.33977420  0.69066264  0.52085975  1
  P  P18  1  0.31174974  0.03918739  0.25186437  1
  P  P19  1  0.97175201  0.27749835  0.24924157  1
  P  P20  1  0.30574634  0.27749835  0.74924157  1
  P  P21  1  0.72743765  0.03918739  0.75186437  1
  P  P22  1  0.97841674  0.37252039  0.58519737  1
  P  P23  1  0.63841901  0.61083135  0.58257457  1
  P  P24  1  0.97241334  0.61083135  0.08257457  1
  P  P25  1  0.39410465  0.37252039  0.08519737  1
  P  P26  1  0.64508274  0.70585439  0.91853137  1
  P  P27  1  0.30508501  0.94416535  0.91590857  1
  P  P28  1  0.63907934  0.94416535  0.41590857  1
  P  P29  1  0.06077065  0.70585439  0.41853137  1
  S  S30  1  0.71951869  0.68952837  0.25080537  1
  S  S31  1  0.97000968  0.68952837  0.75080537  1
  S  S32  1  0.38618569  0.02286137  0.58413837  1
  S  S33  1  0.63667668  0.02286137  0.08413837  1
  S  S34  1  0.05285169  0.35619537  0.91747237  1
  S  S35  1  0.30334268  0.35619537  0.41747237  1
  O  O36  1  0.19911604  0.04448045  0.30456326  1
  O  O37  1  0.81788859  0.77286172  0.30084434  1
  O  O38  1  0.96258041  0.16154754  0.30520415  1
  O  O39  1  0.19896713  0.16154754  0.80520415  1
  O  O40  1  0.95497313  0.77286172  0.80084434  1
  O  O41  1  0.84536440  0.04448045  0.80456326  1
  O  O42  1  0.79548878  0.00481595  0.69799417  1
  O  O43  1  0.20460212  0.19866419  0.69703210  1
  O  O44  1  -0.00385088  0.78293420  0.69636536  1
  O  O45  1  0.78678508  0.78293420  0.19636536  1
  O  O46  1  -0.00593793  0.19866419  0.19703210  1
  O  O47  1  0.20932717  0.00481595  0.19799417  1
  O  O48  1  0.86578304  0.37781345  0.63789626  1
  O  O49  1  0.48455559  0.10619472  0.63417734  1
  O  O50  1  0.62924741  0.49488054  0.63853715  1
  O  O51  1  0.86563413  0.49488054  0.13853715  1
  O  O52  1  0.62164013  0.10619472  0.13417734  1
  O  O53  1  0.51203140  0.37781345  0.13789626  1
  O  O54  1  0.46215578  0.33814895  0.03132717  1
  O  O55  1  0.87126912  0.53199719  0.03036510  1
  O  O56  1  0.66281612  0.11626720  0.02969836  1
  O  O57  1  0.45345208  0.11626720  0.52969836  1
  O  O58  1  0.66072907  0.53199719  0.53036510  1
  O  O59  1  0.87599417  0.33814895  0.53132717  1
  O  O60  1  0.53244904  0.71114745  0.97123026  1
  O  O61  1  0.15122159  0.43952872  0.96751134  1
  O  O62  1  0.29591341  0.82821454  0.97187115  1
  O  O63  1  0.53230013  0.82821454  0.47187115  1
  O  O64  1  0.28830613  0.43952872  0.46751134  1
  O  O65  1  0.17869740  0.71114745  0.47123026  1
  O  O66  1  0.12882178  0.67148295  0.36466117  1
  O  O67  1  0.53793512  0.86533119  0.36369910  1
  O  O68  1  0.32948212  0.44960120  0.36303236  1
  O  O69  1  0.12011808  0.44960120  0.86303236  1
  O  O70  1  0.32739507  0.86533119  0.86369910  1
  O  O71  1  0.54266017  0.67148295  0.86466117  1
  O  O72  1  0.06209481  0.87500100  0.41176793  1
  O  O73  1  0.81479505  0.94905573  0.41062412  1
  O  O74  1  0.13591058  0.19173598  0.41257413  1
  O  O75  1  0.05582541  0.19173598  0.91257413  1
  O  O76  1  0.13426068  0.94905573  0.91062412  1
  O  O77  1  0.81290620  0.87500100  0.91176793  1
  O  O78  1  0.02252769  0.23457342  0.59379530  1
  O  O79  1  0.20633546  0.97730111  0.58920322  1
  O  O80  1  0.78356929  0.78669775  0.58921504  1
  O  O81  1  0.00312845  0.78669775  0.08921504  1
  O  O82  1  0.77096565  0.97730111  0.08920322  1
  O  O83  1  0.21204573  0.23457342  0.09379530  1
  O  O84  1  0.72876181  0.20833400  0.74510093  1
  O  O85  1  0.48146205  0.28238873  0.74395712  1
  O  O86  1  0.80257758  0.52506898  0.74590713  1
  O  O87  1  0.72249241  0.52506898  0.24590713  1
  O  O88  1  0.80092768  0.28238873  0.24395712  1
  O  O89  1  0.47957320  0.20833400  0.24510093  1
  O  O90  1  0.68919469  0.56790642  0.92712830  1
  O  O91  1  0.87300246  0.31063411  0.92253622  1
  O  O92  1  0.45023629  0.12003075  0.92254804  1
  O  O93  1  0.66979545  0.12003075  0.42254804  1
  O  O94  1  0.43763265  0.31063411  0.42253622  1
  O  O95  1  0.87871273  0.56790642  0.42712830  1
  O  O96  1  0.39542781  0.54166800  0.07843493  1
  O  O97  1  0.14812805  0.61572273  0.07729112  1
  O  O98  1  0.46924358  0.85840298  0.07924113  1
  O  O99  1  0.38915841  0.85840298  0.57924113  1
  O  O100  1  0.46759368  0.61572273  0.57729112  1
  O  O101  1  0.14623920  0.54166800  0.57843493  1
  O  O102  1  0.35586069  0.90124042  0.26046230  1
  O  O103  1  0.53966846  0.64396811  0.25587022  1
  O  O104  1  0.11690229  0.45336475  0.25588204  1
  O  O105  1  0.33646145  0.45336475  0.75588204  1
  O  O106  1  0.10429865  0.64396811  0.75587022  1
  O  O107  1  0.54537873  0.90124042  0.76046230  1
