# generated using pymatgen
data_NaAl2Ga2PS5O24
_symmetry_space_group_name_H-M   'P 1'
_cell_length_a   8.37589338
_cell_length_b   8.37134815
_cell_length_c   21.81716118
_cell_angle_alpha   89.89237622
_cell_angle_beta   90.23582528
_cell_angle_gamma   119.92557898
_symmetry_Int_Tables_number   1
_chemical_formula_structural   NaAl2Ga2PS5O24
_chemical_formula_sum   'Na3 Al6 Ga6 P3 S15 O72'
_cell_volume   1325.79667112
_cell_formula_units_Z   3
loop_
 _symmetry_equiv_pos_site_id
 _symmetry_equiv_pos_as_xyz
  1  'x, y, z'
loop_
 _atom_site_type_symbol
 _atom_site_label
 _atom_site_symmetry_multiplicity
 _atom_site_fract_x
 _atom_site_fract_y
 _atom_site_fract_z
 _atom_site_occupancy
  Na  Na0  1  0.99942895  0.99566540  0.99840763  1
  Na  Na1  1  0.66231466  0.33257989  0.83621480  1
  Na  Na2  1  0.67016589  0.33260860  0.33134829  1
  Al  Al3  1  0.99901971  0.99250436  0.85704190  1
  Al  Al4  1  0.00182638  0.00728929  0.14779373  1
  Al  Al5  1  0.67341457  0.33321410  0.18487179  1
  Al  Al6  1  0.65848957  0.33282339  0.97792738  1
  Al  Al7  1  0.34037792  0.67549506  0.01785228  1
  Al  Al8  1  0.34157201  0.67305045  0.81704221  1
  Ga  Ga9  1  0.99811132  0.00529320  0.35045704  1
  Ga  Ga10  1  0.00036175  0.00044717  0.64820771  1
  Ga  Ga11  1  0.66631786  0.33307901  0.68623311  1
  Ga  Ga12  1  0.66657365  0.33299810  0.48231857  1
  Ga  Ga13  1  0.33324912  0.66703395  0.52026207  1
  Ga  Ga14  1  0.32750358  0.66008508  0.30930233  1
  P  P15  1  0.99765367  0.28821061  0.24853833  1
  P  P16  1  0.62029305  0.66657120  0.91690656  1
  P  P17  1  0.33407250  0.95397863  0.91682967  1
  S  S18  1  0.29056386  0.00224590  0.24867650  1
  S  S19  1  0.71146389  0.70967211  0.24858882  1
  S  S20  1  0.28671052  0.29180668  0.75154989  1
  S  S21  1  0.00449203  0.71139888  0.75110009  1
  S  S22  1  0.70963515  0.99652028  0.75125707  1
  S  S23  1  0.95845546  0.33318967  0.58356901  1
  S  S24  1  0.37449945  0.04165686  0.58349548  1
  S  S25  1  0.66715450  0.62543704  0.58350884  1
  S  S26  1  0.95673506  0.62167873  0.08297477  1
  S  S27  1  0.66540661  0.04478600  0.08290830  1
  S  S28  1  0.37900860  0.33533815  0.08366558  1
  S  S29  1  0.04599333  0.37962938  0.91675939  1
  S  S30  1  0.62322801  0.95497782  0.41630585  1
  S  S31  1  0.33265453  0.37540741  0.41686225  1
  S  S32  1  0.04295180  0.66930856  0.41648380  1
  O  O33  1  0.21638815  0.03854312  0.30546442  1
  O  O34  1  0.82454521  0.78134131  0.30536893  1
  O  O35  1  0.95641304  0.17186551  0.30752290  1
  O  O36  1  0.20281259  0.17058485  0.80486340  1
  O  O37  1  0.96609323  0.79464096  0.80425862  1
  O  O38  1  0.83091032  0.03429571  0.80478492  1
  O  O39  1  0.78641916  0.96483176  0.69445799  1
  O  O40  1  0.17862588  0.21450555  0.69441153  1
  O  O41  1  0.03619428  0.82070741  0.69438841  1
  O  O42  1  0.79697332  0.82579124  0.19447894  1
  O  O43  1  0.03095060  0.19840224  0.19315295  1
  O  O44  1  0.17212264  0.96729213  0.19456684  1
  O  O45  1  0.87893893  0.37036609  0.63835865  1
  O  O46  1  0.49171201  0.12112669  0.63849124  1
  O  O47  1  0.63001824  0.50856901  0.63844240  1
  O  O48  1  0.87283915  0.50850896  0.13833715  1
  O  O49  1  0.63418934  0.12734048  0.13813896  1
  O  O50  1  0.49378053  0.36496183  0.13892786  1
  O  O51  1  0.45945581  0.29772212  0.02921710  1
  O  O52  1  0.83788326  0.53941579  0.02848261  1
  O  O53  1  0.70294080  0.16363069  0.02854990  1
  O  O54  1  0.45318094  0.15725501  0.52808344  1
  O  O55  1  0.70358992  0.54651599  0.52813747  1
  O  O56  1  0.84263073  0.29620521  0.52797449  1
  O  O57  1  0.53626567  0.69998035  0.97433782  1
  O  O58  1  0.15966304  0.45809269  0.97226896  1
  O  O59  1  0.29557452  0.83394165  0.97410921  1
  O  O60  1  0.54355283  0.84394234  0.47225457  1
  O  O61  1  0.29988123  0.45512967  0.47241988  1
  O  O62  1  0.15481398  0.70139777  0.47243244  1
  O  O63  1  0.12121618  0.63068913  0.36195011  1
  O  O64  1  0.50632498  0.87636257  0.36127176  1
  O  O65  1  0.37249196  0.49261240  0.36215830  1
  O  O66  1  0.12432384  0.49230247  0.86096232  1
  O  O67  1  0.36658317  0.87047703  0.85894766  1
  O  O68  1  0.50145279  0.62855454  0.85910475  1
  O  O69  1  0.02391798  0.83310453  0.40883468  1
  O  O70  1  0.80539433  0.97249522  0.41027318  1
  O  O71  1  0.17008760  0.19222529  0.41011041  1
  O  O72  1  0.02646535  0.19520481  0.90831704  1
  O  O73  1  0.16411845  0.97875369  0.90776785  1
  O  O74  1  0.81209356  0.83985358  0.90771884  1
  O  O75  1  0.97518245  0.16768870  0.59094587  1
  O  O76  1  0.19243576  0.02479171  0.59089061  1
  O  O77  1  0.83227109  0.80755692  0.59102450  1
  O  O78  1  0.97448852  0.80773124  0.09190944  1
  O  O79  1  0.83220584  0.02467493  0.09106575  1
  O  O80  1  0.19387977  0.16604062  0.09122237  1
  O  O81  1  0.69333042  0.16621448  0.74433490  1
  O  O82  1  0.47237412  0.30754704  0.74447524  1
  O  O83  1  0.83427498  0.52642889  0.74411318  1
  O  O84  1  0.68942937  0.52359235  0.24069732  1
  O  O85  1  0.82492376  0.30923428  0.24018520  1
  O  O86  1  0.47414787  0.16871132  0.24063114  1
  O  O87  1  0.64549259  0.49686809  0.92558651  1
  O  O88  1  0.86176156  0.35953574  0.92473555  1
  O  O89  1  0.50706149  0.14605179  0.92573999  1
  O  O90  1  0.64088630  0.14100044  0.42293568  1
  O  O91  1  0.50116335  0.35833573  0.42353237  1
  O  O92  1  0.85783980  0.50069551  0.42331012  1
  O  O93  1  0.35726606  0.49696199  0.07478373  1
  O  O94  1  0.13865958  0.63965627  0.07471006  1
  O  O95  1  0.50228403  0.86195279  0.07546197  1
  O  O96  1  0.35845309  0.85983360  0.57583999  1
  O  O97  1  0.50154408  0.64173641  0.57574611  1
  O  O98  1  0.14017586  0.49852464  0.57577974  1
  O  O99  1  0.31007422  0.83909956  0.25644159  1
  O  O100  1  0.53155327  0.69577638  0.25653105  1
  O  O101  1  0.16827885  0.47694796  0.25709188  1
  O  O102  1  0.30633850  0.47429576  0.75942007  1
  O  O103  1  0.16535358  0.68901547  0.75967672  1
  O  O104  1  0.52667532  0.83464505  0.75848543  1
