# generated using pymatgen
data_Na10Hf4Ga4Si7S5O48
_symmetry_space_group_name_H-M   'P 1'
_cell_length_a   17.91774159
_cell_length_b   8.91035400
_cell_length_c   22.50329315
_cell_angle_alpha   89.73648042
_cell_angle_beta   91.25521587
_cell_angle_gamma   119.66552215
_symmetry_Int_Tables_number   1
_chemical_formula_structural   Na10Hf4Ga4Si7S5O48
_chemical_formula_sum   'Na30 Hf12 Ga12 Si21 S15 O144'
_cell_volume   3120.99739405
_cell_formula_units_Z   3
loop_
 _symmetry_equiv_pos_site_id
 _symmetry_equiv_pos_as_xyz
  1  'x, y, z'
loop_
 _atom_site_type_symbol
 _atom_site_label
 _atom_site_symmetry_multiplicity
 _atom_site_fract_x
 _atom_site_fract_y
 _atom_site_fract_z
 _atom_site_occupancy
  Na  Na0  1  0.18410027  0.37282290  0.23915302  1
  Na  Na1  1  0.68385497  0.37336764  0.23995472  1
  Na  Na2  1  0.99298604  0.62959043  0.25490381  1
  Na  Na3  1  0.49339783  0.62925473  0.25477615  1
  Na  Na4  1  0.49283476  0.35301274  0.75994736  1
  Na  Na5  1  0.18407080  0.99504445  0.74445405  1
  Na  Na6  1  0.68523669  -0.00159874  0.74230972  1
  Na  Na7  1  0.65776065  0.33865165  0.57839242  1
  Na  Na8  1  0.01851470  0.70462222  0.57732158  1
  Na  Na9  1  0.82657853  0.95907786  0.59189305  1
  Na  Na10  1  0.48862402  0.66584202  0.90958579  1
  Na  Na11  1  0.99066990  0.66906813  0.90872541  1
  Na  Na12  1  0.85140718  0.03723248  0.90365557  1
  Na  Na13  1  0.15798156  0.29022672  0.92323385  1
  Na  Na14  1  0.49062000  0.31386358  0.40931677  1
  Na  Na15  1  0.98773814  0.30964129  0.40912038  1
  Na  Na16  1  0.35383051  0.66671874  0.40351780  1
  Na  Na17  1  0.85273554  0.66762103  0.40790110  1
  Na  Na18  1  0.02449749  0.00981722  0.49509842  1
  Na  Na19  1  0.51936969  0.99254228  0.49380512  1
  Na  Na20  1  0.01456720  0.02298080  0.99759254  1
  Na  Na21  1  0.51951434  0.04705259  0.99327026  1
  Na  Na22  1  0.33910941  0.32112372  0.83105590  1
  Na  Na23  1  0.84470631  0.34146953  0.82412981  1
  Na  Na24  1  0.33433073  0.32876664  0.32656278  1
  Na  Na25  1  0.83307199  0.32826183  0.32808023  1
  Na  Na26  1  0.17778592  0.66881257  0.15797531  1
  Na  Na27  1  0.67773070  0.66997063  0.15857478  1
  Na  Na28  1  0.17857951  0.67801472  0.66453109  1
  Na  Na29  1  0.67292789  0.68540876  0.66326832  1
  Hf  Hf30  1  0.99909062  0.99024028  0.64757565  1
  Hf  Hf31  1  0.49464712  0.98160069  0.64675608  1
  Hf  Hf32  1  -0.00017976  0.01315247  0.14452841  1
  Hf  Hf33  1  0.49931518  0.01234103  0.14437146  1
  Hf  Hf34  1  0.33062465  0.31915159  0.97938467  1
  Hf  Hf35  1  0.82491218  0.32134418  0.98035106  1
  Hf  Hf36  1  0.32697821  0.33115795  0.48009329  1
  Hf  Hf37  1  0.82813252  0.34004482  0.48001177  1
  Hf  Hf38  1  0.16446789  0.65562501  0.31204754  1
  Hf  Hf39  1  0.66358127  0.65491547  0.31267213  1
  Hf  Hf40  1  0.16171043  0.67173056  0.81214066  1
  Hf  Hf41  1  0.66511288  0.67421958  0.81270254  1
  Ga  Ga42  1  0.00117401  0.00271596  0.35179133  1
  Ga  Ga43  1  0.50255816  0.00153821  0.35109927  1
  Ga  Ga44  1  0.99845855  0.99587347  0.84931477  1
  Ga  Ga45  1  0.49722865  0.99667918  0.85345540  1
  Ga  Ga46  1  0.33349099  0.31618962  0.68890587  1
  Ga  Ga47  1  0.83340048  0.33238062  0.68656661  1
  Ga  Ga48  1  0.33704026  0.35626799  0.18489340  1
  Ga  Ga49  1  0.83615374  0.35654160  0.18536823  1
  Ga  Ga50  1  0.15822814  0.63929933  0.01485985  1
  Ga  Ga51  1  0.65387424  0.63407460  0.01545470  1
  Ga  Ga52  1  0.16099126  0.67602954  0.51462058  1
  Ga  Ga53  1  0.66193199  0.66665407  0.51967391  1
  Si  Si54  1  0.35625022  0.71590787  0.25058590  1
  Si  Si55  1  0.85619417  0.71643415  0.25057468  1
  Si  Si56  1  0.99077050  0.28292483  0.25176551  1
  Si  Si57  1  0.49077962  0.28248804  0.25187594  1
  Si  Si58  1  0.99162078  0.69580832  0.75208495  1
  Si  Si59  1  0.49090944  0.69741417  0.75301420  1
  Si  Si60  1  0.35557453  0.99511869  0.75056533  1
  Si  Si61  1  0.85503123  0.00607452  0.74986497  1
  Si  Si62  1  0.19048759  0.03299699  0.58630307  1
  Si  Si63  1  0.68638656  0.03606586  0.58564814  1
  Si  Si64  1  0.82913529  0.62122746  0.58390745  1
  Si  Si65  1  0.18995350  0.34688868  0.08317948  1
  Si  Si66  1  0.68826363  0.34753014  0.08543913  1
  Si  Si67  1  0.01952754  0.36379072  0.91594721  1
  Si  Si68  1  0.51934231  0.35899380  0.91440038  1
  Si  Si69  1  0.16262214  0.94776198  0.91921190  1
  Si  Si70  1  0.66064902  0.94611800  0.92065402  1
  Si  Si71  1  0.16149811  0.37456374  0.41951026  1
  Si  Si72  1  0.66051749  0.36597164  0.41932044  1
  Si  Si73  1  0.02063540  0.67864386  0.41597520  1
  Si  Si74  1  0.52330860  0.67729998  0.41702222  1
  S  S75  1  0.14639480  0.00576028  0.25065449  1
  S  S76  1  0.64670248  0.00548027  0.25039978  1
  S  S77  1  0.14859607  0.29316136  0.75172504  1
  S  S78  1  0.64517469  0.28670908  0.75003789  1
  S  S79  1  0.48042733  0.33604439  0.58547728  1
  S  S80  1  0.98246742  0.33840133  0.58294296  1
  S  S81  1  0.32903003  0.61929945  0.58376753  1
  S  S82  1  0.48258626  0.62753161  0.08488569  1
  S  S83  1  0.98265664  0.62724655  0.08435644  1
  S  S84  1  0.32858163  0.03868540  0.08609845  1
  S  S85  1  0.82968877  0.04131909  0.08503606  1
  S  S86  1  0.31247753  0.67123351  0.91966580  1
  S  S87  1  0.81160199  0.66716809  0.91979718  1
  S  S88  1  0.31095948  0.95614894  0.41940718  1
  S  S89  1  0.81220001  0.95730576  0.41943007  1
  O  O90  1  0.10744310  0.03471479  0.30367775  1
  O  O91  1  0.60775958  0.03479450  0.30348454  1
  O  O92  1  0.41502652  0.79837159  0.31137710  1
  O  O93  1  0.91545993  0.79895890  0.31101721  1
  O  O94  1  0.48067993  0.17636457  0.31337271  1
  O  O95  1  0.98163494  0.17757531  0.31328563  1
  O  O96  1  0.11012681  0.19029139  0.80634285  1
  O  O97  1  0.60469352  0.17803792  0.80173676  1
  O  O98  1  0.48189649  0.78518445  0.81349912  1
  O  O99  1  0.98628985  0.79187125  0.81257841  1
  O  O100  1  0.42238832  0.03900522  0.80570944  1
  O  O101  1  0.91044053  0.02320406  0.81086635  1
  O  O102  1  0.40147354  0.98361394  0.68967484  1
  O  O103  1  0.90264770  0.99203456  0.69026151  1
  O  O104  1  0.09462861  0.20963182  0.69789877  1
  O  O105  1  0.59230004  0.21098877  0.69362105  1
  O  O106  1  0.01320249  0.82462431  0.69477521  1
  O  O107  1  0.51524880  0.83029268  0.69681999  1
  O  O108  1  0.40734624  0.82675253  0.19302401  1
  O  O109  1  0.90706874  0.82746981  0.19266976  1
  O  O110  1  0.01789200  0.20086658  0.19718108  1
  O  O111  1  0.51707557  0.19925068  0.19730152  1
  O  O112  1  0.09238923  0.97592229  0.19602259  1
  O  O113  1  0.59247895  0.97541098  0.19593485  1
  O  O114  1  0.43827401  0.35078447  0.63909623  1
  O  O115  1  0.93949108  0.36132284  0.63404436  1
  O  O116  1  0.24477660  0.12800636  0.64740397  1
  O  O117  1  0.74559523  0.12098394  0.64602389  1
  O  O118  1  0.32424147  0.51636805  0.63597530  1
  O  O119  1  0.81281694  0.48634313  0.63704885  1
  O  O120  1  0.44201710  0.52745743  0.13998403  1
  O  O121  1  0.94160000  0.52821123  0.13942358  1
  O  O122  1  0.32502152  0.13257762  0.13854625  1
  O  O123  1  0.82666462  0.13830536  0.13673985  1
  O  O124  1  0.24492836  0.35961212  0.14507798  1
  O  O125  1  0.74320623  0.36154004  0.14730280  1
  O  O126  1  0.23802631  0.32330325  0.02543798  1
  O  O127  1  0.73964607  0.32373764  0.03021694  1
  O  O128  1  0.42985905  0.53773686  0.03100778  1
  O  O129  1  0.93042720  0.53834405  0.03015097  1
  O  O130  1  0.34166476  0.14346565  0.03094310  1
  O  O131  1  0.84279003  0.14249688  0.02872861  1
  O  O132  1  0.24030261  0.15440447  0.52947038  1
  O  O133  1  0.73767555  0.16573216  0.52991729  1
  O  O134  1  0.34171318  0.54295742  0.52792448  1
  O  O135  1  0.85240165  0.55032915  0.52316432  1
  O  O136  1  0.43057572  0.32290653  0.53016689  1
  O  O137  1  0.93138095  0.31325548  0.52626254  1
  O  O138  1  0.27235337  0.69117586  0.97289489  1
  O  O139  1  0.77060871  0.68840344  0.97201999  1
  O  O140  1  0.08340318  0.43813099  0.97418856  1
  O  O141  1  0.57629859  0.44367870  0.97455832  1
  O  O142  1  0.14829550  0.81606823  0.97417268  1
  O  O143  1  0.65102535  0.81867530  0.97578963  1
  O  O144  1  0.26916019  0.85378552  0.47241084  1
  O  O145  1  0.77338916  0.85810858  0.47376658  1
  O  O146  1  0.15079918  0.48129575  0.47414873  1
  O  O147  1  0.64761617  0.45746777  0.47803952  1
  O  O148  1  0.07258259  0.70140277  0.47910996  1
  O  O149  1  0.58288741  0.69877163  0.47488261  1
  O  O150  1  0.06910857  0.65147555  0.35920795  1
  O  O151  1  0.56380850  0.64457907  0.35646338  1
  O  O152  1  0.25945417  0.88035532  0.36430085  1
  O  O153  1  0.75849121  0.87519214  0.36543850  1
  O  O154  1  0.18324424  0.49273355  0.35897878  1
  O  O155  1  0.67963225  0.49172445  0.36109638  1
  O  O156  1  0.06694483  0.49313097  0.86043226  1
  O  O157  1  0.56465261  0.48426112  0.85626560  1
  O  O158  1  0.17919122  0.87418035  0.85741352  1
  O  O159  1  0.68322569  0.87171862  0.86026030  1
  O  O160  1  0.25789376  0.63893557  0.86532149  1
  O  O161  1  0.76060013  0.64007450  0.86410803  1
  O  O162  1  0.00405659  0.84260381  0.41047418  1
  O  O163  1  0.50434882  0.83828316  0.41072718  1
  O  O164  1  0.39624400  0.96917587  0.41689461  1
  O  O165  1  0.89784827  0.97070203  0.41541874  1
  O  O166  1  0.07525462  0.18702272  0.41174279  1
  O  O167  1  0.57384894  0.17932537  0.41043013  1
  O  O168  1  0.00634557  0.16867545  0.90844805  1
  O  O169  1  0.50653719  0.16754154  0.90801074  1
  O  O170  1  0.07691626  0.97160376  0.91274017  1
  O  O171  1  0.57432409  0.96038272  0.91194500  1
  O  O172  1  0.39923987  0.82006320  0.91546263  1
  O  O173  1  0.89793705  0.82381477  0.91633376  1
  O  O174  1  0.49019108  0.17843007  0.58684719  1
  O  O175  1  0.99028374  0.17964051  0.58759175  1
  O  O176  1  0.09343666  0.01194955  0.58856360  1
  O  O177  1  0.59367848  0.03467625  0.58773506  1
  O  O178  1  0.40900102  0.79495364  0.58595051  1
  O  O179  1  0.91370876  0.81649966  0.58935790  1
  O  O180  1  0.48846245  0.80002282  0.08755265  1
  O  O181  1  0.98892722  0.80077089  0.08671984  1
  O  O182  1  0.40797812  0.02127762  0.08812310  1
  O  O183  1  0.90965094  0.02424384  0.08751547  1
  O  O184  1  0.09440282  0.17050165  0.08777896  1
  O  O185  1  0.59324285  0.17155633  0.08870879  1
  O  O186  1  0.34269849  0.16756767  0.74723647  1
  O  O187  1  0.83753313  0.17019802  0.74577678  1
  O  O188  1  0.23383801  0.30440707  0.74697404  1
  O  O189  1  0.73084999  0.30404756  0.74582459  1
  O  O190  1  0.40969518  0.50383657  0.74024953  1
  O  O191  1  0.90741147  0.51021777  0.74245973  1
  O  O192  1  0.34277631  0.51700179  0.24709896  1
  O  O193  1  0.84355964  0.51811241  0.24707300  1
  O  O194  1  0.40925762  0.31445710  0.24008443  1
  O  O195  1  0.90904314  0.31380219  0.23986396  1
  O  O196  1  0.23259429  0.15838707  0.24569641  1
  O  O197  1  0.73290572  0.15789422  0.24564005  1
  O  O198  1  0.32216707  0.51038487  0.92396608  1
  O  O199  1  0.82678080  0.51489450  0.92367787  1
  O  O200  1  0.42754356  0.36440174  0.92177192  1
  O  O201  1  0.92639330  0.35692232  0.92396292  1
  O  O202  1  0.24448687  0.14656345  0.92391915  1
  O  O203  1  0.74869215  0.13643851  0.92532981  1
  O  O204  1  0.32534607  0.13775644  0.42306820  1
  O  O205  1  0.82596597  0.13736009  0.42197960  1
  O  O206  1  0.24954950  0.36056530  0.42425123  1
  O  O207  1  0.74899601  0.35389920  0.42032985  1
  O  O208  1  0.42771057  0.49531593  0.42359323  1
  O  O209  1  0.92728577  0.49324052  0.41850838  1
  O  O210  1  0.18241439  0.52319569  0.07721737  1
  O  O211  1  0.68142836  0.52351988  0.07753815  1
  O  O212  1  0.06889574  0.64542339  0.08218909  1
  O  O213  1  0.56891935  0.64632373  0.08276958  1
  O  O214  1  0.25215771  0.86949622  0.08039704  1
  O  O215  1  0.75392983  0.87134129  0.08077579  1
  O  O216  1  0.17693364  0.83558735  0.57889000  1
  O  O217  1  0.67949725  0.84764159  0.57760247  1
  O  O218  1  0.25297807  0.63955451  0.57833485  1
  O  O219  1  0.74340074  0.64148613  0.57607993  1
  O  O220  1  0.06842333  0.49479482  0.58008451  1
  O  O221  1  0.56796399  0.48886968  0.58442198  1
  O  O222  1  0.15260086  0.84561130  0.25629808  1
  O  O223  1  0.65293878  0.84553390  0.25632452  1
  O  O224  1  0.25909570  0.69195638  0.25382289  1
  O  O225  1  0.75872705  0.69091255  0.25427057  1
  O  O226  1  0.07738852  0.48060260  0.25584849  1
  O  O227  1  0.57770684  0.47962993  0.25549486  1
  O  O228  1  0.15920962  0.46815585  0.75550441  1
  O  O229  1  0.65152132  0.45980511  0.75467594  1
  O  O230  1  0.08150364  0.68553270  0.75359468  1
  O  O231  1  0.57846854  0.67621768  0.75475604  1
  O  O232  1  0.25943257  0.82602888  0.75481939  1
  O  O233  1  0.75838906  0.82911606  0.75347612  1
