# generated using pymatgen
data_Na8Zn3Ge(PO4)6
_symmetry_space_group_name_H-M   'P 1'
_cell_length_a   8.99018067
_cell_length_b   8.99018037
_cell_length_c   21.90615616
_cell_angle_alpha   90.00000000
_cell_angle_beta   90.00000000
_cell_angle_gamma   120.00000116
_symmetry_Int_Tables_number   1
_chemical_formula_structural   Na8Zn3Ge(PO4)6
_chemical_formula_sum   'Na24 Zn9 Ge3 P18 O72'
_cell_volume   1533.32292973
_cell_formula_units_Z   3
loop_
 _symmetry_equiv_pos_site_id
 _symmetry_equiv_pos_as_xyz
  1  'x, y, z'
loop_
 _atom_site_type_symbol
 _atom_site_label
 _atom_site_symmetry_multiplicity
 _atom_site_fract_x
 _atom_site_fract_y
 _atom_site_fract_z
 _atom_site_occupancy
  Na  Na0  1  0.63317250  0.99998844  0.25225326  1
  Na  Na1  1  0.36681594  0.36682750  0.25225326  1
  Na  Na2  1  0.00001156  0.63318406  0.25225326  1
  Na  Na3  1  0.64521744  0.63496776  0.74349086  1
  Na  Na4  1  0.98975032  0.35478256  0.74349086  1
  Na  Na5  1  0.36503224  0.01024968  0.74349086  1
  Na  Na6  1  0.29299479  0.33488154  0.58112045  1
  Na  Na7  1  0.04188775  0.70700521  0.58112045  1
  Na  Na8  1  0.66511846  0.95811225  0.58112045  1
  Na  Na9  1  0.29205407  0.95961003  0.08986529  1
  Na  Na10  1  0.66755696  0.70794593  0.08986529  1
  Na  Na11  1  0.04038997  0.33244304  0.08986529  1
  Na  Na12  1  0.96948963  0.67660668  0.91551206  1
  Na  Na13  1  0.70711604  0.03051037  0.91551206  1
  Na  Na14  1  0.32339332  0.29288396  0.91551206  1
  Na  Na15  1  0.97905805  0.30171829  0.40970332  1
  Na  Na16  1  0.32265924  0.02094195  0.40970332  1
  Na  Na17  1  0.69828171  0.67734076  0.40970332  1
  Na  Na18  1  0.00000000  -0.00000000  0.49736788  1
  Na  Na19  1  0.00000000  -0.00000000  0.00336206  1
  Na  Na20  1  0.66666700  0.33333300  0.82941627  1
  Na  Na21  1  0.66666700  0.33333300  0.32841015  1
  Na  Na22  1  0.33333300  0.66666700  0.17162281  1
  Na  Na23  1  0.33333300  0.66666700  0.65980756  1
  Zn  Zn24  1  0.00000000  -0.00000000  0.34475033  1
  Zn  Zn25  1  0.00000000  -0.00000000  0.84552483  1
  Zn  Zn26  1  0.00000000  -0.00000000  0.65099381  1
  Zn  Zn27  1  0.00000000  -0.00000000  0.15755297  1
  Zn  Zn28  1  0.66666700  0.33333300  0.68016835  1
  Zn  Zn29  1  0.66666700  0.33333300  0.18418028  1
  Zn  Zn30  1  0.33333300  0.66666700  0.01736863  1
  Zn  Zn31  1  0.33333300  0.66666700  0.51146323  1
  Zn  Zn32  1  0.33333300  0.66666700  0.31978219  1
  Ge  Ge33  1  0.66666700  0.33333300  0.98484652  1
  Ge  Ge34  1  0.66666700  0.33333300  0.48335563  1
  Ge  Ge35  1  0.33333300  0.66666700  0.81699712  1
  P  P36  1  0.29756764  0.99819248  0.24973138  1
  P  P37  1  0.70062484  0.70243236  0.24973138  1
  P  P38  1  0.00180752  0.29937516  0.24973138  1
  P  P39  1  0.29646543  0.30513990  0.75342954  1
  P  P40  1  0.00867447  0.70353457  0.75342954  1
  P  P41  1  0.69486010  0.99132553  0.75342954  1
  P  P42  1  0.95688548  0.33298777  0.58384749  1
  P  P43  1  0.37610328  0.04311452  0.58384749  1
  P  P44  1  0.66701223  0.62389672  0.58384749  1
  P  P45  1  0.95641393  0.62229606  0.08125874  1
  P  P46  1  0.66588313  0.04358607  0.08125874  1
  P  P47  1  0.37770394  0.33411687  0.08125874  1
  P  P48  1  0.62369349  0.66135075  0.91783479  1
  P  P49  1  0.03765627  0.37630651  0.91783479  1
  P  P50  1  0.33864925  0.96234373  0.91783479  1
  P  P51  1  0.63160135  0.97251588  0.42031579  1
  P  P52  1  0.34091354  0.36839865  0.42031579  1
  P  P53  1  0.02748412  0.65908646  0.42031579  1
  O  O54  1  0.21365626  0.02480098  0.30715830  1
  O  O55  1  0.81114472  0.78634374  0.30715830  1
  O  O56  1  0.97519902  0.18885528  0.30715830  1
  O  O57  1  0.21682843  0.19585685  0.81079706  1
  O  O58  1  0.97902843  0.78317157  0.81079706  1
  O  O59  1  0.80414315  0.02097157  0.81079706  1
  O  O60  1  0.77038456  0.95362333  0.69602621  1
  O  O61  1  0.18323877  0.22961544  0.69602621  1
  O  O62  1  0.04637667  0.81676123  0.69602621  1
  O  O63  1  0.78032086  0.81013200  0.19081814  1
  O  O64  1  0.02981115  0.21967914  0.19081814  1
  O  O65  1  0.18986800  0.97018885  0.19081814  1
  O  O66  1  0.88058123  0.36027396  0.64273933  1
  O  O67  1  0.47969373  0.11941877  0.64273933  1
  O  O68  1  0.63972604  0.52030627  0.64273933  1
  O  O69  1  0.87381930  0.51231708  0.13733329  1
  O  O70  1  0.63849877  0.12618070  0.13733329  1
  O  O71  1  0.48768292  0.36150123  0.13733329  1
  O  O72  1  0.46592136  0.30361694  0.02072514  1
  O  O73  1  0.83769658  0.53407864  0.02072514  1
  O  O74  1  0.69638306  0.16230342  0.02072514  1
  O  O75  1  0.46946699  0.16364299  0.52690006  1
  O  O76  1  0.69417700  0.53053301  0.52690006  1
  O  O77  1  0.83635701  0.30582300  0.52690006  1
  O  O78  1  0.54566737  0.69227594  0.97415780  1
  O  O79  1  0.14660757  0.45433263  0.97415780  1
  O  O80  1  0.30772406  0.85339243  0.97415780  1
  O  O81  1  0.55234238  0.86257605  0.47771712  1
  O  O82  1  0.31023267  0.44765762  0.47771712  1
  O  O83  1  0.13742395  0.68976733  0.47771712  1
  O  O84  1  0.10341385  0.62092286  0.36331911  1
  O  O85  1  0.51750800  0.89658615  0.36331911  1
  O  O86  1  0.37907714  0.48249200  0.36331911  1
  O  O87  1  0.12462860  0.49740974  0.85971610  1
  O  O88  1  0.37278014  0.87537140  0.85971610  1
  O  O89  1  0.50259026  0.62721986  0.85971610  1
  O  O90  1  0.00127210  0.81580712  0.41458454  1
  O  O91  1  0.81453502  0.99872790  0.41458454  1
  O  O92  1  0.18419288  0.18546498  0.41458454  1
  O  O93  1  0.01168230  0.19457587  0.91015860  1
  O  O94  1  0.18289357  0.98831770  0.91015860  1
  O  O95  1  0.80542413  0.81710643  0.91015860  1
  O  O96  1  0.96903317  0.16633045  0.58475266  1
  O  O97  1  0.19729728  0.03096683  0.58475266  1
  O  O98  1  0.83366955  0.80270272  0.58475266  1
  O  O99  1  0.97021668  0.80068810  0.08070880  1
  O  O100  1  0.83047143  0.02978332  0.08070880  1
  O  O101  1  0.19931190  0.16952857  0.08070880  1
  O  O102  1  0.66852543  0.14820220  0.74827825  1
  O  O103  1  0.47967777  0.33147457  0.74827825  1
  O  O104  1  0.85179780  0.52032223  0.74827825  1
  O  O105  1  0.68300349  0.52152400  0.24671119  1
  O  O106  1  0.83852152  0.31699651  0.24671119  1
  O  O107  1  0.47847600  0.16147848  0.24671119  1
  O  O108  1  0.63581948  0.48973876  0.91967857  1
  O  O109  1  0.85392028  0.36418052  0.91967857  1
  O  O110  1  0.51026124  0.14607972  0.91967857  1
  O  O111  1  0.64648842  0.15795169  0.42617764  1
  O  O112  1  0.51146427  0.35351158  0.42617764  1
  O  O113  1  0.84204831  0.48853573  0.42617764  1
  O  O114  1  0.36015364  0.49601134  0.07564359  1
  O  O115  1  0.13585670  0.63984636  0.07564359  1
  O  O116  1  0.50398866  0.86414330  0.07564359  1
  O  O117  1  0.35610087  0.86260350  0.57808454  1
  O  O118  1  0.50650163  0.64389913  0.57808454  1
  O  O119  1  0.13739650  0.49349837  0.57808454  1
  O  O120  1  0.31473199  0.83470625  0.25424200  1
  O  O121  1  0.51997326  0.68526801  0.25424200  1
  O  O122  1  0.16529375  0.48002674  0.25424200  1
  O  O123  1  0.31023670  0.49026303  0.75955213  1
  O  O124  1  0.18002533  0.68976330  0.75955213  1
  O  O125  1  0.50973697  0.81997467  0.75955213  1
