# generated using pymatgen
data_Na4ZnSiSn(PO6)2
_symmetry_space_group_name_H-M   'P 1'
_cell_length_a   9.11559541
_cell_length_b   9.13457818
_cell_length_c   22.04070041
_cell_angle_alpha   89.92826865
_cell_angle_beta   90.00000000
_cell_angle_gamma   119.93128007
_symmetry_Int_Tables_number   1
_chemical_formula_structural   Na4ZnSiSn(PO6)2
_chemical_formula_sum   'Na24 Zn6 Si6 Sn6 P12 O72'
_cell_volume   1590.48444834
_cell_formula_units_Z   6
loop_
 _symmetry_equiv_pos_site_id
 _symmetry_equiv_pos_as_xyz
  1  'x, y, z'
loop_
 _atom_site_type_symbol
 _atom_site_label
 _atom_site_symmetry_multiplicity
 _atom_site_fract_x
 _atom_site_fract_y
 _atom_site_fract_z
 _atom_site_occupancy
  Na  Na0  1  0.63384480  0.01346813  0.24896384  1
  Na  Na1  1  0.37348408  0.35557669  0.24890754  1
  Na  Na2  1  0.99005263  0.62861941  0.24340646  1
  Na  Na3  1  0.63856678  0.62861941  0.74340646  1
  Na  Na4  1  0.98209261  0.35557669  0.74890754  1
  Na  Na5  1  0.37962333  0.01346813  0.74896384  1
  Na  Na6  1  0.31038348  0.35044857  0.58237369  1
  Na  Na7  1  0.03520333  0.69254647  0.57961943  1
  Na  Na8  1  0.65203469  0.95066813  0.57964191  1
  Na  Na9  1  0.29863444  0.95066813  0.07964191  1
  Na  Na10  1  0.65734414  0.69254647  0.07961943  1
  Na  Na11  1  0.04006609  0.35044857  0.08237369  1
  Na  Na12  1  0.97677626  0.68474564  0.91734719  1
  Na  Na13  1  0.70449971  0.02843481  0.91035310  1
  Na  Na14  1  0.31948386  0.28812591  0.91382906  1
  Na  Na15  1  0.96864105  0.28812591  0.41382906  1
  Na  Na16  1  0.32393411  0.02843481  0.41035310  1
  Na  Na17  1  0.70796838  0.68474564  0.41734719  1
  Na  Na18  1  0.99177336  0.99566457  0.49430192  1
  Na  Na19  1  0.00389121  0.99566457  0.99430192  1
  Na  Na20  1  0.66480077  0.32618111  0.82767836  1
  Na  Na21  1  0.66138135  0.32618111  0.32767836  1
  Na  Na22  1  0.32723258  0.66898221  0.16120605  1
  Na  Na23  1  0.34174863  0.66898221  0.66120605  1
  Zn  Zn24  1  0.00050911  0.00041210  0.34789842  1
  Zn  Zn25  1  0.99990299  0.00041210  0.84789842  1
  Zn  Zn26  1  0.66634995  0.33052735  0.68140978  1
  Zn  Zn27  1  0.66417840  0.33052735  0.18140978  1
  Zn  Zn28  1  0.32344258  0.67059474  0.01484424  1
  Zn  Zn29  1  0.34715116  0.67059474  0.51484424  1
  Si  Si30  1  0.29799654  0.00055390  0.25262473  1
  Si  Si31  1  0.70255736  0.00055390  0.75262473  1
  Si  Si32  1  0.66750839  0.62822799  0.58618796  1
  Si  Si33  1  0.96072060  0.62822799  0.08618796  1
  Si  Si34  1  0.33325563  0.96807683  0.91895883  1
  Si  Si35  1  0.63482019  0.96807683  0.41895883  1
  Sn  Sn36  1  0.99441391  0.99571465  0.65059124  1
  Sn  Sn37  1  0.00130073  0.99571465  0.15059124  1
  Sn  Sn38  1  0.66688658  0.33349286  0.98409838  1
  Sn  Sn39  1  0.66660727  0.33349286  0.48409838  1
  Sn  Sn40  1  0.33549281  0.67359509  0.31744853  1
  Sn  Sn41  1  0.33810128  0.67359509  0.81744853  1
  P  P42  1  0.70158073  0.70489445  0.25233152  1
  P  P43  1  0.00410646  0.29661701  0.25214577  1
  P  P44  1  0.29251055  0.29661701  0.75214577  1
  P  P45  1  0.00331372  0.70489445  0.75233152  1
  P  P46  1  0.96414932  0.33249258  0.58503854  1
  P  P47  1  0.36698005  0.03815465  0.58580645  1
  P  P48  1  0.67117559  0.03815465  0.08580645  1
  P  P49  1  0.36834426  0.33249258  0.08503854  1
  P  P50  1  0.62431791  0.66175682  0.91952761  1
  P  P51  1  0.03888834  0.37362112  0.91852706  1
  P  P52  1  0.33473177  0.37362112  0.41852706  1
  P  P53  1  0.03743790  0.66175682  0.41952761  1
  O  O54  1  0.21342022  0.03282346  0.31153010  1
  O  O55  1  0.80996436  0.78748957  0.30792245  1
  O  O56  1  0.97522960  0.18683242  0.30767738  1
  O  O57  1  0.21160282  0.18683242  0.80767738  1
  O  O58  1  0.97752521  0.78748957  0.80792245  1
  O  O59  1  0.81940324  0.03282346  0.81153010  1
  O  O60  1  0.78197280  0.95818800  0.69092891  1
  O  O61  1  0.18056665  0.21712694  0.69326289  1
  O  O62  1  0.04420426  0.82070184  0.69397238  1
  O  O63  1  0.77649757  0.82070184  0.19397238  1
  O  O64  1  0.03656029  0.21712694  0.19326289  1
  O  O65  1  0.17621520  0.95818800  0.19092891  1
  O  O66  1  0.88218424  0.35785034  0.64134251  1
  O  O67  1  0.47841589  0.11728075  0.64114944  1
  O  O68  1  0.63841610  0.51137228  0.64471010  1
  O  O69  1  0.87295718  0.51137228  0.14471010  1
  O  O70  1  0.63886586  0.11728075  0.14114944  1
  O  O71  1  0.47566710  0.35785034  0.14134251  1
  O  O72  1  0.44467314  0.29227540  0.02712941  1
  O  O73  1  0.83946407  0.54815905  0.02408204  1
  O  O74  1  0.70679969  0.15128050  0.02708056  1
  O  O75  1  0.44448182  0.15128050  0.52708056  1
  O  O76  1  0.70869598  0.54815905  0.52408204  1
  O  O77  1  0.84760326  0.29227540  0.52712941  1
  O  O78  1  0.53949049  0.68537941  0.97495836  1
  O  O79  1  0.14873939  0.45399614  0.97392111  1
  O  O80  1  0.30000479  0.85270431  0.97816494  1
  O  O81  1  0.55269852  0.85270431  0.47816494  1
  O  O82  1  0.30525575  0.45399614  0.47392111  1
  O  O83  1  0.14588793  0.68537941  0.47495836  1
  O  O84  1  0.11317090  0.62414290  0.36061586  1
  O  O85  1  0.51124378  0.88912253  0.35758995  1
  O  O86  1  0.36817774  0.48661372  0.35976323  1
  O  O87  1  0.11843498  0.48661372  0.85976323  1
  O  O88  1  0.37787775  0.88912253  0.85758995  1
  O  O89  1  0.51097099  0.62414290  0.86061586  1
  O  O90  1  0.01606137  0.81802508  0.41312805  1
  O  O91  1  0.82305846  0.99123987  0.41194201  1
  O  O92  1  0.18127622  0.19466160  0.41297108  1
  O  O93  1  0.01338537  0.19466160  0.91297108  1
  O  O94  1  0.16818141  0.99123987  0.91194201  1
  O  O95  1  0.80196371  0.81802508  0.91312805  1
  O  O96  1  0.98323349  0.16980218  0.58823125  1
  O  O97  1  0.19051702  0.03187839  0.58992638  1
  O  O98  1  0.84659802  0.81749723  0.58691982  1
  O  O99  1  0.97089921  0.81749723  0.08691982  1
  O  O100  1  0.84136137  0.03187839  0.08992638  1
  O  O101  1  0.18656869  0.16980218  0.08823125  1
  O  O102  1  0.67758387  0.16466679  0.74597437  1
  O  O103  1  0.47175969  0.32173238  0.74650976  1
  O  O104  1  0.84672368  0.52814897  0.74570458  1
  O  O105  1  0.68142628  0.52814897  0.24570458  1
  O  O106  1  0.84997369  0.32173238  0.24650976  1
  O  O107  1  0.48708392  0.16466679  0.24597437  1
  O  O108  1  0.64029628  0.49733776  0.92132564  1
  O  O109  1  0.86066676  0.36346400  0.92127008  1
  O  O110  1  0.51218340  0.15730878  0.92216205  1
  O  O111  1  0.64512638  0.15730878  0.42216205  1
  O  O112  1  0.50279824  0.36346400  0.42127008  1
  O  O113  1  0.85704247  0.49733776  0.42132564  1
  O  O114  1  0.35046135  0.48990714  0.07762552  1
  O  O115  1  0.14892120  0.65024911  0.08158874  1
  O  O116  1  0.52104804  0.85807652  0.07908281  1
  O  O117  1  0.33702748  0.85807652  0.57908281  1
  O  O118  1  0.50132691  0.65024911  0.58158874  1
  O  O119  1  0.13944479  0.48990714  0.57762552  1
  O  O120  1  0.30633882  0.82067056  0.25380053  1
  O  O121  1  0.51966350  0.68591226  0.25530708  1
  O  O122  1  0.17262383  0.47388804  0.25566103  1
  O  O123  1  0.30126321  0.47388804  0.75566103  1
  O  O124  1  0.16624776  0.68591226  0.75530708  1
  O  O125  1  0.51433074  0.82067056  0.75380053  1
