# generated using pymatgen
data_Na2Ti4Zn4SiS11O48
_symmetry_space_group_name_H-M   'P 1'
_cell_length_a   17.30659036
_cell_length_b   8.66397013
_cell_length_c   22.42511200
_cell_angle_alpha   89.84640746
_cell_angle_beta   90.02565646
_cell_angle_gamma   119.98750769
_symmetry_Int_Tables_number   1
_chemical_formula_structural   Na2Ti4Zn4SiS11O48
_chemical_formula_sum   'Na6 Ti12 Zn12 Si3 S33 O144'
_cell_volume   2912.37019283
_cell_formula_units_Z   3
loop_
 _symmetry_equiv_pos_site_id
 _symmetry_equiv_pos_as_xyz
  1  'x, y, z'
loop_
 _atom_site_type_symbol
 _atom_site_label
 _atom_site_symmetry_multiplicity
 _atom_site_fract_x
 _atom_site_fract_y
 _atom_site_fract_z
 _atom_site_occupancy
  Na  Na0  1  0.99697511  0.99185385  0.49439100  1
  Na  Na1  1  0.49870870  0.99674875  0.00023624  1
  Na  Na2  1  0.33197802  0.32944195  0.83563293  1
  Na  Na3  1  0.83782223  0.33836010  0.83243067  1
  Na  Na4  1  0.33505365  0.33339979  0.33122408  1
  Na  Na5  1  0.83714543  0.33699850  0.33775380  1
  Ti  Ti6  1  0.49766297  0.00890477  0.35615010  1
  Ti  Ti7  1  0.49674996  0.00767983  0.85517684  1
  Ti  Ti8  1  0.99867337  0.99406700  0.65038590  1
  Ti  Ti9  1  0.50054807  0.00146048  0.63977261  1
  Ti  Ti10  1  0.00044177  0.00195007  0.14569178  1
  Ti  Ti11  1  0.49956910  0.00863051  0.15159193  1
  Ti  Ti12  1  0.16291529  0.66588935  0.01818650  1
  Ti  Ti13  1  0.66282361  0.65177459  0.02046027  1
  Ti  Ti14  1  0.16010911  0.66724715  0.52017108  1
  Ti  Ti15  1  0.15723695  0.65991257  0.31261068  1
  Ti  Ti16  1  0.66537963  0.66354674  0.31015628  1
  Ti  Ti17  1  0.66322031  0.65854188  0.81141462  1
  Zn  Zn18  1  0.99923421  0.99098829  0.35577628  1
  Zn  Zn19  1  0.00251705  0.00266688  0.85546545  1
  Zn  Zn20  1  0.33176868  0.33312628  0.68341701  1
  Zn  Zn21  1  0.83576703  0.33621892  0.68142037  1
  Zn  Zn22  1  0.33707297  0.33283472  0.18546209  1
  Zn  Zn23  1  0.83393577  0.33276065  0.18343155  1
  Zn  Zn24  1  0.33632293  0.33170365  0.98088836  1
  Zn  Zn25  1  0.83558345  0.33503587  0.98309025  1
  Zn  Zn26  1  0.33601393  0.33806426  0.48307998  1
  Zn  Zn27  1  0.83629092  0.33809255  0.48002608  1
  Zn  Zn28  1  0.66760821  0.66925248  0.52040063  1
  Zn  Zn29  1  0.16265342  0.66190463  0.80985998  1
  Si  Si30  1  0.49780898  0.29422858  0.25185921  1
  Si  Si31  1  0.51921421  0.37817933  0.91575453  1
  Si  Si32  1  0.01563481  0.66629356  0.41730165  1
  S  S33  1  0.14420019  0.00069952  0.25042755  1
  S  S34  1  0.64411490  0.00138734  0.25151304  1
  S  S35  1  0.35490445  0.71337062  0.25203161  1
  S  S36  1  0.85548929  0.70923481  0.25002371  1
  S  S37  1  0.99929634  0.28681064  0.25090130  1
  S  S38  1  0.14615069  0.28954770  0.75054123  1
  S  S39  1  0.64374731  0.28605455  0.75032309  1
  S  S40  1  0.99837066  0.70648986  0.75149246  1
  S  S41  1  0.50040860  0.71542880  0.75089897  1
  S  S42  1  0.35622630  -0.00008932  0.74865367  1
  S  S43  1  0.85448814  0.00144383  0.75186731  1
  S  S44  1  0.48005133  0.33702818  0.58432053  1
  S  S45  1  0.98082323  0.32954999  0.58393850  1
  S  S46  1  0.18656517  0.04038058  0.58346544  1
  S  S47  1  0.68899209  0.04191376  0.58410698  1
  S  S48  1  0.33188193  0.62543387  0.58328879  1
  S  S49  1  0.83303139  0.62808006  0.58482136  1
  S  S50  1  0.48093928  0.63124478  0.08266518  1
  S  S51  1  0.98016122  0.62866777  0.08350029  1
  S  S52  1  0.33241662  0.03469206  0.08260295  1
  S  S53  1  0.83243706  0.03809374  0.08354149  1
  S  S54  1  0.18799204  0.33545034  0.08340977  1
  S  S55  1  0.68677029  0.33051384  0.08289266  1
  S  S56  1  0.30981382  0.66478912  0.91535396  1
  S  S57  1  0.81008618  0.66711509  0.91634966  1
  S  S58  1  0.02043964  0.37612576  0.91591561  1
  S  S59  1  0.16600999  0.95520703  0.91534576  1
  S  S60  1  0.66701935  0.95377777  0.91536971  1
  S  S61  1  0.30906348  0.95266830  0.41575111  1
  S  S62  1  0.80940847  0.95329492  0.41643618  1
  S  S63  1  0.16887611  0.38417624  0.41682786  1
  S  S64  1  0.66557463  0.37692185  0.41581523  1
  S  S65  1  0.52178124  0.66778342  0.41520626  1
  O  O66  1  0.10468026  0.02931322  0.30345707  1
  O  O67  1  0.59986586  0.02473014  0.30412170  1
  O  O68  1  0.41345538  0.79968068  0.30452356  1
  O  O69  1  0.90972562  0.78577113  0.30306126  1
  O  O70  1  0.48828853  0.16079922  0.30754685  1
  O  O71  1  0.98594416  0.18059429  0.30416105  1
  O  O72  1  0.10695858  0.18000220  0.80418166  1
  O  O73  1  0.59868357  0.17302022  0.80430923  1
  O  O74  1  0.48887959  0.80332662  0.80466873  1
  O  O75  1  0.98303453  0.78678924  0.80430918  1
  O  O76  1  0.41472599  0.02405047  0.80434437  1
  O  O77  1  0.90982255  0.03200278  0.80476062  1
  O  O78  1  0.40255573  0.97892315  0.69648329  1
  O  O79  1  0.89738182  0.97317159  0.69709297  1
  O  O80  1  0.08754538  0.19254956  0.69637836  1
  O  O81  1  0.58850627  0.20556076  0.69700538  1
  O  O82  1  0.00805514  0.82265802  0.69674565  1
  O  O83  1  0.51390848  0.82466445  0.69689349  1
  O  O84  1  0.39985936  0.82581710  0.19698456  1
  O  O85  1  0.89870559  0.82373036  0.19561290  1
  O  O86  1  0.01251942  0.20066979  0.19633034  1
  O  O87  1  0.51512913  0.19402610  0.19342108  1
  O  O88  1  0.08611448  0.97007825  0.19616146  1
  O  O89  1  0.58870584  0.97041498  0.19625728  1
  O  O90  1  0.43956788  0.36382217  0.63788020  1
  O  O91  1  0.94619584  0.36744399  0.63758766  1
  O  O92  1  0.23972783  0.11389313  0.63716946  1
  O  O93  1  0.74194482  0.12094498  0.63808305  1
  O  O94  1  0.31503869  0.51772233  0.63700527  1
  O  O95  1  0.82013768  0.52225268  0.63899527  1
  O  O96  1  0.44569058  0.52237849  0.13635761  1
  O  O97  1  0.94455844  0.51797863  0.13684989  1
  O  O98  1  0.31467852  0.10621403  0.13617054  1
  O  O99  1  0.81410330  0.11166419  0.13703715  1
  O  O100  1  0.24268903  0.37215484  0.13696696  1
  O  O101  1  0.73949065  0.36099972  0.13682067  1
  O  O102  1  0.22266536  0.29375174  0.03034344  1
  O  O103  1  0.72399879  0.29852204  0.02896334  1
  O  O104  1  0.42592309  0.55730449  0.02941092  1
  O  O105  1  0.92509452  0.55882096  0.03023957  1
  O  O106  1  0.35366181  0.14654154  0.02941140  1
  O  O107  1  0.85417714  0.15142092  0.03063695  1
  O  O108  1  0.22268311  0.14970491  0.52949252  1
  O  O109  1  0.72345539  0.15555594  0.53089560  1
  O  O110  1  0.35416120  0.55618769  0.53043710  1
  O  O111  1  0.85562797  0.55976105  0.53134715  1
  O  O112  1  0.42311813  0.29073572  0.53086731  1
  O  O113  1  0.92560975  0.29151279  0.53065202  1
  O  O114  1  0.27022630  0.69786552  0.96999580  1
  O  O115  1  0.76620064  0.69061478  0.97090549  1
  O  O116  1  0.07872539  0.47271348  0.97079981  1
  O  O117  1  0.58489915  0.47300753  0.97401512  1
  O  O118  1  0.15709394  0.83843306  0.97054192  1
  O  O119  1  0.65327003  0.84507270  0.96975048  1
  O  O120  1  0.27070196  0.84547141  0.47034610  1
  O  O121  1  0.77082769  0.84630721  0.47035277  1
  O  O122  1  0.16061646  0.47497742  0.47103264  1
  O  O123  1  0.64678876  0.44562932  0.46922904  1
  O  O124  1  0.08407092  0.68515416  0.47381684  1
  O  O125  1  0.57340571  0.69925515  0.46924263  1
  O  O126  1  0.07339321  0.64412997  0.35888444  1
  O  O127  1  0.56738456  0.64154370  0.36151361  1
  O  O128  1  0.25488947  0.86627896  0.36176874  1
  O  O129  1  0.75370860  0.85804397  0.36193808  1
  O  O130  1  0.18149809  0.49514992  0.36166994  1
  O  O131  1  0.67786444  0.49105997  0.36206235  1
  O  O132  1  0.06013356  0.48663550  0.86299521  1
  O  O133  1  0.57495089  0.50433544  0.85820214  1
  O  O134  1  0.18208318  0.87555468  0.86279858  1
  O  O135  1  0.67988349  0.86968240  0.86133381  1
  O  O136  1  0.25875968  0.64370452  0.86155698  1
  O  O137  1  0.75295606  0.64416709  0.86242591  1
  O  O138  1  0.01934676  0.85245217  0.41646048  1
  O  O139  1  0.51268125  0.82739488  0.40306112  1
  O  O140  1  0.39853117  0.96535069  0.40848350  1
  O  O141  1  0.89970340  0.97789747  0.40997995  1
  O  O142  1  0.08662568  0.21278994  0.41283518  1
  O  O143  1  0.58448817  0.19375563  0.40551866  1
  O  O144  1  0.01598552  0.20381815  0.91425104  1
  O  O145  1  0.51644902  0.18412938  0.90681712  1
  O  O146  1  0.08293389  0.95952819  0.91419093  1
  O  O147  1  0.58390337  0.96568100  0.90881149  1
  O  O148  1  0.40190073  0.83221600  0.91038977  1
  O  O149  1  0.89674044  0.82687102  0.91071246  1
  O  O150  1  0.48864462  0.16887479  0.59539698  1
  O  O151  1  0.99331434  0.17039627  0.59295645  1
  O  O152  1  0.09405884  0.01429649  0.59159494  1
  O  O153  1  0.59565438  0.02474148  0.59563504  1
  O  O154  1  0.41392478  0.80962874  0.59419368  1
  O  O155  1  0.91672098  0.81490965  0.59464454  1
  O  O156  1  0.49438223  0.81497596  0.09105255  1
  O  O157  1  0.99280150  0.81140111  0.09440221  1
  O  O158  1  0.41280466  0.00878620  0.09165307  1
  O  O159  1  0.91337823  0.01698754  0.09543783  1
  O  O160  1  0.09557589  0.17587258  0.09551077  1
  O  O161  1  0.59457380  0.16980374  0.08959411  1
  O  O162  1  0.35163057  0.16402644  0.74614819  1
  O  O163  1  0.84256282  0.15611918  0.74318575  1
  O  O164  1  0.23513497  0.30692116  0.74251902  1
  O  O165  1  0.73219450  0.30542336  0.74697599  1
  O  O166  1  0.42229674  0.53660727  0.74650363  1
  O  O167  1  0.91857319  0.52942710  0.74331296  1
  O  O168  1  0.34609538  0.53772612  0.24531988  1
  O  O169  1  0.84233292  0.52932151  0.24134614  1
  O  O170  1  0.41104891  0.30952550  0.24756528  1
  O  O171  1  0.92230508  0.31332073  0.24285425  1
  O  O172  1  0.23249296  0.15633005  0.24146639  1
  O  O173  1  0.73251069  0.15970474  0.24519337  1
  O  O174  1  0.32134224  0.51077559  0.92346457  1
  O  O175  1  0.81439840  0.50210216  0.92084681  1
  O  O176  1  0.42352332  0.35706277  0.91847892  1
  O  O177  1  0.93175063  0.36014240  0.92416939  1
  O  O178  1  0.24449789  0.13184487  0.92450796  1
  O  O179  1  0.74553499  0.13211417  0.92052891  1
  O  O180  1  0.32062740  0.13196418  0.42036200  1
  O  O181  1  0.81139877  0.12528295  0.41830598  1
  O  O182  1  0.24960392  0.36803695  0.42089863  1
  O  O183  1  0.74381792  0.35495735  0.41849120  1
  O  O184  1  0.43230794  0.50630163  0.41809853  1
  O  O185  1  0.92492624  0.48243438  0.41832415  1
  O  O186  1  0.17406568  0.49088836  0.07206979  1
  O  O187  1  0.67669342  0.49259412  0.07538342  1
  O  O188  1  0.07154598  0.65267957  0.07303633  1
  O  O189  1  0.57298925  0.65453650  0.07224947  1
  O  O190  1  0.25391652  0.85308626  0.07194208  1
  O  O191  1  0.75529648  0.85748129  0.07269013  1
  O  O192  1  0.17721874  0.85973027  0.57453321  1
  O  O193  1  0.67253823  0.86178815  0.57716446  1
  O  O194  1  0.25549002  0.65288468  0.57316060  1
  O  O195  1  0.75703943  0.65430839  0.57738471  1
  O  O196  1  0.07291189  0.48794101  0.57392013  1
  O  O197  1  0.56921834  0.48627467  0.57666212  1
  O  O198  1  0.15182175  0.83591331  0.25623759  1
  O  O199  1  0.65156760  0.83918626  0.25871924  1
  O  O200  1  0.26883370  0.70530240  0.25862248  1
  O  O201  1  0.76710636  0.69956539  0.25608004  1
  O  O202  1  0.08378852  0.46509506  0.25559526  1
  O  O203  1  0.59009978  0.48216831  0.26321777  1
  O  O204  1  0.15089745  0.46222666  0.75265829  1
  O  O205  1  0.65160132  0.46508218  0.75822955  1
  O  O206  1  0.08086853  0.70014325  0.75252720  1
  O  O207  1  0.58378262  0.70404036  0.75864666  1
  O  O208  1  0.27069881  0.83961324  0.75592933  1
  O  O209  1  0.76595529  0.83530418  0.75833889  1
