# generated using pymatgen
data_Na2Zn2(SO4)3
_symmetry_space_group_name_H-M   'P 1'
_cell_length_a   8.85015418
_cell_length_b   8.85015389
_cell_length_c   22.57910055
_cell_angle_alpha   90.38228652
_cell_angle_beta   89.61771342
_cell_angle_gamma   120.51545977
_symmetry_Int_Tables_number   1
_chemical_formula_structural   Na2Zn2(SO4)3
_chemical_formula_sum   'Na12 Zn12 S18 O72'
_cell_volume   1523.51528359
_cell_formula_units_Z   6
loop_
 _symmetry_equiv_pos_site_id
 _symmetry_equiv_pos_as_xyz
  1  'x, y, z'
loop_
 _atom_site_type_symbol
 _atom_site_label
 _atom_site_symmetry_multiplicity
 _atom_site_fract_x
 _atom_site_fract_y
 _atom_site_fract_z
 _atom_site_occupancy
  Na  Na0  1  0.36459025  0.36459025  0.25000000  1
  Na  Na1  1  0.63540975  0.63540975  0.75000000  1
  Na  Na2  1  0.03125725  0.69792325  0.58333300  1
  Na  Na3  1  0.30207675  0.96874275  0.08333300  1
  Na  Na4  1  0.69792325  0.03125725  0.91666700  1
  Na  Na5  1  0.96874275  0.30207675  0.41666700  1
  Na  Na6  1  -0.00000000  -0.00000000  0.50000000  1
  Na  Na7  1  -0.00000000  -0.00000000  0.00000000  1
  Na  Na8  1  0.66666700  0.33333300  0.83333300  1
  Na  Na9  1  0.66666700  0.33333300  0.33333300  1
  Na  Na10  1  0.33333300  0.66666700  0.16666700  1
  Na  Na11  1  0.33333300  0.66666700  0.66666700  1
  Zn  Zn12  1  0.99737910  0.99032262  0.34884624  1
  Zn  Zn13  1  0.00967738  0.00262090  0.84884624  1
  Zn  Zn14  1  0.00262090  0.00967738  0.65115376  1
  Zn  Zn15  1  0.99032262  0.99737910  0.15115376  1
  Zn  Zn16  1  0.66404610  0.32365562  0.68217924  1
  Zn  Zn17  1  0.67634438  0.33595390  0.18217924  1
  Zn  Zn18  1  0.66928790  0.34301038  0.98448676  1
  Zn  Zn19  1  0.65698962  0.33071210  0.48448676  1
  Zn  Zn20  1  0.33071210  0.65698962  0.01551324  1
  Zn  Zn21  1  0.34301038  0.66928790  0.51551324  1
  Zn  Zn22  1  0.33595390  0.67634438  0.31782076  1
  Zn  Zn23  1  0.32365562  0.66404610  0.81782076  1
  S  S24  1  0.29338730  0.99780585  0.24921740  1
  S  S25  1  0.70654930  0.70654930  0.25000000  1
  S  S26  1  0.99780585  0.29338730  0.25078260  1
  S  S27  1  0.29345070  0.29345070  0.75000000  1
  S  S28  1  0.00219415  0.70661270  0.74921740  1
  S  S29  1  0.70661270  0.00219415  0.75078260  1
  S  S30  1  0.96005430  0.33113885  0.58255040  1
  S  S31  1  0.37321630  0.03988230  0.58333300  1
  S  S32  1  0.66447285  0.62672030  0.58411560  1
  S  S33  1  0.96011770  0.62678370  0.08333300  1
  S  S34  1  0.66886115  0.03994570  0.08255040  1
  S  S35  1  0.37327970  0.33552715  0.08411560  1
  S  S36  1  0.62672030  0.66447285  0.91588440  1
  S  S37  1  0.03988230  0.37321630  0.91666700  1
  S  S38  1  0.33113885  0.96005430  0.91744960  1
  S  S39  1  0.62678370  0.96011770  0.41666700  1
  S  S40  1  0.33552715  0.37327970  0.41588440  1
  S  S41  1  0.03994570  0.66886115  0.41744960  1
  O  O42  1  0.21297460  0.03208833  0.30189697  1
  O  O43  1  0.81216895  0.78473698  0.30356271  1
  O  O44  1  0.97178167  0.18994165  0.30576153  1
  O  O45  1  0.21526302  0.18783105  0.80356271  1
  O  O46  1  0.96791167  0.78702540  0.80189697  1
  O  O47  1  0.81005835  0.02821833  0.80576153  1
  O  O48  1  0.78702540  0.96791167  0.69810303  1
  O  O49  1  0.18783105  0.21526302  0.69643729  1
  O  O50  1  0.02821833  0.81005835  0.69423847  1
  O  O51  1  0.78473698  0.81216895  0.19643729  1
  O  O52  1  0.03208833  0.21297460  0.19810303  1
  O  O53  1  0.18994165  0.97178167  0.19423847  1
  O  O54  1  0.87964160  0.36542133  0.63522997  1
  O  O55  1  0.47883595  0.11806998  0.63689571  1
  O  O56  1  0.63844867  0.52327465  0.63909453  1
  O  O57  1  0.88193002  0.52116405  0.13689571  1
  O  O58  1  0.63457867  0.12035840  0.13522997  1
  O  O59  1  0.47672535  0.36155133  0.13909453  1
  O  O60  1  0.45369240  0.30124467  0.03143603  1
  O  O61  1  0.85449805  0.54859602  0.02977029  1
  O  O62  1  0.69488533  0.14339135  0.02757147  1
  O  O63  1  0.45140398  0.14550195  0.52977029  1
  O  O64  1  0.69875533  0.54630760  0.53143603  1
  O  O65  1  0.85660865  0.30511467  0.52757147  1
  O  O66  1  0.54630760  0.69875533  0.96856397  1
  O  O67  1  0.14550195  0.45140398  0.97022971  1
  O  O68  1  0.30511467  0.85660865  0.97242853  1
  O  O69  1  0.54859602  0.85449805  0.47022971  1
  O  O70  1  0.30124467  0.45369240  0.46856397  1
  O  O71  1  0.14339135  0.69488533  0.47242853  1
  O  O72  1  0.12035840  0.63457867  0.36477003  1
  O  O73  1  0.52116405  0.88193002  0.36310429  1
  O  O74  1  0.36155133  0.47672535  0.36090547  1
  O  O75  1  0.11806998  0.47883595  0.86310429  1
  O  O76  1  0.36542133  0.87964160  0.86477003  1
  O  O77  1  0.52327465  0.63844867  0.86090547  1
  O  O78  1  0.02203391  0.82499521  0.41085209  1
  O  O79  1  0.80796390  0.98474568  0.41100401  1
  O  O80  1  0.17013079  0.19602221  0.41052737  1
  O  O81  1  0.01525432  0.19203610  0.91100401  1
  O  O82  1  0.17500479  0.97796609  0.91085209  1
  O  O83  1  0.80397779  0.82986921  0.91052737  1
  O  O84  1  0.97796609  0.17500479  0.58914791  1
  O  O85  1  0.19203610  0.01525432  0.58899599  1
  O  O86  1  0.82986921  0.80397779  0.58947263  1
  O  O87  1  0.98474568  0.80796390  0.08899599  1
  O  O88  1  0.82499521  0.02203391  0.08914791  1
  O  O89  1  0.19602221  0.17013079  0.08947263  1
  O  O90  1  0.68870091  0.15832821  0.74418509  1
  O  O91  1  0.47463090  0.31807868  0.74433701  1
  O  O92  1  0.83679779  0.52935521  0.74386037  1
  O  O93  1  0.68192132  0.52536910  0.24433701  1
  O  O94  1  0.84167179  0.31129909  0.24418509  1
  O  O95  1  0.47064479  0.16320221  0.24386037  1
  O  O96  1  0.64463309  0.50833779  0.92248091  1
  O  O97  1  0.85870310  0.34858732  0.92232899  1
  O  O98  1  0.49653621  0.13731079  0.92280563  1
  O  O99  1  0.65141268  0.14129690  0.42232899  1
  O  O100  1  0.49166221  0.35536691  0.42248091  1
  O  O101  1  0.86268921  0.50346379  0.42280563  1
  O  O102  1  0.35536691  0.49166221  0.07751909  1
  O  O103  1  0.14129690  0.65141268  0.07767101  1
  O  O104  1  0.50346379  0.86268921  0.07719437  1
  O  O105  1  0.34858732  0.85870310  0.57767101  1
  O  O106  1  0.50833779  0.64463309  0.57751909  1
  O  O107  1  0.13731079  0.49653621  0.57719437  1
  O  O108  1  0.31129909  0.84167179  0.25581491  1
  O  O109  1  0.52536910  0.68192132  0.25566299  1
  O  O110  1  0.16320221  0.47064479  0.25613963  1
  O  O111  1  0.31807868  0.47463090  0.75566299  1
  O  O112  1  0.15832821  0.68870091  0.75581491  1
  O  O113  1  0.52935521  0.83679779  0.75613963  1
