# generated using pymatgen
data_TlReO4
_symmetry_space_group_name_H-M   'P 1'
_cell_length_a   13.06682081
_cell_length_b   5.67858318
_cell_length_c   17.41206205
_cell_angle_alpha   89.35889129
_cell_angle_beta   90.00000000
_cell_angle_gamma   90.00000000
_symmetry_Int_Tables_number   1
_chemical_formula_structural   TlReO4
_chemical_formula_sum   'Tl12 Re12 O48'
_cell_volume   1291.91203727
_cell_formula_units_Z   12
loop_
 _symmetry_equiv_pos_site_id
 _symmetry_equiv_pos_as_xyz
  1  'x, y, z'
loop_
 _atom_site_type_symbol
 _atom_site_label
 _atom_site_symmetry_multiplicity
 _atom_site_fract_x
 _atom_site_fract_y
 _atom_site_fract_z
 _atom_site_occupancy
  Tl  Tl0  1  0.37120668  0.52310669  0.57951428  1
  Tl  Tl1  1  0.87120668  0.97689331  0.42048572  1
  Tl  Tl2  1  0.62879332  0.47689331  0.42048572  1
  Tl  Tl3  1  0.12879332  0.02310669  0.57951428  1
  Tl  Tl4  1  0.36895494  0.48944209  0.25397142  1
  Tl  Tl5  1  0.86895494  0.01055791  0.74602858  1
  Tl  Tl6  1  0.63104506  0.51055791  0.74602858  1
  Tl  Tl7  1  0.13104506  0.98944209  0.25397142  1
  Tl  Tl8  1  0.37667243  0.50637778  0.91460419  1
  Tl  Tl9  1  0.87667243  0.99362222  0.08539581  1
  Tl  Tl10  1  0.62332757  0.49362222  0.08539581  1
  Tl  Tl11  1  0.12332757  0.00637778  0.91460419  1
  Re  Re12  1  0.11335948  0.53242457  0.41693047  1
  Re  Re13  1  0.61335948  0.96757543  0.58306953  1
  Re  Re14  1  0.88664052  0.46757543  0.58306953  1
  Re  Re15  1  0.38664052  0.03242457  0.41693047  1
  Re  Re16  1  0.12807263  0.49397109  0.08297618  1
  Re  Re17  1  0.62807263  0.00602891  0.91702382  1
  Re  Re18  1  0.87192737  0.50602891  0.91702382  1
  Re  Re19  1  0.37192737  0.99397109  0.08297618  1
  Re  Re20  1  0.12419269  0.51447489  0.75004554  1
  Re  Re21  1  0.62419269  0.98552511  0.24995446  1
  Re  Re22  1  0.87580731  0.48552511  0.24995446  1
  Re  Re23  1  0.37580731  0.01447489  0.75004554  1
  O  O24  1  0.80683136  0.56230718  0.50871584  1
  O  O25  1  0.30683136  0.93769282  0.49128416  1
  O  O26  1  0.19316864  0.43769282  0.49128416  1
  O  O27  1  0.69316864  0.06230718  0.50871584  1
  O  O28  1  0.82774250  0.52277523  0.67108887  1
  O  O29  1  0.32774250  0.97722477  0.32891113  1
  O  O30  1  0.17225750  0.47722477  0.32891113  1
  O  O31  1  0.67225750  0.02277523  0.67108887  1
  O  O32  1  0.00098929  0.62454205  0.57800124  1
  O  O33  1  0.50098929  0.87545795  0.42199876  1
  O  O34  1  -0.00098929  0.37545795  0.42199876  1
  O  O35  1  0.49901071  0.12454205  0.57800124  1
  O  O36  1  0.90945182  0.16511783  0.57615450  1
  O  O37  1  0.40945182  0.33488217  0.42384550  1
  O  O38  1  0.09054818  0.83488217  0.42384550  1
  O  O39  1  0.59054818  0.66511783  0.57615450  1
  O  O40  1  0.70578800  0.14237138  0.84816590  1
  O  O41  1  0.45160065  0.78198845  0.04259532  1
  O  O42  1  0.20578800  0.35762862  0.15183410  1
  O  O43  1  0.79421200  0.64237138  0.84816590  1
  O  O44  1  0.55455540  0.78863639  0.87332197  1
  O  O45  1  0.05455540  0.71136361  0.12667803  1
  O  O46  1  0.44544460  0.21136361  0.12667803  1
  O  O47  1  0.94544460  0.28863639  0.87332197  1
  O  O48  1  0.20418180  0.64070406  0.68080577  1
  O  O49  1  0.70418180  0.85929594  0.31919423  1
  O  O50  1  0.79581820  0.35929594  0.31919423  1
  O  O51  1  0.29581820  0.14070406  0.68080577  1
  O  O52  1  0.04029998  0.73071581  0.78271615  1
  O  O53  1  0.54029998  0.76928419  0.21728385  1
  O  O54  1  0.95970002  0.26928419  0.21728385  1
  O  O55  1  0.45970002  0.23071581  0.78271615  1
  O  O56  1  0.19627674  0.40842139  0.82744247  1
  O  O57  1  0.69627674  0.09157861  0.17255753  1
  O  O58  1  0.80372326  0.59157861  0.17255753  1
  O  O59  1  0.30372326  0.90842139  0.82744247  1
  O  O60  1  0.05509738  0.28297028  0.71042531  1
  O  O61  1  0.55509738  0.21702972  0.28957469  1
  O  O62  1  0.94490262  0.71702972  0.28957469  1
  O  O63  1  0.44490262  0.78297028  0.71042531  1
  O  O64  1  0.79797433  0.37834385  0.98976538  1
  O  O65  1  0.29797433  0.12165615  0.01023462  1
  O  O66  1  0.20202567  0.62165615  0.01023462  1
  O  O67  1  0.70202567  0.87834385  0.98976538  1
  O  O68  1  0.04839935  0.28198845  0.04259532  1
  O  O69  1  0.54839935  0.21801155  0.95740468  1
  O  O70  1  0.95160065  0.71801155  0.95740468  1
  O  O71  1  0.29421200  0.85762862  0.15183410  1
