# generated using pymatgen
data_Na5Hf2Ta2Si5PO24
_symmetry_space_group_name_H-M   'P 1'
_cell_length_a   9.04485069
_cell_length_b   9.03427678
_cell_length_c   22.78940253
_cell_angle_alpha   90.05741515
_cell_angle_beta   90.13686304
_cell_angle_gamma   119.96924381
_symmetry_Int_Tables_number   1
_chemical_formula_structural   Na5Hf2Ta2Si5PO24
_chemical_formula_sum   'Na15 Hf6 Ta6 Si15 P3 O72'
_cell_volume   1613.20754446
_cell_formula_units_Z   3
loop_
 _symmetry_equiv_pos_site_id
 _symmetry_equiv_pos_as_xyz
  1  'x, y, z'
loop_
 _atom_site_type_symbol
 _atom_site_label
 _atom_site_symmetry_multiplicity
 _atom_site_fract_x
 _atom_site_fract_y
 _atom_site_fract_z
 _atom_site_occupancy
  Na  Na0  1  0.64073888  0.00476050  0.25040943  1
  Na  Na1  1  0.36514909  0.36096449  0.24894800  1
  Na  Na2  1  0.99466549  0.63323252  0.24927244  1
  Na  Na3  1  0.99739601  0.36225659  0.74958933  1
  Na  Na4  1  0.03443417  0.69915514  0.58047027  1
  Na  Na5  1  0.66197156  0.96376966  0.58073804  1
  Na  Na6  1  0.97111335  0.66762086  0.91901685  1
  Na  Na7  1  0.70030758  0.03486519  0.91687615  1
  Na  Na8  1  0.32928482  0.29839464  0.91952044  1
  Na  Na9  1  0.00421281  0.00421141  0.49407696  1
  Na  Na10  1  0.00500911  0.00235169  0.00498420  1
  Na  Na11  1  0.66005793  0.33031975  0.83147930  1
  Na  Na12  1  0.66808440  0.33313867  0.33509611  1
  Na  Na13  1  0.33092546  0.66182256  0.16217424  1
  Na  Na14  1  0.34066922  0.66488313  0.66420607  1
  Hf  Hf15  1  0.99627887  0.99636814  0.35487988  1
  Hf  Hf16  1  0.00400852  0.00233458  0.84963785  1
  Hf  Hf17  1  0.66786256  0.33712825  0.18383383  1
  Hf  Hf18  1  0.66566661  0.33282758  0.98435273  1
  Hf  Hf19  1  0.32476085  0.66167401  0.02327478  1
  Hf  Hf20  1  0.33372296  0.66433371  0.51952237  1
  Ta  Ta21  1  0.00259076  0.00271182  0.64598522  1
  Ta  Ta22  1  0.00409435  0.00008693  0.14610714  1
  Ta  Ta23  1  0.66228249  0.33326439  0.68665280  1
  Ta  Ta24  1  0.66881051  0.33207058  0.47776361  1
  Ta  Ta25  1  0.33132834  0.66868449  0.31533764  1
  Ta  Ta26  1  0.33312764  0.67276829  0.81030701  1
  Si  Si27  1  0.28942311  0.99991121  0.25101759  1
  Si  Si28  1  0.70993212  0.71162128  0.24970101  1
  Si  Si29  1  0.00064600  0.28858705  0.25042601  1
  Si  Si30  1  0.29536820  0.29245524  0.74999509  1
  Si  Si31  1  0.99740603  0.70856747  0.74950987  1
  Si  Si32  1  0.70713626  0.99783548  0.74904434  1
  Si  Si33  1  0.95454667  0.33270494  0.58407546  1
  Si  Si34  1  0.37815683  0.04937730  0.58241882  1
  Si  Si35  1  0.66466307  0.61930764  0.58304446  1
  Si  Si36  1  0.96020322  0.63077350  0.08383800  1
  Si  Si37  1  0.36991304  0.33200020  0.08369163  1
  Si  Si38  1  0.04276466  0.37620318  0.91562775  1
  Si  Si39  1  0.33369580  0.95760668  0.91694282  1
  Si  Si40  1  0.62576784  0.95985358  0.41838976  1
  Si  Si41  1  0.04011403  0.66650576  0.41850107  1
  P  P42  1  0.67007983  0.03935588  0.08403437  1
  P  P43  1  0.61970300  0.66688196  0.91586391  1
  P  P44  1  0.33625892  0.37756017  0.41675649  1
  O  O45  1  0.20503650  0.03915000  0.30618993  1
  O  O46  1  0.83377361  0.79563692  0.30553090  1
  O  O47  1  0.96395489  0.16707052  0.30620806  1
  O  O48  1  0.21177446  0.18034377  0.80899912  1
  O  O49  1  0.96796645  0.78868768  0.80888501  1
  O  O50  1  0.82547961  0.03680585  0.80750587  1
  O  O51  1  0.80300570  0.97247202  0.69165459  1
  O  O52  1  0.16226573  0.19549589  0.69475451  1
  O  O53  1  0.02730700  0.83049668  0.69218612  1
  O  O54  1  0.79997650  0.83956280  0.19344284  1
  O  O55  1  0.03654837  0.19821214  0.19352961  1
  O  O56  1  0.16126373  0.96158919  0.19391586  1
  O  O57  1  0.86349952  0.36043393  0.64214856  1
  O  O58  1  0.50349076  0.14154410  0.63930987  1
  O  O59  1  0.64438854  0.50058956  0.64033653  1
  O  O60  1  0.87327495  0.51437268  0.14188470  1
  O  O61  1  0.64363972  0.12405380  0.13887495  1
  O  O62  1  0.48391648  0.35439991  0.14201390  1
  O  O63  1  0.45519578  0.30009055  0.02415060  1
  O  O64  1  0.84551467  0.54317354  0.02407000  1
  O  O65  1  0.69673569  0.15144176  0.02804195  1
  O  O66  1  0.47266630  0.17124400  0.52630304  1
  O  O67  1  0.70235922  0.52904711  0.52736397  1
  O  O68  1  0.82562532  0.29723598  0.52800323  1
  O  O69  1  0.54064773  0.70109324  0.96997539  1
  O  O70  1  0.17051422  0.46474705  0.97051551  1
  O  O71  1  0.30136600  0.83345394  0.97166127  1
  O  O72  1  0.53654736  0.84543228  0.47632133  1
  O  O73  1  0.31135912  0.46527666  0.47040005  1
  O  O74  1  0.15339618  0.68767393  0.47647248  1
  O  O75  1  0.13652614  0.63779083  0.35964056  1
  O  O76  1  0.50206973  0.86063447  0.35951867  1
  O  O77  1  0.36067581  0.49096805  0.36051155  1
  O  O78  1  0.13790356  0.49868523  0.85741727  1
  O  O79  1  0.36374112  0.85987327  0.85956716  1
  O  O80  1  0.50294885  0.63777140  0.86120959  1
  O  O81  1  0.02424258  0.83531512  0.41168268  1
  O  O82  1  0.81370002  0.98362104  0.41168833  1
  O  O83  1  0.17809240  0.20073161  0.41002065  1
  O  O84  1  0.01797030  0.18384736  0.91049637  1
  O  O85  1  0.16252096  0.97496264  0.91057650  1
  O  O86  1  0.80011357  0.82552601  0.90870888  1
  O  O87  1  0.96282419  0.15517239  0.59134726  1
  O  O88  1  0.18542882  0.02269208  0.59174056  1
  O  O89  1  0.84013018  0.80934790  0.59176670  1
  O  O90  1  0.97207785  0.81753107  0.09108560  1
  O  O91  1  0.83332839  0.02663365  0.09052811  1
  O  O92  1  0.18040301  0.15995908  0.09122474  1
  O  O93  1  0.69499461  0.17150803  0.74071859  1
  O  O94  1  0.48266582  0.31303029  0.74143195  1
  O  O95  1  0.83741805  0.51386392  0.74167233  1
  O  O96  1  0.68448128  0.51962701  0.24353387  1
  O  O97  1  0.83503652  0.31386749  0.24324671  1
  O  O98  1  0.48173376  0.16069617  0.24283863  1
  O  O99  1  0.63682258  0.50439436  0.92045558  1
  O  O100  1  0.85415124  0.36081699  0.92004622  1
  O  O101  1  0.50577212  0.14728772  0.91952584  1
  O  O102  1  0.63455181  0.14645335  0.42333854  1
  O  O103  1  0.50033979  0.36556058  0.42301365  1
  O  O104  1  0.85152738  0.49193720  0.42397243  1
  O  O105  1  0.35680381  0.50361535  0.07835010  1
  O  O106  1  0.14924383  0.65262194  0.07885138  1
  O  O107  1  0.51196510  0.86285690  0.07651594  1
  O  O108  1  0.35791140  0.85922324  0.57892368  1
  O  O109  1  0.50458628  0.65191504  0.58003685  1
  O  O110  1  0.13875681  0.50425699  0.57929968  1
  O  O111  1  0.30470633  0.82395733  0.25767929  1
  O  O112  1  0.51798252  0.69077849  0.25793852  1
  O  O113  1  0.17500927  0.47955805  0.25764590  1
  O  O114  1  0.30382504  0.47785687  0.75726366  1
  O  O115  1  0.16741744  0.68443751  0.75659074  1
  O  O116  1  0.51940970  0.82684744  0.75700482  1
