# generated using pymatgen
data_Na10NbIn7Si6(SO8)6
_symmetry_space_group_name_H-M   'P 1'
_cell_length_a   18.25309158
_cell_length_b   9.17931717
_cell_length_c   22.92362835
_cell_angle_alpha   89.86724630
_cell_angle_beta   89.53194444
_cell_angle_gamma   119.94779344
_symmetry_Int_Tables_number   1
_chemical_formula_structural   Na10NbIn7Si6(SO8)6
_chemical_formula_sum   'Na30 Nb3 In21 Si18 S18 O144'
_cell_volume   3327.84206450
_cell_formula_units_Z   3
loop_
 _symmetry_equiv_pos_site_id
 _symmetry_equiv_pos_as_xyz
  1  'x, y, z'
loop_
 _atom_site_type_symbol
 _atom_site_label
 _atom_site_symmetry_multiplicity
 _atom_site_fract_x
 _atom_site_fract_y
 _atom_site_fract_z
 _atom_site_occupancy
  Na  Na0  1  0.31924490  0.00526671  0.24879800  1
  Na  Na1  1  0.82112458  0.00413632  0.25145508  1
  Na  Na2  1  0.18586680  0.36427458  0.25013487  1
  Na  Na3  1  0.68606621  0.37409382  0.23868958  1
  Na  Na4  1  0.99649646  0.62832077  0.24470663  1
  Na  Na5  1  0.49504395  0.61637221  0.25225214  1
  Na  Na6  1  0.31164654  0.62289795  0.74989013  1
  Na  Na7  1  0.80740759  0.61934491  0.74949848  1
  Na  Na8  1  0.99457611  0.35061293  0.74836207  1
  Na  Na9  1  0.68662189  0.01136374  0.75534370  1
  Na  Na10  1  0.16292548  0.34850444  0.58228508  1
  Na  Na11  1  0.01200904  0.69212724  0.58343034  1
  Na  Na12  1  0.32973121  0.96560018  0.58725288  1
  Na  Na13  1  0.83151703  0.96949522  0.57899808  1
  Na  Na14  1  0.83154763  0.68232525  0.07446005  1
  Na  Na15  1  0.16978358  0.30781983  0.90825690  1
  Na  Na16  1  0.67167211  0.30922616  0.91670689  1
  Na  Na17  1  0.35627284  0.66664772  0.41711394  1
  Na  Na18  1  0.99873922  0.99480181  0.49427013  1
  Na  Na19  1  0.50962643  0.98239857  0.49948788  1
  Na  Na20  1  0.99043652  0.97308272  0.99672208  1
  Na  Na21  1  0.49077582  0.96352226  0.99861695  1
  Na  Na22  1  0.33211986  0.33096650  0.83468299  1
  Na  Na23  1  0.83020757  0.33378702  0.83697240  1
  Na  Na24  1  0.34395132  0.33814058  0.33267133  1
  Na  Na25  1  0.83976308  0.34490248  0.33185549  1
  Na  Na26  1  0.15837804  0.66226744  0.16403584  1
  Na  Na27  1  0.65033491  0.63795982  0.15936016  1
  Na  Na28  1  0.16761151  0.67021595  0.66297772  1
  Na  Na29  1  0.66138310  0.62797363  0.66796543  1
  Nb  Nb30  1  0.00000644  0.01065703  0.64606572  1
  Nb  Nb31  1  0.99944139  0.99106216  0.15199845  1
  Nb  Nb32  1  0.49638763  0.00221731  0.14409973  1
  In  In33  1  0.99895193  0.00143370  0.34556741  1
  In  In34  1  0.50011500  0.99091350  0.35115965  1
  In  In35  1  0.99239751  0.99821834  0.85089696  1
  In  In36  1  0.49677072  0.99295989  0.85180722  1
  In  In37  1  0.50243942  0.00142251  0.64959872  1
  In  In38  1  0.32346849  0.32567066  0.68097858  1
  In  In39  1  0.82717396  0.33631573  0.68177905  1
  In  In40  1  0.34072315  0.34385514  0.18461769  1
  In  In41  1  0.84281868  0.35514479  0.17796085  1
  In  In42  1  0.34174480  0.36169617  0.98473726  1
  In  In43  1  0.83536594  0.35511474  0.98764873  1
  In  In44  1  0.33747400  0.34930651  0.48528799  1
  In  In45  1  0.83808340  0.34319980  0.48575621  1
  In  In46  1  0.17031341  0.67380432  0.01700840  1
  In  In47  1  0.66572218  0.66027362  0.01926471  1
  In  In48  1  0.16590008  0.66476295  0.51931994  1
  In  In49  1  0.66320057  0.65927240  0.51437661  1
  In  In50  1  0.16400407  0.66524936  0.30980718  1
  In  In51  1  0.66179066  0.65114884  0.31709118  1
  In  In52  1  0.16781590  0.66284379  0.81838549  1
  In  In53  1  0.67090508  0.65990061  0.81572903  1
  Si  Si54  1  0.14847929  0.00567126  0.25169516  1
  Si  Si55  1  0.35379442  0.70700206  0.25202994  1
  Si  Si56  1  0.85097727  0.70150643  0.25408340  1
  Si  Si57  1  0.99538770  0.28816405  0.24939594  1
  Si  Si58  1  0.50090337  0.28652978  0.25240881  1
  Si  Si59  1  0.14654236  0.29203662  0.75410384  1
  Si  Si60  1  0.64362015  0.28960141  0.75164198  1
  Si  Si61  1  0.85057424  0.00392412  0.74870252  1
  Si  Si62  1  0.97747436  0.33402221  0.58455123  1
  Si  Si63  1  0.18770430  0.04120211  0.58186996  1
  Si  Si64  1  0.33862375  0.64411975  0.58398612  1
  Si  Si65  1  0.83011349  0.63104558  0.58480563  1
  Si  Si66  1  0.48668422  0.63587007  0.08636223  1
  Si  Si67  1  0.99120232  0.64393810  0.08492181  1
  Si  Si68  1  0.68405995  0.33017614  0.08395366  1
  Si  Si69  1  0.31637342  0.66709212  0.91511849  1
  Si  Si70  1  0.81856133  0.66830245  0.91770798  1
  Si  Si71  1  0.51803762  0.66605507  0.41548446  1
  S  S72  1  0.64644834  0.00089235  0.24710914  1
  S  S73  1  0.00343180  0.71071260  0.74938404  1
  S  S74  1  0.49880660  0.69730553  0.74989503  1
  S  S75  1  0.34953032  0.00272872  0.74955001  1
  S  S76  1  0.48116198  0.33403351  0.58537023  1
  S  S77  1  0.68325883  0.03313315  0.58165727  1
  S  S78  1  0.33370536  0.04044368  0.08363102  1
  S  S79  1  0.83753882  0.04179039  0.08460912  1
  S  S80  1  0.18111672  0.32605234  0.08393695  1
  S  S81  1  0.01624107  0.37083200  0.91730580  1
  S  S82  1  0.51668891  0.36971191  0.91568056  1
  S  S83  1  0.16807917  0.96664983  0.91654253  1
  S  S84  1  0.66807047  0.96257596  0.91519310  1
  S  S85  1  0.31264138  0.96357878  0.41662148  1
  S  S86  1  0.81838817  0.97215058  0.41679956  1
  S  S87  1  0.16343582  0.36708659  0.41603718  1
  S  S88  1  0.67068251  0.36379860  0.41692337  1
  S  S89  1  0.01717190  0.66804527  0.41649247  1
  O  O90  1  0.11275750  0.05623605  0.30786407  1
  O  O91  1  0.61296182  0.03265543  0.30131176  1
  O  O92  1  0.40683051  0.77307057  0.31181763  1
  O  O93  1  0.91566657  0.77822736  0.30749165  1
  O  O94  1  0.48837578  0.17449191  0.30991449  1
  O  O95  1  0.97357270  0.17260341  0.30717992  1
  O  O96  1  0.10507013  0.18919607  0.81407711  1
  O  O97  1  0.60408532  0.17161327  0.81076447  1
  O  O98  1  0.47924070  0.77209962  0.80091479  1
  O  O99  1  0.99272650  0.79173575  0.80109022  1
  O  O100  1  0.40011708  0.01619088  0.80105967  1
  O  O101  1  0.91256672  0.04589303  0.80317554  1
  O  O102  1  0.38577350  0.97281198  0.69532606  1
  O  O103  1  0.90260249  0.97723016  0.69178937  1
  O  O104  1  0.08469257  0.18336886  0.69721228  1
  O  O105  1  0.58975166  0.19680190  0.69397046  1
  O  O106  1  0.01128984  0.80669391  0.69485769  1
  O  O107  1  0.51230888  0.80019922  0.69659720  1
  O  O108  1  0.40773846  0.83892073  0.19750913  1
  O  O109  1  0.90070120  0.82499272  0.19424943  1
  O  O110  1  0.00890662  0.18508403  0.19376294  1
  O  O111  1  0.51074425  0.18568300  0.19504251  1
  O  O112  1  0.08146202  0.97449233  0.19594469  1
  O  O113  1  0.59123516  0.97920361  0.19682505  1
  O  O114  1  0.44163879  0.35630406  0.63840870  1
  O  O115  1  0.94091270  0.37490625  0.64322140  1
  O  O116  1  0.25127365  0.10528656  0.63711404  1
  O  O117  1  0.73237816  0.10751299  0.63584131  1
  O  O118  1  0.32027681  0.52783713  0.64272433  1
  O  O119  1  0.81379695  0.53095361  0.64642453  1
  O  O120  1  0.44965984  0.52722509  0.14644987  1
  O  O121  1  0.95701439  0.54777226  0.14739611  1
  O  O122  1  0.32395626  0.11353887  0.13853512  1
  O  O123  1  0.82721635  0.11533364  0.13962577  1
  O  O124  1  0.23218627  0.34491139  0.13619669  1
  O  O125  1  0.74058519  0.35561816  0.14199335  1
  O  O126  1  0.21888617  0.29946693  0.02986956  1
  O  O127  1  0.71821511  0.28789690  0.02412114  1
  O  O128  1  0.42686851  0.56113495  0.02994661  1
  O  O129  1  0.92301511  0.56027839  0.03305823  1
  O  O130  1  0.34345727  0.14334156  0.03184220  1
  O  O131  1  0.84881338  0.14733733  0.03322733  1
  O  O132  1  0.22598922  0.17199799  0.52710748  1
  O  O133  1  0.72517645  0.13906319  0.52983000  1
  O  O134  1  0.35019625  0.56584932  0.52351693  1
  O  O135  1  0.85877945  0.55469743  0.53091267  1
  O  O136  1  0.42926228  0.30758647  0.53264703  1
  O  O137  1  0.91281219  0.27033247  0.53015070  1
  O  O138  1  0.26788985  0.68889778  0.97104568  1
  O  O139  1  0.77316724  0.68834661  0.97685315  1
  O  O140  1  0.07097901  0.46361234  0.96629115  1
  O  O141  1  0.56704059  0.45099994  0.96808696  1
  O  O142  1  0.15501430  0.86325550  0.96878170  1
  O  O143  1  0.65814154  0.85580259  0.96544485  1
  O  O144  1  0.27008648  0.85715044  0.46931719  1
  O  O145  1  0.77724827  0.87443413  0.47089418  1
  O  O146  1  0.15615775  0.44953756  0.47011188  1
  O  O147  1  0.66244639  0.44999562  0.46856748  1
  O  O148  1  0.06443504  0.67715032  0.47009958  1
  O  O149  1  0.57588375  0.68802559  0.47182776  1
  O  O150  1  0.06018905  0.65506131  0.36309883  1
  O  O151  1  0.55879883  0.64920726  0.35297668  1
  O  O152  1  0.26372237  0.88115897  0.36301130  1
  O  O153  1  0.76965549  0.88658630  0.36367442  1
  O  O154  1  0.17169266  0.47069883  0.36336061  1
  O  O155  1  0.68370392  0.46295320  0.36228238  1
  O  O156  1  0.05015751  0.46660574  0.86078319  1
  O  O157  1  0.55401522  0.47389700  0.86264227  1
  O  O158  1  0.17541529  0.88409815  0.86264489  1
  O  O159  1  0.67082608  0.88320448  0.85863692  1
  O  O160  1  0.26218783  0.63337406  0.85390123  1
  O  O161  1  0.76288897  0.63794278  0.85827574  1
  O  O162  1  0.00950618  0.82147390  0.41536467  1
  O  O163  1  0.50499004  0.83329626  0.41544880  1
  O  O164  1  0.39647144  0.97388937  0.41525345  1
  O  O165  1  0.90425095  0.98889858  0.41537941  1
  O  O166  1  0.08706955  0.19850281  0.41443048  1
  O  O167  1  0.59371652  0.19636429  0.41409909  1
  O  O168  1  0.01726269  0.20936434  0.91537875  1
  O  O169  1  0.51581859  0.20636793  0.91152958  1
  O  O170  1  0.09469210  0.99572743  0.91345150  1
  O  O171  1  0.59386165  0.99124975  0.91545855  1
  O  O172  1  0.41106386  0.83393967  0.91189903  1
  O  O173  1  0.91349234  0.83463605  0.91421235  1
  O  O174  1  0.48710503  0.17824900  0.58881380  1
  O  O175  1  0.99199155  0.16746235  0.59356082  1
  O  O176  1  0.09310405  0.02368837  0.59516468  1
  O  O177  1  0.59763579  0.01189105  0.58513487  1
  O  O178  1  0.41787092  0.83863193  0.58955370  1
  O  O179  1  0.91998976  0.82118411  0.59363011  1
  O  O180  1  0.49126514  0.82308650  0.09680318  1
  O  O181  1  0.99285218  0.83093680  0.09145571  1
  O  O182  1  0.41324519  0.02696223  0.08684942  1
  O  O183  1  0.91486411  0.02164570  0.08814520  1
  O  O184  1  0.09554843  0.17419036  0.09004932  1
  O  O185  1  0.58804585  0.16455693  0.09536575  1
  O  O186  1  0.34369837  0.15719158  0.74616088  1
  O  O187  1  0.84193563  0.17121623  0.74065246  1
  O  O188  1  0.24375914  0.32803903  0.74855641  1
  O  O189  1  0.74007435  0.31207299  0.74907732  1
  O  O190  1  0.42488128  0.52575718  0.74432538  1
  O  O191  1  0.92696827  0.53943066  0.74711009  1
  O  O192  1  0.33729311  0.51647546  0.24466141  1
  O  O193  1  0.83420350  0.51093704  0.24637464  1
  O  O194  1  0.41619853  0.30342068  0.24794497  1
  O  O195  1  0.91117967  0.30687704  0.24252810  1
  O  O196  1  0.24149608  0.16348430  0.23838300  1
  O  O197  1  0.73296472  0.14707949  0.23994366  1
  O  O198  1  0.31696188  0.48617070  0.91872708  1
  O  O199  1  0.82079513  0.48897204  0.91880910  1
  O  O200  1  0.42848863  0.33712894  0.92069196  1
  O  O201  1  0.92905208  0.33952314  0.92366876  1
  O  O202  1  0.24661434  0.13508474  0.92079656  1
  O  O203  1  0.74664979  0.13013429  0.91785818  1
  O  O204  1  0.32047131  0.13063194  0.42136841  1
  O  O205  1  0.82486647  0.14097578  0.41875080  1
  O  O206  1  0.24254308  0.35866385  0.41695339  1
  O  O207  1  0.74729244  0.34424129  0.42140778  1
  O  O208  1  0.42112323  0.49709047  0.41845300  1
  O  O209  1  0.93215185  0.51221439  0.41753645  1
  O  O210  1  0.17227956  0.47802530  0.07943422  1
  O  O211  1  0.68023544  0.50427228  0.08137068  1
  O  O212  1  0.08553265  0.67001695  0.07659058  1
  O  O213  1  0.58274485  0.67238706  0.07802669  1
  O  O214  1  0.26115112  0.86789128  0.08018749  1
  O  O215  1  0.76376361  0.86968811  0.08061851  1
  O  O216  1  0.16612388  0.84745957  0.57405634  1
  O  O217  1  0.67887659  0.86739590  0.57753617  1
  O  O218  1  0.25122294  0.65818181  0.58024156  1
  O  O219  1  0.75307926  0.67187920  0.57435992  1
  O  O220  1  0.07280029  0.49153228  0.57633608  1
  O  O221  1  0.56727797  0.48361229  0.58024634  1
  O  O222  1  0.14839392  0.82792219  0.25286722  1
  O  O223  1  0.65265081  0.84497191  0.25039525  1
  O  O224  1  0.26261440  0.70243749  0.25252617  1
  O  O225  1  0.76229821  0.70689629  0.25727690  1
  O  O226  1  0.08265782  0.47115932  0.25140283  1
  O  O227  1  0.58734542  0.47314947  0.25082255  1
  O  O228  1  0.14761860  0.47571811  0.75092473  1
  O  O229  1  0.65516032  0.47840888  0.75354684  1
  O  O230  1  0.07985634  0.69134625  0.75286830  1
  O  O231  1  0.57857135  0.69416848  0.75769125  1
  O  O232  1  0.26319183  0.84834367  0.75378112  1
  O  O233  1  0.75714637  0.83454395  0.75010900  1
