# generated using pymatgen
data_Na5YNb3Si5PO24
_symmetry_space_group_name_H-M   'P 1'
_cell_length_a   9.12069073
_cell_length_b   9.13607696
_cell_length_c   22.75133983
_cell_angle_alpha   90.07846062
_cell_angle_beta   90.04840318
_cell_angle_gamma   119.90966367
_symmetry_Int_Tables_number   1
_chemical_formula_structural   Na5YNb3Si5PO24
_chemical_formula_sum   'Na15 Y3 Nb9 Si15 P3 O72'
_cell_volume   1643.30667846
_cell_formula_units_Z   3
loop_
 _symmetry_equiv_pos_site_id
 _symmetry_equiv_pos_as_xyz
  1  'x, y, z'
loop_
 _atom_site_type_symbol
 _atom_site_label
 _atom_site_symmetry_multiplicity
 _atom_site_fract_x
 _atom_site_fract_y
 _atom_site_fract_z
 _atom_site_occupancy
  Na  Na0  1  0.99316760  0.63389240  0.24259337  1
  Na  Na1  1  0.62948761  0.62053937  0.74750058  1
  Na  Na2  1  0.99055818  0.36825758  0.74701944  1
  Na  Na3  1  0.37611851  0.00863626  0.74979960  1
  Na  Na4  1  0.32052196  0.97482975  0.08316994  1
  Na  Na5  1  0.66124741  0.68522108  0.08399215  1
  Na  Na6  1  0.96637537  0.29104798  0.41532477  1
  Na  Na7  1  0.32282154  0.03364678  0.41351126  1
  Na  Na8  1  0.70761833  0.67613354  0.41592435  1
  Na  Na9  1  0.00078531  0.99981701  0.50334950  1
  Na  Na10  1  0.99856941  0.01062227  0.99527706  1
  Na  Na11  1  0.66598289  0.33401854  0.83544204  1
  Na  Na12  1  0.64559214  0.31467197  0.32467292  1
  Na  Na13  1  0.33278250  0.65336107  0.16491435  1
  Na  Na14  1  0.33148212  0.66139709  0.66397401  1
  Y  Y15  1  0.00206460  0.00350570  0.35235033  1
  Y  Y16  1  0.66802080  0.33654952  0.68331098  1
  Y  Y17  1  0.66016786  0.32474877  0.18039950  1
  Nb  Nb18  1  0.00000989  0.99900936  0.85803504  1
  Nb  Nb19  1  0.99501920  0.99922982  0.64536717  1
  Nb  Nb20  1  0.00556456  0.00462353  0.14590172  1
  Nb  Nb21  1  0.66713914  0.33162606  0.97817390  1
  Nb  Nb22  1  0.67174474  0.33660712  0.48355047  1
  Nb  Nb23  1  0.32923260  0.66351011  0.01547350  1
  Nb  Nb24  1  0.33356043  0.66434632  0.52161676  1
  Nb  Nb25  1  0.33731661  0.67042209  0.31199590  1
  Nb  Nb26  1  0.33252293  0.66537519  0.81485855  1
  Si  Si27  1  0.30005900  0.99699096  0.25297422  1
  Si  Si28  1  0.28044527  0.28630718  0.75191515  1
  Si  Si29  1  0.00671556  0.71900094  0.75143886  1
  Si  Si30  1  0.71046241  0.99296340  0.75242912  1
  Si  Si31  1  0.96741726  0.33160445  0.58536905  1
  Si  Si32  1  0.66944655  0.63576562  0.58530071  1
  Si  Si33  1  0.96430687  0.62755651  0.08440407  1
  Si  Si34  1  0.66696528  0.03584516  0.08031772  1
  Si  Si35  1  0.37208806  0.33657277  0.08105146  1
  Si  Si36  1  0.62446331  0.66405082  0.91653151  1
  Si  Si37  1  0.03839144  0.37480049  0.91504135  1
  Si  Si38  1  0.33695747  0.96142126  0.91606325  1
  Si  Si39  1  0.61521029  0.95863697  0.41849906  1
  Si  Si40  1  0.34160022  0.38424529  0.41771379  1
  Si  Si41  1  0.04214982  0.65831767  0.41718576  1
  P  P42  1  0.70085998  0.70775916  0.25026832  1
  P  P43  1  0.00874570  0.30112462  0.25133462  1
  P  P44  1  0.36675873  0.03543447  0.58255417  1
  O  O45  1  0.21482537  0.00351103  0.31422498  1
  O  O46  1  0.79568588  0.78701975  0.30782782  1
  O  O47  1  0.98795340  0.21159158  0.31011147  1
  O  O48  1  0.18150659  0.16890184  0.80847321  1
  O  O49  1  0.98722664  0.81792246  0.80816410  1
  O  O50  1  0.83072670  0.01409242  0.80828621  1
  O  O51  1  0.80525284  0.96782493  0.69321256  1
  O  O52  1  0.16072341  0.19310269  0.69327995  1
  O  O53  1  0.03341653  0.83949722  0.69315810  1
  O  O54  1  0.79858677  0.82264624  0.19573027  1
  O  O55  1  0.01641842  0.19163082  0.19894770  1
  O  O56  1  0.16902752  0.97791593  0.19595622  1
  O  O57  1  0.90019116  0.36547090  0.64593241  1
  O  O58  1  0.46501754  0.10154612  0.64006683  1
  O  O59  1  0.63040382  0.53435609  0.64594062  1
  O  O60  1  0.90552560  0.53503113  0.14638471  1
  O  O61  1  0.60168591  0.09390114  0.13585145  1
  O  O62  1  0.49123030  0.39513908  0.13773709  1
  O  O63  1  0.46479404  0.29382452  0.02658540  1
  O  O64  1  0.82567578  0.52546168  0.03137356  1
  O  O65  1  0.69659251  0.16503467  0.02508232  1
  O  O66  1  0.46996951  0.15620422  0.52944715  1
  O  O67  1  0.68700043  0.52319907  0.52878827  1
  O  O68  1  0.83653654  0.30920003  0.52842844  1
  O  O69  1  0.52841872  0.68742980  0.97291331  1
  O  O70  1  0.16258293  0.47816427  0.96999770  1
  O  O71  1  0.31514102  0.84473493  0.97313063  1
  O  O72  1  0.51510637  0.83653565  0.47270838  1
  O  O73  1  0.32217170  0.48508244  0.47319829  1
  O  O74  1  0.16639691  0.68155026  0.47149289  1
  O  O75  1  0.13150987  0.62932319  0.35718704  1
  O  O76  1  0.49433689  0.86232795  0.35904353  1
  O  O77  1  0.36822847  0.50565278  0.35964365  1
  O  O78  1  0.13400714  0.49296135  0.85636487  1
  O  O79  1  0.35783069  0.86235659  0.85774186  1
  O  O80  1  0.50385286  0.64102433  0.85804806  1
  O  O81  1  0.01192718  0.81834468  0.41734797  1
  O  O82  1  0.80253972  0.98195931  0.41731992  1
  O  O83  1  0.17491205  0.19887683  0.41820107  1
  O  O84  1  0.02201108  0.18870388  0.91110056  1
  O  O85  1  0.16670966  0.97790050  0.91083456  1
  O  O86  1  0.81094124  0.83357888  0.91069767  1
  O  O87  1  0.98128291  0.15901060  0.58678392  1
  O  O88  1  0.19246698  0.02550184  0.58422939  1
  O  O89  1  0.84630885  0.81849582  0.58685413  1
  O  O90  1  0.97703850  0.81897112  0.09047180  1
  O  O91  1  0.83555629  0.01427909  0.09089480  1
  O  O92  1  0.18657739  0.16014061  0.09163025  1
  O  O93  1  0.68683743  0.15685576  0.75005514  1
  O  O94  1  0.46647517  0.30528311  0.75059035  1
  O  O95  1  0.84092995  0.53260227  0.75063687  1
  O  O96  1  0.68988636  0.53587261  0.24555075  1
  O  O97  1  0.86392927  0.33885854  0.24530922  1
  O  O98  1  0.48627840  0.15480584  0.24847080  1
  O  O99  1  0.63978910  0.49366091  0.92402889  1
  O  O100  1  0.85453457  0.36306883  0.92327555  1
  O  O101  1  0.50782160  0.14734312  0.92217882  1
  O  O102  1  0.62287974  0.14288931  0.42379623  1
  O  O103  1  0.51526383  0.37051394  0.42398277  1
  O  O104  1  0.85616809  0.48117749  0.42433938  1
  O  O105  1  0.34102845  0.49579939  0.06866869  1
  O  O106  1  0.15972074  0.67263700  0.07138841  1
  O  O107  1  0.50926989  0.84191872  0.06885897  1
  O  O108  1  0.34314748  0.85778340  0.57177239  1
  O  O109  1  0.50990181  0.66595776  0.57215587  1
  O  O110  1  0.15319155  0.49687231  0.57245294  1
  O  O111  1  0.29379779  0.80917237  0.25286494  1
  O  O112  1  0.52346480  0.69526867  0.25277279  1
  O  O113  1  0.18053409  0.47454571  0.25160086  1
  O  O114  1  0.29349142  0.47426184  0.75592595  1
  O  O115  1  0.18259431  0.70701425  0.75559136  1
  O  O116  1  0.52475108  0.81622756  0.75568058  1
