# generated using pymatgen
data_MgV5CoO12
_symmetry_space_group_name_H-M   'P 1'
_cell_length_a   6.86026683
_cell_length_b   6.91735580
_cell_length_c   5.73264550
_cell_angle_alpha   73.68995232
_cell_angle_beta   105.78172439
_cell_angle_gamma   101.94325673
_symmetry_Int_Tables_number   1
_chemical_formula_structural   MgV5CoO12
_chemical_formula_sum   'Mg1 V5 Co1 O12'
_cell_volume   248.72885839
_cell_formula_units_Z   1
loop_
 _symmetry_equiv_pos_site_id
 _symmetry_equiv_pos_as_xyz
  1  'x, y, z'
loop_
 _atom_site_type_symbol
 _atom_site_label
 _atom_site_symmetry_multiplicity
 _atom_site_fract_x
 _atom_site_fract_y
 _atom_site_fract_z
 _atom_site_occupancy
  Mg  Mg0  1  0.29639161  0.28699305  0.25515619  1
  V  V1  1  0.18169550  0.61711907  0.71176907  1
  V  V2  1  0.38521995  0.82674575  0.18045665  1
  V  V3  1  0.62701346  0.18472814  0.79299544  1
  V  V4  1  0.83543675  0.39249755  0.31788457  1
  V  V5  1  0.92294234  0.92931590  0.25436592  1
  Co  Co6  1  0.08698715  0.08458643  0.75360567  1
  O  O7  1  0.04090057  0.82043687  0.62603459  1
  O  O8  1  0.01250235  0.39129709  0.68586158  1
  O  O9  1  0.20040677  0.02187120  0.14499373  1
  O  O10  1  0.34070733  0.65080633  0.51670127  1
  O  O11  1  0.39274237  0.03187338  0.80602135  1
  O  O12  1  0.30795121  0.57726609  0.03737578  1
  O  O13  1  0.66765969  0.34097995  0.99410365  1
  O  O14  1  0.65453592  0.91600724  0.28271094  1
  O  O15  1  0.59057805  0.31199270  0.46287201  1
  O  O16  1  0.81619285  0.02997391  0.86883767  1
  O  O17  1  0.90695679  0.64528166  0.21288038  1
  O  O18  1  0.02021533  0.21022971  0.35578953  1
