# generated using pymatgen
data_MgSb2(PO5)2
_symmetry_space_group_name_H-M   'P 1'
_cell_length_a   5.52095104
_cell_length_b   5.49450888
_cell_length_c   7.88805251
_cell_angle_alpha   107.97816782
_cell_angle_beta   106.49026211
_cell_angle_gamma   94.16030850
_symmetry_Int_Tables_number   1
_chemical_formula_structural   MgSb2(PO5)2
_chemical_formula_sum   'Mg1 Sb2 P2 O10'
_cell_volume   214.84731104
_cell_formula_units_Z   1
loop_
 _symmetry_equiv_pos_site_id
 _symmetry_equiv_pos_as_xyz
  1  'x, y, z'
loop_
 _atom_site_type_symbol
 _atom_site_label
 _atom_site_symmetry_multiplicity
 _atom_site_fract_x
 _atom_site_fract_y
 _atom_site_fract_z
 _atom_site_occupancy
  Mg  Mg0  1  0.60397342  0.25381394  0.29401563  1
  Sb  Sb1  1  0.01074312  0.99072190  0.50149560  1
  Sb  Sb2  1  0.96349487  0.97669808  0.95740909  1
  P  P3  1  0.39409877  0.68577964  0.27433895  1
  P  P4  1  0.60667404  0.33437928  0.73208226  1
  O  O5  1  0.31625309  0.39874033  0.14519784  1
  O  O6  1  0.68417531  0.68461340  0.39028396  1
  O  O7  1  0.69750458  0.62536935  0.84176780  1
  O  O8  1  0.31366067  0.29397249  0.63139436  1
  O  O9  1  0.07815227  0.91757128  0.73059381  1
  O  O10  1  0.91204210  0.09357165  0.28473519  1
  O  O11  1  0.23252528  0.73506023  0.41263832  1
  O  O12  1  0.38192433  0.89075707  0.18047103  1
  O  O13  1  0.73418204  0.24237568  0.57208146  1
  O  O14  1  0.67059610  0.17657567  0.86630972  1
