# generated using pymatgen
data_Na5TiIn3(PO4)6
_symmetry_space_group_name_H-M   'P 1'
_cell_length_a   8.99438768
_cell_length_b   8.99494837
_cell_length_c   22.52684589
_cell_angle_alpha   89.94379079
_cell_angle_beta   90.04794145
_cell_angle_gamma   120.01184305
_symmetry_Int_Tables_number   1
_chemical_formula_structural   Na5TiIn3(PO4)6
_chemical_formula_sum   'Na15 Ti3 In9 P18 O72'
_cell_volume   1578.15339396
_cell_formula_units_Z   3
loop_
 _symmetry_equiv_pos_site_id
 _symmetry_equiv_pos_as_xyz
  1  'x, y, z'
loop_
 _atom_site_type_symbol
 _atom_site_label
 _atom_site_symmetry_multiplicity
 _atom_site_fract_x
 _atom_site_fract_y
 _atom_site_fract_z
 _atom_site_occupancy
  Na  Na0  1  0.63697303  0.00079352  0.25384020  1
  Na  Na1  1  0.36419164  0.36384772  0.25464164  1
  Na  Na2  1  0.99917094  0.63623636  0.25396490  1
  Na  Na3  1  0.64260020  0.64002082  0.74933274  1
  Na  Na4  1  0.99867425  0.35963513  0.74957193  1
  Na  Na5  1  0.03391557  0.70068777  0.58001761  1
  Na  Na6  1  0.66366029  0.96527345  0.57992897  1
  Na  Na7  1  0.66340364  0.69962220  0.08000548  1
  Na  Na8  1  0.03521028  0.33361973  0.07998005  1
  Na  Na9  1  0.01150673  0.01253336  0.49593657  1
  Na  Na10  1  0.01115338  0.99901628  0.99437560  1
  Na  Na11  1  0.65464396  0.32105831  0.83437470  1
  Na  Na12  1  0.66675749  0.33354257  0.34061645  1
  Na  Na13  1  0.33261216  0.67922565  0.16550886  1
  Na  Na14  1  0.33334441  0.66538682  0.66492358  1
  Ti  Ti15  1  0.66535875  0.33265933  0.97706207  1
  Ti  Ti16  1  0.66356971  0.33235160  0.48010484  1
  Ti  Ti17  1  0.33364793  0.67344943  0.81969640  1
  In  In18  1  0.99922749  0.99873238  0.35451857  1
  In  In19  1  0.00175517  0.00053217  0.85205908  1
  In  In20  1  0.00939964  0.00699030  0.64952479  1
  In  In21  1  0.00653738  0.99929456  0.14662467  1
  In  In22  1  0.65762580  0.32748902  0.68267150  1
  In  In23  1  0.66380892  0.33003818  0.18049167  1
  In  In24  1  0.33327796  0.67248670  0.01333418  1
  In  In25  1  0.33288924  0.65947168  0.51386199  1
  In  In26  1  0.33332428  0.66548538  0.32498327  1
  P  P27  1  0.29544849  0.99754933  0.25029690  1
  P  P28  1  0.70261749  0.70431996  0.24804495  1
  P  P29  1  0.00165952  0.29741282  0.24823936  1
  P  P30  1  0.29731822  0.30365288  0.75287119  1
  P  P31  1  0.00658517  0.70388714  0.75011715  1
  P  P32  1  0.69803051  0.99511645  0.75056485  1
  P  P33  1  0.95714681  0.33364432  0.58327557  1
  P  P34  1  0.37403906  0.04078921  0.58069983  1
  P  P35  1  0.66562385  0.62533662  0.58350262  1
  P  P36  1  0.95730475  0.62311786  0.08111367  1
  P  P37  1  0.66512142  0.04073026  0.08153326  1
  P  P38  1  0.37488059  0.33254352  0.08042059  1
  P  P39  1  0.62740470  0.66202216  0.91781264  1
  P  P40  1  0.03467865  0.37278985  0.91820424  1
  P  P41  1  0.33808697  0.96600806  0.91764933  1
  P  P42  1  0.63582687  0.97487551  0.41889633  1
  P  P43  1  0.33889129  0.36394095  0.41699645  1
  P  P44  1  0.02515537  0.66048259  0.41905368  1
  O  O45  1  0.21442883  0.03414537  0.30349676  1
  O  O46  1  0.82317546  0.78970048  0.30039614  1
  O  O47  1  0.96740021  0.17664502  0.30041380  1
  O  O48  1  0.21758281  0.19058921  0.80672057  1
  O  O49  1  0.96429476  0.78684278  0.80139600  1
  O  O50  1  0.82127699  0.03340632  0.80246063  1
  O  O51  1  0.76682230  0.95347824  0.69298655  1
  O  O52  1  0.18308143  0.23262524  0.69679876  1
  O  O53  1  0.03870329  0.80427154  0.69119714  1
  O  O54  1  0.77439982  0.80809714  0.18945654  1
  O  O55  1  0.03357323  0.22614203  0.18956761  1
  O  O56  1  0.18582566  0.96051112  0.19353491  1
  O  O57  1  0.88724466  0.36221379  0.64248119  1
  O  O58  1  0.47836043  0.11031190  0.63805682  1
  O  O59  1  0.64402385  0.53409926  0.64353577  1
  O  O60  1  0.88757999  0.52589875  0.14054975  1
  O  O61  1  0.64321476  0.10905427  0.14171698  1
  O  O62  1  0.47199848  0.36188593  0.13984155  1
  O  O63  1  0.47900704  0.31836386  0.02802144  1
  O  O64  1  0.83473143  0.51943275  0.02902318  1
  O  O65  1  0.68317536  0.16262109  0.02961177  1
  O  O66  1  0.47379914  0.15671825  0.52756202  1
  O  O67  1  0.68340181  0.52211634  0.53178879  1
  O  O68  1  0.83482401  0.31370569  0.53142499  1
  O  O69  1  0.55462160  0.68894718  0.97576553  1
  O  O70  1  0.13555520  0.44533247  0.97607678  1
  O  O71  1  0.30665341  0.86282875  0.97418009  1
  O  O72  1  0.55099620  0.86397111  0.47385191  1
  O  O73  1  0.30867362  0.45131458  0.46934936  1
  O  O74  1  0.13728980  0.68800599  0.47382246  1
  O  O75  1  0.09944767  0.62919891  0.36080222  1
  O  O76  1  0.53024489  0.89940844  0.36073267  1
  O  O77  1  0.37121286  0.46611825  0.35778447  1
  O  O78  1  0.13382087  0.49472595  0.86420383  1
  O  O79  1  0.35976629  0.86395664  0.86402719  1
  O  O80  1  0.50658368  0.64111603  0.86376062  1
  O  O81  1  0.00262692  0.81722245  0.41450021  1
  O  O82  1  0.81507511  0.99711674  0.41441391  1
  O  O83  1  0.18297088  0.18384751  0.41323306  1
  O  O84  1  0.00883216  0.19351533  0.91095637  1
  O  O85  1  0.18433737  0.99116866  0.90972641  1
  O  O86  1  0.80695952  0.81599943  0.91067351  1
  O  O87  1  0.96225457  0.16389423  0.58493447  1
  O  O88  1  0.19359087  0.02191671  0.58315618  1
  O  O89  1  0.83541761  0.80345831  0.58395053  1
  O  O90  1  0.96165817  0.79725670  0.08185953  1
  O  O91  1  0.83504820  0.03300571  0.08158290  1
  O  O92  1  0.19401655  0.17185067  0.08119764  1
  O  O93  1  0.68144135  0.15696690  0.74535905  1
  O  O94  1  0.48234648  0.33624894  0.74667766  1
  O  O95  1  0.84771466  0.51940586  0.74610942  1
  O  O96  1  0.68109146  0.52171054  0.24459963  1
  O  O97  1  0.84038998  0.31874899  0.24504407  1
  O  O98  1  0.47728882  0.15938203  0.24525274  1
  O  O99  1  0.63672187  0.49287470  0.92272760  1
  O  O100  1  0.85614804  0.36337671  0.92345968  1
  O  O101  1  0.50751300  0.14287205  0.92239532  1
  O  O102  1  0.65073564  0.15418721  0.42647175  1
  O  O103  1  0.50444406  0.35172874  0.42656683  1
  O  O104  1  0.84619109  0.49618242  0.42743083  1
  O  O105  1  0.35524246  0.49439129  0.07625567  1
  O  O106  1  0.13510833  0.63873539  0.07663899  1
  O  O107  1  0.51285244  0.85583395  0.07738944  1
  O  O108  1  0.35195099  0.85821280  0.57601171  1
  O  O109  1  0.51312032  0.65778946  0.57840456  1
  O  O110  1  0.13526576  0.49575356  0.57765946  1
  O  O111  1  0.31596033  0.83660693  0.25665961  1
  O  O112  1  0.52288366  0.68712585  0.25498013  1
  O  O113  1  0.16353929  0.47797296  0.25509366  1
  O  O114  1  0.31379896  0.48588461  0.76135168  1
  O  O115  1  0.16642545  0.68136169  0.76134809  1
  O  O116  1  0.52015385  0.82952537  0.76161798  1
