# generated using pymatgen
data_Na2Al2In2SiS5O24
_symmetry_space_group_name_H-M   'P 1'
_cell_length_a   8.64001512
_cell_length_b   8.64171073
_cell_length_c   22.68547589
_cell_angle_alpha   89.33790049
_cell_angle_beta   90.41872972
_cell_angle_gamma   119.76630911
_symmetry_Int_Tables_number   1
_chemical_formula_structural   Na2Al2In2SiS5O24
_chemical_formula_sum   'Na6 Al6 In6 Si3 S15 O72'
_cell_volume   1470.21524574
_cell_formula_units_Z   3
loop_
 _symmetry_equiv_pos_site_id
 _symmetry_equiv_pos_as_xyz
  1  'x, y, z'
loop_
 _atom_site_type_symbol
 _atom_site_label
 _atom_site_symmetry_multiplicity
 _atom_site_fract_x
 _atom_site_fract_y
 _atom_site_fract_z
 _atom_site_occupancy
  Na  Na0  1  0.99041284  0.98547384  0.50211473  1
  Na  Na1  1  0.00003640  0.99971907  0.00015102  1
  Na  Na2  1  0.66904948  0.32517622  0.83323824  1
  Na  Na3  1  0.63814396  0.31200009  0.32637815  1
  Na  Na4  1  0.32814620  0.68170727  0.17202719  1
  Na  Na5  1  0.37729143  0.68649544  0.66886709  1
  Al  Al6  1  0.99069789  0.00015610  0.84523603  1
  Al  Al7  1  0.00454974  0.99450405  0.15556796  1
  Al  Al8  1  0.66035599  0.32663269  0.18314588  1
  Al  Al9  1  0.66748024  0.33098674  0.98649769  1
  Al  Al10  1  0.33409728  0.66719461  0.01881267  1
  Al  Al11  1  0.33365341  0.68245418  0.31271811  1
  In  In12  1  0.01320669  0.00065660  0.34329900  1
  In  In13  1  0.97764137  0.98699166  0.64761849  1
  In  In14  1  0.66770455  0.33009252  0.68877011  1
  In  In15  1  0.66407175  0.33716050  0.47948562  1
  In  In16  1  0.34777473  0.66929499  0.52053462  1
  In  In17  1  0.34267778  0.67027820  0.81910733  1
  Si  Si18  1  0.30486531  0.00154391  0.24550528  1
  Si  Si19  1  0.70629759  0.00534348  0.75578369  1
  Si  Si20  1  0.67027493  0.62639935  0.58231524  1
  S  S21  1  0.70392008  0.69945141  0.24357590  1
  S  S22  1  0.99610929  0.29372747  0.24287472  1
  S  S23  1  0.28237040  0.28229629  0.75659102  1
  S  S24  1  0.99839633  0.71225807  0.75881645  1
  S  S25  1  0.96570912  0.33366361  0.58053812  1
  S  S26  1  0.36519088  0.03531282  0.58222835  1
  S  S27  1  0.95303000  0.61863439  0.08253240  1
  S  S28  1  0.66744732  0.04273822  0.08266975  1
  S  S29  1  0.37961282  0.33782807  0.08221614  1
  S  S30  1  0.62933186  0.65874090  0.92555840  1
  S  S31  1  0.03764437  0.37587510  0.92465880  1
  S  S32  1  0.33771479  0.96843886  0.92501683  1
  S  S33  1  0.62840003  0.96145180  0.40939554  1
  S  S34  1  0.33114580  0.38382201  0.40754173  1
  S  S35  1  0.04487934  0.66108228  0.41160982  1
  O  O36  1  0.24444677  0.05887286  0.30536633  1
  O  O37  1  0.80764029  0.76295857  0.29877894  1
  O  O38  1  0.94118715  0.18293063  0.29723226  1
  O  O39  1  0.19058356  0.17545645  0.81142051  1
  O  O40  1  0.00270970  0.81659039  0.81248899  1
  O  O41  1  0.81322329  0.01108644  0.81695131  1
  O  O42  1  0.78507106  0.98582614  0.69465918  1
  O  O43  1  0.19488582  0.19655889  0.70164765  1
  O  O44  1  0.03371272  0.81329967  0.70359424  1
  O  O45  1  0.79024207  0.82862448  0.19333502  1
  O  O46  1  0.02140571  0.19745500  0.19258255  1
  O  O47  1  0.16413519  0.96205841  0.19089701  1
  O  O48  1  0.87458971  0.33307195  0.63450662  1
  O  O49  1  0.47942239  0.11280325  0.63401978  1
  O  O50  1  0.65398779  0.51750696  0.64251978  1
  O  O51  1  0.86973485  0.50396509  0.13469549  1
  O  O52  1  0.63577664  0.12614122  0.13390835  1
  O  O53  1  0.49453206  0.37166012  0.13456448  1
  O  O54  1  0.46345222  0.30574211  0.03021022  1
  O  O55  1  0.84224455  0.53299683  0.02945376  1
  O  O56  1  0.69779721  0.15590001  0.02902989  1
  O  O57  1  0.44726621  0.12255770  0.52483189  1
  O  O58  1  0.67774791  0.54653564  0.51800894  1
  O  O59  1  0.85711312  0.29902634  0.52568054  1
  O  O60  1  0.53379175  0.68966733  0.97503675  1
  O  O61  1  0.15729710  0.47135803  0.97591773  1
  O  O62  1  0.30943581  0.84495622  0.97631985  1
  O  O63  1  0.55563836  0.87046108  0.46587055  1
  O  O64  1  0.32324815  0.46250991  0.46336086  1
  O  O65  1  0.14122771  0.67513921  0.46660873  1
  O  O66  1  0.14585243  0.66331709  0.35845421  1
  O  O67  1  0.51881297  0.86203470  0.35770214  1
  O  O68  1  0.33816626  0.49349660  0.35496928  1
  O  O69  1  0.10531007  0.48368012  0.87036926  1
  O  O70  1  0.37860460  0.90395296  0.87108042  1
  O  O71  1  0.52326460  0.61424899  0.87079434  1
  O  O72  1  0.01498729  0.81674044  0.41012790  1
  O  O73  1  0.80901903  0.98270257  0.40413354  1
  O  O74  1  0.16558556  0.20739571  0.40646967  1
  O  O75  1  0.02625964  0.20021950  0.91976785  1
  O  O76  1  0.17609366  0.98560798  0.91874646  1
  O  O77  1  0.80764571  0.81824261  0.91966435  1
  O  O78  1  0.01525429  0.19325621  0.58192399  1
  O  O79  1  0.19976299  0.04276472  0.58675603  1
  O  O80  1  0.84922801  0.82006418  0.58064747  1
  O  O81  1  0.96720092  0.79710711  0.08869479  1
  O  O82  1  0.82778561  0.02207744  0.09093570  1
  O  O83  1  0.19830545  0.18012830  0.08973604  1
  O  O84  1  0.69569241  0.18847281  0.75541162  1
  O  O85  1  0.46421443  0.31020002  0.75940795  1
  O  O86  1  0.82447805  0.54871594  0.75960314  1
  O  O87  1  0.69339268  0.52694887  0.23001951  1
  O  O88  1  0.85041469  0.33175592  0.22881904  1
  O  O89  1  0.50144679  0.17169396  0.23124990  1
  O  O90  1  0.64953768  0.49952148  0.93767490  1
  O  O91  1  0.85557699  0.35231287  0.93463705  1
  O  O92  1  0.49618083  0.14804373  0.93661200  1
  O  O93  1  0.63814509  0.13850841  0.40952461  1
  O  O94  1  0.49153919  0.36302458  0.40514445  1
  O  O95  1  0.87190128  0.49230096  0.40944046  1
  O  O96  1  0.36183836  0.50148415  0.07274682  1
  O  O97  1  0.13631813  0.64066379  0.07509723  1
  O  O98  1  0.50483829  0.86230001  0.07413120  1
  O  O99  1  0.32293630  0.84750185  0.58018714  1
  O  O100  1  0.49418001  0.64979457  0.58498967  1
  O  O101  1  0.12813852  0.50954779  0.57732337  1
  O  O102  1  0.31980844  0.82044717  0.25680111  1
  O  O103  1  0.52336703  0.67451283  0.25124862  1
  O  O104  1  0.16344404  0.46379407  0.25125572  1
  O  O105  1  0.28278490  0.45365128  0.75929014  1
  O  O106  1  0.14218451  0.66890814  0.76446128  1
  O  O107  1  0.50762338  0.82955777  0.75745330  1
