# generated using pymatgen
data_Na18Ca4Ta8Si15(SO24)3
_symmetry_space_group_name_H-M   'P 1'
_cell_length_a   9.15416357
_cell_length_b   9.18092912
_cell_length_c   22.67370941
_cell_angle_alpha   90.02881589
_cell_angle_beta   90.10428942
_cell_angle_gamma   119.99675628
_symmetry_Int_Tables_number   1
_chemical_formula_structural   Na18Ca4Ta8Si15(SO24)3
_chemical_formula_sum   'Na18 Ca4 Ta8 Si15 S3 O72'
_cell_volume   1650.33232988
_cell_formula_units_Z   1
loop_
 _symmetry_equiv_pos_site_id
 _symmetry_equiv_pos_as_xyz
  1  'x, y, z'
loop_
 _atom_site_type_symbol
 _atom_site_label
 _atom_site_symmetry_multiplicity
 _atom_site_fract_x
 _atom_site_fract_y
 _atom_site_fract_z
 _atom_site_occupancy
  Na  Na0  1  0.65761304  0.63723112  0.74331593  1
  Na  Na1  1  0.97461595  0.35919700  0.74228402  1
  Na  Na2  1  0.01798997  0.67308396  0.58910774  1
  Na  Na3  1  0.65640134  0.98398357  0.58889354  1
  Na  Na4  1  0.33160043  0.98269783  0.08911621  1
  Na  Na5  1  0.66036357  0.67881974  0.09185002  1
  Na  Na6  1  0.96359261  0.68199991  0.90826045  1
  Na  Na7  1  0.71970584  0.03695772  0.90878872  1
  Na  Na8  1  0.32240486  0.28974127  0.91633837  1
  Na  Na9  1  0.96432097  0.28511770  0.41341646  1
  Na  Na10  1  0.31857717  0.03583845  0.40872978  1
  Na  Na11  1  0.71190910  0.68218086  0.41371297  1
  Na  Na12  1  0.01423582  0.01480181  0.49622028  1
  Na  Na13  1  0.99634153  0.00929015  0.99442002  1
  Na  Na14  1  0.66873159  0.31795151  0.82287905  1
  Na  Na15  1  0.64510367  0.31675480  0.32229221  1
  Na  Na16  1  0.31073417  0.64979536  0.16795888  1
  Na  Na17  1  0.33644722  0.67245018  0.66744709  1
  Ca  Ca18  1  0.00401693  0.00027413  0.35189731  1
  Ca  Ca19  1  0.99982166  0.99915582  0.85392351  1
  Ca  Ca20  1  0.66081044  0.32670100  0.67909350  1
  Ca  Ca21  1  0.66233847  0.32729072  0.18220212  1
  Ta  Ta22  1  0.99118346  0.98479061  0.64663606  1
  Ta  Ta23  1  0.01337724  0.00233671  0.14612118  1
  Ta  Ta24  1  0.67298133  0.33459101  0.98110726  1
  Ta  Ta25  1  0.66056589  0.32940243  0.48188079  1
  Ta  Ta26  1  0.33221033  0.66520567  0.01959990  1
  Ta  Ta27  1  0.33181240  0.66259751  0.51922059  1
  Ta  Ta28  1  0.33022248  0.67432658  0.31393785  1
  Ta  Ta29  1  0.33603189  0.68138875  0.81356037  1
  Si  Si30  1  0.29915128  0.99211773  0.25502263  1
  Si  Si31  1  0.00659500  0.70329032  0.75385143  1
  Si  Si32  1  0.69784086  0.99336619  0.75342281  1
  Si  Si33  1  0.96618755  0.32978367  0.58412352  1
  Si  Si34  1  0.36462539  0.03226568  0.58156422  1
  Si  Si35  1  0.65960216  0.62837142  0.58563431  1
  Si  Si36  1  0.96716025  0.62766269  0.08539172  1
  Si  Si37  1  0.67067462  0.03741539  0.08253262  1
  Si  Si38  1  0.37470953  0.33866708  0.08197640  1
  Si  Si39  1  0.61458904  0.65314373  0.91669635  1
  Si  Si40  1  0.04157529  0.38922169  0.91561184  1
  Si  Si41  1  0.34937224  0.96761654  0.92009910  1
  Si  Si42  1  0.61477209  0.96240891  0.41846894  1
  Si  Si43  1  0.34732568  0.38832200  0.41456157  1
  Si  Si44  1  0.03464128  0.65227844  0.41779810  1
  S  S45  1  0.69445109  0.70817486  0.25067326  1
  S  S46  1  0.01470819  0.30201269  0.25129047  1
  S  S47  1  0.28786194  0.29935740  0.75064146  1
  O  O48  1  0.21500212  0.99350681  0.31638592  1
  O  O49  1  0.77841754  0.79021571  0.30647623  1
  O  O50  1  0.00147447  0.21989168  0.30839499  1
  O  O51  1  0.22002582  0.21860259  0.80755927  1
  O  O52  1  0.99535111  0.78560813  0.81402255  1
  O  O53  1  0.79412040  0.01359099  0.81424214  1
  O  O54  1  0.80998222  0.97100381  0.69611411  1
  O  O55  1  0.17594791  0.19586506  0.70037346  1
  O  O56  1  0.02095519  0.82713605  0.69476373  1
  O  O57  1  0.79140689  0.81753309  0.19821225  1
  O  O58  1  0.02493546  0.19655295  0.20150982  1
  O  O59  1  0.16535037  0.97719314  0.19765208  1
  O  O60  1  0.91640794  0.39658638  0.64120977  1
  O  O61  1  0.49959844  0.09048380  0.63281570  1
  O  O62  1  0.62533172  0.53794553  0.64724147  1
  O  O63  1  0.90185227  0.52209362  0.14299659  1
  O  O64  1  0.59016750  0.09405529  0.13264740  1
  O  O65  1  0.50310042  0.41111445  0.13503954  1
  O  O66  1  0.46509571  0.29599856  0.02438389  1
  O  O67  1  0.83617893  0.53338905  0.02698569  1
  O  O68  1  0.70299564  0.16417689  0.02329797  1
  O  O69  1  0.45937992  0.15663946  0.52232029  1
  O  O70  1  0.68964841  0.52350573  0.53017092  1
  O  O71  1  0.82774705  0.29807494  0.52842856  1
  O  O72  1  0.50112168  0.65363541  0.97182051  1
  O  O73  1  0.15227942  0.50786529  0.97028645  1
  O  O74  1  0.34822260  0.85744882  0.97596795  1
  O  O75  1  0.51036512  0.85413413  0.47565940  1
  O  O76  1  0.34820925  0.50280720  0.46996223  1
  O  O77  1  0.15246944  0.66191592  0.47294009  1
  O  O78  1  0.13540364  0.62974634  0.35933799  1
  O  O79  1  0.49240921  0.85878855  0.36014061  1
  O  O80  1  0.36855213  0.50564828  0.35597871  1
  O  O81  1  0.13761675  0.50103782  0.85534507  1
  O  O82  1  0.36446339  0.86292106  0.86069371  1
  O  O83  1  0.49689727  0.63199238  0.85693790  1
  O  O84  1  0.00850346  0.81233368  0.41940695  1
  O  O85  1  0.79912149  0.98280740  0.41769938  1
  O  O86  1  0.18052392  0.20652948  0.41814129  1
  O  O87  1  0.02812260  0.20878571  0.91982059  1
  O  O88  1  0.18760807  0.99063660  0.92133025  1
  O  O89  1  0.79774559  0.81853041  0.92113166  1
  O  O90  1  0.96446976  0.15031645  0.59231838  1
  O  O91  1  0.18250840  0.02422141  0.59318174  1
  O  O92  1  0.84418377  0.81354294  0.58880848  1
  O  O93  1  0.97137073  0.81644797  0.09331859  1
  O  O94  1  0.84370475  0.02687191  0.09691993  1
  O  O95  1  0.19388337  0.15666534  0.09424015  1
  O  O96  1  0.67807489  0.15470064  0.74485516  1
  O  O97  1  0.46068506  0.33342539  0.74495093  1
  O  O98  1  0.84124015  0.51988223  0.74798297  1
  O  O99  1  0.67658597  0.54280811  0.24727427  1
  O  O100  1  0.87330480  0.32902556  0.24438766  1
  O  O101  1  0.48331862  0.14891845  0.24871440  1
  O  O102  1  0.62570201  0.47888782  0.92278455  1
  O  O103  1  0.85545479  0.37773764  0.92043794  1
  O  O104  1  0.52724050  0.14889067  0.92059028  1
  O  O105  1  0.62388635  0.14657768  0.42146465  1
  O  O106  1  0.52231605  0.37768382  0.42208312  1
  O  O107  1  0.85276016  0.47517116  0.42415967  1
  O  O108  1  0.32042580  0.48062641  0.06765968  1
  O  O109  1  0.16676351  0.68750335  0.07236105  1
  O  O110  1  0.52588165  0.83724992  0.06887449  1
  O  O111  1  0.31202499  0.83273244  0.57005671  1
  O  O112  1  0.51723631  0.68356268  0.57250079  1
  O  O113  1  0.15672231  0.48173174  0.56741247  1
  O  O114  1  0.29985251  0.80592878  0.25331166  1
  O  O115  1  0.52422687  0.69916320  0.24919586  1
  O  O116  1  0.18058615  0.46687402  0.25000252  1
  O  O117  1  0.28504957  0.46327725  0.74800626  1
  O  O118  1  0.18238017  0.68826761  0.75271951  1
  O  O119  1  0.51751262  0.80488292  0.75334207  1
