# generated using pymatgen
data_MgFe12(OF)12
_symmetry_space_group_name_H-M   'P 1'
_cell_length_a   9.71055006
_cell_length_b   14.52534052
_cell_length_c   3.09211700
_cell_angle_alpha   90.00000000
_cell_angle_beta   90.00000000
_cell_angle_gamma   87.84563610
_symmetry_Int_Tables_number   1
_chemical_formula_structural   MgFe12(OF)12
_chemical_formula_sum   'Mg1 Fe12 O12 F12'
_cell_volume   435.83187931
_cell_formula_units_Z   1
loop_
 _symmetry_equiv_pos_site_id
 _symmetry_equiv_pos_as_xyz
  1  'x, y, z'
loop_
 _atom_site_type_symbol
 _atom_site_label
 _atom_site_symmetry_multiplicity
 _atom_site_fract_x
 _atom_site_fract_y
 _atom_site_fract_z
 _atom_site_occupancy
  Mg  Mg0  1  0.76770300  0.99180900  0.50000000  1
  Fe  Fe1  1  0.04960400  0.01965800  0.00000000  1
  Fe  Fe2  1  0.02235800  0.33272800  0.00000000  1
  Fe  Fe3  1  0.00356200  0.67001800  0.00000000  1
  Fe  Fe4  1  0.25213300  0.17550700  0.50000000  1
  Fe  Fe5  1  0.24100900  0.48238500  0.50000000  1
  Fe  Fe6  1  0.25832800  0.85202300  0.50000000  1
  Fe  Fe7  1  0.50343400  0.34896100  0.00000000  1
  Fe  Fe8  1  0.50674700  0.98958700  0.00000000  1
  Fe  Fe9  1  0.49910300  0.64807400  0.00000000  1
  Fe  Fe10  1  0.76437400  0.16830200  0.50000000  1
  Fe  Fe11  1  0.73129900  0.49238600  0.50000000  1
  Fe  Fe12  1  0.70144100  0.80402200  0.50000000  1
  O  O13  1  0.10966300  0.27382000  0.50000000  1
  O  O14  1  0.10752600  0.93987000  0.50000000  1
  O  O15  1  0.18951600  0.11105400  0.00000000  1
  O  O16  1  0.14552200  0.43820300  0.00000000  1
  O  O17  1  0.35665600  0.89925100  0.00000000  1
  O  O18  1  0.40528100  0.40012900  0.50000000  1
  O  O19  1  0.59648500  0.91975500  0.50000000  1
  O  O20  1  0.58112800  0.58678600  0.50000000  1
  O  O21  1  0.67615800  0.06949600  0.00000000  1
  O  O22  1  0.66287600  0.42630100  0.00000000  1
  O  O23  1  0.63725700  0.74505400  0.00000000  1
  O  O24  1  0.92867500  0.06906000  0.50000000  1
  F  F25  1  0.10316800  0.60136800  0.50000000  1
  F  F26  1  0.16028100  0.77279100  0.00000000  1
  F  F27  1  0.36893800  0.23681500  0.00000000  1
  F  F28  1  0.33226500  0.56333700  0.00000000  1
  F  F29  1  0.42206600  0.06929200  0.50000000  1
  F  F30  1  0.39228100  0.72044100  0.50000000  1
  F  F31  1  0.59742400  0.26603000  0.50000000  1
  F  F32  1  0.85815000  0.24764500  0.00000000  1
  F  F33  1  0.82131300  0.89210600  0.00000000  1
  F  F34  1  0.83878400  0.56243800  0.00000000  1
  F  F35  1  0.90845700  0.40290900  0.50000000  1
  F  F36  1  0.89189100  0.73651400  0.50000000  1
