# generated using pymatgen
data_Na14Y4Si9Ge4(SO16)3
_symmetry_space_group_name_H-M   'P 1'
_cell_length_a   18.31671814
_cell_length_b   9.10648118
_cell_length_c   22.33464576
_cell_angle_alpha   89.92962167
_cell_angle_beta   88.75006576
_cell_angle_gamma   119.95874570
_symmetry_Int_Tables_number   1
_chemical_formula_structural   Na14Y4Si9Ge4(SO16)3
_chemical_formula_sum   'Na42 Y12 Si27 Ge12 S9 O144'
_cell_volume   3226.58019618
_cell_formula_units_Z   3
loop_
 _symmetry_equiv_pos_site_id
 _symmetry_equiv_pos_as_xyz
  1  'x, y, z'
loop_
 _atom_site_type_symbol
 _atom_site_label
 _atom_site_symmetry_multiplicity
 _atom_site_fract_x
 _atom_site_fract_y
 _atom_site_fract_z
 _atom_site_occupancy
  Na  Na0  1  0.82393995  0.01551437  0.25410783  1
  Na  Na1  1  0.17806518  0.35731063  0.25558317  1
  Na  Na2  1  0.69154842  0.36909899  0.25328415  1
  Na  Na3  1  0.00111656  0.63074165  0.24724972  1
  Na  Na4  1  0.49696470  0.63796496  0.24789345  1
  Na  Na5  1  0.32303304  0.63017707  0.74958812  1
  Na  Na6  1  0.99437127  0.35335735  0.73883546  1
  Na  Na7  1  0.50286155  0.37380898  0.74355846  1
  Na  Na8  1  0.18967328  0.01194985  0.74864579  1
  Na  Na9  1  0.68218140  0.00417467  0.74818357  1
  Na  Na10  1  0.14561929  0.32120967  0.58041677  1
  Na  Na11  1  0.65706678  0.32951157  0.58234680  1
  Na  Na12  1  0.33652099  0.98409981  0.58690632  1
  Na  Na13  1  0.83390484  0.97261721  0.58422418  1
  Na  Na14  1  0.15281641  0.97893326  0.07967769  1
  Na  Na15  1  0.64901954  0.96972643  0.07829240  1
  Na  Na16  1  0.33252619  0.69379730  0.08135800  1
  Na  Na17  1  0.83687967  0.69135590  0.08752559  1
  Na  Na18  1  0.47789435  0.67150836  0.91681329  1
  Na  Na19  1  0.97812059  0.67703733  0.92472570  1
  Na  Na20  1  0.34397476  0.02432503  0.90779754  1
  Na  Na21  1  0.84572018  0.02668162  0.90986841  1
  Na  Na22  1  0.17274495  0.29348495  0.91029357  1
  Na  Na23  1  0.66846686  0.28409470  0.91061483  1
  Na  Na24  1  0.48223644  0.28864760  0.42873257  1
  Na  Na25  1  0.97661303  0.28066477  0.42129716  1
  Na  Na26  1  0.16767931  0.05403301  0.41485915  1
  Na  Na27  1  0.67413348  0.05014466  0.41730918  1
  Na  Na28  1  0.34776728  0.66712007  0.41390160  1
  Na  Na29  1  0.84569963  0.66476789  0.42032277  1
  Na  Na30  1  0.99663694  0.99331957  0.50574115  1
  Na  Na31  1  0.50612763  0.00829915  0.50844086  1
  Na  Na32  1  0.00291545  0.99820538  0.00623883  1
  Na  Na33  1  0.50253041  0.99730698  0.00229415  1
  Na  Na34  1  0.32895265  0.33389946  0.82575125  1
  Na  Na35  1  0.82110528  0.33223812  0.82398434  1
  Na  Na36  1  0.32142390  0.30852491  0.33074045  1
  Na  Na37  1  0.82853222  0.32289013  0.33183027  1
  Na  Na38  1  0.15868939  0.65658375  0.16604207  1
  Na  Na39  1  0.66541160  0.66011912  0.16416610  1
  Na  Na40  1  0.16362187  0.66948829  0.66203181  1
  Na  Na41  1  0.66250976  0.66331802  0.66527901  1
  Y  Y42  1  0.00461905  0.01138314  0.35127364  1
  Y  Y43  1  0.49845748  0.00444023  0.35218767  1
  Y  Y44  1  0.99591679  0.99395002  0.84877354  1
  Y  Y45  1  0.50438604  0.99739811  0.84999740  1
  Y  Y46  1  0.33693882  0.32666332  0.67790600  1
  Y  Y47  1  0.83738875  0.34687625  0.17864455  1
  Y  Y48  1  0.32822070  0.33399788  0.98834348  1
  Y  Y49  1  0.82317962  0.33861085  0.98558017  1
  Y  Y50  1  0.32573536  0.31078730  0.48554038  1
  Y  Y51  1  0.82971984  0.33286188  0.49154835  1
  Y  Y52  1  0.67386352  0.67615574  0.31291902  1
  Y  Y53  1  0.17323315  0.66901212  0.80974612  1
  Si  Si54  1  0.16104202  0.00592539  0.24873794  1
  Si  Si55  1  0.64665060  0.99573374  0.24798105  1
  Si  Si56  1  0.35528796  0.70978281  0.24739733  1
  Si  Si57  1  0.85937294  0.71840495  0.24647515  1
  Si  Si58  1  0.00638013  0.30307351  0.25214373  1
  Si  Si59  1  0.14245231  0.28801345  0.74556110  1
  Si  Si60  1  0.66019417  0.31736798  0.75054717  1
  Si  Si61  1  0.50603617  0.70967263  0.75287431  1
  Si  Si62  1  0.35946118  0.00094556  0.74683937  1
  Si  Si63  1  0.85449460  0.01382621  0.74721540  1
  Si  Si64  1  0.49400390  0.33326375  0.58218988  1
  Si  Si65  1  0.98329832  0.33983535  0.58442556  1
  Si  Si66  1  0.16956741  0.00737834  0.58399018  1
  Si  Si67  1  0.67618005  0.01667945  0.58528184  1
  Si  Si68  1  0.84170459  0.63795132  0.58542203  1
  Si  Si69  1  0.48260451  0.62811673  0.08537125  1
  Si  Si70  1  0.99336254  0.65265522  0.08172971  1
  Si  Si71  1  0.17548246  0.33476058  0.08518246  1
  Si  Si72  1  0.66734722  0.32897173  0.08475377  1
  Si  Si73  1  0.31187606  0.67026428  0.92219621  1
  Si  Si74  1  0.80020193  0.66411229  0.91534410  1
  Si  Si75  1  0.16543522  0.95514264  0.91811855  1
  Si  Si76  1  0.66736217  0.93931885  0.91736088  1
  Si  Si77  1  0.30003155  0.93753529  0.41525368  1
  Si  Si78  1  0.81313469  0.95824447  0.42251586  1
  Si  Si79  1  0.16819121  0.39581210  0.41695816  1
  Si  Si80  1  0.66726647  0.37565157  0.41912647  1
  Ge  Ge81  1  0.99585363  0.00945432  0.64524759  1
  Ge  Ge82  1  0.51870926  0.03181851  0.65874807  1
  Ge  Ge83  1  0.01824610  0.00702464  0.15874039  1
  Ge  Ge84  1  0.50363260  0.98310016  0.15004606  1
  Ge  Ge85  1  0.82467091  0.31299754  0.67547528  1
  Ge  Ge86  1  0.32569408  0.35943806  0.18059249  1
  Ge  Ge87  1  0.16322984  0.66219971  0.01881007  1
  Ge  Ge88  1  0.65946567  0.65498394  0.01901440  1
  Ge  Ge89  1  0.15887693  0.66283908  0.51869866  1
  Ge  Ge90  1  0.68070873  0.66199278  0.52847523  1
  Ge  Ge91  1  0.18068270  0.67576224  0.30551465  1
  Ge  Ge92  1  0.68137849  0.68896620  0.80468388  1
  S  S93  1  0.49251524  0.28865025  0.24514518  1
  S  S94  1  0.99343999  0.69532728  0.74685103  1
  S  S95  1  0.33180368  0.64424146  0.58038792  1
  S  S96  1  0.33581712  0.03555002  0.08578171  1
  S  S97  1  0.83183237  0.01985691  0.08024494  1
  S  S98  1  0.02121720  0.37542935  0.92114585  1
  S  S99  1  0.52566114  0.38478798  0.91772919  1
  S  S100  1  0.02673559  0.66448171  0.41543945  1
  S  S101  1  0.51996592  0.66541713  0.41920537  1
  O  O102  1  0.12930172  0.06242149  0.30811566  1
  O  O103  1  0.60942479  0.03000532  0.30947890  1
  O  O104  1  0.40928520  0.76997391  0.30702291  1
  O  O105  1  0.90899632  0.79120428  0.30795602  1
  O  O106  1  0.48255258  0.20182440  0.30353632  1
  O  O107  1  0.98607530  0.20307050  0.31537310  1
  O  O108  1  0.11008387  0.19320602  0.81091751  1
  O  O109  1  0.62513079  0.20071435  0.81109655  1
  O  O110  1  0.48511875  0.76523694  0.81702585  1
  O  O111  1  0.98455502  0.76262014  0.80621895  1
  O  O112  1  0.40530594  0.02213770  0.81019848  1
  O  O113  1  0.90566210  0.05469359  0.80929421  1
  O  O114  1  0.41587436  0.98274843  0.69022980  1
  O  O115  1  0.90452931  0.98558207  0.69131693  1
  O  O116  1  0.07835247  0.17131129  0.69219330  1
  O  O117  1  0.59331530  0.22771321  0.69504180  1
  O  O118  1  0.00423923  0.81200543  0.69768772  1
  O  O119  1  0.52614608  0.86077326  0.70241611  1
  O  O120  1  0.40412831  0.83330073  0.18831598  1
  O  O121  1  0.91511433  0.84763495  0.18818513  1
  O  O122  1  0.02717843  0.19475833  0.20062747  1
  O  O123  1  0.50282848  0.19258495  0.19507347  1
  O  O124  1  0.09545247  0.96343971  0.19256445  1
  O  O125  1  0.58443678  0.97882189  0.19111802  1
  O  O126  1  0.45496510  0.36897762  0.64163079  1
  O  O127  1  0.93119119  0.36174439  0.64247201  1
  O  O128  1  0.23590290  0.08658519  0.63836690  1
  O  O129  1  0.74647209  0.11512034  0.63920809  1
  O  O130  1  0.32010977  0.53885924  0.63486988  1
  O  O131  1  0.81741333  0.48136948  0.63423794  1
  O  O132  1  0.42853438  0.49765914  0.14325294  1
  O  O133  1  0.95594684  0.53999286  0.14152659  1
  O  O134  1  0.32406931  0.13295702  0.13514808  1
  O  O135  1  0.82007286  0.10091860  0.13465697  1
  O  O136  1  0.24803024  0.38520075  0.13852104  1
  O  O137  1  0.73266175  0.37846178  0.13910993  1
  O  O138  1  0.20949625  0.27988397  0.02694138  1
  O  O139  1  0.70335563  0.27323657  0.02641512  1
  O  O140  1  0.42862200  0.56404391  0.02596347  1
  O  O141  1  0.93046244  0.56899503  0.02489616  1
  O  O142  1  0.34828786  0.12264495  0.02733639  1
  O  O143  1  0.83949033  0.12219687  0.02617554  1
  O  O144  1  0.20723641  0.13369288  0.52516914  1
  O  O145  1  0.70794277  0.13723925  0.52596926  1
  O  O146  1  0.33993965  0.55787451  0.52624602  1
  O  O147  1  0.85939659  0.58636065  0.52002756  1
  O  O148  1  0.42976458  0.28744081  0.52570372  1
  O  O149  1  0.93053456  0.29604611  0.52422974  1
  O  O150  1  0.25738208  0.68359092  0.98179762  1
  O  O151  1  0.75284732  0.67848913  0.97733127  1
  O  O152  1  0.07562186  0.46398654  0.97297433  1
  O  O153  1  0.57476243  0.46733055  0.97255836  1
  O  O154  1  0.15752644  0.83102635  0.97646251  1
  O  O155  1  0.65346630  0.82425155  0.97987840  1
  O  O156  1  0.25209355  0.82581089  0.47643192  1
  O  O157  1  0.75923852  0.83353545  0.48112447  1
  O  O158  1  0.15452156  0.48436446  0.47835371  1
  O  O159  1  0.66228996  0.48581668  0.47704267  1
  O  O160  1  0.07557494  0.68085146  0.47038413  1
  O  O161  1  0.57338752  0.68055343  0.46881685  1
  O  O162  1  0.06683348  0.64808150  0.35966551  1
  O  O163  1  0.55371879  0.64585722  0.36016457  1
  O  O164  1  0.24452790  0.84991248  0.35512657  1
  O  O165  1  0.76137353  0.88466333  0.36085181  1
  O  O166  1  0.17864894  0.50627868  0.35440300  1
  O  O167  1  0.66933871  0.46188949  0.35452068  1
  O  O168  1  0.05701138  0.46972497  0.86430195  1
  O  O169  1  0.56378583  0.48213844  0.86232296  1
  O  O170  1  0.17184284  0.87417065  0.85495654  1
  O  O171  1  0.67772327  0.84774389  0.85625866  1
  O  O172  1  0.25833578  0.63703801  0.86195247  1
  O  O173  1  0.74390701  0.64085437  0.85606206  1
  O  O174  1  0.02101512  0.82208001  0.41527430  1
  O  O175  1  0.51027278  0.81920362  0.41847096  1
  O  O176  1  0.39319772  0.95581411  0.41521277  1
  O  O177  1  0.90341110  0.96147009  0.42349789  1
  O  O178  1  0.08692721  0.20463197  0.41953770  1
  O  O179  1  0.58018133  0.18877099  0.42407823  1
  O  O180  1  0.01319786  0.20538748  0.92038694  1
  O  O181  1  0.51960921  0.21527743  0.91778917  1
  O  O182  1  0.08020079  0.97292617  0.92232130  1
  O  O183  1  0.58612445  0.96764652  0.92032609  1
  O  O184  1  0.40191632  0.84647150  0.92491015  1
  O  O185  1  0.89392079  0.83272583  0.91580011  1
  O  O186  1  0.50260541  0.16002684  0.59237945  1
  O  O187  1  0.99479679  0.16998965  0.59323418  1
  O  O188  1  0.07903512  0.00183956  0.59580620  1
  O  O189  1  0.58544643  0.00938410  0.60053164  1
  O  O190  1  0.40540731  0.81402196  0.58335192  1
  O  O191  1  0.91663341  0.83162806  0.59932293  1
  O  O192  1  0.49135432  0.82000449  0.09396275  1
  O  O193  1  0.00334568  0.84391862  0.09094792  1
  O  O194  1  0.40866912  0.00781382  0.09250119  1
  O  O195  1  0.90564786  0.99792295  0.08276857  1
  O  O196  1  0.08557983  0.16088415  0.09972648  1
  O  O197  1  0.57356854  0.15236075  0.09639693  1
  O  O198  1  0.34529156  0.16348314  0.74512085  1
  O  O199  1  0.84122474  0.18133264  0.73690190  1
  O  O200  1  0.23849843  0.32189055  0.73965790  1
  O  O201  1  0.74904990  0.31744624  0.73501713  1
  O  O202  1  0.42299789  0.52749790  0.74147533  1
  O  O203  1  0.91980263  0.52343216  0.74286610  1
  O  O204  1  0.34267688  0.51382559  0.23909183  1
  O  O205  1  0.84514268  0.52748817  0.24398633  1
  O  O206  1  0.41897866  0.31353994  0.24031301  1
  O  O207  1  0.92375217  0.31902728  0.24065260  1
  O  O208  1  0.25276502  0.18429420  0.23084611  1
  O  O209  1  0.74145257  0.15564789  0.24099848  1
  O  O210  1  0.32532068  0.50622058  0.92403717  1
  O  O211  1  0.81217893  0.49609385  0.91615243  1
  O  O212  1  0.43952093  0.36065908  0.92389316  1
  O  O213  1  0.93646272  0.35709013  0.92800249  1
  O  O214  1  0.25285396  0.13872028  0.92089305  1
  O  O215  1  0.75371470  0.12586525  0.91877890  1
  O  O216  1  0.31223421  0.12946497  0.41548741  1
  O  O217  1  0.82594929  0.14842924  0.42444782  1
  O  O218  1  0.25439676  0.38226634  0.41775739  1
  O  O219  1  0.75289187  0.36149601  0.41887173  1
  O  O220  1  0.43355723  0.51328531  0.42402966  1
  O  O221  1  0.94164357  0.51428202  0.41974592  1
  O  O222  1  0.17333715  0.51256117  0.07703536  1
  O  O223  1  0.66466900  0.50667801  0.07304595  1
  O  O224  1  0.08956109  0.67255652  0.07361361  1
  O  O225  1  0.57968959  0.66116717  0.08017334  1
  O  O226  1  0.25646369  0.86486754  0.08544268  1
  O  O227  1  0.75227953  0.84840334  0.07873016  1
  O  O228  1  0.16666071  0.82409751  0.57241879  1
  O  O229  1  0.67500290  0.83535459  0.57854211  1
  O  O230  1  0.25239074  0.65513824  0.57861787  1
  O  O231  1  0.75258664  0.64926172  0.58418292  1
  O  O232  1  0.08143103  0.50196098  0.57831792  1
  O  O233  1  0.58907385  0.50261797  0.57365015  1
  O  O234  1  0.16007324  0.82387531  0.25519501  1
  O  O235  1  0.64408964  0.81488659  0.24401820  1
  O  O236  1  0.25938183  0.68072868  0.24996570  1
  O  O237  1  0.76727679  0.70611226  0.24198316  1
  O  O238  1  0.09321418  0.49668978  0.25521228  1
  O  O239  1  0.57113208  0.45896367  0.24536133  1
  O  O240  1  0.14162913  0.46634014  0.74221800  1
  O  O241  1  0.65931702  0.49852987  0.75662537  1
  O  O242  1  0.07177677  0.68168620  0.74743304  1
  O  O243  1  0.59278252  0.69074402  0.75609116  1
  O  O244  1  0.26741385  0.82836949  0.74126155  1
  O  O245  1  0.75913013  0.84460368  0.75096513  1
