# generated using pymatgen
data_Nb3SBr7
_symmetry_space_group_name_H-M   'P 1'
_cell_length_a   7.17997263
_cell_length_b   7.17997254
_cell_length_c   6.54616994
_cell_angle_alpha   90.00000000
_cell_angle_beta   90.00000000
_cell_angle_gamma   120.00000035
_symmetry_Int_Tables_number   1
_chemical_formula_structural   Nb3SBr7
_chemical_formula_sum   'Nb3 S1 Br7'
_cell_volume   292.25602823
_cell_formula_units_Z   1
loop_
 _symmetry_equiv_pos_site_id
 _symmetry_equiv_pos_as_xyz
  1  'x, y, z'
loop_
 _atom_site_type_symbol
 _atom_site_label
 _atom_site_symmetry_multiplicity
 _atom_site_fract_x
 _atom_site_fract_y
 _atom_site_fract_z
 _atom_site_occupancy
  Nb  Nb0  1  0.60236407  0.80118154  0.22319273  1
  Nb  Nb1  1  0.19881846  0.39763593  0.22319273  1
  Nb  Nb2  1  0.19881846  0.80118154  0.22319273  1
  S  S3  1  0.33333300  0.66666700  0.48734174  1
  Br  Br4  1  0.99681891  0.49840945  0.96289035  1
  Br  Br5  1  0.50159055  0.00318109  0.96289035  1
  Br  Br6  1  -0.00000000  -0.00000000  0.00807452  1
  Br  Br7  1  0.33611509  0.16805804  0.44374518  1
  Br  Br8  1  0.83194196  0.16805804  0.44374518  1
  Br  Br9  1  0.83194196  0.66388491  0.44374518  1
  Br  Br10  1  0.50159055  0.49840945  0.96289035  1
