# generated using pymatgen
data_MgSc4(FeO3)4
_symmetry_space_group_name_H-M   'P 1'
_cell_length_a   5.27219244
_cell_length_b   5.63983491
_cell_length_c   8.06128244
_cell_angle_alpha   88.91494350
_cell_angle_beta   87.65959029
_cell_angle_gamma   86.77832910
_symmetry_Int_Tables_number   1
_chemical_formula_structural   MgSc4(FeO3)4
_chemical_formula_sum   'Mg1 Sc4 Fe4 O12'
_cell_volume   239.08482601
_cell_formula_units_Z   1
loop_
 _symmetry_equiv_pos_site_id
 _symmetry_equiv_pos_as_xyz
  1  'x, y, z'
loop_
 _atom_site_type_symbol
 _atom_site_label
 _atom_site_symmetry_multiplicity
 _atom_site_fract_x
 _atom_site_fract_y
 _atom_site_fract_z
 _atom_site_occupancy
  Mg  Mg0  1  0.39695400  0.23313300  0.09377300  1
  Sc  Sc1  1  0.01080700  0.96747400  0.73238800  1
  Sc  Sc2  1  0.50929600  0.44463800  0.70383400  1
  Sc  Sc3  1  0.54775400  0.62024400  0.28186000  1
  Sc  Sc4  1  0.95115800  0.01523400  0.20585700  1
  Fe  Fe5  1  0.97056500  0.51079300  0.99091500  1
  Fe  Fe6  1  0.01592300  0.52585300  0.49467700  1
  Fe  Fe7  1  0.50198900  0.83849500  0.89623200  1
  Fe  Fe8  1  0.48338600  0.04137600  0.49516700  1
  O  O9  1  0.19982800  0.47781800  0.27794500  1
  O  O10  1  0.19448400  0.24512900  0.60446000  1
  O  O11  1  0.15949800  0.03791700  0.95781200  1
  O  O12  1  0.29841300  0.74921600  0.59717100  1
  O  O13  1  0.34438100  0.51756100  0.93309400  1
  O  O14  1  0.33539900  0.98053200  0.28227800  1
  O  O15  1  0.64109300  0.09165400  0.74103600  1
  O  O16  1  0.74143900  0.31294900  0.13754300  1
  O  O17  1  0.67987200  0.37182500  0.46535800  1
  O  O18  1  0.74034100  0.79182900  0.08707500  1
  O  O19  1  0.80137200  0.84113600  0.42055800  1
  O  O20  1  0.83854700  0.62269600  0.75096900  1
