# generated using pymatgen
data_MgTa2(FeO4)2
_symmetry_space_group_name_H-M   'P 1'
_cell_length_a   5.15488909
_cell_length_b   5.18367015
_cell_length_c   6.45114867
_cell_angle_alpha   88.87324379
_cell_angle_beta   90.48164240
_cell_angle_gamma   103.07633877
_symmetry_Int_Tables_number   1
_chemical_formula_structural   MgTa2(FeO4)2
_chemical_formula_sum   'Mg1 Ta2 Fe2 O8'
_cell_volume   167.87889564
_cell_formula_units_Z   1
loop_
 _symmetry_equiv_pos_site_id
 _symmetry_equiv_pos_as_xyz
  1  'x, y, z'
loop_
 _atom_site_type_symbol
 _atom_site_label
 _atom_site_symmetry_multiplicity
 _atom_site_fract_x
 _atom_site_fract_y
 _atom_site_fract_z
 _atom_site_occupancy
  Mg  Mg0  1  0.64082936  0.43176614  0.36011114  1
  Ta  Ta1  1  0.00295598  0.73325155  0.82430030  1
  Ta  Ta2  1  0.02286778  0.23088871  0.12679905  1
  Fe  Fe3  1  0.37333347  0.84476324  0.35856749  1
  Fe  Fe4  1  0.51298076  0.23319707  0.83230191  1
  O  O5  1  0.26814331  0.93335325  0.64265725  1
  O  O6  1  0.21735397  0.45670980  0.88656818  1
  O  O7  1  0.26664343  0.44633104  0.32188948  1
  O  O8  1  0.23631740  0.96575924  0.08023702  1
  O  O9  1  0.80624405  0.01080286  0.88870089  1
  O  O10  1  0.75224043  0.54108647  0.63764269  1
  O  O11  1  0.79635108  0.50217253  0.07372216  1
  O  O12  1  0.74262798  0.08241811  0.32364543  1
