# generated using pymatgen
data_Na6Nb3Ga5Si6(SO8)6
_symmetry_space_group_name_H-M   'P 1'
_cell_length_a   17.56239358
_cell_length_b   8.76371761
_cell_length_c   22.49749255
_cell_angle_alpha   89.78929558
_cell_angle_beta   90.16672406
_cell_angle_gamma   119.65828185
_symmetry_Int_Tables_number   1
_chemical_formula_structural   Na6Nb3Ga5Si6(SO8)6
_chemical_formula_sum   'Na18 Nb9 Ga15 Si18 S18 O144'
_cell_volume   3008.97594345
_cell_formula_units_Z   3
loop_
 _symmetry_equiv_pos_site_id
 _symmetry_equiv_pos_as_xyz
  1  'x, y, z'
loop_
 _atom_site_type_symbol
 _atom_site_label
 _atom_site_symmetry_multiplicity
 _atom_site_fract_x
 _atom_site_fract_y
 _atom_site_fract_z
 _atom_site_occupancy
  Na  Na0  1  0.48210106  0.67652562  0.91337529  1
  Na  Na1  1  0.16605612  0.30986419  0.91388458  1
  Na  Na2  1  0.48471166  0.29758371  0.41621208  1
  Na  Na3  1  0.97925345  0.29308533  0.41235981  1
  Na  Na4  1  0.16534153  0.02754748  0.41428237  1
  Na  Na5  1  0.66686089  0.03193778  0.41837127  1
  Na  Na6  1  0.99007235  0.98083387  0.49461675  1
  Na  Na7  1  0.49602047  0.99082345  0.49578628  1
  Na  Na8  1  0.99582244  0.99571220  0.99669499  1
  Na  Na9  1  0.50056288  0.00139400  0.99175256  1
  Na  Na10  1  0.33359260  0.32895199  0.82624880  1
  Na  Na11  1  0.83223729  0.33502526  0.82978506  1
  Na  Na12  1  0.33549089  0.33504999  0.33093772  1
  Na  Na13  1  0.83636854  0.33854289  0.33296092  1
  Na  Na14  1  0.15945147  0.66137094  0.16284881  1
  Na  Na15  1  0.66662549  0.65855286  0.16455437  1
  Na  Na16  1  0.16829391  0.66929150  0.66794499  1
  Na  Na17  1  0.66396978  0.66094300  0.66233499  1
  Nb  Nb18  1  0.00519627  0.99988174  0.64715399  1
  Nb  Nb19  1  0.50029162  0.00424971  0.65091917  1
  Nb  Nb20  1  0.00491853  0.99959576  0.14679598  1
  Nb  Nb21  1  0.50584098  0.01836822  0.14438704  1
  Nb  Nb22  1  0.83332652  0.33789663  0.97769193  1
  Nb  Nb23  1  0.15900502  0.67278516  0.31051659  1
  Nb  Nb24  1  0.66270237  0.65756574  0.31773208  1
  Nb  Nb25  1  0.16645363  0.65273857  0.80835993  1
  Nb  Nb26  1  0.66338254  0.67047842  0.80891477  1
  Ga  Ga27  1  0.99478012  0.99337811  0.35033569  1
  Ga  Ga28  1  0.49508216  0.00596292  0.35827199  1
  Ga  Ga29  1  0.00483249  0.00600175  0.84902723  1
  Ga  Ga30  1  0.49866243  0.98972562  0.84986349  1
  Ga  Ga31  1  0.33532643  0.33438127  0.69415178  1
  Ga  Ga32  1  0.83150912  0.34879375  0.68914820  1
  Ga  Ga33  1  0.33356062  0.32288546  0.19095119  1
  Ga  Ga34  1  0.84401363  0.35198210  0.18116182  1
  Ga  Ga35  1  0.33166421  0.33655872  0.98072184  1
  Ga  Ga36  1  0.33988201  0.33867039  0.47898660  1
  Ga  Ga37  1  0.83362499  0.33543451  0.47402897  1
  Ga  Ga38  1  0.15770414  0.64849483  0.01257243  1
  Ga  Ga39  1  0.66806867  0.66552703  0.01809225  1
  Ga  Ga40  1  0.16957716  0.67882667  0.51293623  1
  Ga  Ga41  1  0.66699425  0.67052739  0.50696723  1
  Si  Si42  1  0.14754570  0.01533408  0.25354866  1
  Si  Si43  1  0.99269085  0.28449053  0.25137018  1
  Si  Si44  1  0.49957401  0.29461632  0.25308307  1
  Si  Si45  1  0.14739560  0.28432666  0.75134759  1
  Si  Si46  1  0.64671234  0.28219267  0.75392919  1
  Si  Si47  1  0.99566177  0.70429244  0.75518637  1
  Si  Si48  1  0.49500876  0.70821903  0.75120794  1
  Si  Si49  1  0.35736340  0.00586361  0.75423990  1
  Si  Si50  1  0.98585197  0.62525565  0.08228536  1
  Si  Si51  1  0.69559909  0.35149260  0.08469292  1
  Si  Si52  1  0.31290948  0.67514071  0.92228763  1
  Si  Si53  1  0.01995067  0.36545358  0.91548162  1
  Si  Si54  1  0.66487400  0.95438959  0.92021714  1
  Si  Si55  1  0.31141818  0.95459569  0.41994465  1
  Si  Si56  1  0.81576391  0.95482542  0.41867507  1
  Si  Si57  1  0.66792477  0.37435666  0.42114805  1
  Si  Si58  1  0.01848023  0.67155009  0.42070609  1
  Si  Si59  1  0.51672711  0.66976898  0.41939109  1
  S  S60  1  0.64704580  0.00500683  0.25039229  1
  S  S61  1  0.35701309  0.70975870  0.24970779  1
  S  S62  1  0.85432015  0.70722892  0.25000563  1
  S  S63  1  0.85681219  0.00481676  0.74944943  1
  S  S64  1  0.47937023  0.33895395  0.58314303  1
  S  S65  1  0.97843440  0.33851616  0.58275188  1
  S  S66  1  0.19175106  0.04430612  0.58247901  1
  S  S67  1  0.69140088  0.04443584  0.58324239  1
  S  S68  1  0.33012798  0.61669226  0.58191720  1
  S  S69  1  0.83034140  0.61993704  0.58225846  1
  S  S70  1  0.47625465  0.61660588  0.08422567  1
  S  S71  1  0.33087627  0.04641722  0.08247229  1
  S  S72  1  0.83087695  0.04073524  0.08405952  1
  S  S73  1  0.19284117  0.33799930  0.08434009  1
  S  S74  1  0.81279851  0.67389743  0.91649873  1
  S  S75  1  0.52132607  0.37270419  0.91921064  1
  S  S76  1  0.16777472  0.95750542  0.91850748  1
  S  S77  1  0.16925873  0.38167646  0.41906710  1
  O  O78  1  0.10182314  0.03268991  0.31258458  1
  O  O79  1  0.60522379  0.02521496  0.30387984  1
  O  O80  1  0.41066530  0.78692435  0.30311309  1
  O  O81  1  0.90747801  0.78482586  0.30383080  1
  O  O82  1  0.48498583  0.17157971  0.30973212  1
  O  O83  1  0.98287858  0.17393996  0.31135158  1
  O  O84  1  0.10585477  0.17555201  0.81119584  1
  O  O85  1  0.60126618  0.16759245  0.81108733  1
  O  O86  1  0.48288516  0.78186626  0.81278514  1
  O  O87  1  0.97733038  0.79874472  0.81005162  1
  O  O88  1  0.41815442  0.03878272  0.81068598  1
  O  O89  1  0.90764622  0.03079027  0.80388413  1
  O  O90  1  0.40131640  0.96609096  0.69271901  1
  O  O91  1  0.89667733  0.97154786  0.69543853  1
  O  O92  1  0.08060540  0.19180513  0.69251832  1
  O  O93  1  0.58354902  0.20295886  0.69234339  1
  O  O94  1  0.01051018  0.83281706  0.69384089  1
  O  O95  1  0.51894905  0.83659549  0.69170751  1
  O  O96  1  0.39830809  0.82140512  0.19535456  1
  O  O97  1  0.89689205  0.81828257  0.19567523  1
  O  O98  1  0.00997177  0.18831935  0.19261691  1
  O  O99  1  0.51307162  0.19306898  0.19337363  1
  O  O100  1  0.08355579  0.96791331  0.19336334  1
  O  O101  1  0.58798850  0.97424847  0.19589425  1
  O  O102  1  0.43498017  0.35821101  0.63547254  1
  O  O103  1  0.93664396  0.36030202  0.63657043  1
  O  O104  1  0.24306038  0.12939598  0.63556581  1
  O  O105  1  0.74573528  0.13063888  0.63673169  1
  O  O106  1  0.31935990  0.51188799  0.63587235  1
  O  O107  1  0.82009815  0.51645615  0.63707900  1
  O  O108  1  0.43284403  0.50707413  0.13688075  1
  O  O109  1  0.94292785  0.51163636  0.14118511  1
  O  O110  1  0.32112732  0.13082898  0.13655084  1
  O  O111  1  0.81679553  0.11813105  0.13787438  1
  O  O112  1  0.24684936  0.35673316  0.13702316  1
  O  O113  1  0.74901356  0.36328235  0.14416299  1
  O  O114  1  0.22790679  0.30139033  0.02887758  1
  O  O115  1  0.73360718  0.30321062  0.02535885  1
  O  O116  1  0.42455612  0.54310712  0.02830432  1
  O  O117  1  0.91821327  0.52901503  0.02549427  1
  O  O118  1  0.34972553  0.15960025  0.02847221  1
  O  O119  1  0.84723683  0.15118045  0.02987120  1
  O  O120  1  0.22662419  0.14871683  0.52710649  1
  O  O121  1  0.72979693  0.15106651  0.52829226  1
  O  O122  1  0.34425065  0.53602238  0.52746326  1
  O  O123  1  0.84874854  0.54451014  0.52937579  1
  O  O124  1  0.42611864  0.30655141  0.52732868  1
  O  O125  1  0.92574828  0.30821129  0.52787976  1
  O  O126  1  0.26460573  0.69899647  0.97975998  1
  O  O127  1  0.77251188  0.69493113  0.97112527  1
  O  O128  1  0.08194965  0.44202769  0.97367405  1
  O  O129  1  0.57543302  0.45627974  0.97263986  1
  O  O130  1  0.15377074  0.85280314  0.97294838  1
  O  O131  1  0.64769300  0.82119901  0.97584346  1
  O  O132  1  0.27146437  0.83521671  0.47840561  1
  O  O133  1  0.77278896  0.83595532  0.47708497  1
  O  O134  1  0.15147791  0.45904564  0.47256717  1
  O  O135  1  0.64092865  0.45458621  0.47654803  1
  O  O136  1  0.08415627  0.70951581  0.47650179  1
  O  O137  1  0.58164310  0.71514647  0.47603102  1
  O  O138  1  0.06497560  0.62971122  0.36087547  1
  O  O139  1  0.56361570  0.62412479  0.36115226  1
  O  O140  1  0.24643119  0.86034547  0.36114709  1
  O  O141  1  0.74897460  0.86586585  0.35960383  1
  O  O142  1  0.18334171  0.48804486  0.36460901  1
  O  O143  1  0.68453924  0.50035638  0.36048095  1
  O  O144  1  0.06580095  0.49751840  0.85842626  1
  O  O145  1  0.56191852  0.48979050  0.86487597  1
  O  O146  1  0.18263110  0.88231415  0.86446178  1
  O  O147  1  0.68078349  0.85508062  0.86146605  1
  O  O148  1  0.24699659  0.62770451  0.86296841  1
  O  O149  1  0.75777019  0.64275802  0.86283563  1
  O  O150  1  0.01630539  0.85114742  0.40965217  1
  O  O151  1  0.51503236  0.84716671  0.40486343  1
  O  O152  1  0.40933881  0.98678710  0.41300351  1
  O  O153  1  0.91424393  0.98694645  0.41056588  1
  O  O154  1  0.09009743  0.20479943  0.41424318  1
  O  O155  1  0.58245733  0.18395358  0.41011985  1
  O  O156  1  0.01013553  0.17008527  0.90761845  1
  O  O157  1  0.51214386  0.20091628  0.91268186  1
  O  O158  1  0.08937928  0.98192563  0.91369111  1
  O  O159  1  0.57878686  0.97237405  0.91277169  1
  O  O160  1  0.41026753  0.83902873  0.91425575  1
  O  O161  1  0.90044430  0.82763217  0.91126452  1
  O  O162  1  0.48748028  0.17427159  0.58710895  1
  O  O163  1  0.98609710  0.17243175  0.58898707  1
  O  O164  1  0.09906601  0.02591405  0.58752658  1
  O  O165  1  0.60137740  0.02832037  0.58798400  1
  O  O166  1  0.41082334  0.79692561  0.58600675  1
  O  O167  1  0.91135632  0.80227354  0.58936533  1
  O  O168  1  0.48417959  0.79599551  0.09075729  1
  O  O169  1  0.98793008  0.81880193  0.08834797  1
  O  O170  1  0.41314660  0.02728452  0.08921576  1
  O  O171  1  0.91141330  0.02235135  0.08885568  1
  O  O172  1  0.10239241  0.17514944  0.08923804  1
  O  O173  1  0.59474503  0.16503521  0.09144787  1
  O  O174  1  0.34498215  0.17095318  0.74050434  1
  O  O175  1  0.84489275  0.15718354  0.74027380  1
  O  O176  1  0.24142203  0.30904457  0.73954776  1
  O  O177  1  0.74146755  0.30197876  0.74144461  1
  O  O178  1  0.41575143  0.51647024  0.74049413  1
  O  O179  1  0.91439428  0.51190880  0.74156767  1
  O  O180  1  0.34686771  0.53321257  0.24108570  1
  O  O181  1  0.84337819  0.53031410  0.24437809  1
  O  O182  1  0.41582414  0.31892039  0.24178123  1
  O  O183  1  0.90696964  0.30706930  0.24254239  1
  O  O184  1  0.24185385  0.18311804  0.24218105  1
  O  O185  1  0.73286660  0.16009067  0.24203998  1
  O  O186  1  0.32087962  0.48907795  0.92629850  1
  O  O187  1  0.81943720  0.50889296  0.92048565  1
  O  O188  1  0.43366488  0.36585673  0.92423841  1
  O  O189  1  0.92426993  0.35286702  0.92376312  1
  O  O190  1  0.24754468  0.13976423  0.92489865  1
  O  O191  1  0.75460740  0.14517133  0.92444663  1
  O  O192  1  0.31537273  0.14726502  0.42524589  1
  O  O193  1  0.82120713  0.14644149  0.42392012  1
  O  O194  1  0.24722789  0.35838079  0.42552391  1
  O  O195  1  0.75320225  0.35159781  0.42388588  1
  O  O196  1  0.42368486  0.48791942  0.42334341  1
  O  O197  1  0.92756333  0.48888288  0.42448654  1
  O  O198  1  0.18224155  0.49333915  0.08034169  1
  O  O199  1  0.67626573  0.51321716  0.07419479  1
  O  O200  1  0.08416941  0.65558317  0.07330201  1
  O  O201  1  0.56501859  0.63898947  0.07967038  1
  O  O202  1  0.25517790  0.87174714  0.07750409  1
  O  O203  1  0.75331077  0.86359773  0.07709559  1
  O  O204  1  0.17783908  0.86324343  0.57916020  1
  O  O205  1  0.68046190  0.86536763  0.57975546  1
  O  O206  1  0.24982751  0.63513064  0.57688928  1
  O  O207  1  0.75211477  0.64055061  0.57840734  1
  O  O208  1  0.06872512  0.49153167  0.57755114  1
  O  O209  1  0.56751889  0.49498403  0.57880391  1
  O  O210  1  0.15582190  0.83332331  0.25450270  1
  O  O211  1  0.65312632  0.84070107  0.25215644  1
  O  O212  1  0.26838015  0.69276520  0.25495321  1
  O  O213  1  0.76772290  0.69956226  0.25319284  1
  O  O214  1  0.08690709  0.47588017  0.25678869  1
  O  O215  1  0.59041703  0.48705512  0.25359626  1
  O  O216  1  0.15100424  0.47558076  0.75187875  1
  O  O217  1  0.65873130  0.48296878  0.76022056  1
  O  O218  1  0.08795418  0.70297188  0.75718789  1
  O  O219  1  0.58694576  0.69207245  0.75570534  1
  O  O220  1  0.26057636  0.82815054  0.75815558  1
  O  O221  1  0.76875486  0.83934975  0.75407278  1
