# generated using pymatgen
data_Na5Hf2Nb2Si5PO24
_symmetry_space_group_name_H-M   'P 1'
_cell_length_a   9.07097051
_cell_length_b   9.06076531
_cell_length_c   22.81356303
_cell_angle_alpha   90.10220778
_cell_angle_beta   90.07239013
_cell_angle_gamma   120.00149246
_symmetry_Int_Tables_number   1
_chemical_formula_structural   Na5Hf2Nb2Si5PO24
_chemical_formula_sum   'Na15 Hf6 Nb6 Si15 P3 O72'
_cell_volume   1623.80479282
_cell_formula_units_Z   3
loop_
 _symmetry_equiv_pos_site_id
 _symmetry_equiv_pos_as_xyz
  1  'x, y, z'
loop_
 _atom_site_type_symbol
 _atom_site_label
 _atom_site_symmetry_multiplicity
 _atom_site_fract_x
 _atom_site_fract_y
 _atom_site_fract_z
 _atom_site_occupancy
  Na  Na0  1  0.64091172  0.00413573  0.25007495  1
  Na  Na1  1  0.36497859  0.36163851  0.24892220  1
  Na  Na2  1  0.99489919  0.63334440  0.24890228  1
  Na  Na3  1  0.99709419  0.36284321  0.74948589  1
  Na  Na4  1  0.03409061  0.69977191  0.58027664  1
  Na  Na5  1  0.66272091  0.96384917  0.58054265  1
  Na  Na6  1  0.97117507  0.66767994  0.91935927  1
  Na  Na7  1  0.70051450  0.03469416  0.91705557  1
  Na  Na8  1  0.32903666  0.29920591  0.91989552  1
  Na  Na9  1  0.00537753  0.00558727  0.49377649  1
  Na  Na10  1  0.00460311  0.00253063  0.00581519  1
  Na  Na11  1  0.65933780  0.33028471  0.83100797  1
  Na  Na12  1  0.66763880  0.33341000  0.33527592  1
  Na  Na13  1  0.33085810  0.66126302  0.16201039  1
  Na  Na14  1  0.34145208  0.66428182  0.66445564  1
  Hf  Hf15  1  0.99660585  0.99666476  0.35503889  1
  Hf  Hf16  1  0.00377040  0.00202102  0.85019706  1
  Hf  Hf17  1  0.66781359  0.33678690  0.18378367  1
  Hf  Hf18  1  0.66579442  0.33339333  0.98411378  1
  Hf  Hf19  1  0.32553370  0.66199657  0.02340584  1
  Hf  Hf20  1  0.33344063  0.66365603  0.51968789  1
  Nb  Nb21  1  0.00280389  0.00287423  0.64594293  1
  Nb  Nb22  1  0.00456035  -0.00004534  0.14584303  1
  Nb  Nb23  1  0.66167192  0.33306089  0.68695851  1
  Nb  Nb24  1  0.66881521  0.33178718  0.47750567  1
  Nb  Nb25  1  0.33126331  0.66896791  0.31531445  1
  Nb  Nb26  1  0.33236039  0.67295096  0.80994692  1
  Si  Si27  1  0.29006716  0.00058568  0.25117186  1
  Si  Si28  1  0.71015716  0.71103128  0.24984912  1
  Si  Si29  1  -0.00002699  0.28846667  0.25055140  1
  Si  Si30  1  0.29470711  0.29208636  0.75059716  1
  Si  Si31  1  0.99725488  0.70856782  0.74978397  1
  Si  Si32  1  0.70768355  0.99791124  0.74933392  1
  Si  Si33  1  0.95525608  0.33299025  0.58405422  1
  Si  Si34  1  0.37749982  0.04780751  0.58214523  1
  Si  Si35  1  0.66471956  0.62031849  0.58282859  1
  Si  Si36  1  0.96052212  0.63008424  0.08376361  1
  Si  Si37  1  0.37066613  0.33278353  0.08364203  1
  Si  Si38  1  0.04233573  0.37574316  0.91579522  1
  Si  Si39  1  0.33357593  0.95823034  0.91731333  1
  Si  Si40  1  0.62646125  0.95928615  0.41868655  1
  Si  Si41  1  0.04049823  0.66781354  0.41883170  1
  P  P42  1  0.66959178  0.03970537  0.08372015  1
  P  P43  1  0.61967526  0.66685318  0.91604839  1
  P  P44  1  0.33549878  0.37695690  0.41665551  1
  O  O45  1  0.20533493  0.03965311  0.30634043  1
  O  O46  1  0.83416350  0.79557259  0.30570059  1
  O  O47  1  0.96335448  0.16683128  0.30631834  1
  O  O48  1  0.21073482  0.18051116  0.80957850  1
  O  O49  1  0.96965234  0.78982367  0.80917060  1
  O  O50  1  0.82550292  0.03509108  0.80770011  1
  O  O51  1  0.80243726  0.97287620  0.69165474  1
  O  O52  1  0.16324372  0.19474388  0.69499922  1
  O  O53  1  0.02593708  0.82910178  0.69219869  1
  O  O54  1  0.80015698  0.83925146  0.19334912  1
  O  O55  1  0.03634296  0.19830001  0.19352234  1
  O  O56  1  0.16219939  0.96193272  0.19378216  1
  O  O57  1  0.86497737  0.36069761  0.64243392  1
  O  O58  1  0.50261012  0.14067141  0.63923237  1
  O  O59  1  0.64436484  0.50146525  0.64033760  1
  O  O60  1  0.87214802  0.51489856  0.14193051  1
  O  O61  1  0.64480475  0.12486487  0.13882169  1
  O  O62  1  0.48350798  0.35263426  0.14204682  1
  O  O63  1  0.45644925  0.30218008  0.02399481  1
  O  O64  1  0.84628699  0.54154579  0.02402496  1
  O  O65  1  0.69383821  0.15130108  0.02782801  1
  O  O66  1  0.47235510  0.16996501  0.52589608  1
  O  O67  1  0.70157607  0.52924735  0.52700272  1
  O  O68  1  0.82692251  0.29788421  0.52780999  1
  O  O69  1  0.54063496  0.70070611  0.97030251  1
  O  O70  1  0.17044685  0.46512198  0.97059414  1
  O  O71  1  0.30222446  0.83373758  0.97185290  1
  O  O72  1  0.53612022  0.84625131  0.47681352  1
  O  O73  1  0.31243850  0.46592432  0.47046477  1
  O  O74  1  0.15256440  0.68664846  0.47692614  1
  O  O75  1  0.13681672  0.63966925  0.35997172  1
  O  O76  1  0.50329882  0.85995647  0.35992237  1
  O  O77  1  0.35876110  0.48891103  0.36021952  1
  O  O78  1  0.13664173  0.49722511  0.85724183  1
  O  O79  1  0.36258899  0.86066438  0.85949668  1
  O  O80  1  0.50424800  0.63758654  0.86119291  1
  O  O81  1  0.02478652  0.83625798  0.41209914  1
  O  O82  1  0.81416611  0.98356479  0.41209937  1
  O  O83  1  0.17711247  0.20046977  0.41056785  1
  O  O84  1  0.01715365  0.18349565  0.91085852  1
  O  O85  1  0.16280335  0.97541171  0.91101765  1
  O  O86  1  0.80036255  0.82530517  0.90900318  1
  O  O87  1  0.96330130  0.15544382  0.59047687  1
  O  O88  1  0.18567543  0.02209596  0.59089274  1
  O  O89  1  0.83957333  0.80892711  0.59089227  1
  O  O90  1  0.97210999  0.81687930  0.09041075  1
  O  O91  1  0.83269545  0.02700891  0.08921418  1
  O  O92  1  0.18129178  0.16085907  0.09059092  1
  O  O93  1  0.69523942  0.17123821  0.74160095  1
  O  O94  1  0.48184791  0.31268133  0.74229210  1
  O  O95  1  0.83726661  0.51400656  0.74276358  1
  O  O96  1  0.68467588  0.51930691  0.24362802  1
  O  O97  1  0.83466877  0.31358595  0.24337377  1
  O  O98  1  0.48228540  0.16109384  0.24308750  1
  O  O99  1  0.63728694  0.50449504  0.92089882  1
  O  O100  1  0.85423253  0.36068953  0.92027460  1
  O  O101  1  0.50551539  0.14724582  0.91959636  1
  O  O102  1  0.63444634  0.14562206  0.42255017  1
  O  O103  1  0.49977973  0.36534071  0.42216420  1
  O  O104  1  0.85240024  0.49256493  0.42335218  1
  O  O105  1  0.35701888  0.50390688  0.07859351  1
  O  O106  1  0.14956781  0.65284456  0.07887300  1
  O  O107  1  0.51128569  0.86304297  0.07660389  1
  O  O108  1  0.35825958  0.85883520  0.57899047  1
  O  O109  1  0.50413424  0.65144608  0.58018869  1
  O  O110  1  0.13924674  0.50457084  0.57929980  1
  O  O111  1  0.30453978  0.82464495  0.25716906  1
  O  O112  1  0.51840473  0.69075366  0.25743380  1
  O  O113  1  0.17399929  0.47902809  0.25717103  1
  O  O114  1  0.30287110  0.47731939  0.75632944  1
  O  O115  1  0.16747115  0.68554095  0.75576606  1
  O  O116  1  0.52020452  0.82713985  0.75650206  1
