# generated using pymatgen
data_I2O5
_symmetry_space_group_name_H-M   'P 1'
_cell_length_a   5.02925327
_cell_length_b   8.16854935
_cell_length_c   10.95612339
_cell_angle_alpha   107.31176104
_cell_angle_beta   90.00000000
_cell_angle_gamma   90.00000000
_symmetry_Int_Tables_number   1
_chemical_formula_structural   I2O5
_chemical_formula_sum   'I8 O20'
_cell_volume   429.70673645
_cell_formula_units_Z   4
loop_
 _symmetry_equiv_pos_site_id
 _symmetry_equiv_pos_as_xyz
  1  'x, y, z'
loop_
 _atom_site_type_symbol
 _atom_site_label
 _atom_site_symmetry_multiplicity
 _atom_site_fract_x
 _atom_site_fract_y
 _atom_site_fract_z
 _atom_site_occupancy
  I  I0  1  0.82624394  0.65731643  0.37388327  1
  I  I1  1  0.32624394  0.84268357  0.62611673  1
  I  I2  1  0.17375606  0.34268357  0.62611673  1
  I  I3  1  0.67375606  0.15731643  0.37388327  1
  I  I4  1  0.37687487  0.71582758  0.12595087  1
  I  I5  1  0.87687487  0.78417242  0.87404913  1
  I  I6  1  0.62312513  0.28417242  0.87404913  1
  I  I7  1  0.12312513  0.21582758  0.12595087  1
  O  O8  1  0.53324475  0.62291732  0.24980375  1
  O  O9  1  0.03324475  0.87708268  0.75019625  1
  O  O10  1  0.46675525  0.37708268  0.75019625  1
  O  O11  1  0.96675525  0.12291732  0.24980375  1
  O  O12  1  0.01106000  0.79768543  0.30957244  1
  O  O13  1  0.51106000  0.70231457  0.69042756  1
  O  O14  1  0.98894000  0.20231357  0.69042756  1
  O  O15  1  0.48894000  0.29768643  0.30957244  1
  O  O16  1  0.84718534  0.15509260  0.01366035  1
  O  O17  1  0.34718534  0.34490740  0.98633965  1
  O  O18  1  0.15281466  0.84490740  0.98633965  1
  O  O19  1  0.65281466  0.65509260  0.01366035  1
  O  O20  1  0.03809453  0.43601244  0.19551873  1
  O  O21  1  0.53809453  0.06398756  0.80448127  1
  O  O22  1  0.96190547  0.56398756  0.80448127  1
  O  O23  1  0.46190547  0.93601244  0.19551873  1
  O  O24  1  0.85095344  0.33545666  0.49100841  1
  O  O25  1  0.35095344  0.16454334  0.50899159  1
  O  O26  1  0.14904656  0.66454334  0.50899159  1
  O  O27  1  0.64904656  0.83545666  0.49100841  1
