# generated using pymatgen
data_Na3ZrSi2SnPO12
_symmetry_space_group_name_H-M   'P 1'
_cell_length_a   15.80930235
_cell_length_b   9.12113413
_cell_length_c   9.16076048
_cell_angle_alpha   89.95736308
_cell_angle_beta   124.88498988
_cell_angle_gamma   90.08180430
_symmetry_Int_Tables_number   1
_chemical_formula_structural   Na3ZrSi2SnPO12
_chemical_formula_sum   'Na12 Zr4 Si8 Sn4 P4 O48'
_cell_volume   1083.59317743
_cell_formula_units_Z   4
loop_
 _symmetry_equiv_pos_site_id
 _symmetry_equiv_pos_as_xyz
  1  'x, y, z'
loop_
 _atom_site_type_symbol
 _atom_site_label
 _atom_site_symmetry_multiplicity
 _atom_site_fract_x
 _atom_site_fract_y
 _atom_site_fract_z
 _atom_site_occupancy
  Na  Na0  1  0.24654015  0.76401752  0.99679400  1
  Na  Na1  1  0.74431132  0.73819974  0.49454834  1
  Na  Na2  1  0.74393113  0.26205415  0.99418742  1
  Na  Na3  1  0.24616997  0.23550524  0.49711764  1
  Na  Na4  1  0.50082577  0.08424462  0.74896401  1
  Na  Na5  1  0.50258442  0.91281934  0.25159547  1
  Na  Na6  1  0.00117139  0.58346382  0.74967046  1
  Na  Na7  1  0.00313724  0.41922917  0.25223523  1
  Na  Na8  1  0.81363888  0.92357712  0.20293968  1
  Na  Na9  1  0.81494349  0.07642286  0.70377154  1
  Na  Na10  1  0.31633666  0.42134628  0.20632902  1
  Na  Na11  1  0.31508507  0.57628934  0.70501882  1
  Zr  Zr12  1  0.89499221  0.74534104  0.93445598  1
  Zr  Zr13  1  0.89405232  0.25529831  0.43345860  1
  Zr  Zr14  1  0.10460164  0.24987758  0.06087153  1
  Zr  Zr15  1  0.39465936  0.24382603  0.93530614  1
  Si  Si16  1  0.35211144  0.89260355  0.74996694  1
  Si  Si17  1  0.64641255  0.89705810  0.74393557  1
  Si  Si18  1  0.64816003  0.10125668  0.24607139  1
  Si  Si19  1  0.35485418  0.10147932  0.25919827  1
  Si  Si20  1  0.84936131  0.39557888  0.75136617  1
  Si  Si21  1  0.14873216  0.39990082  0.74370927  1
  Si  Si22  1  0.15152965  0.60658673  0.25097178  1
  Si  Si23  1  0.85111454  0.60618081  0.25332583  1
  Sn  Sn24  1  0.10362675  0.75059932  0.56052261  1
  Sn  Sn25  1  0.60371057  0.24986281  0.55954929  1
  Sn  Sn26  1  0.39695147  0.75315180  0.43618145  1
  Sn  Sn27  1  0.60268332  0.74978411  0.05868589  1
  P  P28  1  0.00241924  0.95632406  0.74572864  1
  P  P29  1  0.00349963  0.04033392  0.25283575  1
  P  P30  1  0.50294097  0.46057799  0.74751275  1
  P  P31  1  0.50332044  0.54240573  0.25250032  1
  O  O32  1  0.14968539  0.58126044  0.74393284  1
  O  O33  1  0.84948623  0.57450346  0.75123211  1
  O  O34  1  0.85021096  0.42697590  0.25239891  1
  O  O35  1  0.15238679  0.42550461  0.24090706  1
  O  O36  1  0.64859493  0.07911571  0.74162036  1
  O  O37  1  0.35109612  0.07233794  0.75605780  1
  O  O38  1  0.35374576  0.92193164  0.25519209  1
  O  O39  1  0.64919659  0.91953381  0.24198973  1
  O  O40  1  0.43305082  0.55333582  0.57685112  1
  O  O41  1  0.56580377  0.55694847  0.91501381  1
  O  O42  1  0.56642399  0.44698625  0.42071443  1
  O  O43  1  0.43635691  0.44711104  0.08470457  1
  O  O44  1  0.93699396  0.05075850  0.57731369  1
  O  O45  1  0.06234140  0.05584807  0.91065304  1
  O  O46  1  0.06609962  0.94476863  0.42111922  1
  O  O47  1  0.93881885  0.94522081  0.08435155  1
  O  O48  1  0.25506011  0.81625701  0.73917715  1
  O  O49  1  0.74810207  0.83961866  0.75608639  1
  O  O50  1  0.74811292  0.15984891  0.25393055  1
  O  O51  1  0.25728226  0.17810596  0.24357842  1
  O  O52  1  0.75344364  0.31702535  0.74123824  1
  O  O53  1  0.24904196  0.34124236  0.75312952  1
  O  O54  1  0.25225288  0.66512758  0.25890113  1
  O  O55  1  0.75362872  0.68275923  0.23999259  1
  O  O56  1  0.35711761  0.85505277  0.58153681  1
  O  O57  1  0.64817179  0.86623412  0.92333862  1
  O  O58  1  0.65088293  0.13327879  0.42627186  1
  O  O59  1  0.35886652  0.14913893  0.09014671  1
  O  O60  1  0.85424734  0.34662712  0.58408955  1
  O  O61  1  0.14998730  0.36113507  0.92125326  1
  O  O62  1  0.15128460  0.63386480  0.42867854  1
  O  O63  1  0.85681986  0.65276867  0.08654261  1
  O  O64  1  0.45457135  0.82324285  0.93300333  1
  O  O65  1  0.54308560  0.83139229  0.56387619  1
  O  O66  1  0.54270694  0.16606840  0.07041796  1
  O  O67  1  0.45734558  0.17286320  0.43877890  1
  O  O68  1  0.95499935  0.33083097  0.93050113  1
  O  O69  1  0.04222523  0.33699577  0.56764868  1
  O  O70  1  0.04505416  0.66873060  0.07343876  1
  O  O71  1  0.95484775  0.67374395  0.43524681  1
  O  O72  1  0.07996653  0.85481817  0.74381683  1
  O  O73  1  0.92394229  0.86112553  0.75457613  1
  O  O74  1  0.92365771  0.13471704  0.25813756  1
  O  O75  1  0.07844822  0.14376765  0.24686883  1
  O  O76  1  0.57889871  0.35962720  0.74083910  1
  O  O77  1  0.42560868  0.36390448  0.75820305  1
  O  O78  1  0.42341416  0.63777574  0.25937840  1
  O  O79  1  0.57822392  0.64497296  0.24399824  1
