# generated using pymatgen
data_Na7Y2Hf2Si3(PO8)3
_symmetry_space_group_name_H-M   'P 1'
_cell_length_a   9.30380930
_cell_length_b   9.30077380
_cell_length_c   22.80962897
_cell_angle_alpha   90.08542346
_cell_angle_beta   90.05878387
_cell_angle_gamma   120.02443240
_symmetry_Int_Tables_number   1
_chemical_formula_structural   Na7Y2Hf2Si3(PO8)3
_chemical_formula_sum   'Na21 Y6 Hf6 Si9 P9 O72'
_cell_volume   1708.91462966
_cell_formula_units_Z   3
loop_
 _symmetry_equiv_pos_site_id
 _symmetry_equiv_pos_as_xyz
  1  'x, y, z'
loop_
 _atom_site_type_symbol
 _atom_site_label
 _atom_site_symmetry_multiplicity
 _atom_site_fract_x
 _atom_site_fract_y
 _atom_site_fract_z
 _atom_site_occupancy
  Na  Na0  1  0.63234344  0.00530994  0.25644418  1
  Na  Na1  1  0.36662231  0.37295502  0.24557991  1
  Na  Na2  1  0.00043115  0.61796955  0.25060354  1
  Na  Na3  1  0.63456305  0.63684757  0.74783525  1
  Na  Na4  1  0.98912046  0.36251125  0.74546766  1
  Na  Na5  1  0.37633877  0.00097082  0.74259608  1
  Na  Na6  1  0.03267871  0.69008391  0.58198940  1
  Na  Na7  1  0.66088898  0.97570465  0.58118487  1
  Na  Na8  1  0.66867486  0.68378262  0.08148242  1
  Na  Na9  1  0.02755995  0.34161651  0.08863592  1
  Na  Na10  1  0.95708547  0.66264244  0.92403182  1
  Na  Na11  1  0.70093236  0.02966120  0.91710676  1
  Na  Na12  1  0.34273754  0.30637474  0.92151041  1
  Na  Na13  1  0.96802013  0.31038275  0.41605536  1
  Na  Na14  1  0.33644019  0.02371669  0.42038378  1
  Na  Na15  1  0.00106100  0.99854702  0.50040177  1
  Na  Na16  1  0.01526646  0.99273031  0.00341370  1
  Na  Na17  1  0.66676950  0.33369762  0.83315373  1
  Na  Na18  1  0.67981069  0.34791530  0.33708466  1
  Na  Na19  1  0.31969017  0.66668878  0.16437290  1
  Na  Na20  1  0.33358093  0.65790547  0.66202731  1
  Y  Y21  1  0.99557548  0.99928729  0.85174208  1
  Y  Y22  1  0.66619213  0.33083756  0.67760239  1
  Y  Y23  1  0.66825404  0.33340161  0.18243954  1
  Y  Y24  1  0.66214159  0.33392564  0.98811811  1
  Y  Y25  1  0.33029232  0.66351604  0.31922292  1
  Y  Y26  1  0.33798510  0.66780771  0.81374364  1
  Hf  Hf27  1  0.99224158  0.99750253  0.35594830  1
  Hf  Hf28  1  0.00168496  0.00548427  0.64510382  1
  Hf  Hf29  1  0.00740948  0.00504339  0.14766947  1
  Hf  Hf30  1  0.66555248  0.33167203  0.48437928  1
  Hf  Hf31  1  0.33597568  0.66923453  0.01904742  1
  Hf  Hf32  1  0.33408952  0.66746595  0.51488457  1
  Si  Si33  1  0.99889452  0.29239778  0.25156208  1
  Si  Si34  1  0.70235775  0.00213006  0.74835107  1
  Si  Si35  1  0.97218953  0.33544680  0.58302470  1
  Si  Si36  1  0.36152963  0.02626742  0.58220172  1
  Si  Si37  1  0.97621287  0.64238977  0.08404724  1
  Si  Si38  1  0.35786457  0.33494093  0.08330027  1
  Si  Si39  1  0.63266872  0.66323258  0.91659262  1
  Si  Si40  1  0.63406557  0.97115596  0.41631914  1
  Si  Si41  1  0.02895046  0.66502596  0.41630979  1
  P  P42  1  0.28767331  0.00172567  0.25316965  1
  P  P43  1  0.71290929  0.71298301  0.24984168  1
  P  P44  1  0.29233282  0.29192831  0.74946885  1
  P  P45  1  0.99741011  0.70557433  0.74778885  1
  P  P46  1  0.66515975  0.63475691  0.58456715  1
  P  P47  1  0.66773471  0.02526541  0.08481982  1
  P  P48  1  0.03821099  0.37236098  0.91729839  1
  P  P49  1  0.33692194  0.96306900  0.91556527  1
  P  P50  1  0.33600937  0.36654291  0.41465948  1
  O  O51  1  0.19889813  0.01144039  0.30940285  1
  O  O52  1  0.82278343  0.81039977  0.30360488  1
  O  O53  1  0.99264152  0.18279942  0.30957417  1
  O  O54  1  0.22296557  0.20153667  0.80746729  1
  O  O55  1  0.98865571  0.78904674  0.80474027  1
  O  O56  1  0.80289796  0.02090864  0.80933195  1
  O  O57  1  0.81055760  0.98978103  0.69248999  1
  O  O58  1  0.18032660  0.18365133  0.69760336  1
  O  O59  1  0.00901544  0.81372536  0.69386257  1
  O  O60  1  0.80173613  0.81189333  0.19350971  1
  O  O61  1  0.00440937  0.18945412  0.19353236  1
  O  O62  1  0.17755103  0.98887715  0.19937776  1
  O  O63  1  0.90581250  0.37913842  0.64293301  1
  O  O64  1  0.47064959  0.09887044  0.64193875  1
  O  O65  1  0.63785229  0.54633305  0.64395838  1
  O  O66  1  0.89597103  0.51902996  0.14068207  1
  O  O67  1  0.64097834  0.10324494  0.13984346  1
  O  O68  1  0.47727139  0.37151012  0.14049032  1
  O  O69  1  0.43470251  0.30524459  0.02383897  1
  O  O70  1  0.85874795  0.56167542  0.02632133  1
  O  O71  1  0.70183812  0.13453606  0.03051413  1
  O  O72  1  0.46184073  0.14888115  0.52687226  1
  O  O73  1  0.68946196  0.53159593  0.53590007  1
  O  O74  1  0.83842436  0.30674561  0.53007006  1
  O  O75  1  0.52370484  0.67387022  0.97252705  1
  O  O76  1  0.14769138  0.47684647  0.97079995  1
  O  O77  1  0.32362983  0.84553435  0.96720080  1
  O  O78  1  0.53509732  0.84995676  0.47180985  1
  O  O79  1  0.30991239  0.46649437  0.46423209  1
  O  O80  1  0.16039168  0.69146433  0.46981251  1
  O  O81  1  0.09640487  0.62084595  0.35662842  1
  O  O82  1  0.52661656  0.89831605  0.35631170  1
  O  O83  1  0.36238816  0.45679044  0.35620217  1
  O  O84  1  0.11240157  0.46894591  0.86025929  1
  O  O85  1  0.34610171  0.88468537  0.85715034  1
  O  O86  1  0.53161863  0.64696506  0.85590335  1
  O  O87  1  0.02828590  0.84144648  0.41223212  1
  O  O88  1  0.82416271  0.99968546  0.41311591  1
  O  O89  1  0.17491860  0.19131524  0.41314558  1
  O  O90  1  0.03818809  0.20513270  0.91905039  1
  O  O91  1  0.18040730  0.98138137  0.91882810  1
  O  O92  1  0.81581693  0.83277878  0.92034702  1
  O  O93  1  0.97488557  0.15974023  0.58732709  1
  O  O94  1  0.17160818  0.99508979  0.58716560  1
  O  O95  1  0.82804047  0.80780912  0.58649291  1
  O  O96  1  0.98451214  0.82153855  0.09255106  1
  O  O97  1  0.82138507  0.00093496  0.09164484  1
  O  O98  1  0.16729718  0.17717884  0.09061017  1
  O  O99  1  0.68371591  0.16884097  0.74624334  1
  O  O100  1  0.47137552  0.32210483  0.74378696  1
  O  O101  1  0.83668437  0.53294591  0.74597279  1
  O  O102  1  0.69625175  0.53925097  0.25009840  1
  O  O103  1  0.82989327  0.30628033  0.25303150  1
  O  O104  1  0.45885740  0.15952795  0.24991488  1
  O  O105  1  0.65170119  0.49745070  0.91819660  1
  O  O106  1  0.86045334  0.34124296  0.92235265  1
  O  O107  1  0.49631895  0.13191207  0.92017943  1
  O  O108  1  0.65287856  0.15714397  0.42477642  1
  O  O109  1  0.48470542  0.33930604  0.42630623  1
  O  O110  1  0.84594631  0.50230166  0.42860746  1
  O  O111  1  0.33839950  0.50224805  0.07734795  1
  O  O112  1  0.15984528  0.66068901  0.07544799  1
  O  O113  1  0.51397239  0.84736092  0.07672827  1
  O  O114  1  0.34626087  0.84167825  0.57394349  1
  O  O115  1  0.51821958  0.66361442  0.57265499  1
  O  O116  1  0.15495780  0.49685348  0.57053164  1
  O  O117  1  0.30411274  0.84337910  0.25189209  1
  O  O118  1  0.54066295  0.69943925  0.25216462  1
  O  O119  1  0.16842534  0.47553969  0.24898747  1
  O  O120  1  0.29350115  0.45993688  0.74659468  1
  O  O121  1  0.15344572  0.68556569  0.74635447  1
  O  O122  1  0.51948498  0.83190098  0.74519362  1
