# generated using pymatgen
data_Sr4Mg(Co2O5)2
_symmetry_space_group_name_H-M   'P 1'
_cell_length_a   5.45144503
_cell_length_b   5.53596163
_cell_length_c   9.57562191
_cell_angle_alpha   108.00055758
_cell_angle_beta   109.27562362
_cell_angle_gamma   89.13359071
_symmetry_Int_Tables_number   1
_chemical_formula_structural   Sr4Mg(Co2O5)2
_chemical_formula_sum   'Sr4 Mg1 Co4 O10'
_cell_volume   258.21283119
_cell_formula_units_Z   1
loop_
 _symmetry_equiv_pos_site_id
 _symmetry_equiv_pos_as_xyz
  1  'x, y, z'
loop_
 _atom_site_type_symbol
 _atom_site_label
 _atom_site_symmetry_multiplicity
 _atom_site_fract_x
 _atom_site_fract_y
 _atom_site_fract_z
 _atom_site_occupancy
  Sr  Sr0  1  0.59015200  0.12420400  0.21482600  1
  Sr  Sr1  1  0.84590900  0.38165200  0.79455600  1
  Sr  Sr2  1  0.08826700  0.59438400  0.20650100  1
  Sr  Sr3  1  0.33850000  0.87735200  0.79893900  1
  Mg  Mg4  1  0.52518200  0.58551600  0.52930400  1
  Co  Co5  1  0.84141100  0.88370200  0.50271100  1
  Co  Co6  1  0.96524400  0.98915000  0.00077900  1
  Co  Co7  1  0.28922500  0.14209600  0.47742700  1
  Co  Co8  1  0.46759000  0.49393800  0.00241000  1
  O  O9  1  0.59141400  0.61178400  0.33796300  1
  O  O10  1  0.35152100  0.41814300  0.65306100  1
  O  O11  1  0.66421800  0.20189200  0.49680700  1
  O  O12  1  0.81693600  0.83395400  0.70672500  1
  O  O13  1  0.70530100  0.24977200  0.99618700  1
  O  O14  1  0.22376900  0.25129600  0.99617500  1
  O  O15  1  0.11490400  0.12763300  0.27309200  1
  O  O16  1  0.70806200  0.73301200  0.00557900  1
  O  O17  1  0.20872300  0.82832800  0.50501900  1
  O  O18  1  0.22517400  0.73171500  0.00194300  1
