# generated using pymatgen
data_Na3YIn(PO4)3
_symmetry_space_group_name_H-M   'P 1'
_cell_length_a   9.26195346
_cell_length_b   9.27200832
_cell_length_c   22.66114839
_cell_angle_alpha   89.92532833
_cell_angle_beta   90.12428400
_cell_angle_gamma   120.12267128
_symmetry_Int_Tables_number   1
_chemical_formula_structural   Na3YIn(PO4)3
_chemical_formula_sum   'Na18 Y6 In6 P18 O72'
_cell_volume   1683.25437137
_cell_formula_units_Z   6
loop_
 _symmetry_equiv_pos_site_id
 _symmetry_equiv_pos_as_xyz
  1  'x, y, z'
loop_
 _atom_site_type_symbol
 _atom_site_label
 _atom_site_symmetry_multiplicity
 _atom_site_fract_x
 _atom_site_fract_y
 _atom_site_fract_z
 _atom_site_occupancy
  Na  Na0  1  0.99828231  0.99798441  0.49859680  1
  Na  Na1  1  0.00327642  0.00276369  0.99572129  1
  Na  Na2  1  0.62127817  0.31171882  0.83620292  1
  Na  Na3  1  0.68830135  0.37726778  0.33363865  1
  Na  Na4  1  0.33819846  0.66696804  0.16181270  1
  Na  Na5  1  0.33377605  0.66563178  0.66671155  1
  Na  Na6  1  0.63936474  0.00433891  0.25220357  1
  Na  Na7  1  0.35737169  0.35647962  0.25131463  1
  Na  Na8  1  0.64466391  0.64620169  0.75337763  1
  Na  Na9  1  0.99773597  0.36425756  0.75532326  1
  Na  Na10  1  0.02385998  0.68426660  0.57980742  1
  Na  Na11  1  0.66750907  0.97400191  0.57907362  1
  Na  Na12  1  0.31350215  0.97630582  0.07643123  1
  Na  Na13  1  0.02857758  0.33207695  0.07618852  1
  Na  Na14  1  0.97009121  0.66436980  0.91572971  1
  Na  Na15  1  0.69455988  0.02949828  0.91563468  1
  Na  Na16  1  0.97041113  0.30275235  0.41714114  1
  Na  Na17  1  0.33374219  0.02494065  0.41652698  1
  Y  Y18  1  0.01403397  0.00752182  0.65108430  1
  Y  Y19  1  0.99251692  0.98569803  0.14612948  1
  Y  Y20  1  0.65550209  0.32816057  0.68444813  1
  Y  Y21  1  0.67322328  0.34553231  0.18197106  1
  Y  Y22  1  0.65757851  0.33705284  0.48387041  1
  Y  Y23  1  0.32637081  0.66440217  0.31547420  1
  In  In24  1  0.99186389  0.98688118  0.35030411  1
  In  In25  1  0.01210029  0.00764230  0.85036300  1
  In  In26  1  0.66444280  0.34125073  0.98234036  1
  In  In27  1  0.34013215  0.66247408  0.01317630  1
  In  In28  1  0.33712585  0.65883489  0.51571000  1
  In  In29  1  0.33665432  0.67141881  0.81908614  1
  P  P30  1  0.30368064  0.00449272  0.25075866  1
  P  P31  1  0.69730215  0.69712357  0.25306034  1
  P  P32  1  0.99505400  0.29118656  0.25006642  1
  P  P33  1  0.30274816  0.31000466  0.75657923  1
  P  P34  1  0.00243543  0.69708459  0.75387750  1
  P  P35  1  0.70125683  0.99920551  0.75332596  1
  P  P36  1  0.97158966  0.33759363  0.58278114  1
  P  P37  1  0.36052794  0.01816441  0.57705347  1
  P  P38  1  0.66289606  0.64044555  0.58853716  1
  P  P39  1  0.97764558  0.63494709  0.07371796  1
  P  P40  1  0.66266399  0.03385371  0.07915638  1
  P  P41  1  0.36548572  0.33700165  0.08335957  1
  P  P42  1  0.63931467  0.67052466  0.91241962  1
  P  P43  1  0.02764018  0.36178291  0.91729216  1
  P  P44  1  0.33455253  0.96575865  0.92028780  1
  P  P45  1  0.64048695  0.96877302  0.41798595  1
  P  P46  1  0.32295623  0.35704684  0.41164387  1
  P  P47  1  0.03428982  0.67194512  0.42231047  1
  O  O48  1  0.21489243  0.01338309  0.30779294  1
  O  O49  1  0.78987431  0.77823375  0.31100714  1
  O  O50  1  0.97745173  0.18987751  0.30731200  1
  O  O51  1  0.22362721  0.21275301  0.81375058  1
  O  O52  1  0.98350378  0.78273312  0.80989625  1
  O  O53  1  0.80529114  0.02104963  0.81029161  1
  O  O54  1  0.79155051  0.98268990  0.69842866  1
  O  O55  1  0.19646381  0.21835439  0.70223341  1
  O  O56  1  0.01690100  0.79765903  0.69764891  1
  O  O57  1  0.79325338  0.79861824  0.19871726  1
  O  O58  1  0.00343064  0.19856375  0.19463543  1
  O  O59  1  0.20467977  0.99447808  0.19465746  1
  O  O60  1  0.88366519  0.35754768  0.63815248  1
  O  O61  1  0.47719817  0.12605124  0.62742364  1
  O  O62  1  0.65259320  0.55374331  0.64794143  1
  O  O63  1  0.87372245  0.52236803  0.12515619  1
  O  O64  1  0.64276121  0.11946154  0.13500606  1
  O  O65  1  0.45234748  0.34943219  0.14293223  1
  O  O66  1  0.46019082  0.31401238  0.03164199  1
  O  O67  1  0.88717376  0.56021713  0.01445231  1
  O  O68  1  0.68321940  0.13960392  0.02290861  1
  O  O69  1  0.43271242  0.10463494  0.51740367  1
  O  O70  1  0.68021617  0.54046836  0.53753011  1
  O  O71  1  0.86762228  0.32083797  0.52665155  1
  O  O72  1  0.54798468  0.69820753  0.96430626  1
  O  O73  1  0.12593428  0.44528686  0.97461250  1
  O  O74  1  0.31234680  0.86712604  0.97854061  1
  O  O75  1  0.55375553  0.87185078  0.47546823  1
  O  O76  1  0.30249316  0.45381871  0.46365275  1
  O  O77  1  0.12934110  0.68626137  0.48095616  1
  O  O78  1  0.13022331  0.65414124  0.36997556  1
  O  O79  1  0.53666934  0.87833029  0.36277298  1
  O  O80  1  0.33388509  0.44377773  0.35249172  1
  O  O81  1  0.11677397  0.46905808  0.86210822  1
  O  O82  1  0.36774333  0.87830285  0.86806923  1
  O  O83  1  0.54784018  0.65425554  0.85334017  1
  O  O84  1  0.02845192  0.83591365  0.41800343  1
  O  O85  1  0.82007160  0.99602727  0.41678479  1
  O  O86  1  0.16323985  0.17995967  0.41401723  1
  O  O87  1  0.00099385  0.18236521  0.91516515  1
  O  O88  1  0.16983848  0.96984705  0.91431143  1
  O  O89  1  0.81838686  0.82842893  0.91292073  1
  O  O90  1  0.98049267  0.17546652  0.58590801  1
  O  O91  1  0.18049147  0.98678746  0.58286078  1
  O  O92  1  0.82177239  0.81730894  0.58624424  1
  O  O93  1  0.01130328  0.81598753  0.07810483  1
  O  O94  1  0.82358694  0.02208108  0.08173379  1
  O  O95  1  0.18727178  0.17885093  0.08194709  1
  O  O96  1  0.68584756  0.15782309  0.74947977  1
  O  O97  1  0.48243772  0.33951167  0.75263411  1
  O  O98  1  0.84240754  0.52102459  0.75131728  1
  O  O99  1  0.66664077  0.51721796  0.25124481  1
  O  O100  1  0.83672599  0.30805345  0.24838328  1
  O  O101  1  0.47798865  0.16680560  0.25008396  1
  O  O102  1  0.65891678  0.51421904  0.91798306  1
  O  O103  1  0.85031208  0.34549567  0.91755275  1
  O  O104  1  0.49133633  0.14250974  0.92172583  1
  O  O105  1  0.65713998  0.14539593  0.41851007  1
  O  O106  1  0.47696415  0.33418720  0.41680420  1
  O  O107  1  0.85916434  0.51420609  0.42114869  1
  O  O108  1  0.34350370  0.49189369  0.07837191  1
  O  O109  1  0.14965749  0.64180667  0.07746382  1
  O  O110  1  0.50161012  0.86055679  0.07697242  1
  O  O111  1  0.35359403  0.84650917  0.58100834  1
  O  O112  1  0.50832188  0.66225476  0.58262858  1
  O  O113  1  0.14530943  0.49779318  0.58067269  1
  O  O114  1  0.33467407  0.85488718  0.25097769  1
  O  O115  1  0.52364920  0.68611899  0.25056753  1
  O  O116  1  0.15701767  0.46317522  0.25014492  1
  O  O117  1  0.31259066  0.48363698  0.75566459  1
  O  O118  1  0.15613224  0.67203152  0.75640457  1
  O  O119  1  0.52894984  0.83634308  0.75477990  1
