# generated using pymatgen
data_MgSbN(OF3)2
_symmetry_space_group_name_H-M   'P 1'
_cell_length_a   5.23594965
_cell_length_b   5.23594965
_cell_length_c   6.82342600
_cell_angle_alpha   90.00000000
_cell_angle_beta   90.00000000
_cell_angle_gamma   101.39715367
_symmetry_Int_Tables_number   1
_chemical_formula_structural   MgSbN(OF3)2
_chemical_formula_sum   'Mg1 Sb1 N1 O2 F6'
_cell_volume   183.37663170
_cell_formula_units_Z   1
loop_
 _symmetry_equiv_pos_site_id
 _symmetry_equiv_pos_as_xyz
  1  'x, y, z'
loop_
 _atom_site_type_symbol
 _atom_site_label
 _atom_site_symmetry_multiplicity
 _atom_site_fract_x
 _atom_site_fract_y
 _atom_site_fract_z
 _atom_site_occupancy
  Mg  Mg0  1  0.00000000  0.00000000  0.00034400  1
  Sb  Sb1  1  0.50000000  0.50000000  0.97159500  1
  N  N2  1  0.00000000  0.00000000  0.53575100  1
  O  O3  1  0.13885400  0.86114600  0.48902600  1
  O  O4  1  0.86114600  0.13885400  0.48902600  1
  F  F5  1  0.20514700  0.20514700  0.78036400  1
  F  F6  1  0.79485300  0.79485300  0.78036400  1
  F  F7  1  0.26410000  0.26410000  0.17152700  1
  F  F8  1  0.73590000  0.73590000  0.17152700  1
  F  F9  1  0.75722900  0.24277100  0.02547500  1
  F  F10  1  0.24277100  0.75722900  0.02547500  1
