# generated using pymatgen
data_MgZn2(FeO2)4
_symmetry_space_group_name_H-M   'P 1'
_cell_length_a   6.71510653
_cell_length_b   6.71510688
_cell_length_c   5.96733000
_cell_angle_alpha   63.62006676
_cell_angle_beta   63.62006524
_cell_angle_gamma   52.30787766
_symmetry_Int_Tables_number   1
_chemical_formula_structural   MgZn2(FeO2)4
_chemical_formula_sum   'Mg1 Zn2 Fe4 O8'
_cell_volume   185.01057810
_cell_formula_units_Z   1
loop_
 _symmetry_equiv_pos_site_id
 _symmetry_equiv_pos_as_xyz
  1  'x, y, z'
loop_
 _atom_site_type_symbol
 _atom_site_label
 _atom_site_symmetry_multiplicity
 _atom_site_fract_x
 _atom_site_fract_y
 _atom_site_fract_z
 _atom_site_occupancy
  Mg  Mg0  1  0.74788300  0.74788300  0.75211700  1
  Zn  Zn1  1  0.18411100  0.67442400  0.57073200  1
  Zn  Zn2  1  0.67442400  0.18411100  0.57073200  1
  Fe  Fe3  1  0.99609400  0.99609300  0.00390700  1
  Fe  Fe4  1  0.25388400  0.25388500  0.24611500  1
  Fe  Fe5  1  0.57735000  0.57735000  0.18493200  1
  Fe  Fe6  1  0.57735000  0.57735000  0.66036900  1
  O  O7  1  0.37273800  0.37273800  0.38247500  1
  O  O8  1  0.37273800  0.37273800  0.87204800  1
  O  O9  1  0.38639600  0.87122500  0.37118900  1
  O  O10  1  0.87122400  0.38639900  0.37118800  1
  O  O11  1  0.37125700  0.83792900  0.89540800  1
  O  O12  1  0.83793200  0.37125600  0.89540700  1
  O  O13  1  0.88830900  0.88830900  0.38259000  1
  O  O14  1  0.88830900  0.88830900  0.84079100  1
