# generated using pymatgen
data_Na10Sc6Ta2Si7S5O48
_symmetry_space_group_name_H-M   'P 1'
_cell_length_a   18.13418489
_cell_length_b   9.06000262
_cell_length_c   22.82454663
_cell_angle_alpha   90.01872152
_cell_angle_beta   90.03084305
_cell_angle_gamma   119.98100362
_symmetry_Int_Tables_number   1
_chemical_formula_structural   Na10Sc6Ta2Si7S5O48
_chemical_formula_sum   'Na30 Sc18 Ta6 Si21 S15 O144'
_cell_volume   3248.19497077
_cell_formula_units_Z   3
loop_
 _symmetry_equiv_pos_site_id
 _symmetry_equiv_pos_as_xyz
  1  'x, y, z'
loop_
 _atom_site_type_symbol
 _atom_site_label
 _atom_site_symmetry_multiplicity
 _atom_site_fract_x
 _atom_site_fract_y
 _atom_site_fract_z
 _atom_site_occupancy
  Na  Na0  1  0.31658135  0.00108114  0.24547688  1
  Na  Na1  1  0.81551543  0.01311286  0.24609743  1
  Na  Na2  1  0.18716636  0.36661032  0.24678221  1
  Na  Na3  1  0.31828980  0.62082414  0.74724209  1
  Na  Na4  1  0.81579950  0.63119544  0.74561009  1
  Na  Na5  1  0.68647964  0.00693938  0.74725757  1
  Na  Na6  1  0.16423347  0.34034373  0.58484996  1
  Na  Na7  1  0.65817716  0.33743055  0.57844671  1
  Na  Na8  1  0.01639882  0.69880179  0.57322811  1
  Na  Na9  1  0.16029195  0.98307719  0.08123669  1
  Na  Na10  1  0.66337774  0.98651274  0.08477975  1
  Na  Na11  1  0.51553751  0.33258246  0.07252765  1
  Na  Na12  1  0.85074717  0.02247522  0.92058833  1
  Na  Na13  1  0.66445256  0.31140658  0.91925007  1
  Na  Na14  1  0.48425642  0.28941924  0.42053622  1
  Na  Na15  1  0.16675660  0.02041976  0.42042704  1
  Na  Na16  1  0.66649208  0.05207948  0.41576787  1
  Na  Na17  1  0.84972763  0.65517051  0.41657744  1
  Na  Na18  1  0.99707664  0.99121942  0.49787559  1
  Na  Na19  1  0.48618510  0.98050431  0.49489041  1
  Na  Na20  1  0.99531926  0.99240295  0.99593692  1
  Na  Na21  1  0.48814584  0.00181379  0.99470685  1
  Na  Na22  1  0.33728285  0.33207836  0.83239019  1
  Na  Na23  1  0.84007545  0.34255560  0.83181737  1
  Na  Na24  1  0.33504789  0.34987476  0.33188981  1
  Na  Na25  1  0.83759795  0.34306664  0.33028715  1
  Na  Na26  1  0.16709890  0.65288974  0.16175086  1
  Na  Na27  1  0.67625207  0.67104765  0.16290193  1
  Na  Na28  1  0.17752028  0.68595952  0.66229973  1
  Na  Na29  1  0.66700539  0.68270394  0.66103623  1
  Sc  Sc30  1  0.00399542  0.00511492  0.34982233  1
  Sc  Sc31  1  0.49992103  0.99195843  0.35192825  1
  Sc  Sc32  1  0.00261864  0.00835128  0.85121096  1
  Sc  Sc33  1  0.49942241  0.00349457  0.85088723  1
  Sc  Sc34  1  0.32661201  0.33256728  0.68645278  1
  Sc  Sc35  1  0.82459097  0.31836072  0.68422011  1
  Sc  Sc36  1  0.32483634  0.32998197  0.18373784  1
  Sc  Sc37  1  0.82605695  0.32002351  0.18612289  1
  Sc  Sc38  1  0.33243365  0.31354581  0.97992490  1
  Sc  Sc39  1  0.83000399  0.33554913  0.98708027  1
  Sc  Sc40  1  0.32668765  0.33270556  0.48693572  1
  Sc  Sc41  1  0.83207016  0.34804751  0.48099362  1
  Sc  Sc42  1  0.17226561  0.66388882  0.02186268  1
  Sc  Sc43  1  0.67689915  0.65735197  0.01818203  1
  Sc  Sc44  1  0.17826862  0.69682741  0.51840803  1
  Sc  Sc45  1  0.66934563  0.66613237  0.52201686  1
  Sc  Sc46  1  0.66516379  0.66074253  0.31252698  1
  Sc  Sc47  1  0.16440175  0.65629318  0.81308373  1
  Ta  Ta48  1  0.99859264  0.00581507  0.65009634  1
  Ta  Ta49  1  0.50445298  0.98862721  0.64634573  1
  Ta  Ta50  1  0.00418730  0.02014801  0.14601185  1
  Ta  Ta51  1  0.49803866  0.98961112  0.14949898  1
  Ta  Ta52  1  0.16341973  0.67683873  0.31078761  1
  Ta  Ta53  1  0.66231126  0.64703665  0.81082333  1
  Si  Si54  1  0.14452507  0.99918356  0.24935582  1
  Si  Si55  1  0.64674376  0.99458541  0.25339623  1
  Si  Si56  1  0.35385788  0.70245091  0.25278376  1
  Si  Si57  1  0.99868497  0.29543383  0.25344609  1
  Si  Si58  1  0.14684226  0.29599773  0.75202216  1
  Si  Si59  1  0.64347146  0.28705248  0.75008439  1
  Si  Si60  1  0.49896205  0.70321903  0.75415103  1
  Si  Si61  1  0.85415702  0.00512223  0.75465414  1
  Si  Si62  1  0.18394664  0.03545381  0.58553721  1
  Si  Si63  1  0.68636262  0.03389934  0.58153729  1
  Si  Si64  1  0.33260643  0.62938676  0.58482892  1
  Si  Si65  1  0.83520157  0.63212755  0.58634001  1
  Si  Si66  1  0.33475054  0.03988161  0.08658954  1
  Si  Si67  1  0.83255588  0.03640893  0.08227282  1
  Si  Si68  1  0.18781291  0.33601288  0.08222606  1
  Si  Si69  1  0.68403405  0.33214147  0.08560347  1
  Si  Si70  1  0.81868382  0.66731858  0.91378007  1
  Si  Si71  1  0.51626663  0.37146480  0.91878322  1
  Si  Si72  1  0.31693642  0.96948352  0.41379763  1
  Si  Si73  1  0.66515661  0.37393126  0.41753462  1
  Si  Si74  1  0.01820284  0.66319734  0.41842980  1
  S  S75  1  0.85701800  0.71402039  0.24996211  1
  S  S76  1  0.50166832  0.29159957  0.24833206  1
  S  S77  1  0.00267739  0.71393531  0.74886052  1
  S  S78  1  0.35569383  -0.00063322  0.74940203  1
  S  S79  1  0.47888805  0.32790307  0.58432318  1
  S  S80  1  0.97799427  0.32670343  0.58413681  1
  S  S81  1  0.47767680  0.62804451  0.08378969  1
  S  S82  1  0.98037716  0.63206856  0.08460125  1
  S  S83  1  0.31248099  0.66577483  0.91583259  1
  S  S84  1  0.02060533  0.37784809  0.91718735  1
  S  S85  1  0.16505936  0.95239822  0.91669981  1
  S  S86  1  0.66576203  0.95387192  0.91627247  1
  S  S87  1  0.81278099  0.95756884  0.41595278  1
  S  S88  1  0.16623138  0.37814746  0.41605248  1
  S  S89  1  0.52120973  0.66245945  0.41724230  1
  O  O90  1  0.10399415  0.03122135  0.30753388  1
  O  O91  1  0.60349492  0.01683102  0.31192632  1
  O  O92  1  0.41097793  0.80238912  0.30782513  1
  O  O93  1  0.90341334  0.78895356  0.30525121  1
  O  O94  1  0.48895234  0.18908520  0.30156488  1
  O  O95  1  0.98093158  0.16488977  0.30649283  1
  O  O96  1  0.09850355  0.17617167  0.80665118  1
  O  O97  1  0.60245075  0.17229519  0.80761618  1
  O  O98  1  0.48137528  0.79938294  0.80685304  1
  O  O99  1  0.98764756  0.79324718  0.80029653  1
  O  O100  1  0.40507313  0.02056868  0.80318840  1
  O  O101  1  0.90822958  0.02130547  0.81238459  1
  O  O102  1  0.39845086  0.97186150  0.69749221  1
  O  O103  1  0.90384567  0.97142949  0.69811498  1
  O  O104  1  0.08546448  0.19589125  0.69302955  1
  O  O105  1  0.58406013  0.19475010  0.69184219  1
  O  O106  1  0.01342250  0.82020355  0.69456720  1
  O  O107  1  0.51560843  0.83424324  0.69533008  1
  O  O108  1  0.40114477  0.83193250  0.19511383  1
  O  O109  1  0.90268014  0.82781658  0.19901125  1
  O  O110  1  0.01521340  0.19663661  0.19513515  1
  O  O111  1  0.51122691  0.20219010  0.19521072  1
  O  O112  1  0.08474556  0.97386354  0.19146564  1
  O  O113  1  0.58362839  0.97792581  0.19562943  1
  O  O114  1  0.43658018  0.34854271  0.63566912  1
  O  O115  1  0.93863789  0.35277024  0.63647303  1
  O  O116  1  0.24631923  0.13363090  0.63911867  1
  O  O117  1  0.73737081  0.11713755  0.64248869  1
  O  O118  1  0.31967292  0.51826294  0.64386322  1
  O  O119  1  0.82359456  0.51778467  0.64417937  1
  O  O120  1  0.43853222  0.52353213  0.13627422  1
  O  O121  1  0.94219715  0.52930335  0.13730865  1
  O  O122  1  0.31984166  0.12098763  0.14599682  1
  O  O123  1  0.82092649  0.12671226  0.14058519  1
  O  O124  1  0.23608254  0.35897657  0.14460153  1
  O  O125  1  0.74678544  0.36048523  0.13918285  1
  O  O126  1  0.23064991  0.28933565  0.02842943  1
  O  O127  1  0.72064498  0.28876975  0.02525869  1
  O  O128  1  0.42576418  0.55556942  0.03082984  1
  O  O129  1  0.92816010  0.55425773  0.03148485  1
  O  O130  1  0.36008691  0.17049428  0.03099670  1
  O  O131  1  0.85122217  0.15142660  0.02239532  1
  O  O132  1  0.21842020  0.15061721  0.52472203  1
  O  O133  1  0.72681887  0.15830937  0.52469358  1
  O  O134  1  0.35170120  0.54450163  0.52763305  1
  O  O135  1  0.85899113  0.56005936  0.52711328  1
  O  O136  1  0.43041430  0.30514800  0.52902845  1
  O  O137  1  0.92623330  0.29630038  0.53105177  1
  O  O138  1  0.26817325  0.68616991  0.96736581  1
  O  O139  1  0.77335943  0.70425137  0.96920125  1
  O  O140  1  0.07114412  0.46624632  0.96951315  1
  O  O141  1  0.57532485  0.45934770  0.97656540  1
  O  O142  1  0.15761432  0.85677184  0.97154332  1
  O  O143  1  0.65604818  0.85646577  0.97018095  1
  O  O144  1  0.27193493  0.85407004  0.47100029  1
  O  O145  1  0.76935081  0.84719671  0.46715233  1
  O  O146  1  0.15649505  0.45615199  0.46994713  1
  O  O147  1  0.65121539  0.46168069  0.47603191  1
  O  O148  1  0.07649938  0.69601375  0.47630514  1
  O  O149  1  0.57456619  0.68749222  0.46927307  1
  O  O150  1  0.07435781  0.65237522  0.36083386  1
  O  O151  1  0.56253495  0.64258274  0.36358946  1
  O  O152  1  0.25224276  0.86048258  0.35668359  1
  O  O153  1  0.76214529  0.88226978  0.36123760  1
  O  O154  1  0.17364881  0.47996408  0.36247434  1
  O  O155  1  0.67993997  0.50312279  0.36248015  1
  O  O156  1  0.06314899  0.47806338  0.86357947  1
  O  O157  1  0.57382112  0.49602189  0.86092541  1
  O  O158  1  0.17244584  0.86070884  0.86503776  1
  O  O159  1  0.67528637  0.86708666  0.86323879  1
  O  O160  1  0.26296062  0.65082639  0.86132016  1
  O  O161  1  0.75358529  0.64596578  0.85619484  1
  O  O162  1  0.00823150  0.83485329  0.41098316  1
  O  O163  1  0.51280226  0.81740141  0.41319523  1
  O  O164  1  0.41272252  0.00154288  0.40865832  1
  O  O165  1  0.89696300  0.96687383  0.41197631  1
  O  O166  1  0.09034518  0.20238830  0.41161049  1
  O  O167  1  0.58171678  0.18286946  0.41353545  1
  O  O168  1  0.01226063  0.20495001  0.91469930  1
  O  O169  1  0.51408725  0.18845953  0.91114485  1
  O  O170  1  0.08836087  0.97000525  0.91238280  1
  O  O171  1  0.59174051  0.98118300  0.91126096  1
  O  O172  1  0.39771723  0.82207478  0.91302634  1
  O  O173  1  0.91122570  0.83924459  0.90961837  1
  O  O174  1  0.48955313  0.17321768  0.59014248  1
  O  O175  1  0.98778187  0.16922404  0.59146683  1
  O  O176  1  0.08849247  0.02480496  0.59502633  1
  O  O177  1  0.59167388  0.03023315  0.59098090  1
  O  O178  1  0.41550429  0.82574468  0.59527849  1
  O  O179  1  0.92224063  0.82249109  0.59507014  1
  O  O180  1  0.48798703  0.80559341  0.09147980  1
  O  O181  1  0.99046628  0.80780574  0.09055599  1
  O  O182  1  0.42136443  0.02190944  0.09476110  1
  O  O183  1  0.91550892  0.00633943  0.09493463  1
  O  O184  1  0.09154814  0.15336260  0.09071957  1
  O  O185  1  0.58873397  0.15202957  0.09489131  1
  O  O186  1  0.34619373  0.14963713  0.74226931  1
  O  O187  1  0.83995246  0.16651520  0.74621615  1
  O  O188  1  0.24238272  0.32430000  0.74704868  1
  O  O189  1  0.74082972  0.32164237  0.74553594  1
  O  O190  1  0.41872068  0.51721684  0.74405028  1
  O  O191  1  0.92615652  0.54404369  0.74144695  1
  O  O192  1  0.33894991  0.51187837  0.24561815  1
  O  O193  1  0.84754634  0.54431211  0.24306324  1
  O  O194  1  0.42488950  0.30687425  0.24099116  1
  O  O195  1  0.91799333  0.31987439  0.24386469  1
  O  O196  1  0.24131286  0.16027578  0.24539591  1
  O  O197  1  0.74168850  0.16173929  0.24685784  1
  O  O198  1  0.31901697  0.51055737  0.92125424  1
  O  O199  1  0.81601134  0.48366668  0.91748957  1
  O  O200  1  0.42406343  0.35998438  0.91772200  1
  O  O201  1  0.93322704  0.35473354  0.91939131  1
  O  O202  1  0.24351634  0.12406637  0.91873612  1
  O  O203  1  0.74601610  0.12514022  0.91792035  1
  O  O204  1  0.32018697  0.15561561  0.41627816  1
  O  O205  1  0.82119250  0.12771891  0.42283171  1
  O  O206  1  0.24361124  0.35941485  0.41756787  1
  O  O207  1  0.75171116  0.35636578  0.41980091  1
  O  O208  1  0.43685363  0.50455087  0.42183676  1
  O  O209  1  0.92401998  0.49473911  0.41741072  1
  O  O210  1  0.16809300  0.49136530  0.07586094  1
  O  O211  1  0.66116440  0.48461494  0.08246956  1
  O  O212  1  0.06871308  0.66233456  0.07673233  1
  O  O213  1  0.56538356  0.65819699  0.07799873  1
  O  O214  1  0.24678500  0.85766012  0.07667455  1
  O  O215  1  0.74288926  0.85477584  0.07729216  1
  O  O216  1  0.16075596  0.83682625  0.58295593  1
  O  O217  1  0.66648330  0.84029282  0.57624230  1
  O  O218  1  0.24300339  0.63128680  0.57810390  1
  O  O219  1  0.74760809  0.63974408  0.57988560  1
  O  O220  1  0.06554545  0.47215691  0.57812244  1
  O  O221  1  0.56673249  0.47743952  0.58009849  1
  O  O222  1  0.15349043  0.82477472  0.25375868  1
  O  O223  1  0.65938911  0.82632450  0.25264121  1
  O  O224  1  0.25855757  0.68922033  0.25732334  1
  O  O225  1  0.77260860  0.70654068  0.25209981  1
  O  O226  1  0.09182820  0.47231735  0.25905421  1
  O  O227  1  0.57940209  0.46039675  0.25107537  1
  O  O228  1  0.15768820  0.48932135  0.75463448  1
  O  O229  1  0.65300536  0.47997956  0.75417408  1
  O  O230  1  0.08066481  0.70225899  0.75363562  1
  O  O231  1  0.59201544  0.71131321  0.75964949  1
  O  O232  1  0.27068317  0.83910732  0.75408680  1
  O  O233  1  0.75909101  0.82758004  0.75762497  1
