# generated using pymatgen
data_NbSn(PO4)3
_symmetry_space_group_name_H-M   'P 1'
_cell_length_a   8.77868113
_cell_length_b   8.77868086
_cell_length_c   22.70072228
_cell_angle_alpha   90.00000000
_cell_angle_beta   90.00000000
_cell_angle_gamma   120.00000107
_symmetry_Int_Tables_number   1
_chemical_formula_structural   NbSn(PO4)3
_chemical_formula_sum   'Nb6 Sn6 P18 O72'
_cell_volume   1515.05653016
_cell_formula_units_Z   6
loop_
 _symmetry_equiv_pos_site_id
 _symmetry_equiv_pos_as_xyz
  1  'x, y, z'
loop_
 _atom_site_type_symbol
 _atom_site_label
 _atom_site_symmetry_multiplicity
 _atom_site_fract_x
 _atom_site_fract_y
 _atom_site_fract_z
 _atom_site_occupancy
  Nb  Nb0  1  0.00000000  -0.00000000  0.64161484  1
  Nb  Nb1  1  0.00000000  -0.00000000  0.14161484  1
  Nb  Nb2  1  0.66666700  0.33333300  0.97494784  1
  Nb  Nb3  1  0.66666700  0.33333300  0.47494784  1
  Nb  Nb4  1  0.33333300  0.66666700  0.30828184  1
  Nb  Nb5  1  0.33333300  0.66666700  0.80828184  1
  Sn  Sn6  1  0.00000000  -0.00000000  0.35429189  1
  Sn  Sn7  1  0.00000000  -0.00000000  0.85429189  1
  Sn  Sn8  1  0.66666700  0.33333300  0.68762489  1
  Sn  Sn9  1  0.66666700  0.33333300  0.18762489  1
  Sn  Sn10  1  0.33333300  0.66666700  0.02095889  1
  Sn  Sn11  1  0.33333300  0.66666700  0.52095889  1
  P  P12  1  0.28818824  0.00369707  0.24976679  1
  P  P13  1  0.71550884  0.71181176  0.24976679  1
  P  P14  1  0.99630293  0.28449116  0.24976679  1
  P  P15  1  0.28818824  0.28449116  0.74976679  1
  P  P16  1  0.99630293  0.71181176  0.74976679  1
  P  P17  1  0.71550884  0.00369707  0.74976679  1
  P  P18  1  0.95485524  0.33703007  0.58309979  1
  P  P19  1  0.38217584  0.04514476  0.58309979  1
  P  P20  1  0.66296993  0.61782416  0.58309979  1
  P  P21  1  0.95485524  0.61782416  0.08309979  1
  P  P22  1  0.66296993  0.04514476  0.08309979  1
  P  P23  1  0.38217584  0.33703007  0.08309979  1
  P  P24  1  0.62152124  0.67036407  0.91643379  1
  P  P25  1  0.04884184  0.37847876  0.91643379  1
  P  P26  1  0.32963593  0.95115816  0.91643379  1
  P  P27  1  0.62152124  0.95115816  0.41643379  1
  P  P28  1  0.32963593  0.37847876  0.41643379  1
  P  P29  1  0.04884184  0.67036407  0.41643379  1
  O  O30  1  0.20958542  0.03409212  0.30548783  1
  O  O31  1  0.82450670  0.79041458  0.30548783  1
  O  O32  1  0.96590788  0.17549330  0.30548783  1
  O  O33  1  0.20958542  0.17549330  0.80548783  1
  O  O34  1  0.96590788  0.79041458  0.80548783  1
  O  O35  1  0.82450670  0.03409212  0.80548783  1
  O  O36  1  0.79964352  0.96829522  0.69503943  1
  O  O37  1  0.16865170  0.20035648  0.69503943  1
  O  O38  1  0.03170478  0.83134830  0.69503943  1
  O  O39  1  0.79964352  0.83134830  0.19503943  1
  O  O40  1  0.03170478  0.20035648  0.19503943  1
  O  O41  1  0.16865170  0.96829522  0.19503943  1
  O  O42  1  0.87625242  0.36742512  0.63882083  1
  O  O43  1  0.49117370  0.12374758  0.63882083  1
  O  O44  1  0.63257488  0.50882630  0.63882083  1
  O  O45  1  0.87625242  0.50882630  0.13882083  1
  O  O46  1  0.63257488  0.12374758  0.13882083  1
  O  O47  1  0.49117370  0.36742512  0.13882083  1
  O  O48  1  0.46631052  0.30162822  0.02837243  1
  O  O49  1  0.83531870  0.53368948  0.02837243  1
  O  O50  1  0.69837178  0.16468130  0.02837243  1
  O  O51  1  0.46631052  0.16468130  0.52837243  1
  O  O52  1  0.69837178  0.53368948  0.52837243  1
  O  O53  1  0.83531870  0.30162822  0.52837243  1
  O  O54  1  0.54291842  0.70075912  0.97215483  1
  O  O55  1  0.15783970  0.45708158  0.97215483  1
  O  O56  1  0.29924088  0.84216030  0.97215483  1
  O  O57  1  0.54291842  0.84216030  0.47215483  1
  O  O58  1  0.29924088  0.45708158  0.47215483  1
  O  O59  1  0.15783970  0.70075912  0.47215483  1
  O  O60  1  0.13297652  0.63496222  0.36170643  1
  O  O61  1  0.50198470  0.86702348  0.36170643  1
  O  O62  1  0.36503778  0.49801530  0.36170643  1
  O  O63  1  0.13297652  0.49801530  0.86170643  1
  O  O64  1  0.36503778  0.86702348  0.86170643  1
  O  O65  1  0.50198470  0.63496222  0.86170643  1
  O  O66  1  0.02211086  0.82754527  0.40817181  1
  O  O67  1  0.80543441  0.97788914  0.40817181  1
  O  O68  1  0.17245473  0.19456559  0.40817181  1
  O  O69  1  0.02211086  0.19456559  0.90817181  1
  O  O70  1  0.17245473  0.97788914  0.90817181  1
  O  O71  1  0.80543441  0.82754527  0.90817181  1
  O  O72  1  0.97205053  0.16945935  0.59289855  1
  O  O73  1  0.19740881  0.02794947  0.59289855  1
  O  O74  1  0.83054065  0.80259119  0.59289855  1
  O  O75  1  0.97205053  0.80259119  0.09289855  1
  O  O76  1  0.83054065  0.02794947  0.09289855  1
  O  O77  1  0.19740881  0.16945935  0.09289855  1
  O  O78  1  0.68877786  0.16087827  0.74150481  1
  O  O79  1  0.47210141  0.31122214  0.74150481  1
  O  O80  1  0.83912173  0.52789859  0.74150481  1
  O  O81  1  0.68877786  0.52789859  0.24150481  1
  O  O82  1  0.83912173  0.31122214  0.24150481  1
  O  O83  1  0.47210141  0.16087827  0.24150481  1
  O  O84  1  0.63871753  0.50279235  0.92623155  1
  O  O85  1  0.86407581  0.36128247  0.92623155  1
  O  O86  1  0.49720765  0.13592419  0.92623155  1
  O  O87  1  0.63871753  0.13592419  0.42623155  1
  O  O88  1  0.49720765  0.36128247  0.42623155  1
  O  O89  1  0.86407581  0.50279235  0.42623155  1
  O  O90  1  0.35544386  0.49421227  0.07483881  1
  O  O91  1  0.13876741  0.64455614  0.07483881  1
  O  O92  1  0.50578773  0.86123259  0.07483881  1
  O  O93  1  0.35544386  0.86123259  0.57483881  1
  O  O94  1  0.50578773  0.64455614  0.57483881  1
  O  O95  1  0.13876741  0.49421227  0.57483881  1
  O  O96  1  0.30538353  0.83612635  0.25956555  1
  O  O97  1  0.53074181  0.69461647  0.25956555  1
  O  O98  1  0.16387365  0.46925819  0.25956555  1
  O  O99  1  0.30538353  0.46925819  0.75956555  1
  O  O100  1  0.16387365  0.69461647  0.75956555  1
  O  O101  1  0.53074181  0.83612635  0.75956555  1
