# generated using pymatgen
data_Na14Hf4Al4Si9(SO16)3
_symmetry_space_group_name_H-M   'P 1'
_cell_length_a   17.93444353
_cell_length_b   8.96489845
_cell_length_c   22.25647097
_cell_angle_alpha   90.19586146
_cell_angle_beta   90.28986049
_cell_angle_gamma   119.99717179
_symmetry_Int_Tables_number   1
_chemical_formula_structural   Na14Hf4Al4Si9(SO16)3
_chemical_formula_sum   'Na42 Hf12 Al12 Si27 S9 O144'
_cell_volume   3098.96585929
_cell_formula_units_Z   3
loop_
 _symmetry_equiv_pos_site_id
 _symmetry_equiv_pos_as_xyz
  1  'x, y, z'
loop_
 _atom_site_type_symbol
 _atom_site_label
 _atom_site_symmetry_multiplicity
 _atom_site_fract_x
 _atom_site_fract_y
 _atom_site_fract_z
 _atom_site_occupancy
  Na  Na0  1  0.81764164  0.00355964  0.25326611  1
  Na  Na1  1  0.17612872  0.35881053  0.25246410  1
  Na  Na2  1  0.68979087  0.36936689  0.25244552  1
  Na  Na3  1  0.99637557  0.63007342  0.24652014  1
  Na  Na4  1  0.50465952  0.64743382  0.25128940  1
  Na  Na5  1  0.31746433  0.63078801  0.75086882  1
  Na  Na6  1  0.00250620  0.35913115  0.74686522  1
  Na  Na7  1  0.49733933  0.36353974  0.74422117  1
  Na  Na8  1  0.18857914  0.01045403  0.74956827  1
  Na  Na9  1  0.67995867  0.99719262  0.74941527  1
  Na  Na10  1  0.14851100  0.32668198  0.58297399  1
  Na  Na11  1  0.65048372  0.33360307  0.58256400  1
  Na  Na12  1  0.33484656  0.98170526  0.58543074  1
  Na  Na13  1  0.83272163  0.96850023  0.58241399  1
  Na  Na14  1  0.14385686  0.96313487  0.08174236  1
  Na  Na15  1  0.65119767  0.97292095  0.08141210  1
  Na  Na16  1  0.33284430  0.68843476  0.08245920  1
  Na  Na17  1  0.83482603  0.68832354  0.08541994  1
  Na  Na18  1  0.48308311  0.67862162  0.91491542  1
  Na  Na19  1  0.98376732  0.67417212  0.92012929  1
  Na  Na20  1  0.34683969  0.02423177  0.91081969  1
  Na  Na21  1  0.84610980  0.02515748  0.91261964  1
  Na  Na22  1  0.16924483  0.29751036  0.91191728  1
  Na  Na23  1  0.66857669  0.29738464  0.91261879  1
  Na  Na24  1  0.48579164  0.29733499  0.42279552  1
  Na  Na25  1  0.98033329  0.28655198  0.41851171  1
  Na  Na26  1  0.16800119  0.03953430  0.41517405  1
  Na  Na27  1  0.67307659  0.04540256  0.41648225  1
  Na  Na28  1  0.34639317  0.66650764  0.41531265  1
  Na  Na29  1  0.84595621  0.66637913  0.41795472  1
  Na  Na30  1  0.99846855  0.99734392  0.49942709  1
  Na  Na31  1  0.50427926  0.01057287  0.50001946  1
  Na  Na32  1  0.00220831  0.99616417  0.99886547  1
  Na  Na33  1  0.50323822  0.99967606  0.99590872  1
  Na  Na34  1  0.33043406  0.33401118  0.82863116  1
  Na  Na35  1  0.82653274  0.33029527  0.83287947  1
  Na  Na36  1  0.32688244  0.32138890  0.33701714  1
  Na  Na37  1  0.82997628  0.32637479  0.33296877  1
  Na  Na38  1  0.15974715  0.65570896  0.16903294  1
  Na  Na39  1  0.66532442  0.66101396  0.16958449  1
  Na  Na40  1  0.16350183  0.66750188  0.66849285  1
  Na  Na41  1  0.66487850  0.66446157  0.66526050  1
  Hf  Hf42  1  0.99920913  0.00573242  0.64335113  1
  Hf  Hf43  1  0.50250446  0.00500027  0.64868775  1
  Hf  Hf44  1  0.00149512  0.99953390  0.14946534  1
  Hf  Hf45  1  0.50461405  0.99202980  0.14739041  1
  Hf  Hf46  1  0.82925448  0.32831645  0.68457269  1
  Hf  Hf47  1  0.33107421  0.34194414  0.18824088  1
  Hf  Hf48  1  0.16255889  0.66436132  0.01794911  1
  Hf  Hf49  1  0.66756874  0.66680895  0.01895484  1
  Hf  Hf50  1  0.16658267  0.66795698  0.51940524  1
  Hf  Hf51  1  0.66779208  0.65968309  0.52097404  1
  Hf  Hf52  1  0.17463458  0.67324643  0.31241040  1
  Hf  Hf53  1  0.67574404  0.67778692  0.81084142  1
  Al  Al54  1  0.99694903  0.01401235  0.34742766  1
  Al  Al55  1  0.50386024  0.00291425  0.35212347  1
  Al  Al56  1  0.00329200  0.99920966  0.84913623  1
  Al  Al57  1  0.49785593  0.98206553  0.84572138  1
  Al  Al58  1  0.33605413  0.31763534  0.69079870  1
  Al  Al59  1  0.83605495  0.35392328  0.19109357  1
  Al  Al60  1  0.32331721  0.34774215  0.97892196  1
  Al  Al61  1  0.82306973  0.34659983  0.98236487  1
  Al  Al62  1  0.32379587  0.30085626  0.48268090  1
  Al  Al63  1  0.82549406  0.32001890  0.48472659  1
  Al  Al64  1  0.68658588  0.68877537  0.31651965  1
  Al  Al65  1  0.18531697  0.68287930  0.81456348  1
  Si  Si66  1  0.14384326  0.99870977  0.25431420  1
  Si  Si67  1  0.64850460  0.99583461  0.25486259  1
  Si  Si68  1  0.35963585  0.72142352  0.25264260  1
  Si  Si69  1  0.85435323  0.71036713  0.25305781  1
  Si  Si70  1  0.99508109  0.29090094  0.25014936  1
  Si  Si71  1  0.14672609  0.29785248  0.75360044  1
  Si  Si72  1  0.64427436  0.28738052  0.75504399  1
  Si  Si73  1  0.49514033  0.69980371  0.75016802  1
  Si  Si74  1  0.35455658  0.99857869  0.75295810  1
  Si  Si75  1  0.86041429  0.00470696  0.75327500  1
  Si  Si76  1  0.47182625  0.33678806  0.58327782  1
  Si  Si77  1  0.97718510  0.34142027  0.58097720  1
  Si  Si78  1  0.19293377  0.05101890  0.58543080  1
  Si  Si79  1  0.68482379  0.03873473  0.58005496  1
  Si  Si80  1  0.83683427  0.61834736  0.57853374  1
  Si  Si81  1  0.47705864  0.61334157  0.08031564  1
  Si  Si82  1  0.97231398  0.60742593  0.08335750  1
  Si  Si83  1  0.18508248  0.33192078  0.08036932  1
  Si  Si84  1  0.69152459  0.33442312  0.08555677  1
  Si  Si85  1  0.31670545  0.67251732  0.91577782  1
  Si  Si86  1  0.81985587  0.67102206  0.91679204  1
  Si  Si87  1  0.16760866  0.96312590  0.91304711  1
  Si  Si88  1  0.66812092  0.97343233  0.91797037  1
  Si  Si89  1  0.32001337  0.96873981  0.41693891  1
  Si  Si90  1  0.81728747  0.96745975  0.41584665  1
  Si  Si91  1  0.16793863  0.36269051  0.41742755  1
  Si  Si92  1  0.66600814  0.37091176  0.41173987  1
  S  S93  1  0.50020504  0.28846618  0.25260304  1
  S  S94  1  0.00132779  0.71152456  0.75340909  1
  S  S95  1  0.33484233  0.61645750  0.58180179  1
  S  S96  1  0.33508446  0.04901076  0.08116555  1
  S  S97  1  0.83499150  0.05330110  0.08209431  1
  S  S98  1  0.01916390  0.37193097  0.91404301  1
  S  S99  1  0.51747733  0.36952196  0.91695108  1
  S  S100  1  0.01850563  0.66621405  0.41560181  1
  S  S101  1  0.52055082  0.66760156  0.41421009  1
  O  O102  1  0.09719477  0.03337314  0.31076176  1
  O  O103  1  0.59882917  0.03274359  0.30881479  1
  O  O104  1  0.42206604  0.81237671  0.30993014  1
  O  O105  1  0.91934002  0.80469106  0.30960201  1
  O  O106  1  0.48666122  0.18233802  0.30584738  1
  O  O107  1  0.97956197  0.17174144  0.30904068  1
  O  O108  1  0.10022068  0.16675733  0.81031234  1
  O  O109  1  0.59592562  0.16164638  0.81194457  1
  O  O110  1  0.47863349  0.78519391  0.81016393  1
  O  O111  1  0.98807719  0.79277246  0.80741891  1
  O  O112  1  0.41776885  0.03227799  0.81079134  1
  O  O113  1  0.92099889  0.03087744  0.81180826  1
  O  O114  1  0.39203939  0.95580837  0.69206042  1
  O  O115  1  0.89912098  0.97196933  0.69208958  1
  O  O116  1  0.08578590  0.21295344  0.69351443  1
  O  O117  1  0.58785023  0.20953781  0.69259412  1
  O  O118  1  0.01610168  0.81861001  0.69935896  1
  O  O119  1  0.51833734  0.83179554  0.69412496  1
  O  O120  1  0.39744286  0.82683121  0.19002044  1
  O  O121  1  0.89196703  0.82725141  0.19143570  1
  O  O122  1  0.01909793  0.20672134  0.19321468  1
  O  O123  1  0.51384440  0.20934736  0.19774881  1
  O  O124  1  0.08880845  0.96702189  0.19108514  1
  O  O125  1  0.58677850  0.95769655  0.19323597  1
  O  O126  1  0.42808464  0.35730156  0.64429315  1
  O  O127  1  0.93842205  0.36690197  0.64422859  1
  O  O128  1  0.25275611  0.14100314  0.64459068  1
  O  O129  1  0.74424482  0.11992838  0.64169740  1
  O  O130  1  0.31969925  0.51323990  0.63700977  1
  O  O131  1  0.81629465  0.50033652  0.63894389  1
  O  O132  1  0.43676673  0.50663769  0.14251684  1
  O  O133  1  0.92889644  0.49918873  0.14393581  1
  O  O134  1  0.32074411  0.12628229  0.13546088  1
  O  O135  1  0.81984632  0.12644781  0.13694399  1
  O  O136  1  0.24586734  0.36553353  0.14082653  1
  O  O137  1  0.75122938  0.36122601  0.14433917  1
  O  O138  1  0.23205848  0.29785399  0.02358054  1
  O  O139  1  0.72956153  0.29516815  0.02479619  1
  O  O140  1  0.41382564  0.51732374  0.02262451  1
  O  O141  1  0.91478400  0.51705684  0.02263599  1
  O  O142  1  0.34616510  0.15145269  0.02646211  1
  O  O143  1  0.84521578  0.15202960  0.02727599  1
  O  O144  1  0.23059632  0.16405658  0.52434676  1
  O  O145  1  0.72998221  0.16323179  0.52275365  1
  O  O146  1  0.34494823  0.53729211  0.52717351  1
  O  O147  1  0.84729764  0.52535658  0.51931879  1
  O  O148  1  0.41362984  0.30900086  0.52262134  1
  O  O149  1  0.91574306  0.30721951  0.52266965  1
  O  O150  1  0.27174341  0.70352734  0.97559705  1
  O  O151  1  0.77589611  0.70801436  0.97613140  1
  O  O152  1  0.07584764  0.45354933  0.96854102  1
  O  O153  1  0.57541817  0.45556538  0.97001182  1
  O  O154  1  0.14750447  0.84211930  0.97372585  1
  O  O155  1  0.64855010  0.84260812  0.97563239  1
  O  O156  1  0.27570520  0.84293392  0.47543470  1
  O  O157  1  0.77131648  0.84007540  0.47333335  1
  O  O158  1  0.14900305  0.45630694  0.47457875  1
  O  O159  1  0.64321044  0.44911725  0.47138121  1
  O  O160  1  0.07629511  0.69716434  0.46895988  1
  O  O161  1  0.57561217  0.69916241  0.46773253  1
  O  O162  1  0.05901013  0.63661529  0.36226973  1
  O  O163  1  0.55914148  0.63490821  0.36014561  1
  O  O164  1  0.25055967  0.87816593  0.36192361  1
  O  O165  1  0.75214825  0.87937787  0.35813117  1
  O  O166  1  0.18626312  0.49054433  0.35952860  1
  O  O167  1  0.67899152  0.50127429  0.35530282  1
  O  O168  1  0.05932826  0.48452840  0.86147974  1
  O  O169  1  0.55546877  0.47996157  0.86363351  1
  O  O170  1  0.18145363  0.85865124  0.85752588  1
  O  O171  1  0.68589390  0.88003961  0.86080066  1
  O  O172  1  0.25003347  0.62735849  0.85971113  1
  O  O173  1  0.74938919  0.62177892  0.86288002  1
  O  O174  1  0.01198183  0.82301732  0.41142506  1
  O  O175  1  0.51239685  0.82575502  0.40929151  1
  O  O176  1  0.41333264  0.98125922  0.40619887  1
  O  O177  1  0.91085779  0.97634772  0.40760981  1
  O  O178  1  0.08120270  0.17314288  0.40940517  1
  O  O179  1  0.57959956  0.17681010  0.40489339  1
  O  O180  1  0.01304254  0.20076100  0.91061997  1
  O  O181  1  0.51055132  0.20049103  0.91281805  1
  O  O182  1  0.08156778  0.98418799  0.90637021  1
  O  O183  1  0.58138989  0.98969770  0.91046185  1
  O  O184  1  0.41090346  0.84673279  0.90902604  1
  O  O185  1  0.91395123  0.84470459  0.90703624  1
  O  O186  1  0.48069959  0.15881356  0.58608665  1
  O  O187  1  0.98696221  0.16631508  0.58521760  1
  O  O188  1  0.09734808  0.02943539  0.59014023  1
  O  O189  1  0.59140676  0.02877346  0.58517567  1
  O  O190  1  0.40909471  0.79465978  0.58623588  1
  O  O191  1  0.91802255  0.81426994  0.58533689  1
  O  O192  1  0.48327539  0.80633878  0.08481535  1
  O  O193  1  0.98232089  0.80387329  0.08549062  1
  O  O194  1  0.41030704  0.02423971  0.08719758  1
  O  O195  1  0.90939681  0.02299753  0.08617886  1
  O  O196  1  0.09173988  0.15685544  0.08467096  1
  O  O197  1  0.59397119  0.16416801  0.08968305  1
  O  O198  1  0.34446393  0.17024303  0.74721045  1
  O  O199  1  0.85139954  0.17936055  0.75037310  1
  O  O200  1  0.24208273  0.31812415  0.74332938  1
  O  O201  1  0.73890606  0.30203476  0.74977890  1
  O  O202  1  0.40885302  0.51073248  0.74156624  1
  O  O203  1  0.92417696  0.53753278  0.74845015  1
  O  O204  1  0.35153543  0.52724400  0.24819884  1
  O  O205  1  0.84420185  0.51867449  0.24624854  1
  O  O206  1  0.42252679  0.30773637  0.24604921  1
  O  O207  1  0.90888981  0.30679197  0.24091638  1
  O  O208  1  0.23983633  0.17196910  0.24636919  1
  O  O209  1  0.74208765  0.16638932  0.24231990  1
  O  O210  1  0.32509584  0.49732226  0.92222245  1
  O  O211  1  0.82798487  0.49720382  0.92369502  1
  O  O212  1  0.43102091  0.35189908  0.92537067  1
  O  O213  1  0.93334203  0.35227972  0.92258031  1
  O  O214  1  0.25722493  0.15224193  0.92426020  1
  O  O215  1  0.75878764  0.15902506  0.92754625  1
  O  O216  1  0.32798538  0.15895448  0.42308740  1
  O  O217  1  0.82664484  0.15966494  0.42328517  1
  O  O218  1  0.25862370  0.35811689  0.42659007  1
  O  O219  1  0.75404117  0.35827134  0.41991003  1
  O  O220  1  0.43309312  0.51496961  0.42126351  1
  O  O221  1  0.93384322  0.51065717  0.42164214  1
  O  O222  1  0.18305694  0.51155004  0.07665135  1
  O  O223  1  0.68458597  0.51050626  0.07851846  1
  O  O224  1  0.07380392  0.65000611  0.07851829  1
  O  O225  1  0.57688449  0.65511709  0.07797888  1
  O  O226  1  0.25583296  0.87356108  0.07729224  1
  O  O227  1  0.75524633  0.87368474  0.07780055  1
  O  O228  1  0.18604834  0.86073289  0.57834810  1
  O  O229  1  0.67936038  0.85334857  0.57568916  1
  O  O230  1  0.25506120  0.63619240  0.57766428  1
  O  O231  1  0.74962547  0.63872363  0.57667448  1
  O  O232  1  0.07750572  0.50254957  0.57805010  1
  O  O233  1  0.57102976  0.49636386  0.57811986  1
  O  O234  1  0.14893413  0.82305918  0.25695645  1
  O  O235  1  0.65236617  0.81496165  0.26153766  1
  O  O236  1  0.26010105  0.68036705  0.25392092  1
  O  O237  1  0.75685342  0.68639780  0.25764587  1
  O  O238  1  0.08090039  0.48210242  0.25763106  1
  O  O239  1  0.57668976  0.46403724  0.25724662  1
  O  O240  1  0.15225905  0.48873284  0.76261979  1
  O  O241  1  0.64809666  0.47255000  0.75852411  1
  O  O242  1  0.07845615  0.69097153  0.75951140  1
  O  O243  1  0.58072620  0.67997302  0.75869472  1
  O  O244  1  0.25703310  0.82793017  0.75799049  1
  O  O245  1  0.76118859  0.84121367  0.75470960  1
