# generated using pymatgen
data_Na3Nb5ZnSi3(PO6)6
_symmetry_space_group_name_H-M   'P 1'
_cell_length_a   8.82556968
_cell_length_b   8.82556939
_cell_length_c   22.85394364
_cell_angle_alpha   90.00000000
_cell_angle_beta   90.00000000
_cell_angle_gamma   120.00000109
_symmetry_Int_Tables_number   1
_chemical_formula_structural   Na3Nb5ZnSi3(PO6)6
_chemical_formula_sum   'Na6 Nb10 Zn2 Si6 P12 O72'
_cell_volume   1541.61973384
_cell_formula_units_Z   2
loop_
 _symmetry_equiv_pos_site_id
 _symmetry_equiv_pos_as_xyz
  1  'x, y, z'
loop_
 _atom_site_type_symbol
 _atom_site_label
 _atom_site_symmetry_multiplicity
 _atom_site_fract_x
 _atom_site_fract_y
 _atom_site_fract_z
 _atom_site_occupancy
  Na  Na0  1  -0.00000000  -0.00000000  0.49932993  1
  Na  Na1  1  -0.00000000  -0.00000000  0.99932993  1
  Na  Na2  1  0.66666700  0.33333300  0.82787660  1
  Na  Na3  1  0.66666700  0.33333300  0.32787660  1
  Na  Na4  1  0.33333300  0.66666700  0.16669544  1
  Na  Na5  1  0.33333300  0.66666700  0.66669544  1
  Nb  Nb6  1  -0.00000000  -0.00000000  0.35536747  1
  Nb  Nb7  1  -0.00000000  -0.00000000  0.85536747  1
  Nb  Nb8  1  -0.00000000  -0.00000000  0.64591915  1
  Nb  Nb9  1  -0.00000000  -0.00000000  0.14591915  1
  Nb  Nb10  1  0.66666700  0.33333300  0.97785862  1
  Nb  Nb11  1  0.66666700  0.33333300  0.47785862  1
  Nb  Nb12  1  0.33333300  0.66666700  0.01988930  1
  Nb  Nb13  1  0.33333300  0.66666700  0.51988930  1
  Nb  Nb14  1  0.33333300  0.66666700  0.31266501  1
  Nb  Nb15  1  0.33333300  0.66666700  0.81266501  1
  Zn  Zn16  1  0.66666700  0.33333300  0.68532547  1
  Zn  Zn17  1  0.66666700  0.33333300  0.18532547  1
  Si  Si18  1  0.62022690  0.66642996  0.91648712  1
  Si  Si19  1  0.04620206  0.37977310  0.91648712  1
  Si  Si20  1  0.33357004  0.95379794  0.91648712  1
  Si  Si21  1  0.62022690  0.95379794  0.41648712  1
  Si  Si22  1  0.33357004  0.37977310  0.41648712  1
  Si  Si23  1  0.04620206  0.66642996  0.41648712  1
  P  P24  1  0.29204700  0.00336366  0.24992064  1
  P  P25  1  0.71131666  0.70795300  0.24992064  1
  P  P26  1  0.99663634  0.28868334  0.24992064  1
  P  P27  1  0.29204700  0.28868334  0.74992064  1
  P  P28  1  0.99663634  0.70795300  0.74992064  1
  P  P29  1  0.71131666  0.00336366  0.74992064  1
  P  P30  1  0.95382825  0.33476033  0.58519049  1
  P  P31  1  0.38093309  0.04617175  0.58519049  1
  P  P32  1  0.66523967  0.61906691  0.58519049  1
  P  P33  1  0.95382825  0.61906691  0.08519049  1
  P  P34  1  0.66523967  0.04617175  0.08519049  1
  P  P35  1  0.38093309  0.33476033  0.08519049  1
  O  O36  1  0.19486306  0.02051747  0.30403128  1
  O  O37  1  0.82565441  0.80513694  0.30403128  1
  O  O38  1  0.97948253  0.17434559  0.30403128  1
  O  O39  1  0.19486306  0.17434559  0.80403128  1
  O  O40  1  0.97948253  0.80513694  0.80403128  1
  O  O41  1  0.82565441  0.02051747  0.80403128  1
  O  O42  1  0.80246964  0.97264901  0.69535080  1
  O  O43  1  0.17017937  0.19753036  0.69535080  1
  O  O44  1  0.02735099  0.82982063  0.69535080  1
  O  O45  1  0.80246964  0.82982063  0.19535080  1
  O  O46  1  0.02735099  0.19753036  0.19535080  1
  O  O47  1  0.17017937  0.97264901  0.19535080  1
  O  O48  1  0.87956756  0.36743900  0.63948358  1
  O  O49  1  0.48787244  0.12043244  0.63948358  1
  O  O50  1  0.63256100  0.51212756  0.63948358  1
  O  O51  1  0.87956756  0.51212756  0.13948358  1
  O  O52  1  0.63256100  0.12043244  0.13948358  1
  O  O53  1  0.48787244  0.36743900  0.13948358  1
  O  O54  1  0.46248568  0.30372182  0.02911170  1
  O  O55  1  0.84123715  0.53751432  0.02911170  1
  O  O56  1  0.69627818  0.15876285  0.02911170  1
  O  O57  1  0.46248568  0.15876285  0.52911170  1
  O  O58  1  0.69627818  0.53751432  0.52911170  1
  O  O59  1  0.84123715  0.30372182  0.52911170  1
  O  O60  1  0.53137985  0.69882285  0.97391565  1
  O  O61  1  0.16744200  0.46862015  0.97391565  1
  O  O62  1  0.30117715  0.83255800  0.97391565  1
  O  O63  1  0.53137985  0.83255800  0.47391565  1
  O  O64  1  0.30117715  0.46862015  0.47391565  1
  O  O65  1  0.16744200  0.69882285  0.47391565  1
  O  O66  1  0.13571759  0.63383471  0.35884527  1
  O  O67  1  0.49811612  0.86428241  0.35884527  1
  O  O68  1  0.36616529  0.50188388  0.35884527  1
  O  O69  1  0.13571759  0.50188388  0.85884527  1
  O  O70  1  0.36616529  0.86428241  0.85884527  1
  O  O71  1  0.49811612  0.63383471  0.85884527  1
  O  O72  1  0.02439813  0.83712230  0.40775734  1
  O  O73  1  0.81272417  0.97560187  0.40775734  1
  O  O74  1  0.16287770  0.18727583  0.40775734  1
  O  O75  1  0.02439813  0.18727583  0.90775734  1
  O  O76  1  0.16287770  0.97560187  0.90775734  1
  O  O77  1  0.81272417  0.83712230  0.90775734  1
  O  O78  1  0.97616706  0.16815117  0.59083478  1
  O  O79  1  0.19198412  0.02383294  0.59083478  1
  O  O80  1  0.83184883  0.80801588  0.59083478  1
  O  O81  1  0.97616706  0.80801588  0.09083478  1
  O  O82  1  0.83184883  0.02383294  0.09083478  1
  O  O83  1  0.19198412  0.16815117  0.09083478  1
  O  O84  1  0.69379569  0.16373832  0.74530064  1
  O  O85  1  0.46994363  0.30620431  0.74530064  1
  O  O86  1  0.83626168  0.53005637  0.74530064  1
  O  O87  1  0.69379569  0.53005637  0.24530064  1
  O  O88  1  0.83626168  0.30620431  0.24530064  1
  O  O89  1  0.46994363  0.16373832  0.24530064  1
  O  O90  1  0.64137425  0.49534265  0.92604834  1
  O  O91  1  0.85396940  0.35862575  0.92604834  1
  O  O92  1  0.50465735  0.14603060  0.92604834  1
  O  O93  1  0.64137425  0.14603060  0.42604834  1
  O  O94  1  0.50465735  0.35862575  0.42604834  1
  O  O95  1  0.85396940  0.49534265  0.42604834  1
  O  O96  1  0.35211205  0.49331908  0.07504992  1
  O  O97  1  0.14120603  0.64788795  0.07504992  1
  O  O98  1  0.50668092  0.85879397  0.07504992  1
  O  O99  1  0.35211205  0.85879397  0.57504992  1
  O  O100  1  0.50668092  0.64788795  0.57504992  1
  O  O101  1  0.14120603  0.49331908  0.57504992  1
  O  O102  1  0.30014657  0.83144747  0.25569678  1
  O  O103  1  0.53129991  0.69985343  0.25569678  1
  O  O104  1  0.16855253  0.46870009  0.25569678  1
  O  O105  1  0.30014657  0.46870009  0.75569678  1
  O  O106  1  0.16855253  0.69985343  0.75569678  1
  O  O107  1  0.53129991  0.83144747  0.75569678  1
